data_PCOD8034826
_publ_section_title
;
Structure prediction by ZEFSAII (Michael W. Deem and Ramdas Pophale) SiO2 
 PCOD8034826
Probable space group: P -1
;
_chemical_formula_sum "Si O2"
_cell_formula_units_Z 16
_cell_length_a 10.654749
_cell_length_b 13.924822
_cell_length_c 14.862798
_cell_angle_alpha 120.055071
_cell_angle_beta 141.208762
_cell_angle_gamma 42.386984
_cell_volume 916.553408
_symmetry_space_group_name_H-M "P -1"
_symmetry_group_IT_number 2
_symmetry_cell_setting 'triclinic'
loop_
_space_group_symop_operation_xyz
x,y,z
-x,-y,-z
loop_
_atom_site_type_symbol
_atom_site_label
_atom_site_fract_x
_atom_site_fract_y
_atom_site_fract_z
Si Si1 0.516221 0.279697 0.120812
Si Si2 0.914305 0.571475 0.581766
Si Si3 0.610576 0.312966 0.720896
Si Si4 0.589724 0.530494 0.692394
Si Si5 0.307230 0.149182 0.859740
Si Si6 0.615292 0.460376 0.145462
Si Si7 0.849207 0.964610 0.137648
Si Si8 0.088894 0.615038 0.369400
O O1 0.416841 0.357745 0.197896
O O2 0.556962 0.364104 0.112887
O O3 0.790673 0.113303 0.202980
O O4 0.290489 0.275291 0.959863
O O5 0.598368 0.690746 0.451904
O O6 0.002369 0.452544 0.650707
O O7 0.000000 0.500000 0.500000
O O8 0.068524 0.630272 0.720714
O O9 0.684654 0.390323 0.735669
O O10 0.510860 0.393365 0.799261
O O11 0.869383 0.147135 0.804630
O O12 0.292682 0.620298 0.536683
O O13 0.782894 0.481379 0.694459
O O14 0.154729 0.108930 0.809705
O O15 0.163362 0.218433 0.716426
O O16 0.616762 0.006786 0.958540
O O17 0.500000 0.500000 0.000000
#
# Coordination Sequence:
#
# PCOD8034826 Si02
#       8
#     2   2   2   2   2   2   2   2
#     4   9  19  34  52  76 105 136 167 216 257 307
#     4   9  19  33  54  76  99 140 173 209 259 296
#     4   9  17  35  57  71 104 140 169 208 262 319
#     4   9  18  30  53  82 101 127 171 220 268 293
#     4   9  18  32  54  74 110 138 165 206 264 327
#     4  10  19  34  53  79 103 130 180 224 245 286
#     4   9  18  35  53  75 106 145 165 198 274 319
#     4  10  17  31  54  80 103 130 175 216 252 318
#
# _framework density 17.456702
#
# number of rings (size 3 to 8) (size 9 to 14) (size 15 to 20)
#    0.750    2.000    1.250    1.500    0.000    0.500 
#    2.250    1.875    2.750    0.000    0.000    0.000 
#    0.000    0.000    0.000    0.000    0.000    0.000 
#
# Total GULP energy -198209.422484 kJ/mol
# GULP energy per Si atom -12388.088905 kJ/mol
# Density = 1.741697 g / cm^3
# Si number density = 17.456702 Si / 1000 Ang^3
#
#
#
# Elastic Constant Matrix: (Units=GPa)
#
#
# Indices 1 2 3 4 5 6 
#
# 1 78.0527 19.8198 18.4303 2.2729 -12.0389 9.4073
# 2 19.8198 66.2715 21.8618 -7.6062 -0.5402 -0.3426
# 3 18.4303 21.8618 71.2651 -7.0975 -7.1011 4.8155
# 4 2.2729 -7.6062 -7.0975 30.9849 0.8017 4.6834
# 5 -12.0389 -0.5402 -7.1011 0.8017 27.0800 -3.7274
# 6 9.4073 -0.3426 4.8155 4.6834 -3.7274 19.3367
#
#
#
# Elastic Compliance Matrix: (Units=1/GPa)
#
#
# Indices 1 2 3 4 5 6 
#
# 1 0.016040 -0.004331 -0.002052 -0.001986 0.005770 -0.005776
# 2 -0.004331 0.018275 -0.004543 0.003493 -0.002549 0.002225
# 3 -0.002052 -0.004543 0.016810 0.003347 0.002819 -0.003536
# 4 -0.001986 0.003493 0.003347 0.035432 -0.002197 -0.008811
# 5 0.005770 -0.002549 0.002819 -0.002197 0.040916 0.004865
# 6 -0.005776 0.002225 -0.003536 -0.008811 0.004865 0.058517
#
#
# Mechanical properties :
#
#
# Convention : Reuss Voigt Hill
#
# Bulk Modulus (GPa) = 34.16096 37.31257 35.73676
# Shear Modulus (GPa) = 22.97809 25.84547 24.41178
#
# Velocity S-wave (km/s) = 3.63201 3.85196 3.74360
# Velocity P-wave (km/s) = 6.09919 6.41905 6.26116
#
# Compressibility (1/GPa) = 0.02927318
#
# Stress axis : x y z
#
# Youngs Moduli (GPa) = 62.34353 54.72013 59.49009
#
# Poissons Ratio (x) = 0.23699 0.12209
# Poissons Ratio (y) = 0.27000 0.27024
# Poissons Ratio (z) = 0.12794 0.24857
#
# Static dielectric constant tensor:
#      x y z
#    x 3.328940 0.069540 0.156720 
#    y 0.069540 3.017960 -0.134160 
#    z 0.156720 -0.134160 3.465620 
# 
# 
# High freq. dielectric constant tensor:
#      x y z
#    x 1.671050 0.008900 0.007210 
#    y 0.008900 1.640390 -0.015070 
#    z 0.007210 -0.015070 1.679020 
# 
# From -- ./inp_files/520956.got.cif
#   From: 2010.06.25/outbox.cif.g09.slc.cpg/sg2_261_cif.got.tgz:520956.got - 2010.06.27 13:26:56.
