data_PCOD8034673
_publ_section_title
;
Structure prediction by ZEFSAII (Michael W. Deem and Ramdas Pophale) SiO2 
 PCOD8034673
Probable space group: P -1
;
_chemical_formula_sum "Si O2"
_cell_formula_units_Z 12
_cell_length_a 9.384148
_cell_length_b 9.140442
_cell_length_c 12.907272
_cell_angle_alpha 36.893761
_cell_angle_beta 91.239400
_cell_angle_gamma 111.854864
_cell_volume 535.825368
_symmetry_space_group_name_H-M "P -1"
_symmetry_group_IT_number 2
_symmetry_cell_setting 'triclinic'
loop_
_space_group_symop_operation_xyz
x,y,z
-x,-y,-z
loop_
_atom_site_type_symbol
_atom_site_label
_atom_site_fract_x
_atom_site_fract_y
_atom_site_fract_z
Si Si1 0.843465 0.055951 0.665962
Si Si2 0.786563 0.335734 0.691679
Si Si3 0.536170 0.508422 0.615880
Si Si4 0.684469 0.065899 0.441514
Si Si5 0.161268 0.015347 0.948393
Si Si6 0.069700 0.358561 0.011561
O O1 0.741234 0.116428 0.716265
O O2 0.764209 0.023843 0.569792
O O3 0.050544 0.324433 0.525420
O O4 0.823902 0.747953 0.866313
O O5 0.619156 0.324440 0.730374
O O6 0.835536 0.233440 0.850665
O O7 0.500000 0.500000 0.500000
O O8 0.351574 0.338945 0.772712
O O9 0.665107 0.841259 0.478939
O O10 0.500000 0.000000 0.500000
O O11 0.808417 0.407848 0.209416
O O12 0.111454 0.928020 0.877452
O O13 0.000000 0.000000 0.000000
O O14 0.000000 0.500000 0.000000
#
# Coordination Sequence:
#
# PCOD8034673 Si02
#       6
#     2   2   2   2   2   2
#     4  11  25  45  75 104 141 192 235 289 360 417
#     4  11  24  45  74 105 142 185 242 292 347 424
#     4  12  27  46  71 107 143 185 239 295 350 419
#     4  12  27  47  71 104 146 183 234 297 352 418
#     4  12  24  47  74 103 141 192 236 284 358 424
#     4  12  26  45  73 104 140 186 237 290 352 423
#
# _framework density 22.395356
#
# number of rings (size 3 to 8) (size 9 to 14) (size 15 to 20)
#    0.000    0.333    3.333    5.500    4.667    2.000 
#    3.000    0.000    0.000    0.000    0.000    0.000 
#    0.000    0.000    0.000    0.000    0.000    0.000 
#
# Total GULP energy -148802.164430 kJ/mol
# GULP energy per Si atom -12400.180369 kJ/mol
# Density = 2.234438 g / cm^3
# Si number density = 22.395356 Si / 1000 Ang^3
#
#
#
# Elastic Constant Matrix: (Units=GPa)
#
#
# Indices 1 2 3 4 5 6 
#
# 1 156.9583 45.0569 51.1780 4.8876 18.7402 -4.0746
# 2 45.0569 140.4606 29.4383 11.0580 22.7212 -1.0611
# 3 51.1780 29.4383 116.8904 10.6892 25.6017 13.2128
# 4 4.8876 11.0580 10.6892 36.8919 8.2785 5.5990
# 5 18.7402 22.7212 25.6017 8.2785 47.9545 3.1483
# 6 -4.0746 -1.0611 13.2128 5.5990 3.1483 35.6151
#
#
#
# Elastic Compliance Matrix: (Units=1/GPa)
#
#
# Indices 1 2 3 4 5 6 
#
# 1 0.008058 -0.001799 -0.003159 0.000250 -0.000789 0.002071
# 2 -0.001799 0.008407 -0.000683 -0.001599 -0.002691 0.000787
# 3 -0.003159 -0.000683 0.011595 -0.001176 -0.004158 -0.004131
# 4 0.000250 -0.001599 -0.001176 0.029269 -0.003510 -0.003874
# 5 -0.000789 -0.002691 -0.004158 -0.003510 0.025283 -0.000311
# 6 0.002071 0.000787 -0.004131 -0.003874 -0.000311 0.030507
#
#
# Mechanical properties :
#
#
# Convention : Reuss Voigt Hill
#
# Bulk Modulus (GPa) = 59.60097 73.96175 66.78136
# Shear Modulus (GPa) = 38.46345 43.33470 40.89908
#
# Velocity S-wave (km/s) = 4.14874 4.40362 4.27808
# Velocity P-wave (km/s) = 7.04416 7.67809 7.36795
#
# Compressibility (1/GPa) = 0.01677825
#
# Stress axis : x y z
#
# Youngs Moduli (GPa) = 124.10402 118.95071 86.24179
#
# Poissons Ratio (x) = 0.21400 0.27243
# Poissons Ratio (y) = 0.22327 0.05889
# Poissons Ratio (z) = 0.39203 0.08122
#
# Static dielectric constant tensor:
#      x y z
#    x 4.182390 0.022670 -1.157050 
#    y 0.022670 4.157720 -0.225560 
#    z -1.157050 -0.225560 8.444320 
# 
# 
# High freq. dielectric constant tensor:
#      x y z
#    x 1.895360 -0.004130 0.006520 
#    y -0.004130 1.888210 0.007040 
#    z 0.006520 0.007040 1.890390 
# 
# From -- ./inp_files/148621.got.cif
#   From: 2010.06.25/outbox.cif.g09.slc.cpg/sg2_75_cif.got.tgz:148621.got - 2010.06.27 13:26:56.
