data_PCOD8034974
_publ_section_title
;
Structure prediction by ZEFSAII (Michael W. Deem and Ramdas Pophale) SiO2 
 PCOD8034974
Probable space group: P -1
;
_chemical_formula_sum "Si O2"
_cell_formula_units_Z 14
_cell_length_a 11.465762
_cell_length_b 9.286611
_cell_length_c 14.741410
_cell_angle_alpha 51.930000
_cell_angle_beta 138.067909
_cell_angle_gamma 146.618836
_cell_volume 577.071310
_symmetry_space_group_name_H-M "P -1"
_symmetry_group_IT_number 2
_symmetry_cell_setting 'triclinic'
loop_
_space_group_symop_operation_xyz
x,y,z
-x,-y,-z
loop_
_atom_site_type_symbol
_atom_site_label
_atom_site_fract_x
_atom_site_fract_y
_atom_site_fract_z
Si Si1 0.284458 0.078767 0.505224
Si Si2 0.170673 0.656152 0.728900
Si Si3 0.649779 0.796635 0.017626
Si Si4 0.288666 0.273291 0.104861
Si Si5 0.259152 0.932829 0.357511
Si Si6 0.931383 0.656973 0.897297
Si Si7 0.808375 0.596311 0.654576
O O1 0.176318 0.989296 0.375003
O O2 0.585272 0.323451 0.580722
O O3 0.176480 0.178830 0.453891
O O4 0.209820 0.836329 0.604601
O O5 0.428628 0.756753 0.866425
O O6 0.062164 0.680612 0.744617
O O7 0.973360 0.361060 0.694029
O O8 0.839328 0.878739 0.009194
O O9 0.554911 0.543679 0.111647
O O10 0.814951 0.036848 0.089033
O O11 0.341175 0.133492 0.248126
O O12 0.191532 0.374389 0.066293
O O13 0.500000 0.000000 0.500000
O O14 0.754786 0.555160 0.747879
O O15 0.000000 0.500000 0.000000
#
# Coordination Sequence:
#
# PCOD8034974 Si02
#       7
#     2   2   2   2   2   2   2
#     4  11  24  47  69 106 142 185 237 288 352 416
#     4  12  26  44  74 105 141 184 239 289 349 420
#     4  11  28  46  73 105 138 186 237 291 351 413
#     4  11  27  48  73 102 142 183 240 291 349 415
#     4  12  25  46  74 102 141 185 231 294 349 411
#     4  12  26  46  74 102 145 186 234 288 352 419
#     4  11  25  45  70 104 143 191 227 291 354 413
#
# _framework density 24.260432999999999
#
# number of rings (size 3 to 8) (size 9 to 14) (size 15 to 20)
#    0.000    0.571    2.857    3.857    8.000    4.571 
#    0.000    0.000    0.000    0.000    0.000    0.000 
#    0.000    0.000    0.000    0.000    0.000    0.000 
#
# Total GULP energy -173573.292511 kJ/mol
# GULP energy per Si atom -12398.092322 kJ/mol
# Density = 2.420522 g / cm^3
# Si number density = 24.260433 Si / 1000 Ang^3
#
#
#
# Elastic Constant Matrix: (Units=GPa)
#
#
# Indices 1 2 3 4 5 6 
#
# 1 125.7824 32.5909 29.8181 -4.9860 -5.7506 -8.7365
# 2 32.5909 121.2679 52.0419 -35.4836 -21.2910 -19.4711
# 3 29.8181 52.0419 101.5991 -15.3105 -6.2830 -2.1518
# 4 -4.9860 -35.4836 -15.3105 49.1627 -1.6051 -6.8752
# 5 -5.7506 -21.2910 -6.2830 -1.6051 42.8640 -4.3317
# 6 -8.7365 -19.4711 -2.1518 -6.8752 -4.3317 25.6092
#
#
#
# Elastic Compliance Matrix: (Units=1/GPa)
#
#
# Indices 1 2 3 4 5 6 
#
# 1 0.008877 -0.001274 -0.001937 -0.000345 0.000451 0.001880
# 2 -0.001274 0.023231 -0.007477 0.018060 0.013344 0.023705
# 3 -0.001937 -0.007477 0.013590 -0.002328 -0.002704 -0.006286
# 4 -0.000345 0.018060 -0.002328 0.036570 0.012514 0.025352
# 5 0.000451 0.013344 -0.002704 0.012514 0.031995 0.018844
# 6 0.001880 0.023705 -0.006286 0.025352 0.018844 0.067179
#
#
# Mechanical properties :
#
#
# Convention : Reuss Voigt Hill
#
# Bulk Modulus (GPa) = 41.11520 64.17235 52.64378
# Shear Modulus (GPa) = 23.70535 39.14041 31.42288
#
# Velocity S-wave (km/s) = 3.12928 4.02100 3.60284
# Velocity P-wave (km/s) = 5.48095 6.93302 6.24930
#
# Compressibility (1/GPa) = 0.02432190
#
# Stress axis : x y z
#
# Youngs Moduli (GPa) = 112.64883 43.04679 73.58570
#
# Poissons Ratio (x) = 0.05486 0.14252
# Poissons Ratio (y) = 0.14355 0.55016
# Poissons Ratio (z) = 0.21818 0.32184
#
# Static dielectric constant tensor:
#      x y z
#    x 4.733420 -0.171820 -0.225110 
#    y -0.171820 4.585350 -0.010300 
#    z -0.225110 -0.010300 4.489230 
# 
# 
# High freq. dielectric constant tensor:
#      x y z
#    x 1.978630 -0.018260 -0.001500 
#    y -0.018260 1.982860 -0.004150 
#    z -0.001500 -0.004150 1.963950 
# 
# From -- ./inp_files/124352.got.cif
#   From: 2010.06.25/outbox.cif.g09.slc.cpg/sg2_63_cif.got.tgz:124352.got - 2010.06.27 13:26:56.
