data_PCOD8034323
_publ_section_title
;
Structure prediction by ZEFSAII (Michael W. Deem and Ramdas Pophale) SiO2 
 PCOD8034323
Probable space group: P -1
;
_chemical_formula_sum "Si O2"
_cell_formula_units_Z 16
_cell_length_a 12.383189
_cell_length_b 5.268938
_cell_length_c 11.865653
_cell_angle_alpha 113.307897
_cell_angle_beta 96.406817
_cell_angle_gamma 91.072547
_cell_volume 704.890273
_symmetry_space_group_name_H-M "P -1"
_symmetry_group_IT_number 2
_symmetry_cell_setting 'triclinic'
loop_
_space_group_symop_operation_xyz
x,y,z
-x,-y,-z
loop_
_atom_site_type_symbol
_atom_site_label
_atom_site_fract_x
_atom_site_fract_y
_atom_site_fract_z
Si Si1 0.288838 0.385301 0.269212
Si Si2 0.015055 0.055643 0.881408
Si Si3 0.835596 0.322456 0.510685
Si Si4 0.661068 0.916271 0.332860
Si Si5 0.470477 0.559409 0.633077
Si Si6 0.204374 0.758817 0.129768
Si Si7 0.204772 0.378829 0.866847
Si Si8 0.951850 0.486672 0.327814
O O1 0.249871 0.487570 0.404839
O O2 0.418449 0.370562 0.274258
O O3 0.258632 0.606085 0.211080
O O4 0.235762 0.083496 0.185934
O O5 0.993655 0.794539 0.749643
O O6 0.141283 0.163198 0.905404
O O7 0.927222 0.277895 0.876274
O O8 0.000000 0.000000 0.000000
O O9 0.869921 0.455162 0.418028
O O10 0.945524 0.294152 0.592403
O O11 0.772815 0.022019 0.429322
O O12 0.588801 0.720462 0.372971
O O13 0.688554 0.740858 0.194680
O O14 0.602343 0.178845 0.324578
O O15 0.500000 0.500000 0.500000
O O16 0.241223 0.646412 0.992438
O O17 0.116524 0.421476 0.768351
#
# Coordination Sequence:
#
# PCOD8034323 Si02
#       8
#     2   2   2   2   2   2   2   2
#     4  12  27  47  75 107 146 186 246 313 369 428
#     4  12  23  43  71 106 148 198 249 288 348 442
#     4  11  24  44  71 110 151 190 234 299 374 437
#     4  12  27  48  77 106 145 193 244 309 375 440
#     4  12  27  50  76 110 142 187 251 311 377 439
#     4  12  27  46  73 109 147 196 243 298 357 439
#     4  12  27  45  73 103 152 198 244 288 369 435
#     4  11  24  45  66 113 154 194 237 296 357 454
#
# _framework density 22.69857
#
# number of rings (size 3 to 8) (size 9 to 14) (size 15 to 20)
#    0.000    0.250    5.000    3.750    1.750    0.500 
#    2.250    3.750    0.000    0.000    0.000    0.000 
#    0.000    0.000    0.000    0.000    0.000    0.000 
#
# Total GULP energy -198421.627985 kJ/mol
# GULP energy per Si atom -12401.351749 kJ/mol
# Density = 2.264691 g / cm^3
# Si number density = 22.698570 Si / 1000 Ang^3
#
#
#
# Elastic Constant Matrix: (Units=GPa)
#
#
# Indices 1 2 3 4 5 6 
#
# 1 107.8486 31.3446 44.0886 -3.1022 -9.5396 3.0024
# 2 31.3446 86.9919 27.5140 -1.1368 -3.3358 0.9940
# 3 44.0886 27.5140 131.3827 4.8701 -23.2851 -1.4078
# 4 -3.1022 -1.1368 4.8701 38.6777 -6.3534 0.1412
# 5 -9.5396 -3.3358 -23.2851 -6.3534 33.2637 1.0951
# 6 3.0024 0.9940 -1.4078 0.1412 1.0951 47.5005
#
#
#
# Elastic Compliance Matrix: (Units=1/GPa)
#
#
# Indices 1 2 3 4 5 6 
#
# 1 0.011614 -0.003133 -0.003100 0.001421 0.001144 -0.000791
# 2 -0.003133 0.013187 -0.001868 0.000235 -0.000835 -0.000115
# 3 -0.003100 -0.001868 0.010110 -0.000614 0.005871 0.000401
# 4 0.001421 0.000235 -0.000614 0.026900 0.005150 -0.000312
# 5 0.001144 -0.000835 0.005871 0.005150 0.035424 -0.000713
# 6 -0.000791 -0.000115 0.000401 -0.000312 -0.000713 0.021134
#
#
# Mechanical properties :
#
#
# Convention : Reuss Voigt Hill
#
# Bulk Modulus (GPa) = 53.44733 59.12417 56.28575
# Shear Modulus (GPa) = 35.50940 38.77341 37.14141
#
# Velocity S-wave (km/s) = 3.95953 4.13751 4.04949
# Velocity P-wave (km/s) = 6.67094 6.99495 6.83487
#
# Compressibility (1/GPa) = 0.01871001
#
# Stress axis : x y z
#
# Youngs Moduli (GPa) = 86.10296 75.82975 98.90928
#
# Poissons Ratio (x) = 0.23757 0.30658
# Poissons Ratio (y) = 0.26975 0.18480
# Poissons Ratio (z) = 0.26689 0.14168
#
# Static dielectric constant tensor:
#      x y z
#    x 4.671560 -0.007210 -0.129530 
#    y -0.007210 3.997070 0.170150 
#    z -0.129530 0.170150 4.454460 
# 
# 
# High freq. dielectric constant tensor:
#      x y z
#    x 1.898930 0.001330 -0.009160 
#    y 0.001330 1.892030 0.002960 
#    z -0.009160 0.002960 1.910770 
# 
# From -- ./inp_files/411280.got.cif
#   From: 2010.06.25/outbox.cif.g09.slc.cpg/sg2_206_cif.got.tgz:411280.got - 2010.06.27 13:26:56.
