data_PCOD8034705
_publ_section_title
;
Structure prediction by ZEFSAII (Michael W. Deem and Ramdas Pophale) SiO2 
 PCOD8034705
Probable space group: P -1
;
_chemical_formula_sum "Si O2"
_cell_formula_units_Z 12
_cell_length_a 9.347980
_cell_length_b 8.873901
_cell_length_c 9.178896
_cell_angle_alpha 116.484976
_cell_angle_beta 117.423385
_cell_angle_gamma 53.093935
_cell_volume 524.811163
_symmetry_space_group_name_H-M "P -1"
_symmetry_group_IT_number 2
_symmetry_cell_setting 'triclinic'
loop_
_space_group_symop_operation_xyz
x,y,z
-x,-y,-z
loop_
_atom_site_type_symbol
_atom_site_label
_atom_site_fract_x
_atom_site_fract_y
_atom_site_fract_z
Si Si1 0.063753 0.327193 0.345680
Si Si2 0.659656 0.997699 0.169138
Si Si3 0.688109 0.393088 0.738571
Si Si4 0.577597 0.689571 0.573982
Si Si5 0.984219 0.001481 0.167797
Si Si6 0.845185 0.562617 0.077340
O O1 0.282575 0.236484 0.376459
O O2 0.000000 0.500000 0.500000
O O3 0.033957 0.158030 0.324716
O O4 0.935833 0.405559 0.177855
O O5 0.779169 0.779474 0.195535
O O6 0.583652 0.147549 0.331417
O O7 0.778444 0.055710 0.143359
O O8 0.500000 0.000000 0.000000
O O9 0.696275 0.485058 0.626379
O O10 0.516889 0.349419 0.629670
O O11 0.669243 0.547004 0.921605
O O12 0.879062 0.200133 0.777869
O O13 0.000000 0.000000 0.000000
O O14 0.000000 0.500000 0.000000
#
# Coordination Sequence:
#
# PCOD8034705 Si02
#       6
#     2   2   2   2   2   2
#     4  12  28  47  70 104 146 182 226 300 363 405
#     4  12  24  42  76 101 134 187 239 282 335 422
#     4  11  24  45  75  95 142 187 236 285 340 431
#     4  11  26  48  68 105 138 182 245 286 340 423
#     4  12  25  45  69 104 141 183 230 289 358 410
#     4  12  21  47  72  98 138 193 232 273 350 432
#
# _framework density 22.865368
#
# number of rings (size 3 to 8) (size 9 to 14) (size 15 to 20)
#    0.000    0.333    6.667    1.000    7.000    1.333 
#    3.000    2.500    0.000    0.000    0.000    0.000 
#    0.000    0.000    0.000    0.000    0.000    0.000 
#
# Total GULP energy -148794.151790 kJ/mol
# GULP energy per Si atom -12399.512649 kJ/mol
# Density = 2.281333 g / cm^3
# Si number density = 22.865368 Si / 1000 Ang^3
#
#
#
# Elastic Constant Matrix: (Units=GPa)
#
#
# Indices 1 2 3 4 5 6 
#
# 1 166.5858 49.7390 52.6751 12.8970 25.1694 1.9284
# 2 49.7390 123.4237 31.3657 18.9686 -0.3812 5.1590
# 3 52.6751 31.3657 124.8846 10.9383 25.3733 -3.7351
# 4 12.8970 18.9686 10.9383 38.9489 -2.1116 9.7568
# 5 25.1694 -0.3812 25.3733 -2.1116 41.7440 9.2543
# 6 1.9284 5.1590 -3.7351 9.7568 9.2543 29.4833
#
#
#
# Elastic Compliance Matrix: (Units=1/GPa)
#
#
# Indices 1 2 3 4 5 6 
#
# 1 0.008084 -0.002674 -0.001682 -0.001532 -0.004305 0.001585
# 2 -0.002674 0.010189 -0.001860 -0.002923 0.003098 -0.001848
# 3 -0.001682 -0.001860 0.011056 -0.003311 -0.007029 0.005138
# 4 -0.001532 -0.002923 -0.003311 0.032129 0.007361 -0.012751
# 5 -0.004305 0.003098 -0.007029 0.007361 0.034415 -0.014389
# 6 0.001585 -0.001848 0.005138 -0.012751 -0.014389 0.043524
#
#
# Mechanical properties :
#
#
# Convention : Reuss Voigt Hill
#
# Bulk Modulus (GPa) = 59.18279 75.82818 67.50549
# Shear Modulus (GPa) = 31.75419 40.77617 36.26518
#
# Velocity S-wave (km/s) = 3.73063 4.22751 3.98682
# Velocity P-wave (km/s) = 6.67054 7.55408 7.12602
#
# Compressibility (1/GPa) = 0.01689680
#
# Stress axis : x y z
#
# Youngs Moduli (GPa) = 123.70143 98.14883 90.45204
#
# Poissons Ratio (x) = 0.26249 0.15211
# Poissons Ratio (y) = 0.33083 0.16820
# Poissons Ratio (z) = 0.20803 0.18251
#
# Static dielectric constant tensor:
#      x y z
#    x 4.430340 0.344610 0.434560 
#    y 0.344610 4.558500 0.285630 
#    z 0.434560 0.285630 4.244660 
# 
# 
# High freq. dielectric constant tensor:
#      x y z
#    x 1.892530 0.010980 0.031540 
#    y 0.010980 1.915940 0.005330 
#    z 0.031540 0.005330 1.905450 
# 
# From -- ./inp_files/154529.got.cif
#   From: 2010.06.25/outbox.cif.g09.slc.cpg/sg2_78_cif.got.tgz:154529.got - 2010.06.27 13:26:56.
