data_PCOD8034913
_publ_section_title
;
Structure prediction by ZEFSAII (Michael W. Deem and Ramdas Pophale) SiO2 
 PCOD8034913
Probable space group: P -1
;
_chemical_formula_sum "Si O2"
_cell_formula_units_Z 16
_cell_length_a 9.490999
_cell_length_b 30.401702
_cell_length_c 9.247593
_cell_angle_alpha 34.632085
_cell_angle_beta 117.085659
_cell_angle_gamma 143.274144
_cell_volume 724.902177
_symmetry_space_group_name_H-M "P -1"
_symmetry_group_IT_number 2
_symmetry_cell_setting 'triclinic'
loop_
_space_group_symop_operation_xyz
x,y,z
-x,-y,-z
loop_
_atom_site_type_symbol
_atom_site_label
_atom_site_fract_x
_atom_site_fract_y
_atom_site_fract_z
Si Si1 0.292082 0.628941 0.875509
Si Si2 0.640126 0.626269 0.133893
Si Si3 0.331535 0.112208 0.860612
Si Si4 0.789910 0.624181 0.902602
Si Si5 0.051888 0.896141 0.787724
Si Si6 0.387066 0.955583 0.227687
Si Si7 0.703770 0.866011 0.894092
Si Si8 0.875213 0.383749 0.859700
O O1 0.503562 0.774494 0.495313
O O2 0.408355 0.592292 0.061511
O O3 0.225121 0.634029 0.983761
O O4 0.000000 0.500000 0.000000
O O5 0.500000 0.500000 0.500000
O O6 0.769585 0.652138 0.974518
O O7 0.881780 0.758188 0.000343
O O8 0.419970 0.181844 0.870873
O O9 0.373783 0.037106 0.066534
O O10 0.000000 0.000000 0.000000
O O11 0.063768 0.783232 0.530283
O O12 0.500000 0.500000 0.000000
O O13 0.860084 0.565213 0.129804
O O14 0.864004 0.850656 0.963363
O O15 0.377369 0.998456 0.698093
O O16 0.063247 0.969940 0.475371
O O17 0.500000 0.000000 0.000000
O O18 0.419603 0.771915 0.924234
O O19 0.000000 0.500000 0.500000
#
# Coordination Sequence:
#
# PCOD8034913 Si02
#       8
#     2   2   2   2   2   2   2   2
#     4  12  26  49  71 106 148 195 246 301 366 444
#     4  12  28  48  74 109 150 197 242 304 376 435
#     4  12  27  45  75 107 148 191 247 305 374 441
#     4  12  28  48  72 108 152 192 246 306 367 445
#     4  11  25  46  77 104 152 190 254 311 364 446
#     4  12  27  45  77 112 147 196 247 309 378 439
#     4  11  24  46  75 106 142 196 246 310 366 437
#     4  12  25  45  73 107 142 197 247 296 369 441
#
# _framework density 22.071944999999999
#
# number of rings (size 3 to 8) (size 9 to 14) (size 15 to 20)
#    0.000    0.250    2.500    6.000    7.000    2.000 
#    0.000    0.000    0.000    0.000    0.000    0.000 
#    0.000    0.000    0.000    0.000    0.000    0.000 
#
# Total GULP energy -198268.461146 kJ/mol
# GULP energy per Si atom -12391.778822 kJ/mol
# Density = 2.202171 g / cm^3
# Si number density = 22.071945 Si / 1000 Ang^3
#
#
#
# Elastic Constant Matrix: (Units=GPa)
#
#
# Indices 1 2 3 4 5 6 
#
# 1 174.3550 80.9448 59.6504 10.7959 0.8051 -3.3193
# 2 80.9448 163.8905 64.8899 -7.6249 -3.0988 -3.6081
# 3 59.6504 64.8899 175.1057 8.0823 -4.8435 -6.4412
# 4 10.7959 -7.6249 8.0823 44.2449 -2.4907 -8.1373
# 5 0.8051 -3.0988 -4.8435 -2.4907 40.6385 10.0979
# 6 -3.3193 -3.6081 -6.4412 -8.1373 10.0979 59.6950
#
#
#
# Elastic Compliance Matrix: (Units=1/GPa)
#
#
# Indices 1 2 3 4 5 6 
#
# 1 0.007981 -0.003546 -0.001319 -0.002379 -0.000702 -0.000118
# 2 -0.003546 0.008872 -0.002183 0.002899 0.000564 0.000403
# 3 -0.001319 -0.002183 0.007053 -0.001258 0.000551 0.000291
# 4 -0.002379 0.002899 -0.001258 0.024531 0.000850 0.003107
# 5 -0.000702 0.000564 0.000551 0.000850 0.025825 -0.004198
# 6 -0.000118 0.000403 0.000291 0.003107 -0.004198 0.017935
#
#
# Mechanical properties :
#
#
# Convention : Reuss Voigt Hill
#
# Bulk Modulus (GPa) = 101.93465 102.70236 102.31850
# Shear Modulus (GPa) = 45.63595 49.44010 47.53803
#
# Velocity S-wave (km/s) = 4.55202 4.73795 4.64591
# Velocity P-wave (km/s) = 8.59715 8.75001 8.67392
#
# Compressibility (1/GPa) = 0.00981021
#
# Stress axis : x y z
#
# Youngs Moduli (GPa) = 125.29347 112.71520 141.78345
#
# Poissons Ratio (x) = 0.39973 0.18696
# Poissons Ratio (y) = 0.44434 0.30951
# Poissons Ratio (z) = 0.16521 0.24606
#
# Static dielectric constant tensor:
#      x y z
#    x 4.557620 0.093100 -0.147560 
#    y 0.093100 4.289770 -0.174670 
#    z -0.147560 -0.174670 3.859080 
# 
# 
# High freq. dielectric constant tensor:
#      x y z
#    x 1.890040 -0.001990 -0.003100 
#    y -0.001990 1.887950 0.002150 
#    z -0.003100 0.002150 1.880470 
# 
# From -- ./inp_files/227716.got.cif
#   From: 2010.06.25/outbox.cif.g09.slc.cpg/sg2_114_cif.got.tgz:227716.got - 2010.06.27 13:26:56.
