data_PCOD8034834
_publ_section_title
;
Structure prediction by ZEFSAII (Michael W. Deem and Ramdas Pophale) SiO2 
 PCOD8034834
Probable space group: P -1
;
_chemical_formula_sum "Si O2"
_cell_formula_units_Z 16
_cell_length_a 15.057847
_cell_length_b 20.972079
_cell_length_c 8.886490
_cell_angle_alpha 110.303367
_cell_angle_beta 68.894809
_cell_angle_gamma 161.624617
_cell_volume 825.187942
_symmetry_space_group_name_H-M "P -1"
_symmetry_group_IT_number 2
_symmetry_cell_setting 'triclinic'
loop_
_space_group_symop_operation_xyz
x,y,z
-x,-y,-z
loop_
_atom_site_type_symbol
_atom_site_label
_atom_site_fract_x
_atom_site_fract_y
_atom_site_fract_z
Si Si1 0.062294 0.832905 0.616920
Si Si2 0.420202 0.727725 0.434229
Si Si3 0.525615 0.523530 0.325027
Si Si4 0.205188 0.419812 0.709026
Si Si5 0.250947 0.791080 0.061219
Si Si6 0.670017 0.766787 0.480581
Si Si7 0.112625 0.630650 0.730331
Si Si8 0.382095 0.944600 0.683650
O O1 0.135831 0.833139 0.711128
O O2 0.792490 0.694990 0.725953
O O3 0.991317 0.740510 0.437017
O O4 0.313275 0.051666 0.604076
O O5 0.528274 0.728204 0.429373
O O6 0.253856 0.655713 0.608841
O O7 0.211880 0.580711 0.298147
O O8 0.500000 0.500000 0.500000
O O9 0.717847 0.587652 0.219778
O O10 0.656508 0.684963 0.335301
O O11 0.491406 0.644567 0.645718
O O12 0.033335 0.357036 0.861712
O O13 0.376075 0.854247 0.199881
O O14 0.150262 0.659188 0.912555
O O15 0.500000 0.000000 0.000000
O O16 0.000000 0.000000 0.500000
O O17 0.274416 0.805154 0.714900
O O18 0.500000 0.000000 0.500000
#
# Coordination Sequence:
#
# PCOD8034834 Si02
#       8
#     2   2   2   2   2   2   2   2
#     4  10  17  31  54  80 103 142 186 227 269 323
#     4  11  20  33  54  76 116 144 184 229 273 331
#     4   8  17  30  52  79 102 136 187 229 266 320
#     4  10  18  34  57  79 111 142 187 233 270 326
#     4  10  21  35  56  83 113 146 181 230 279 327
#     4  10  19  31  54  85 111 141 185 234 277 322
#     4  10  22  35  51  82 111 147 181 225 283 328
#     4  11  18  33  58  78 107 143 189 226 272 326
#
# _framework density 19.389521999999999
#
# number of rings (size 3 to 8) (size 9 to 14) (size 15 to 20)
#    0.000    2.250    2.500    4.500    0.000    0.000 
#    0.000    2.500    0.000   11.250    0.000    0.000 
#    0.000    0.000    0.000    0.000    0.000    0.000 
#
# Total GULP energy -198227.868463 kJ/mol
# GULP energy per Si atom -12389.241779 kJ/mol
# Density = 1.934539 g / cm^3
# Si number density = 19.389522 Si / 1000 Ang^3
#
#
#
# Elastic Constant Matrix: (Units=GPa)
#
#
# Indices 1 2 3 4 5 6 
#
# 1 112.0257 33.3961 23.6187 13.1012 13.4307 23.1651
# 2 33.3961 132.5242 39.7826 13.1458 -0.4858 16.8374
# 3 23.6187 39.7826 87.8489 24.6944 0.4385 12.2882
# 4 13.1012 13.1458 24.6944 31.4900 3.7875 5.1898
# 5 13.4307 -0.4858 0.4385 3.7875 17.7675 0.8307
# 6 23.1651 16.8374 12.2882 5.1898 0.8307 35.5300
#
#
#
# Elastic Compliance Matrix: (Units=1/GPa)
#
#
# Indices 1 2 3 4 5 6 
#
# 1 0.012214 -0.001830 -0.001157 -0.001328 -0.008677 -0.006299
# 2 -0.001830 0.009316 -0.003336 -0.000402 0.001902 -0.002054
# 3 -0.001157 -0.003336 0.016589 -0.011174 0.002842 -0.001836
# 4 -0.001328 -0.000402 -0.011174 0.042345 -0.007707 -0.001084
# 5 -0.008677 0.001902 0.002842 -0.007707 0.064307 0.003395
# 6 -0.006299 -0.002054 -0.001836 -0.001084 0.003395 0.033939
#
#
# Mechanical properties :
#
#
# Convention : Reuss Voigt Hill
#
# Bulk Modulus (GPa) = 39.25875 58.44372 48.85124
# Shear Modulus (GPa) = 25.01896 32.66427 28.84161
#
# Velocity S-wave (km/s) = 3.59602 4.10888 3.86098
# Velocity P-wave (km/s) = 6.12643 7.26071 6.71755
#
# Compressibility (1/GPa) = 0.02547203
#
# Stress axis : x y z
#
# Youngs Moduli (GPa) = 81.87131 107.33947 60.28197
#
# Poissons Ratio (x) = 0.19647 0.06976
# Poissons Ratio (y) = 0.14985 0.20110
# Poissons Ratio (z) = 0.09474 0.35809
#
# Static dielectric constant tensor:
#      x y z
#    x 4.520710 0.448970 -0.062500 
#    y 0.448970 3.837000 0.209020 
#    z -0.062500 0.209020 3.355190 
# 
# 
# High freq. dielectric constant tensor:
#      x y z
#    x 1.767560 0.014710 0.006230 
#    y 0.014710 1.765000 0.008950 
#    z 0.006230 0.008950 1.709870 
# 
# From -- ./inp_files/318698.got.cif
#   From: 2010.06.25/outbox.cif.g09.slc.cpg/sg2_160_cif.got.tgz:318698.got - 2010.06.27 13:26:56.
