data_PCOD8034678
_publ_section_title
;
Structure prediction by ZEFSAII (Michael W. Deem and Ramdas Pophale) SiO2 
 PCOD8034678
Probable space group: P -1
;
_chemical_formula_sum "Si O2"
_cell_formula_units_Z 10
_cell_length_a 9.555717
_cell_length_b 5.651958
_cell_length_c 16.631949
_cell_angle_alpha 58.259009
_cell_angle_beta 145.158324
_cell_angle_gamma 105.939127
_cell_volume 412.972707
_symmetry_space_group_name_H-M "P -1"
_symmetry_group_IT_number 2
_symmetry_cell_setting 'triclinic'
loop_
_space_group_symop_operation_xyz
x,y,z
-x,-y,-z
loop_
_atom_site_type_symbol
_atom_site_label
_atom_site_fract_x
_atom_site_fract_y
_atom_site_fract_z
Si Si1 0.567878 0.999793 0.939580
Si Si2 0.844698 0.809468 0.414797
Si Si3 0.452907 0.132031 0.582221
Si Si4 0.734295 0.478094 0.847843
Si Si5 0.873004 0.384035 0.755599
O O1 0.334499 0.979364 0.776031
O O2 0.626459 0.297694 0.892674
O O3 0.500000 0.000000 0.000000
O O4 0.821687 0.720803 0.095353
O O5 0.663359 0.729075 0.410775
O O6 0.000000 0.500000 0.500000
O O7 0.000000 0.000000 0.500000
O O8 0.714859 0.200071 0.666804
O O9 0.238436 0.275424 0.386381
O O10 0.507779 0.785840 0.673910
O O11 0.809141 0.317710 0.827524
O O12 0.000000 0.500000 0.000000
#
# Coordination Sequence:
#
# PCOD8034678 Si02
#       5
#     2   2   2   2   2
#     4  12  26  49  77 114 158 202 260 325 396 467
#     4  12  27  49  76 111 160 207 259 326 401 468
#     4  11  24  45  75 106 147 196 258 316 381 466
#     4  12  23  44  76 109 146 199 260 317 383 468
#     4  11  24  45  74 108 145 196 257 315 389 460
#
# _framework density 24.214675
#
# number of rings (size 3 to 8) (size 9 to 14) (size 15 to 20)
#    0.000    0.400    4.000    4.800    0.000    1.600 
#    0.000    6.000    0.000    0.000    0.000    0.000 
#    0.000    0.000    0.000    0.000    0.000    0.000 
#
# Total GULP energy -123950.329615 kJ/mol
# GULP energy per Si atom -12395.032961 kJ/mol
# Density = 2.415956 g / cm^3
# Si number density = 24.214675 Si / 1000 Ang^3
#
#
#
# Elastic Constant Matrix: (Units=GPa)
#
#
# Indices 1 2 3 4 5 6 
#
# 1 162.2443 38.8423 67.0767 2.3165 -11.5785 -6.0633
# 2 38.8423 107.3244 71.4938 -1.5602 7.1011 1.4678
# 3 67.0767 71.4938 214.1436 -3.1975 2.6849 5.4643
# 4 2.3165 -1.5602 -3.1975 50.4236 -1.0069 -1.5965
# 5 -11.5785 7.1011 2.6849 -1.0069 51.1019 -8.9440
# 6 -6.0633 1.4678 5.4643 -1.5965 -8.9440 30.3059
#
#
#
# Elastic Compliance Matrix: (Units=1/GPa)
#
#
# Indices 1 2 3 4 5 6 
#
# 1 0.007657 -0.001688 -0.001941 -0.000391 0.002535 0.002691
# 2 -0.001688 0.012467 -0.003582 0.000166 -0.002081 -0.000901
# 3 -0.001941 -0.003582 0.006525 0.000333 -0.000547 -0.001535
# 4 -0.000391 0.000166 0.000333 0.019918 0.000444 0.001034
# 5 0.002535 -0.002081 -0.000547 0.000444 0.021719 0.007140
# 6 0.002691 -0.000901 -0.001535 0.001034 0.007140 0.036017
#
#
# Mechanical properties :
#
#
# Convention : Reuss Voigt Hill
#
# Bulk Modulus (GPa) = 81.79104 93.17090 87.48097
# Shear Modulus (GPa) = 40.71598 46.78623 43.75111
#
# Velocity S-wave (km/s) = 4.10501 4.40038 4.25526
# Velocity P-wave (km/s) = 7.50459 8.02362 7.76844
#
# Compressibility (1/GPa) = 0.01222628
#
# Stress axis : x y z
#
# Youngs Moduli (GPa) = 130.59334 80.21127 153.26600
#
# Poissons Ratio (x) = 0.13543 0.29751
# Poissons Ratio (y) = 0.22050 0.54897
# Poissons Ratio (z) = 0.25350 0.28730
#
# Static dielectric constant tensor:
#      x y z
#    x 4.689120 0.059880 0.061190 
#    y 0.059880 4.167570 0.063350 
#    z 0.061190 0.063350 4.919270 
# 
# 
# High freq. dielectric constant tensor:
#      x y z
#    x 1.970020 0.002040 0.000490 
#    y 0.002040 1.940720 0.000620 
#    z 0.000490 0.000620 1.990240 
# 
# From -- ./inp_files/15932.got.cif
#   From: 2010.06.25/outbox.cif.g09.slc.cpg/sg2_8_cif.got.tgz:15932.got - 2010.06.27 13:26:56.
