data_PCOD8034998
_publ_section_title
;
Structure prediction by ZEFSAII (Michael W. Deem and Ramdas Pophale) SiO2 
 PCOD8034998
Probable space group: P -1
;
_chemical_formula_sum "Si O2"
_cell_formula_units_Z 14
_cell_length_a 8.848250
_cell_length_b 7.886777
_cell_length_c 12.308380
_cell_angle_alpha 107.642935
_cell_angle_beta 129.029975
_cell_angle_gamma 67.773415
_cell_volume 615.133807
_symmetry_space_group_name_H-M "P -1"
_symmetry_group_IT_number 2
_symmetry_cell_setting 'triclinic'
loop_
_space_group_symop_operation_xyz
x,y,z
-x,-y,-z
loop_
_atom_site_type_symbol
_atom_site_label
_atom_site_fract_x
_atom_site_fract_y
_atom_site_fract_z
Si Si1 0.625761 0.815134 0.426769
Si Si2 0.589445 0.415110 0.306123
Si Si3 0.582375 0.810275 0.650638
Si Si4 0.961641 0.102094 0.387854
Si Si5 0.734210 0.883433 0.088753
Si Si6 0.045782 0.194109 0.053829
Si Si7 0.332321 0.472762 0.000762
O O1 0.607425 0.621576 0.335709
O O2 0.523974 0.816175 0.498867
O O3 0.843016 0.844508 0.556869
O O4 0.518581 0.974031 0.321628
O O5 0.510839 0.346650 0.369748
O O6 0.813202 0.298655 0.371403
O O7 0.441864 0.376772 0.140068
O O8 0.817135 0.769139 0.777358
O O9 0.875440 0.987766 0.236410
O O10 0.000000 0.000000 0.500000
O O11 0.833527 0.809512 0.003635
O O12 0.752844 0.689802 0.122738
O O13 0.500000 0.000000 0.000000
O O14 0.836826 0.347938 0.004298
O O15 0.000000 0.000000 0.000000
O O16 0.500000 0.500000 0.000000
#
# Coordination Sequence:
#
# PCOD8034998 Si02
#       7
#     2   2   2   2   2   2   2
#     4  11  26  45  72 108 148 193 251 305 381 450
#     4  12  25  48  73 104 149 194 251 310 375 448
#     4  11  24  47  71 107 147 194 247 310 378 447
#     4  12  26  46  73 108 147 201 245 306 382 443
#     4  12  25  48  75 103 154 196 246 311 369 447
#     4  12  25  46  75 108 149 196 252 311 378 448
#     4  12  28  46  76 111 146 197 255 307 384 451
#
# _framework density 22.759274999999999
#
# number of rings (size 3 to 8) (size 9 to 14) (size 15 to 20)
#    0.000    0.286    4.286    3.857    4.000    2.286 
#    0.000    0.000    0.000    0.000    0.000    0.000 
#    0.000    0.000    0.000    0.000    0.000    0.000 
#
# Total GULP energy -173443.022598 kJ/mol
# GULP energy per Si atom -12388.787328 kJ/mol
# Density = 2.270747 g / cm^3
# Si number density = 22.759275 Si / 1000 Ang^3
#
#
#
# Elastic Constant Matrix: (Units=GPa)
#
#
# Indices 1 2 3 4 5 6 
#
# 1 136.9439 52.9710 22.6026 -3.3252 14.0890 -0.5153
# 2 52.9710 136.5791 12.1047 -9.1260 14.3726 3.8690
# 3 22.6026 12.1047 76.2314 -10.0113 8.2244 0.5810
# 4 -3.3252 -9.1260 -10.0113 41.1468 2.6144 12.2099
# 5 14.0890 14.3726 8.2244 2.6144 35.4433 1.9697
# 6 -0.5153 3.8690 0.5810 12.2099 1.9697 52.2522
#
#
#
# Elastic Compliance Matrix: (Units=1/GPa)
#
#
# Indices 1 2 3 4 5 6 
#
# 1 0.009050 -0.003186 -0.002053 -0.000519 -0.001821 0.000538
# 2 -0.003186 0.008996 0.000091 0.002255 -0.002506 -0.001131
# 3 -0.002053 0.000091 0.014531 0.003861 -0.002823 -0.000984
# 4 -0.000519 0.002255 0.003861 0.027870 -0.003293 -0.006603
# 5 -0.001821 -0.002506 -0.002823 -0.003293 0.030863 -0.000195
# 6 0.000538 -0.001131 -0.000984 -0.006603 -0.000195 0.020788
#
#
# Mechanical properties :
#
#
# Convention : Reuss Voigt Hill
#
# Bulk Modulus (GPa) = 44.88111 58.34567 51.61339
# Shear Modulus (GPa) = 38.51426 43.24020 40.87723
#
# Velocity S-wave (km/s) = 4.11815 4.36351 4.24260
# Velocity P-wave (km/s) = 6.50961 7.14693 6.83570
#
# Compressibility (1/GPa) = 0.02228109
#
# Stress axis : x y z
#
# Youngs Moduli (GPa) = 110.49183 111.16157 68.81646
#
# Poissons Ratio (x) = 0.35421 0.14130
# Poissons Ratio (y) = 0.35208 -0.00629
# Poissons Ratio (z) = 0.22687 -0.01016
#
# Static dielectric constant tensor:
#      x y z
#    x 4.075660 0.093690 0.088630 
#    y 0.093690 4.420430 -0.083910 
#    z 0.088630 -0.083910 4.097060 
# 
# 
# High freq. dielectric constant tensor:
#      x y z
#    x 1.914540 0.011810 0.008950 
#    y 0.011810 1.917570 -0.001190 
#    z 0.008950 -0.001190 1.895420 
# 
# From -- ./inp_files/383049.got.cif
#   From: 2010.06.25/outbox.cif.g09.slc.cpg/sg2_192_cif.got.tgz:383049.got - 2010.06.27 13:26:56.
