data_PCOD8034579
_publ_section_title
;
Structure prediction by ZEFSAII (Michael W. Deem and Ramdas Pophale) SiO2 
 PCOD8034579
Probable space group: P -1
;
_chemical_formula_sum "Si O2"
_cell_formula_units_Z 16
_cell_length_a 8.407162
_cell_length_b 9.219029
_cell_length_c 13.176767
_cell_angle_alpha 75.249463
_cell_angle_beta 112.111079
_cell_angle_gamma 59.775889
_cell_volume 680.214546
_symmetry_space_group_name_H-M "P -1"
_symmetry_group_IT_number 2
_symmetry_cell_setting 'triclinic'
loop_
_space_group_symop_operation_xyz
x,y,z
-x,-y,-z
loop_
_atom_site_type_symbol
_atom_site_label
_atom_site_fract_x
_atom_site_fract_y
_atom_site_fract_z
Si Si1 0.544458 0.740113 0.695072
Si Si2 0.697134 0.281486 0.542321
Si Si3 0.979716 0.908771 0.801238
Si Si4 0.942770 0.372930 0.960453
Si Si5 0.049225 0.324549 0.310693
Si Si6 0.155865 0.175101 0.590852
Si Si7 0.239934 0.022174 0.945310
Si Si8 0.670843 0.764731 0.200183
O O1 0.393694 0.743567 0.575370
O O2 0.672104 0.544731 0.834215
O O3 0.729518 0.744079 0.685984
O O4 0.365357 0.935005 0.686652
O O5 0.500000 0.500000 0.500000
O O6 0.928692 0.238898 0.578238
O O7 0.746681 0.130017 0.669611
O O8 0.055399 0.767138 0.746355
O O9 0.152310 0.932091 0.878178
O O10 0.960205 0.803853 0.906141
O O11 0.056037 0.247795 0.905904
O O12 0.000000 0.500000 0.000000
O O13 0.113576 0.254271 0.453633
O O14 0.847492 0.563664 0.212847
O O15 0.241320 0.273002 0.656138
O O16 0.362176 0.046367 0.882503
O O17 0.411203 0.853542 0.103842
#
# Coordination Sequence:
#
# PCOD8034579 Si02
#       8
#     2   2   2   2   2   2   2   2
#     4  12  25  46  74 106 151 198 249 307 376 450
#     4  12  27  49  76 108 153 195 250 317 379 446
#     4  12  26  47  75 110 152 192 258 310 374 450
#     4  12  24  47  75 108 151 198 249 307 382 441
#     4  12  26  47  75 113 148 200 255 310 379 450
#     4  12  26  47  75 110 147 199 255 314 376 447
#     4  11  24  45  71 106 148 197 247 308 373 449
#     4  11  24  45  73 103 149 194 251 309 374 444
#
# _framework density 23.521991
#
# number of rings (size 3 to 8) (size 9 to 14) (size 15 to 20)
#    0.000    0.250    5.000    3.750    0.000    3.500 
#    0.000    0.000    0.000    0.000    0.000    0.000 
#    0.000    0.000    0.000    0.000    0.000    0.000 
#
# Total GULP energy -198220.297702 kJ/mol
# GULP energy per Si atom -12388.768606 kJ/mol
# Density = 2.346845 g / cm^3
# Si number density = 23.521991 Si / 1000 Ang^3
#
#
#
# Elastic Constant Matrix: (Units=GPa)
#
#
# Indices 1 2 3 4 5 6 
#
# 1 44.6604 50.7624 44.2011 -12.8841 1.6941 -6.8058
# 2 50.7624 169.4738 67.5296 7.0837 26.5736 1.6642
# 3 44.2011 67.5296 184.1427 1.0233 6.1810 9.4436
# 4 -12.8841 7.0837 1.0233 56.7599 6.9920 11.9273
# 5 1.6941 26.5736 6.1810 6.9920 49.1918 -2.9878
# 6 -6.8058 1.6642 9.4436 11.9273 -2.9878 38.6298
#
#
#
# Elastic Compliance Matrix: (Units=1/GPa)
#
#
# Indices 1 2 3 4 5 6 
#
# 1 0.048572 -0.012860 -0.007596 0.010407 0.005245 0.008161
# 2 -0.012860 0.010956 -0.000642 -0.003238 -0.005054 -0.001972
# 3 -0.007596 -0.000642 0.007654 -0.001136 -0.000366 -0.002859
# 4 0.010407 -0.003238 -0.001136 0.021585 -0.001811 -0.004554
# 5 0.005245 -0.005054 -0.000366 -0.001811 0.023400 0.003600
# 6 0.008161 -0.001972 -0.002859 -0.004554 0.003600 0.029793
#
#
# Mechanical properties :
#
#
# Convention : Reuss Voigt Hill
#
# Bulk Modulus (GPa) = 40.02004 80.36256 60.19130
# Shear Modulus (GPa) = 25.97608 44.63523 35.30566
#
# Velocity S-wave (km/s) = 3.32675 4.36087 3.87843
# Velocity P-wave (km/s) = 5.63979 7.71980 6.76027
#
# Compressibility (1/GPa) = 0.02498748
#
# Stress axis : x y z
#
# Youngs Moduli (GPa) = 20.58781 91.27778 130.64261
#
# Poissons Ratio (x) = 1.17382 0.99231
# Poissons Ratio (y) = 0.26476 0.08388
# Poissons Ratio (z) = 0.15638 0.05861
#
# Static dielectric constant tensor:
#      x y z
#    x 160.873490 142.413430 57.729940 
#    y 142.413430 132.868940 52.597090 
#    z 57.729940 52.597090 26.137400 
# 
# 
# High freq. dielectric constant tensor:
#      x y z
#    x 1.896780 0.007580 -0.001310 
#    y 0.007580 1.953270 0.006070 
#    z -0.001310 0.006070 1.966760 
# 
# From -- ./inp_files/494946.got.cif
#   From: 2010.06.25/outbox.cif.g09.slc.cpg/sg2_248_cif.got.tgz:494946.got - 2010.06.27 13:26:56.
