data_PCOD8034411
_publ_section_title
;
Structure prediction by ZEFSAII (Michael W. Deem and Ramdas Pophale) SiO2 
 PCOD8034411
Probable space group: P -1
;
_chemical_formula_sum "Si O2"
_cell_formula_units_Z 12
_cell_length_a 5.332668
_cell_length_b 11.536250
_cell_length_c 11.908055
_cell_angle_alpha 141.938677
_cell_angle_beta 82.369128
_cell_angle_gamma 103.440007
_cell_volume 437.722339
_symmetry_space_group_name_H-M "P -1"
_symmetry_group_IT_number 2
_symmetry_cell_setting 'triclinic'
loop_
_space_group_symop_operation_xyz
x,y,z
-x,-y,-z
loop_
_atom_site_type_symbol
_atom_site_label
_atom_site_fract_x
_atom_site_fract_y
_atom_site_fract_z
Si Si1 0.326408 0.550554 0.252088
Si Si2 0.856688 0.336573 0.218202
Si Si3 0.232543 0.886375 0.377869
Si Si4 0.456224 0.787991 0.065373
Si Si5 0.374517 0.339232 0.474625
Si Si6 0.939466 0.074751 0.183357
O O1 0.178435 0.673297 0.273882
O O2 0.448984 0.695891 0.457236
O O3 0.149229 0.358018 0.172536
O O4 0.519534 0.436436 0.087114
O O5 0.834037 0.556344 0.375506
O O6 0.817107 0.258738 0.291284
O O7 0.669203 0.194054 0.036107
O O8 0.267133 0.851011 0.216840
O O9 0.500000 0.000000 0.500000
O O10 0.000000 0.000000 0.500000
O O11 0.734275 0.936895 0.167781
O O12 0.500000 0.500000 0.500000
O O13 0.214380 0.139930 0.281194
O O14 0.000000 0.000000 0.000000
#
# Coordination Sequence:
#
# PCOD8034411 Si02
#       6
#     2   2   2   2   2   2
#     4  11  26  52  80 113 159 220 276 332 412 493
#     4  11  24  45  75 112 160 211 269 326 419 490
#     4  12  33  54  83 123 161 220 287 352 414 487
#     4  11  27  50  81 114 164 219 270 348 405 496
#     4  11  24  44  74 115 162 218 266 334 408 498
#     4  12  23  45  77 123 163 209 270 333 416 499
#
# _framework density 27.414641
#
# number of rings (size 3 to 8) (size 9 to 14) (size 15 to 20)
#    0.000    0.667    3.333    2.500    9.333    2.000 
#    0.000    0.000    0.000    0.000    0.000    0.000 
#    0.000    0.000    0.000    0.000    0.000    0.000 
#
# Total GULP energy -148657.047050 kJ/mol
# GULP energy per Si atom -12388.087254 kJ/mol
# Density = 2.735224 g / cm^3
# Si number density = 27.414641 Si / 1000 Ang^3
#
#
#
# Elastic Constant Matrix: (Units=GPa)
#
#
# Indices 1 2 3 4 5 6 
#
# 1 124.0641 46.5010 59.7866 -2.5531 14.4527 1.8421
# 2 46.5010 128.4756 45.4741 -5.5700 -8.2626 -4.4839
# 3 59.7866 45.4741 136.0274 -1.5324 -4.1747 7.2751
# 4 -2.5531 -5.5700 -1.5324 35.7776 2.7247 -3.0226
# 5 14.4527 -8.2626 -4.1747 2.7247 57.2872 9.1762
# 6 1.8421 -4.4839 7.2751 -3.0226 9.1762 40.1282
#
#
#
# Elastic Compliance Matrix: (Units=1/GPa)
#
#
# Indices 1 2 3 4 5 6 
#
# 1 0.011671 -0.002888 -0.004321 0.000562 -0.003838 0.000845
# 2 -0.002888 0.009740 -0.001989 0.001202 0.001727 0.001277
# 3 -0.004321 -0.001989 0.010094 -0.000531 0.001938 -0.002337
# 4 0.000562 0.001202 -0.000531 0.028526 -0.001807 0.002767
# 5 -0.003838 0.001727 0.001938 -0.001807 0.019639 -0.004609
# 6 0.000845 0.001277 -0.002337 0.002767 -0.004609 0.026710
#
#
# Mechanical properties :
#
#
# Convention : Reuss Voigt Hill
#
# Bulk Modulus (GPa) = 76.27494 76.89893 76.58694
# Shear Modulus (GPa) = 38.71592 42.42561 40.57076
#
# Velocity S-wave (km/s) = 3.76205 3.93816 3.85111
# Velocity P-wave (km/s) = 6.83767 6.98499 6.91172
#
# Compressibility (1/GPa) = 0.01311047
#
# Stress axis : x y z
#
# Youngs Moduli (GPa) = 85.68155 102.66442 99.06959
#
# Poissons Ratio (x) = 0.29648 0.42807
# Poissons Ratio (y) = 0.24744 0.19702
# Poissons Ratio (z) = 0.37022 0.20417
#
# Static dielectric constant tensor:
#      x y z
#    x 6.443100 -1.072090 -1.238270 
#    y -1.072090 5.646140 0.649580 
#    z -1.238270 0.649580 5.822960 
# 
# 
# High freq. dielectric constant tensor:
#      x y z
#    x 2.112600 -0.006990 -0.020130 
#    y -0.006990 2.093340 0.008560 
#    z -0.020130 0.008560 2.126590 
# 
# From -- ./inp_files/365508.got.cif
#   From: 2010.06.25/outbox.cif.g09.slc.cpg/sg2_183_cif.got.tgz:365508.got - 2010.06.27 13:26:56.
