data_PCOD8034825
_publ_section_title
;
Structure prediction by ZEFSAII (Michael W. Deem and Ramdas Pophale) SiO2 
 PCOD8034825
Probable space group: P -1
;
_chemical_formula_sum "Si O2"
_cell_formula_units_Z 16
_cell_length_a 8.640896
_cell_length_b 5.553507
_cell_length_c 16.845749
_cell_angle_alpha 82.097328
_cell_angle_beta 125.965603
_cell_angle_gamma 91.417181
_cell_volume 646.481985
_symmetry_space_group_name_H-M "P -1"
_symmetry_group_IT_number 2
_symmetry_cell_setting 'triclinic'
loop_
_space_group_symop_operation_xyz
x,y,z
-x,-y,-z
loop_
_atom_site_type_symbol
_atom_site_label
_atom_site_fract_x
_atom_site_fract_y
_atom_site_fract_z
Si Si1 0.026571 0.715095 0.938068
Si Si2 0.616799 0.882324 0.808042
Si Si3 0.049363 0.414536 0.815169
Si Si4 0.032919 0.533225 0.634507
Si Si5 0.341485 0.055336 0.012901
Si Si6 0.207980 0.942332 0.439228
Si Si7 0.639368 0.229679 0.666098
Si Si8 0.384956 0.636662 0.630634
O O1 0.006203 0.659614 0.840894
O O2 0.844212 0.900708 0.888955
O O3 0.000000 0.500000 0.000000
O O4 0.229559 0.819182 0.011286
O O5 0.539872 0.876812 0.875379
O O6 0.538527 0.652866 0.748019
O O7 0.548952 0.107670 0.721901
O O8 0.138100 0.478266 0.753569
O O9 0.854640 0.289717 0.747404
O O10 0.194442 0.261351 0.923575
O O11 0.188947 0.545302 0.611877
O O12 0.911500 0.302716 0.587718
O O13 0.909703 0.795808 0.596950
O O14 0.500000 0.000000 0.000000
O O15 0.342111 0.937384 0.400563
O O16 0.336901 0.896895 0.559627
O O17 0.485913 0.462137 0.600479
#
# Coordination Sequence:
#
# PCOD8034825 Si02
#       8
#     2   2   2   2   2   2   2   2
#     4  12  23  45  71  98 143 196 255 307 386 443
#     4  12  26  43  71 105 146 193 255 310 383 452
#     4  11  24  46  72 100 142 197 244 312 378 459
#     4  11  28  48  79 109 155 202 253 314 392 464
#     4  12  29  44  71 106 151 200 253 316 383 466
#     4  11  27  52  76 111 156 204 249 316 397 462
#     4  11  25  45  75 109 147 196 256 313 382 455
#     4  12  28  45  77 112 148 195 259 321 378 462
#
# _framework density 24.749334999999999
#
# number of rings (size 3 to 8) (size 9 to 14) (size 15 to 20)
#    0.000    0.500    3.750    3.000   10.500    1.000 
#    0.000    0.000    0.000    0.000    0.000    0.000 
#    0.000    0.000    0.000    0.000    0.000    0.000 
#
# Total GULP energy -198217.867527 kJ/mol
# GULP energy per Si atom -12388.616720 kJ/mol
# Density = 2.469300 g / cm^3
# Si number density = 24.749335 Si / 1000 Ang^3
#
#
#
# Elastic Constant Matrix: (Units=GPa)
#
#
# Indices 1 2 3 4 5 6 
#
# 1 134.6872 35.8460 41.6272 0.0337 -9.0211 -13.5362
# 2 35.8460 99.6875 25.4591 -4.6583 0.8396 -2.2247
# 3 41.6272 25.4591 131.1933 -0.2401 -23.1512 0.7934
# 4 0.0337 -4.6583 -0.2401 38.4012 -1.4643 -11.4403
# 5 -9.0211 0.8396 -23.1512 -1.4643 30.4074 1.3068
# 6 -13.5362 -2.2247 0.7934 -11.4403 1.3068 29.3391
#
#
#
# Elastic Compliance Matrix: (Units=1/GPa)
#
#
# Indices 1 2 3 4 5 6 
#
# 1 0.009362 -0.002631 -0.002320 0.001049 0.000939 0.004550
# 2 -0.002631 0.011541 -0.001836 0.001407 -0.002445 0.000368
# 3 -0.002320 -0.001836 0.009963 -0.000481 0.007010 -0.001978
# 4 0.001049 0.001407 -0.000481 0.029879 0.000820 0.012218
# 5 0.000939 -0.002445 0.007010 0.000820 0.038667 -0.001344
# 6 0.004550 0.000368 -0.001978 0.012218 -0.001344 0.041089
#
#
# Mechanical properties :
#
#
# Convention : Reuss Voigt Hill
#
# Bulk Modulus (GPa) = 57.83127 63.49253 60.66190
# Shear Modulus (GPa) = 31.28175 37.13859 34.21017
#
# Velocity S-wave (km/s) = 3.55905 3.87795 3.72192
# Velocity P-wave (km/s) = 6.34875 6.76470 6.56003
#
# Compressibility (1/GPa) = 0.01729168
#
# Stress axis : x y z
#
# Youngs Moduli (GPa) = 106.81791 86.64808 100.37438
#
# Poissons Ratio (x) = 0.22799 0.23284
# Poissons Ratio (y) = 0.28106 0.18427
# Poissons Ratio (z) = 0.24779 0.15907
#
# Static dielectric constant tensor:
#      x y z
#    x 4.538960 0.047860 -0.658280 
#    y 0.047860 4.383820 -0.194750 
#    z -0.658280 -0.194750 9.239380 
# 
# 
# High freq. dielectric constant tensor:
#      x y z
#    x 1.989180 0.000680 -0.018130 
#    y 0.000680 1.979680 0.006430 
#    z -0.018130 0.006430 2.005260 
# 
# From -- ./inp_files/536420.got.cif
#   From: 2010.06.25/outbox.cif.g09.slc.cpg/sg2_269_cif.got.tgz:536420.got - 2010.06.27 13:26:56.
