data_PCOD8034441
_publ_section_title
;
Structure prediction by ZEFSAII (Michael W. Deem and Ramdas Pophale) SiO2 
 PCOD8034441
Probable space group: P -1
;
_chemical_formula_sum "Si O2"
_cell_formula_units_Z 12
_cell_length_a 9.373588
_cell_length_b 11.529853
_cell_length_c 8.575737
_cell_angle_alpha 54.702098
_cell_angle_beta 56.857626
_cell_angle_gamma 52.756154
_cell_volume 573.826096
_symmetry_space_group_name_H-M "P -1"
_symmetry_group_IT_number 2
_symmetry_cell_setting 'triclinic'
loop_
_space_group_symop_operation_xyz
x,y,z
-x,-y,-z
loop_
_atom_site_type_symbol
_atom_site_label
_atom_site_fract_x
_atom_site_fract_y
_atom_site_fract_z
Si Si1 0.818031 0.144151 0.836421
Si Si2 0.878086 0.425617 0.050093
Si Si3 0.905039 0.811179 0.150044
Si Si4 0.533608 0.850385 0.493686
Si Si5 0.811518 0.159101 0.479614
Si Si6 0.532565 0.644858 0.923769
O O1 0.745970 0.211811 0.655490
O O2 0.991229 0.184294 0.753509
O O3 0.652684 0.216151 0.005220
O O4 0.887656 0.956806 0.938894
O O5 0.843733 0.300485 0.274043
O O6 0.688939 0.581291 0.012408
O O7 0.000000 0.500000 0.000000
O O8 0.970931 0.347260 0.892336
O O9 0.700908 0.816901 0.297904
O O10 0.346188 0.873190 0.494073
O O11 0.599608 0.705113 0.684601
O O12 0.500000 0.000000 0.500000
O O13 0.000000 0.000000 0.500000
O O14 0.500000 0.500000 0.000000
#
# Coordination Sequence:
#
# PCOD8034441 Si02
#       6
#     2   2   2   2   2   2
#     4  11  24  44  76  99 142 184 235 286 345 419
#     4  12  29  47  71 105 148 181 231 294 354 405
#     4  11  24  46  71 105 136 189 235 281 350 420
#     4  12  26  44  75 104 138 188 237 282 348 422
#     4  12  26  46  72 105 141 184 238 287 344 418
#     4  12  25  49  69 103 147 184 224 292 354 412
#
# _framework density 20.91226
#
# number of rings (size 3 to 8) (size 9 to 14) (size 15 to 20)
#    0.000    0.333    6.667    1.000    7.000    3.333 
#    0.000    0.000    0.000    0.000    0.000    0.000 
#    0.000    0.000    0.000    0.000    0.000    0.000 
#
# Total GULP energy -148840.758830 kJ/mol
# GULP energy per Si atom -12403.396569 kJ/mol
# Density = 2.086466 g / cm^3
# Si number density = 20.912260 Si / 1000 Ang^3
#
#
#
# Elastic Constant Matrix: (Units=GPa)
#
#
# Indices 1 2 3 4 5 6 
#
# 1 179.6849 36.5195 68.6824 -19.2753 -7.9417 -2.5782
# 2 36.5195 78.2690 22.8713 -6.8090 -3.8597 -1.8795
# 3 68.6824 22.8713 113.6820 -8.1169 0.4441 3.6856
# 4 -19.2753 -6.8090 -8.1169 35.2075 -2.0046 1.3776
# 5 -7.9417 -3.8597 0.4441 -2.0046 39.8664 -1.1950
# 6 -2.5782 -1.8795 3.6856 1.3776 -1.1950 41.8844
#
#
#
# Elastic Compliance Matrix: (Units=1/GPa)
#
#
# Indices 1 2 3 4 5 6 
#
# 1 0.008029 -0.002147 -0.004229 0.003069 0.001615 0.000715
# 2 -0.002147 0.014407 -0.001534 0.001293 0.001068 0.000637
# 3 -0.004229 -0.001534 0.011716 0.000077 -0.001159 -0.001396
# 4 0.003069 0.001293 0.000077 0.030507 0.002249 -0.000699
# 5 0.001615 0.001068 -0.001159 0.002249 0.025662 0.000908
# 6 0.000715 0.000637 -0.001396 -0.000699 0.000908 0.024120
#
#
# Mechanical properties :
#
#
# Convention : Reuss Voigt Hill
#
# Bulk Modulus (GPa) = 54.55086 69.75357 62.15221
# Shear Modulus (GPa) = 36.66485 39.62918 38.14702
#
# Velocity S-wave (km/s) = 4.19175 4.35791 4.27564
# Velocity P-wave (km/s) = 7.04059 7.66483 7.35933
#
# Compressibility (1/GPa) = 0.01833152
#
# Stress axis : x y z
#
# Youngs Moduli (GPa) = 124.54727 69.41169 85.35621
#
# Poissons Ratio (x) = 0.14900 0.36100
# Poissons Ratio (y) = 0.26735 0.13094
# Poissons Ratio (z) = 0.52675 0.10648
#
# Static dielectric constant tensor:
#      x y z
#    x 3.993330 0.014580 -0.047130 
#    y 0.014580 3.721230 0.061490 
#    z -0.047130 0.061490 3.885150 
# 
# 
# High freq. dielectric constant tensor:
#      x y z
#    x 1.833170 -0.001220 -0.000990 
#    y -0.001220 1.825970 -0.001600 
#    z -0.000990 -0.001600 1.824540 
# 
# From -- ./inp_files/144747.got.cif
#   From: 2010.06.25/outbox.cif.g09.slc.cpg/sg2_73_cif.got.tgz:144747.got - 2010.06.27 13:26:56.
