data_PCOD8034091
_publ_section_title
;
Structure prediction by ZEFSAII (Michael W. Deem and Ramdas Pophale) SiO2 
 PCOD8034091
Probable space group: P -1
;
_chemical_formula_sum "Si O2"
_cell_formula_units_Z 14
_cell_length_a 19.209102
_cell_length_b 12.945578
_cell_length_c 9.084641
_cell_angle_alpha 132.408869
_cell_angle_beta 36.177827
_cell_angle_gamma 152.520966
_cell_volume 608.068979
_symmetry_space_group_name_H-M "P -1"
_symmetry_group_IT_number 2
_symmetry_cell_setting 'triclinic'
loop_
_space_group_symop_operation_xyz
x,y,z
-x,-y,-z
loop_
_atom_site_type_symbol
_atom_site_label
_atom_site_fract_x
_atom_site_fract_y
_atom_site_fract_z
Si Si1 0.927852 0.790437 0.749536
Si Si2 0.686697 0.766898 0.937790
Si Si3 0.608468 0.000266 0.424260
Si Si4 0.649061 0.205598 0.053630
Si Si5 0.303444 0.466485 0.838525
Si Si6 0.040989 0.493740 0.590952
Si Si7 0.689886 0.776936 0.606019
O O1 0.845672 0.831092 0.819140
O O2 0.859266 0.566246 0.621731
O O3 0.862795 0.762443 0.001290
O O4 0.155805 0.006315 0.554993
O O5 0.757849 0.849903 0.728544
O O6 0.500000 0.500000 0.000000
O O7 0.644327 0.878781 0.184885
O O8 0.467237 0.858143 0.666636
O O9 0.500000 0.000000 0.500000
O O10 0.815158 0.257706 0.350848
O O11 0.756485 0.438572 0.023030
O O12 0.840841 0.291846 0.832592
O O13 0.500000 0.000000 0.000000
O O14 0.488543 0.665213 0.817731
O O15 0.344503 0.414093 0.572558
O O16 0.000000 0.500000 0.500000
#
# Coordination Sequence:
#
# PCOD8034091 Si02
#       7
#     2   2   2   2   2   2   2
#     4  12  25  45  74 104 146 181 246 301 357 431
#     4  12  26  50  73 103 151 194 240 301 368 436
#     4  12  30  50  75 111 151 195 246 306 370 440
#     4  12  25  46  78 105 148 194 246 302 372 433
#     4  11  24  43  72 107 139 185 249 299 355 430
#     4  12  26  48  76 111 147 193 246 302 370 438
#     4  11  26  44  71 103 144 194 234 300 367 425
#
# _framework density 23.023705
#
# number of rings (size 3 to 8) (size 9 to 14) (size 15 to 20)
#    0.000    0.286    4.286    3.429    8.000    0.571 
#    2.571    0.000    0.000    0.000    0.000    0.000 
#    0.000    0.000    0.000    0.000    0.000    0.000 
#
# Total GULP energy -173572.192051 kJ/mol
# GULP energy per Si atom -12398.013718 kJ/mol
# Density = 2.297130 g / cm^3
# Si number density = 23.023705 Si / 1000 Ang^3
#
#
#
# Elastic Constant Matrix: (Units=GPa)
#
#
# Indices 1 2 3 4 5 6 
#
# 1 116.5311 36.6917 63.4711 12.0980 4.1391 -8.9681
# 2 36.6917 118.8551 55.2772 -4.2170 -2.3277 2.8561
# 3 63.4711 55.2772 156.1480 -1.0540 6.9880 -5.0229
# 4 12.0980 -4.2170 -1.0540 56.7106 -8.3937 -1.8489
# 5 4.1391 -2.3277 6.9880 -8.3937 43.2013 2.8529
# 6 -8.9681 2.8561 -5.0229 -1.8489 2.8529 30.4519
#
#
#
# Elastic Compliance Matrix: (Units=1/GPa)
#
#
# Indices 1 2 3 4 5 6 
#
# 1 0.011989 -0.002036 -0.004014 -0.002888 -0.001369 0.003013
# 2 -0.002036 0.010597 -0.003059 0.001341 0.001665 -0.002173
# 3 -0.004014 -0.003059 0.009201 0.000648 -0.001194 0.000774
# 4 -0.002888 0.001341 0.000648 0.018940 0.003930 -0.000088
# 5 -0.001369 0.001665 -0.001194 0.003930 0.024511 -0.002814
# 6 0.003013 -0.002173 0.000774 -0.000088 -0.002814 0.034316
#
#
# Mechanical properties :
#
#
# Convention : Reuss Voigt Hill
#
# Bulk Modulus (GPa) = 73.69466 78.04601 75.87034
# Shear Modulus (GPa) = 37.79414 41.81236 39.80325
#
# Velocity S-wave (km/s) = 4.05598 4.26615 4.16239
# Velocity P-wave (km/s) = 7.34930 7.63141 7.49168
#
# Compressibility (1/GPa) = 0.01356950
#
# Stress axis : x y z
#
# Youngs Moduli (GPa) = 83.40974 94.36330 108.67902
#
# Poissons Ratio (x) = 0.19213 0.43622
# Poissons Ratio (y) = 0.16982 0.33248
# Poissons Ratio (z) = 0.33479 0.28868
#
# Static dielectric constant tensor:
#      x y z
#    x 4.618880 0.110610 0.077690 
#    y 0.110610 4.259910 0.046260 
#    z 0.077690 0.046260 4.579890 
# 
# 
# High freq. dielectric constant tensor:
#      x y z
#    x 1.899700 -0.007940 -0.007650 
#    y -0.007940 1.921220 -0.003410 
#    z -0.007650 -0.003410 1.933490 
# 
# From -- ./inp_files/332817.got.cif
#   From: 2010.06.25/outbox.cif.g09.slc.cpg/sg2_167_cif.got.tgz:332817.got - 2010.06.27 13:26:56.
