data_PCOD8034245
_publ_section_title
;
Structure prediction by ZEFSAII (Michael W. Deem and Ramdas Pophale) SiO2 
 PCOD8034245
Probable space group: P -1
;
_chemical_formula_sum "Si O2"
_cell_formula_units_Z 12
_cell_length_a 7.669324
_cell_length_b 25.143843
_cell_length_c 28.001681
_cell_angle_alpha 9.467714
_cell_angle_beta 147.551268
_cell_angle_gamma 147.917449
_cell_volume 469.719242
_symmetry_space_group_name_H-M "P -1"
_symmetry_group_IT_number 2
_symmetry_cell_setting 'triclinic'
loop_
_space_group_symop_operation_xyz
x,y,z
-x,-y,-z
loop_
_atom_site_type_symbol
_atom_site_label
_atom_site_fract_x
_atom_site_fract_y
_atom_site_fract_z
Si Si1 0.239836 0.856442 0.437443
Si Si2 0.405569 0.027608 0.772973
Si Si3 0.379797 0.283204 0.434315
Si Si4 0.641634 0.170467 0.334123
Si Si5 0.087465 0.723483 0.174949
Si Si6 0.772534 0.585976 0.428705
O O1 0.400456 0.936340 0.350998
O O2 0.944682 0.056078 0.205218
O O3 0.071213 0.471954 0.735510
O O4 0.527161 0.914703 0.491445
O O5 0.336013 0.161847 0.585682
O O6 0.653286 0.309057 0.607912
O O7 0.538160 0.677536 0.113788
O O8 0.032433 0.245319 0.360725
O O9 0.500000 0.000000 0.500000
O O10 0.500000 0.500000 0.000000
O O11 0.482373 0.736529 0.254230
O O12 0.986488 0.539085 0.365936
O O13 0.003108 0.094311 0.827706
#
# Coordination Sequence:
#
# PCOD8034245 Si02
#       6
#     2   2   2   2   2   2
#     4  11  25  44  71  97 136 176 217 279 327 391
#     4  11  24  44  69  98 138 175 220 271 326 388
#     4  12  25  44  68 103 131 174 224 267 334 395
#     4  12  24  46  69  97 130 174 217 273 336 391
#     4   9  19  35  61  94 124 172 219 254 328 382
#     4   9  18  37  61  91 130 171 212 267 314 382
#
# _framework density 25.547177000000001
#
# number of rings (size 3 to 8) (size 9 to 14) (size 15 to 20)
#    0.000    1.333    3.333    1.500    0.000    9.333 
#    0.000    8.333    0.000    0.000    0.000    0.000 
#    0.000    0.000    0.000    0.000    0.000    0.000 
#
# Total GULP energy -148779.015686 kJ/mol
# GULP energy per Si atom -12398.251307 kJ/mol
# Density = 2.548903 g / cm^3
# Si number density = 25.547177 Si / 1000 Ang^3
#
#
#
# Elastic Constant Matrix: (Units=GPa)
#
#
# Indices 1 2 3 4 5 6 
#
# 1 137.0008 37.9173 69.1694 6.1468 3.0976 -22.9646
# 2 37.9173 185.6249 76.3809 -9.0021 -7.4672 -32.4795
# 3 69.1694 76.3809 161.0912 11.7635 -18.4497 -11.4892
# 4 6.1468 -9.0021 11.7635 33.6302 4.2761 -2.6916
# 5 3.0976 -7.4672 -18.4497 4.2761 40.9479 -2.4589
# 6 -22.9646 -32.4795 -11.4892 -2.6916 -2.4589 43.2270
#
#
#
# Elastic Compliance Matrix: (Units=1/GPa)
#
#
# Indices 1 2 3 4 5 6 
#
# 1 0.010315 0.000547 -0.004706 0.000599 -0.002591 0.004530
# 2 0.000547 0.008060 -0.004005 0.003957 -0.000459 0.005502
# 3 -0.004706 -0.004005 0.010848 -0.004837 0.004859 -0.002651
# 4 0.000599 0.003957 -0.004837 0.033286 -0.004750 0.003809
# 5 -0.002591 -0.000459 0.004859 -0.004750 0.027269 0.000825
# 6 0.004530 0.005502 -0.002651 0.003809 0.000825 0.029254
#
#
# Mechanical properties :
#
#
# Convention : Reuss Voigt Hill
#
# Bulk Modulus (GPa) = 77.55662 94.51690 86.03676
# Shear Modulus (GPa) = 35.80196 43.57762 39.68979
#
# Velocity S-wave (km/s) = 3.74760 4.13458 3.94583
# Velocity P-wave (km/s) = 7.01071 7.73759 7.38310
#
# Compressibility (1/GPa) = 0.01289381
#
# Stress axis : x y z
#
# Youngs Moduli (GPa) = 96.94889 124.07163 92.18319
#
# Poissons Ratio (x) = -0.06783 0.43378
# Poissons Ratio (y) = -0.05300 0.36923
# Poissons Ratio (z) = 0.45620 0.49696
#
# Static dielectric constant tensor:
#      x y z
#    x 4.921350 0.367080 -0.005650 
#    y 0.367080 5.163710 -0.098840 
#    z -0.005650 -0.098840 4.590790 
# 
# 
# High freq. dielectric constant tensor:
#      x y z
#    x 2.045920 0.024210 0.011730 
#    y 0.024210 2.055010 0.001380 
#    z 0.011730 0.001380 2.008470 
# 
# From -- ./inp_files/46124.got.cif
#   From: 2010.06.25/outbox.cif.g09.slc.cpg/sg2_24_cif.got.tgz:46124.got - 2010.06.27 13:26:56.
