data_PCOD8034331
_publ_section_title
;
Structure prediction by ZEFSAII (Michael W. Deem and Ramdas Pophale) SiO2 
 PCOD8034331
Probable space group: P -1
;
_chemical_formula_sum "Si O2"
_cell_formula_units_Z 14
_cell_length_a 9.053224
_cell_length_b 22.169837
_cell_length_c 9.372775
_cell_angle_alpha 134.706497
_cell_angle_beta 74.461129
_cell_angle_gamma 141.991733
_cell_volume 622.535817
_symmetry_space_group_name_H-M "P -1"
_symmetry_group_IT_number 2
_symmetry_cell_setting 'triclinic'
loop_
_space_group_symop_operation_xyz
x,y,z
-x,-y,-z
loop_
_atom_site_type_symbol
_atom_site_label
_atom_site_fract_x
_atom_site_fract_y
_atom_site_fract_z
Si Si1 0.762322 0.559015 0.702118
Si Si2 0.781697 0.971636 0.172936
Si Si3 0.315697 0.495040 0.694840
Si Si4 0.681981 0.244797 0.563059
Si Si5 0.649031 0.819469 0.230019
Si Si6 0.548838 0.749989 0.608789
Si Si7 0.417426 0.953144 0.276903
O O1 0.451932 0.467815 0.646519
O O2 0.820719 0.566902 0.533639
O O3 0.711577 0.447635 0.617778
O O4 0.059698 0.748558 0.011667
O O5 0.612868 0.868648 0.193970
O O6 0.659297 0.006011 0.222256
O O7 0.676392 0.848652 0.886702
O O8 0.162700 0.154139 0.392884
O O9 0.037188 0.380508 0.689223
O O10 0.597626 0.699523 0.985082
O O11 0.631915 0.295247 0.775987
O O12 0.596944 0.242693 0.428486
O O13 0.443519 0.054409 0.354654
O O14 0.000000 0.000000 0.500000
O O15 0.500000 0.000000 0.500000
#
# Coordination Sequence:
#
# PCOD8034331 Si02
#       7
#     2   2   2   2   2   2   2
#     4  11  26  47  72 102 146 183 234 294 345 412
#     4  11  24  44  72 100 144 180 236 282 354 414
#     4  11  26  45  73 104 142 185 237 285 351 412
#     4  12  26  45  73 105 141 183 235 290 349 418
#     4  12  23  45  71 105 143 184 228 291 351 414
#     4  11  25  44  74 106 135 185 237 289 343 420
#     4  12  27  46  70 103 142 187 228 289 355 414
#
# _framework density 22.488665000000001
#
# number of rings (size 3 to 8) (size 9 to 14) (size 15 to 20)
#    0.000    0.571    4.286    3.000    2.000    5.714 
#    0.000    2.143    0.000    0.000    0.000    0.000 
#    0.000    0.000    0.000    0.000    0.000    0.000 
#
# Total GULP energy -173651.433728 kJ/mol
# GULP energy per Si atom -12403.673838 kJ/mol
# Density = 2.243748 g / cm^3
# Si number density = 22.488665 Si / 1000 Ang^3
#
#
#
# Elastic Constant Matrix: (Units=GPa)
#
#
# Indices 1 2 3 4 5 6 
#
# 1 117.6160 49.0284 27.5022 6.4457 -5.3599 -6.9906
# 2 49.0284 110.2718 45.8222 -0.7121 3.8947 -0.6242
# 3 27.5022 45.8222 126.7923 6.5956 -1.6145 -12.2924
# 4 6.4457 -0.7121 6.5956 29.8017 -2.1160 -8.6812
# 5 -5.3599 3.8947 -1.6145 -2.1160 32.5853 4.2410
# 6 -6.9906 -0.6242 -12.2924 -8.6812 4.2410 56.5120
#
#
#
# Elastic Compliance Matrix: (Units=1/GPa)
#
#
# Indices 1 2 3 4 5 6 
#
# 1 0.010816 -0.004707 -0.000444 -0.001993 0.002096 0.000726
# 2 -0.004707 0.012835 -0.003819 0.001767 -0.002275 -0.000829
# 3 -0.000444 -0.003819 0.009619 -0.001588 0.000534 0.001711
# 4 -0.001993 0.001767 -0.001588 0.035871 0.001080 0.004857
# 5 0.002096 -0.002275 0.000534 0.001080 0.031644 -0.001859
# 6 0.000726 -0.000829 0.001711 0.004857 -0.001859 0.019034
#
#
# Mechanical properties :
#
#
# Convention : Reuss Voigt Hill
#
# Bulk Modulus (GPa) = 65.23312 66.59841 65.91576
# Shear Modulus (GPa) = 34.99693 39.26828 37.13261
#
# Velocity S-wave (km/s) = 3.94915 4.18321 4.06787
# Velocity P-wave (km/s) = 7.06148 7.28086 7.17201
#
# Compressibility (1/GPa) = 0.01532964
#
# Stress axis : x y z
#
# Youngs Moduli (GPa) = 92.45366 77.90965 103.96454
#
# Poissons Ratio (x) = 0.36674 0.04618
# Poissons Ratio (y) = 0.43520 0.39703
# Poissons Ratio (z) = 0.04107 0.29753
#
# Static dielectric constant tensor:
#      x y z
#    x 4.137190 0.087920 -0.145280 
#    y 0.087920 4.118480 -0.078450 
#    z -0.145280 -0.078450 3.910000 
# 
# 
# High freq. dielectric constant tensor:
#      x y z
#    x 1.898760 0.006000 -0.008650 
#    y 0.006000 1.890250 -0.002250 
#    z -0.008650 -0.002250 1.883570 
# 
# From -- ./inp_files/151925.got.cif
#   From: 2010.06.25/outbox.cif.g09.slc.cpg/sg2_76_cif.got.tgz:151925.got - 2010.06.27 13:26:56.
