data_PCOD8034613
_publ_section_title
;
Structure prediction by ZEFSAII (Michael W. Deem and Ramdas Pophale) SiO2 
 PCOD8034613
Probable space group: P -1
;
_chemical_formula_sum "Si O2"
_cell_formula_units_Z 12
_cell_length_a 7.529821
_cell_length_b 5.214129
_cell_length_c 13.099257
_cell_angle_alpha 117.069074
_cell_angle_beta 99.536895
_cell_angle_gamma 87.353859
_cell_volume 451.379572
_symmetry_space_group_name_H-M "P -1"
_symmetry_group_IT_number 2
_symmetry_cell_setting 'triclinic'
loop_
_space_group_symop_operation_xyz
x,y,z
-x,-y,-z
loop_
_atom_site_type_symbol
_atom_site_label
_atom_site_fract_x
_atom_site_fract_y
_atom_site_fract_z
Si Si1 0.654733 0.067270 0.717682
Si Si2 0.073785 0.814571 0.382213
Si Si3 0.348731 0.715737 0.547497
Si Si4 0.194008 0.696031 0.749721
Si Si5 0.404692 0.292379 0.152677
Si Si6 0.101127 0.194298 0.962307
O O1 0.835754 0.971234 0.656746
O O2 0.686445 0.408234 0.779460
O O3 0.463307 0.012989 0.631605
O O4 0.653674 0.936897 0.807103
O O5 0.241546 0.667928 0.424923
O O6 0.932379 0.578772 0.279392
O O7 0.000000 0.000000 0.500000
O O8 0.500000 0.500000 0.500000
O O9 0.222471 0.669338 0.626153
O O10 0.379345 0.672284 0.827465
O O11 0.104672 0.004326 0.823573
O O12 0.312334 0.212805 0.020778
O O13 0.000000 0.500000 0.000000
O O14 0.000000 0.000000 0.000000
#
# Coordination Sequence:
#
# PCOD8034613 Si02
#       6
#     2   2   2   2   2   2
#     4  11  24  45  73 107 145 197 246 302 370 440
#     4  12  24  41  70 111 151 195 249 307 366 443
#     4  11  24  45  72 106 149 198 247 302 367 441
#     4  11  26  47  75 112 151 200 250 309 374 443
#     4  11  25  49  77 104 145 193 247 306 372 445
#     4  12  28  49  77 112 148 193 250 312 376 444
#
# _framework density 26.585162
#
# number of rings (size 3 to 8) (size 9 to 14) (size 15 to 20)
#    0.000    0.667    0.000    7.500    0.000    9.333 
#    0.000    5.833    0.000    0.000    0.000    0.000 
#    0.000    0.000    0.000    0.000    0.000    0.000 
#
# Total GULP energy -148657.740463 kJ/mol
# GULP energy per Si atom -12388.145039 kJ/mol
# Density = 2.652465 g / cm^3
# Si number density = 26.585162 Si / 1000 Ang^3
#
#
#
# Elastic Constant Matrix: (Units=GPa)
#
#
# Indices 1 2 3 4 5 6 
#
# 1 144.3120 47.4943 39.0289 -11.9844 16.8247 10.4049
# 2 47.4943 129.0240 37.2520 5.4779 -0.7856 3.1652
# 3 39.0289 37.2520 109.9279 4.2174 6.8850 -13.0670
# 4 -11.9844 5.4779 4.2174 34.1533 -14.1576 -2.2402
# 5 16.8247 -0.7856 6.8850 -14.1576 63.6716 0.0975
# 6 10.4049 3.1652 -13.0670 -2.2402 0.0975 39.9095
#
#
#
# Elastic Compliance Matrix: (Units=1/GPa)
#
#
# Indices 1 2 3 4 5 6 
#
# 1 0.009191 -0.002667 -0.002736 0.003200 -0.001450 -0.002897
# 2 -0.002667 0.009523 -0.002357 -0.001968 0.000641 -0.000944
# 3 -0.002736 -0.002357 0.011557 -0.002140 -0.001039 0.004566
# 4 0.003200 -0.001968 -0.002140 0.033873 0.006893 0.000506
# 5 -0.001450 0.000641 -0.001039 0.006893 0.017741 0.000331
# 6 -0.002897 -0.000944 0.004566 0.000506 0.000331 0.027410
#
#
# Mechanical properties :
#
#
# Convention : Reuss Voigt Hill
#
# Bulk Modulus (GPa) = 67.78988 70.09049 68.94018
# Shear Modulus (GPa) = 38.54136 44.84612 41.69374
#
# Velocity S-wave (km/s) = 3.81167 4.11163 3.96448
# Velocity P-wave (km/s) = 6.70270 6.99731 6.85159
#
# Compressibility (1/GPa) = 0.01475147
#
# Stress axis : x y z
#
# Youngs Moduli (GPa) = 108.80724 105.00469 86.52833
#
# Poissons Ratio (x) = 0.28003 0.23671
# Poissons Ratio (y) = 0.29017 0.20397
# Poissons Ratio (z) = 0.29766 0.24752
#
# Static dielectric constant tensor:
#      x y z
#    x 4.843210 -0.253920 -0.640150 
#    y -0.253920 4.349200 -0.663640 
#    z -0.640150 -0.663640 2.295160 
# 
# 
# High freq. dielectric constant tensor:
#      x y z
#    x 2.093280 -0.003080 0.008510 
#    y -0.003080 2.055780 0.008190 
#    z 0.008510 0.008190 2.079230 
# 
# From -- ./inp_files/487411.got.cif
#   From: 2010.06.25/outbox.cif.g09.slc.cpg/sg2_244_cif.got.tgz:487411.got - 2010.06.27 13:26:56.
