data_PCOD8034583
_publ_section_title
;
Structure prediction by ZEFSAII (Michael W. Deem and Ramdas Pophale) SiO2 
 PCOD8034583
Probable space group: P -1
;
_chemical_formula_sum "Si O2"
_cell_formula_units_Z 16
_cell_length_a 9.052156
_cell_length_b 16.955071
_cell_length_c 11.262556
_cell_angle_alpha 147.902879
_cell_angle_beta 124.854745
_cell_angle_gamma 65.577760
_cell_volume 743.745964
_symmetry_space_group_name_H-M "P -1"
_symmetry_group_IT_number 2
_symmetry_cell_setting 'triclinic'
loop_
_space_group_symop_operation_xyz
x,y,z
-x,-y,-z
loop_
_atom_site_type_symbol
_atom_site_label
_atom_site_fract_x
_atom_site_fract_y
_atom_site_fract_z
Si Si1 0.048922 0.097627 0.031728
Si Si2 0.343593 0.569717 0.457382
Si Si3 0.020524 0.601586 0.524735
Si Si4 0.692945 0.454350 0.025917
Si Si5 0.475234 0.143865 0.246476
Si Si6 0.226469 0.089430 0.496928
Si Si7 0.830921 0.585670 0.029888
Si Si8 0.573092 0.125431 0.538955
O O1 0.261824 0.150112 0.170144
O O2 0.957302 0.238932 0.200918
O O3 0.000000 0.000000 0.000000
O O4 0.954588 0.016437 0.767865
O O5 0.500000 0.500000 0.500000
O O6 0.203917 0.605832 0.539145
O O7 0.419538 0.712832 0.593521
O O8 0.247820 0.428888 0.156576
O O9 0.000000 0.500000 0.500000
O O10 0.844897 0.562438 0.308725
O O11 0.707719 0.476322 0.921331
O O12 0.500000 0.500000 0.000000
O O13 0.693120 0.280633 0.839376
O O14 0.562464 0.128445 0.396040
O O15 0.500000 0.000000 0.000000
O O16 0.153979 0.240083 0.700660
O O17 0.371285 0.116856 0.490791
O O18 0.323326 0.011221 0.548481
O O19 0.000000 0.500000 0.000000
#
# Coordination Sequence:
#
# PCOD8034583 Si02
#       8
#     2   2   2   2   2   2   2   2
#     4  12  24  45  74 105 144 191 243 294 360 435
#     4  12  29  47  74 108 147 191 244 307 368 432
#     4  12  27  47  74 105 142 187 244 302 362 438
#     4  12  23  44  74 106 138 190 245 294 362 437
#     4  12  27  46  71 105 148 194 237 298 372 432
#     4  11  26  44  72 109 146 191 242 300 362 428
#     4  12  26  47  74 102 147 190 244 299 368 437
#     4  11  24  45  71 108 145 188 244 302 358 437
#
# _framework density 21.512723000000001
#
# number of rings (size 3 to 8) (size 9 to 14) (size 15 to 20)
#    0.000    0.250    5.000    3.750    5.250    1.000 
#    0.000    1.250    0.000    0.000    0.000    0.000 
#    0.000    0.000    0.000    0.000    0.000    0.000 
#
# Total GULP energy -198247.075338 kJ/mol
# GULP energy per Si atom -12390.442209 kJ/mol
# Density = 2.146376 g / cm^3
# Si number density = 21.512723 Si / 1000 Ang^3
#
#
#
# Elastic Constant Matrix: (Units=GPa)
#
#
# Indices 1 2 3 4 5 6 
#
# 1 169.7118 73.6211 57.8832 4.0556 -6.9638 -4.1548
# 2 73.6211 157.2875 68.1746 4.8863 -11.7569 -2.1110
# 3 57.8832 68.1746 140.5167 7.1518 -14.3116 -9.7988
# 4 4.0556 4.8863 7.1518 46.3084 -3.9229 2.0488
# 5 -6.9638 -11.7569 -14.3116 -3.9229 36.6202 2.8819
# 6 -4.1548 -2.1110 -9.7988 2.0488 2.8819 45.7516
#
#
#
# Elastic Compliance Matrix: (Units=1/GPa)
#
#
# Indices 1 2 3 4 5 6 
#
# 1 0.007745 -0.002849 -0.001806 -0.000123 -0.000177 0.000202
# 2 -0.002849 0.009155 -0.003183 -0.000098 0.001189 -0.000589
# 3 -0.001806 -0.003183 0.009796 -0.000904 0.002233 0.001687
# 4 -0.000123 -0.000098 -0.000904 0.021987 0.002051 -0.001323
# 5 -0.000177 0.001189 0.002233 0.002051 0.028858 -0.001392
# 6 0.000202 -0.000589 0.001687 -0.001323 -0.001392 0.022357
#
#
# Mechanical properties :
#
#
# Convention : Reuss Voigt Hill
#
# Bulk Modulus (GPa) = 90.74402 96.31934 93.53168
# Shear Modulus (GPa) = 41.92997 43.59186 42.76092
#
# Velocity S-wave (km/s) = 4.41963 4.50636 4.46320
# Velocity P-wave (km/s) = 8.26543 8.48214 8.37449
#
# Compressibility (1/GPa) = 0.01102001
#
# Stress axis : x y z
#
# Youngs Moduli (GPa) = 129.11938 109.22920 102.08375
#
# Poissons Ratio (x) = 0.31120 0.18433
# Poissons Ratio (y) = 0.36787 0.32494
# Poissons Ratio (z) = 0.23315 0.34768
#
# Static dielectric constant tensor:
#      x y z
#    x 4.114280 0.093930 -0.173700 
#    y 0.093930 4.035780 -0.096690 
#    z -0.173700 -0.096690 4.336830 
# 
# 
# High freq. dielectric constant tensor:
#      x y z
#    x 1.860970 0.001800 -0.003710 
#    y 0.001800 1.857530 0.002510 
#    z -0.003710 0.002510 1.858470 
# 
# From -- ./inp_files/403655.got.cif
#   From: 2010.06.25/outbox.cif.g09.slc.cpg/sg2_202_cif.got.tgz:403655.got - 2010.06.27 13:26:56.
