data_PCOD8034938
_publ_section_title
;
Structure prediction by ZEFSAII (Michael W. Deem and Ramdas Pophale) SiO2 
 PCOD8034938
Probable space group: P -1
;
_chemical_formula_sum "Si O2"
_cell_formula_units_Z 14
_cell_length_a 8.674151
_cell_length_b 8.183724
_cell_length_c 9.086887
_cell_angle_alpha 79.253994
_cell_angle_beta 106.049495
_cell_angle_gamma 109.923413
_cell_volume 579.759992
_symmetry_space_group_name_H-M "P -1"
_symmetry_group_IT_number 2
_symmetry_cell_setting 'triclinic'
loop_
_space_group_symop_operation_xyz
x,y,z
-x,-y,-z
loop_
_atom_site_type_symbol
_atom_site_label
_atom_site_fract_x
_atom_site_fract_y
_atom_site_fract_z
Si Si1 0.366324 0.582272 0.020405
Si Si2 0.168988 0.795297 0.811956
Si Si3 0.607890 0.279655 0.675696
Si Si4 0.763621 0.891379 0.444338
Si Si5 0.839722 0.043943 0.754754
Si Si6 0.896477 0.584454 0.564445
Si Si7 0.918821 0.762955 0.995551
O O1 0.430673 0.661450 0.182442
O O2 0.183162 0.439274 0.007239
O O3 0.500000 0.500000 0.000000
O O4 0.335245 0.732003 0.881534
O O5 0.012756 0.647849 0.725224
O O6 0.100272 0.816600 0.952052
O O7 0.220697 0.976270 0.708045
O O8 0.431845 0.205900 0.555872
O O9 0.689987 0.124686 0.727897
O O10 0.722721 0.442712 0.587702
O O11 0.854726 0.747711 0.450607
O O12 0.853244 0.996567 0.594951
O O13 0.802554 0.869174 0.873993
O O14 0.021879 0.178398 0.830930
O O15 0.000000 0.500000 0.500000
#
# Coordination Sequence:
#
# PCOD8034938 Si02
#       7
#     2   2   2   2   2   2   2
#     4  12  28  49  75 110 151 195 254 309 377 438
#     4  12  25  49  77 108 148 196 256 305 365 448
#     4  12  26  48  76 107 157 196 245 308 379 437
#     4  12  28  47  75 115 154 193 245 311 376 440
#     4  11  24  46  78 107 146 197 248 304 367 442
#     4  12  27  48  78 111 149 197 253 301 372 448
#     4  11  24  48  82 102 148 197 254 308 367 438
#
# _framework density 24.147924
#
# number of rings (size 3 to 8) (size 9 to 14) (size 15 to 20)
#    0.000    0.286    4.286    3.429    6.000    2.857 
#    2.571    0.000    0.000    0.000    0.000    0.000 
#    0.000    0.000    0.000    0.000    0.000    0.000 
#
# Total GULP energy -173634.023566 kJ/mol
# GULP energy per Si atom -12402.430255 kJ/mol
# Density = 2.409296 g / cm^3
# Si number density = 24.147924 Si / 1000 Ang^3
#
#
#
# Elastic Constant Matrix: (Units=GPa)
#
#
# Indices 1 2 3 4 5 6 
#
# 1 136.4698 65.6916 48.3763 -20.7827 3.0532 -29.1840
# 2 65.6916 122.0160 64.1480 -4.3718 1.0261 -19.5731
# 3 48.3763 64.1480 108.0561 -19.9155 8.7724 -9.4777
# 4 -20.7827 -4.3718 -19.9155 27.8293 -2.3651 11.1606
# 5 3.0532 1.0261 8.7724 -2.3651 36.8026 -0.7639
# 6 -29.1840 -19.5731 -9.4777 11.1606 -0.7639 62.2782
#
#
#
# Elastic Compliance Matrix: (Units=1/GPa)
#
#
# Indices 1 2 3 4 5 6 
#
# 1 0.011611 -0.005262 -0.000668 0.006327 -0.000198 0.002549
# 2 -0.005262 0.015490 -0.008267 -0.008352 0.001494 0.002659
# 3 -0.000668 -0.008267 0.016466 0.010675 -0.003002 -0.002355
# 4 0.006327 -0.008352 0.010675 0.049794 0.000219 -0.006956
# 5 -0.000198 0.001494 -0.003002 0.000219 0.027881 0.000223
# 6 0.002549 0.002659 -0.002355 -0.006956 0.000223 0.018978
#
#
# Mechanical properties :
#
#
# Convention : Reuss Voigt Hill
#
# Bulk Modulus (GPa) = 65.91498 80.33041 73.12270
# Shear Modulus (GPa) = 28.78980 37.93709 33.36344
#
# Velocity S-wave (km/s) = 3.45661 3.96792 3.72106
# Velocity P-wave (km/s) = 6.57924 7.37094 6.98631
#
# Compressibility (1/GPa) = 0.01517106
#
# Stress axis : x y z
#
# Youngs Moduli (GPa) = 86.12754 64.55804 60.73073
#
# Poissons Ratio (x) = 0.33973 0.04059
# Poissons Ratio (y) = 0.45324 0.50207
# Poissons Ratio (z) = 0.05756 0.53371
#
# Static dielectric constant tensor:
#      x y z
#    x 4.218540 -0.227480 0.180720 
#    y -0.227480 4.618860 0.069030 
#    z 0.180720 0.069030 4.464040 
# 
# 
# High freq. dielectric constant tensor:
#      x y z
#    x 1.954790 -0.017510 0.010950 
#    y -0.017510 1.976240 0.001960 
#    z 0.010950 0.001960 1.964840 
# 
# From -- ./inp_files/158203.got.cif
#   From: 2010.06.25/outbox.cif.g09.slc.cpg/sg2_80_cif.got.tgz:158203.got - 2010.06.27 13:26:56.
