data_PCOD8034106
_publ_section_title
;
Structure prediction by ZEFSAII (Michael W. Deem and Ramdas Pophale) SiO2 
 PCOD8034106
Probable space group: P -1
;
_chemical_formula_sum "Si O2"
_cell_formula_units_Z 12
_cell_length_a 9.849638
_cell_length_b 27.903971
_cell_length_c 25.470296
_cell_angle_alpha 9.551542
_cell_angle_beta 25.253998
_cell_angle_gamma 24.773733
_cell_volume 482.619133
_symmetry_space_group_name_H-M "P -1"
_symmetry_group_IT_number 2
_symmetry_cell_setting 'triclinic'
loop_
_space_group_symop_operation_xyz
x,y,z
-x,-y,-z
loop_
_atom_site_type_symbol
_atom_site_label
_atom_site_fract_x
_atom_site_fract_y
_atom_site_fract_z
Si Si1 0.320727 0.137838 0.701069
Si Si2 0.260709 0.449053 0.593110
Si Si3 0.190244 0.407103 0.233673
Si Si4 0.780782 0.277042 0.305704
Si Si5 0.806494 0.249331 0.040281
Si Si6 0.497390 0.468074 0.379723
O O1 0.645328 0.151100 0.541105
O O2 0.316807 0.331073 0.545750
O O3 0.002293 0.251449 0.653728
O O4 0.316221 0.810537 0.074580
O O5 0.500000 0.500000 0.500000
O O6 0.454637 0.318806 0.612909
O O7 0.055708 0.220606 0.934971
O O8 0.887755 0.422370 0.282524
O O9 0.305864 0.060753 0.584298
O O10 0.500000 0.500000 0.000000
O O11 0.037615 0.653346 0.065628
O O12 0.492870 0.464480 0.168345
O O13 0.000000 0.000000 0.500000
O O14 0.000000 0.500000 0.000000
#
# Coordination Sequence:
#
# PCOD8034106 Si02
#       6
#     2   2   2   2   2   2
#     4  11  27  47  72 113 145 194 250 306 373 441
#     4  11  25  51  78 109 149 195 254 308 373 445
#     4  12  27  45  73 106 151 195 246 302 372 440
#     4  11  24  43  73 101 144 195 240 302 368 441
#     4  11  26  47  71 109 141 193 255 305 359 444
#     4  12  26  48  76 107 153 197 243 309 373 440
#
# _framework density 24.864326999999999
#
# number of rings (size 3 to 8) (size 9 to 14) (size 15 to 20)
#    0.000    0.667    1.667    4.500    7.000    6.000 
#    0.000    0.000    0.000    0.000    0.000    0.000 
#    0.000    0.000    0.000    0.000    0.000    0.000 
#
# Total GULP energy -148782.010949 kJ/mol
# GULP energy per Si atom -12398.500912 kJ/mol
# Density = 2.480773 g / cm^3
# Si number density = 24.864327 Si / 1000 Ang^3
#
#
#
# Elastic Constant Matrix: (Units=GPa)
#
#
# Indices 1 2 3 4 5 6 
#
# 1 151.0511 60.4918 59.1627 3.8745 -4.0552 4.7828
# 2 60.4918 119.4044 63.2566 13.8905 0.1919 1.0117
# 3 59.1627 63.2566 179.8388 2.2626 -7.2038 12.6284
# 4 3.8745 13.8905 2.2626 40.2437 7.0187 -0.3842
# 5 -4.0552 0.1919 -7.2038 7.0187 37.7044 -3.2064
# 6 4.7828 1.0117 12.6284 -0.3842 -3.2064 50.1693
#
#
#
# Elastic Compliance Matrix: (Units=1/GPa)
#
#
# Indices 1 2 3 4 5 6 
#
# 1 0.008694 -0.003633 -0.001542 0.000403 0.000556 -0.000329
# 2 -0.003633 0.012308 -0.003160 -0.003660 -0.000304 0.000846
# 3 -0.001542 -0.003160 0.007321 0.000639 0.000997 -0.001563
# 4 0.000403 -0.003660 0.000639 0.026879 -0.004839 -0.000229
# 5 0.000556 -0.000304 0.000997 -0.004839 0.027797 0.001442
# 6 -0.000329 0.000846 -0.001563 -0.000229 0.001442 0.020431
#
#
# Mechanical properties :
#
#
# Convention : Reuss Voigt Hill
#
# Bulk Modulus (GPa) = 85.80571 90.67961 88.24266
# Shear Modulus (GPa) = 40.32781 43.44902 41.88841
#
# Velocity S-wave (km/s) = 4.03167 4.18478 4.10894
# Velocity P-wave (km/s) = 7.50046 7.73943 7.62088
#
# Compressibility (1/GPa) = 0.01165424
#
# Stress axis : x y z
#
# Youngs Moduli (GPa) = 115.02169 81.24631 136.59359
#
# Poissons Ratio (x) = 0.29513 0.21064
# Poissons Ratio (y) = 0.41782 0.43161
# Poissons Ratio (z) = 0.17738 0.25672
#
# Static dielectric constant tensor:
#      x y z
#    x 4.634530 0.004720 0.186470 
#    y 0.004720 4.486560 0.261750 
#    z 0.186470 0.261750 4.549500 
# 
# 
# High freq. dielectric constant tensor:
#      x y z
#    x 1.992600 -0.009390 0.005170 
#    y -0.009390 2.007360 0.011270 
#    z 0.005170 0.011270 1.998780 
# 
# From -- ./inp_files/59595.got.cif
#   From: 2010.06.25/outbox.cif.g09.slc.cpg/sg2_30_cif.got.tgz:59595.got - 2010.06.27 13:26:56.
