data_PCOD8034479
_publ_section_title
;
Structure prediction by ZEFSAII (Michael W. Deem and Ramdas Pophale) SiO2 
 PCOD8034479
Probable space group: P -1
;
_chemical_formula_sum "Si O2"
_cell_formula_units_Z 16
_cell_length_a 21.759530
_cell_length_b 9.401897
_cell_length_c 6.713532
_cell_angle_alpha 49.864366
_cell_angle_beta 125.553973
_cell_angle_gamma 133.243340
_cell_volume 740.389658
_symmetry_space_group_name_H-M "P -1"
_symmetry_group_IT_number 2
_symmetry_cell_setting 'triclinic'
loop_
_space_group_symop_operation_xyz
x,y,z
-x,-y,-z
loop_
_atom_site_type_symbol
_atom_site_label
_atom_site_fract_x
_atom_site_fract_y
_atom_site_fract_z
Si Si1 0.448584 0.087717 0.942417
Si Si2 0.154340 0.578003 0.131053
Si Si3 0.328215 0.060556 0.404508
Si Si4 0.072122 0.185727 0.605942
Si Si5 0.976423 0.669433 0.223116
Si Si6 0.649373 0.225112 0.604261
Si Si7 0.145105 0.917466 0.057764
Si Si8 0.426530 0.510290 0.974079
O O1 0.416170 0.953151 0.205158
O O2 0.368987 0.090526 0.673554
O O3 0.522656 0.331815 0.893047
O O4 0.500000 0.000000 0.000000
O O5 0.108171 0.419357 0.371212
O O6 0.255236 0.650896 0.231966
O O7 0.141341 0.780622 0.978366
O O8 0.112996 0.464484 0.947538
O O9 0.358988 0.279088 0.143860
O O10 0.353086 0.901411 0.484197
O O11 0.223220 0.948955 0.322329
O O12 0.034609 0.192289 0.747709
O O13 0.000000 0.000000 0.500000
O O14 0.154957 0.145136 0.804650
O O15 0.000000 0.500000 0.500000
O O16 0.053334 0.822252 0.083535
O O17 0.621552 0.400120 0.339816
O O18 0.500000 0.500000 0.000000
#
# Coordination Sequence:
#
# PCOD8034479 Si02
#       8
#     2   2   2   2   2   2   2   2
#     4  12  24  45  73  97 135 180 223 272 343 408
#     4  11  25  45  68  97 137 177 222 275 334 393
#     4  11  25  45  68 104 136 173 226 281 333 404
#     4  12  24  44  67  96 133 179 229 271 326 393
#     4  12  24  43  69  97 134 181 222 269 333 397
#     4  11  25  45  68 103 139 173 221 286 334 395
#     4  11  24  45  68  98 136 175 223 278 332 392
#     4  12  23  46  72  96 136 176 222 275 343 401
#
# _framework density 21.610243000000001
#
# number of rings (size 3 to 8) (size 9 to 14) (size 15 to 20)
#    0.000    0.500    5.000    3.750    1.750    0.000 
#    4.500    0.000    0.000    0.000    0.000    0.000 
#    0.000    0.000    0.000    0.000    0.000    0.000 
#
# Total GULP energy -198389.905302 kJ/mol
# GULP energy per Si atom -12399.369081 kJ/mol
# Density = 2.156106 g / cm^3
# Si number density = 21.610243 Si / 1000 Ang^3
#
#
#
# Elastic Constant Matrix: (Units=GPa)
#
#
# Indices 1 2 3 4 5 6 
#
# 1 103.9786 39.2799 28.5026 12.3236 22.4857 -20.7652
# 2 39.2799 99.9257 25.3489 16.7380 12.9284 -10.1738
# 3 28.5026 25.3489 105.5097 4.6029 20.9111 -11.4318
# 4 12.3236 16.7380 4.6029 45.7528 -2.5078 1.2933
# 5 22.4857 12.9284 20.9111 -2.5078 33.2874 -4.2740
# 6 -20.7652 -10.1738 -11.4318 1.2933 -4.2740 38.2425
#
#
#
# Elastic Compliance Matrix: (Units=1/GPa)
#
#
# Indices 1 2 3 4 5 6 
#
# 1 0.014211 -0.003319 -0.000829 -0.003095 -0.007268 0.005878
# 2 -0.003319 0.012664 -0.001498 -0.003721 -0.001883 0.001035
# 3 -0.000829 -0.001498 0.011470 -0.000759 -0.005870 0.001949
# 4 -0.003095 -0.003721 -0.000759 0.024515 0.005459 -0.003116
# 5 -0.007268 -0.001883 -0.005870 0.005459 0.039528 -0.001969
# 6 0.005878 0.001035 0.001949 -0.003116 -0.001969 0.030084
#
#
# Mechanical properties :
#
#
# Convention : Reuss Voigt Hill
#
# Bulk Modulus (GPa) = 36.96616 55.07522 46.02069
# Shear Modulus (GPa) = 32.72647 37.87540 35.30093
#
# Velocity S-wave (km/s) = 3.89575 4.19102 4.04608
# Velocity P-wave (km/s) = 6.11382 6.99718 6.57036
#
# Compressibility (1/GPa) = 0.02705177
#
# Stress axis : x y z
#
# Youngs Moduli (GPa) = 70.36953 78.96204 87.18763
#
# Poissons Ratio (x) = 0.26204 0.07231
# Poissons Ratio (y) = 0.23353 0.13065
# Poissons Ratio (z) = 0.05836 0.11832
#
# Static dielectric constant tensor:
#      x y z
#    x 3.822760 0.017160 0.053710 
#    y 0.017160 3.766930 0.444990 
#    z 0.053710 0.444990 3.738780 
# 
# 
# High freq. dielectric constant tensor:
#      x y z
#    x 1.850620 -0.003530 0.016920 
#    y -0.003530 1.863010 -0.003650 
#    z 0.016920 -0.003650 1.856900 
# 
# From -- ./inp_files/47203.got.cif
#   From: 2010.06.25/outbox.cif.g09.slc.cpg/sg2_24_cif.got.tgz:47203.got - 2010.06.27 13:26:56.
