data_PCOD8034967
_publ_section_title
;
Structure prediction by ZEFSAII (Michael W. Deem and Ramdas Pophale) SiO2 
 PCOD8034967
Probable space group: P -1
;
_chemical_formula_sum "Si O2"
_cell_formula_units_Z 16
_cell_length_a 9.352375
_cell_length_b 16.748010
_cell_length_c 11.427590
_cell_angle_alpha 148.025303
_cell_angle_beta 121.269515
_cell_angle_gamma 45.051774
_cell_volume 655.293714
_symmetry_space_group_name_H-M "P -1"
_symmetry_group_IT_number 2
_symmetry_cell_setting 'triclinic'
loop_
_space_group_symop_operation_xyz
x,y,z
-x,-y,-z
loop_
_atom_site_type_symbol
_atom_site_label
_atom_site_fract_x
_atom_site_fract_y
_atom_site_fract_z
Si Si1 0.959476 0.479453 0.156960
Si Si2 0.811357 0.160398 0.848556
Si Si3 0.385156 0.955386 0.984956
Si Si4 0.495905 0.789369 0.401176
Si Si5 0.271672 0.824743 0.577149
Si Si6 0.807551 0.463497 0.841256
Si Si7 0.523907 0.113965 0.800687
Si Si8 0.983488 0.667582 0.766661
O O1 0.736219 0.617632 0.294301
O O2 0.098657 0.329279 0.131983
O O3 0.063177 0.579284 0.277363
O O4 0.954461 0.376271 0.910389
O O5 0.640762 0.253358 0.787472
O O6 0.745261 0.065031 0.794178
O O7 0.819330 0.323274 0.115493
O O8 0.031313 0.000339 0.685146
O O9 0.165485 0.154432 0.156733
O O10 0.494993 0.868023 0.045045
O O11 0.500000 0.000000 0.000000
O O12 0.354876 0.813448 0.728677
O O13 0.407393 0.842594 0.561265
O O14 0.484533 0.963092 0.554907
O O15 0.313985 0.626570 0.330941
O O16 0.651112 0.684285 0.076756
O O17 0.000000 0.500000 0.500000
#
# Coordination Sequence:
#
# PCOD8034967 Si02
#       8
#     2   2   2   2   2   2   2   2
#     4  11  25  44  71 101 143 178 234 282 358 405
#     4  11  26  43  70 108 137 183 239 283 352 416
#     4  11  24  47  68  99 137 188 233 274 350 422
#     4  12  24  45  73 100 145 189 226 288 352 419
#     4  11  26  43  70  99 145 184 232 291 341 414
#     4  11  26  43  69 110 138 176 235 298 344 405
#     4  12  25  44  76 101 144 185 230 289 348 417
#     4  11  26  45  71 101 141 183 231 290 345 414
#
# _framework density 24.416530999999999
#
# number of rings (size 3 to 8) (size 9 to 14) (size 15 to 20)
#    0.000    0.750    2.500    3.750    7.000    4.500 
#    0.000    0.000    0.000    0.000    0.000    0.000 
#    0.000    0.000    0.000    0.000    0.000    0.000 
#
# Total GULP energy -198284.054574 kJ/mol
# GULP energy per Si atom -12392.753411 kJ/mol
# Density = 2.436096 g / cm^3
# Si number density = 24.416531 Si / 1000 Ang^3
#
#
#
# Elastic Constant Matrix: (Units=GPa)
#
#
# Indices 1 2 3 4 5 6 
#
# 1 134.1653 -14.9296 15.4113 7.8497 -2.7714 3.2904
# 2 -14.9296 26.7257 -9.8591 -10.2986 1.2544 11.9019
# 3 15.4113 -9.8591 105.8223 -0.6619 39.0466 -6.6689
# 4 7.8497 -10.2986 -0.6619 34.3952 -0.7853 -4.2148
# 5 -2.7714 1.2544 39.0466 -0.7853 46.1620 2.7317
# 6 3.2904 11.9019 -6.6689 -4.2148 2.7317 36.5541
#
#
#
# Elastic Compliance Matrix: (Units=1/GPa)
#
#
# Indices 1 2 3 4 5 6 
#
# 1 0.008351 0.004964 -0.001650 -0.000763 0.001921 -0.002900
# 2 0.004964 0.054155 0.005023 0.013204 -0.004291 -0.015320
# 3 -0.001650 0.005023 0.015205 0.002181 -0.013209 0.002526
# 4 -0.000763 0.013204 0.002181 0.033220 -0.001692 0.000124
# 5 0.001921 -0.004291 -0.013209 -0.001692 0.033268 -0.003867
# 6 -0.002900 -0.015320 0.002526 0.000124 -0.003867 0.033370
#
#
# Mechanical properties :
#
#
# Convention : Reuss Voigt Hill
#
# Bulk Modulus (GPa) = 10.59501 27.55094 19.07298
# Shear Modulus (GPa) = 25.99347 41.82829 33.91088
#
# Velocity S-wave (km/s) = 3.26634 4.14347 3.73077
# Velocity P-wave (km/s) = 4.30975 5.84802 5.13679
#
# Compressibility (1/GPa) = 0.09438406
#
# Stress axis : x y z
#
# Youngs Moduli (GPa) = 119.74853 18.46556 65.76888
#
# Poissons Ratio (x) = -0.09166 0.10852
# Poissons Ratio (y) = -0.59441 -0.33035
# Poissons Ratio (z) = 0.19758 -0.09275
#
# Static dielectric constant tensor:
#      x y z
#    x 4.702100 -0.047280 0.109500 
#    y -0.047280 4.326710 -0.401080 
#    z 0.109500 -0.401080 4.269170 
# 
# 
# High freq. dielectric constant tensor:
#      x y z
#    x 1.985370 0.003810 0.006030 
#    y 0.003810 1.962950 -0.013370 
#    z 0.006030 -0.013370 1.966440 
# 
# From -- ./inp_files/185335.got.cif
#   From: 2010.06.25/outbox.cif.g09.slc.cpg/sg2_93_cif.got.tgz:185335.got - 2010.06.27 13:26:56.
