data_PCOD8034647
_publ_section_title
;
Structure prediction by ZEFSAII (Michael W. Deem and Ramdas Pophale) SiO2 
 PCOD8034647
Probable space group: P -1
;
_chemical_formula_sum "Si O2"
_cell_formula_units_Z 16
_cell_length_a 12.274041
_cell_length_b 11.585958
_cell_length_c 12.098117
_cell_angle_alpha 141.532454
_cell_angle_beta 81.173970
_cell_angle_gamma 71.734427
_cell_volume 749.705825
_symmetry_space_group_name_H-M "P -1"
_symmetry_group_IT_number 2
_symmetry_cell_setting 'triclinic'
loop_
_space_group_symop_operation_xyz
x,y,z
-x,-y,-z
loop_
_atom_site_type_symbol
_atom_site_label
_atom_site_fract_x
_atom_site_fract_y
_atom_site_fract_z
Si Si1 0.169362 0.416329 0.513593
Si Si2 0.083301 0.205342 0.771925
Si Si3 0.661879 0.457995 0.318247
Si Si4 0.795118 0.318331 0.960553
Si Si5 0.228971 0.042440 0.395819
Si Si6 0.455087 0.172970 0.742766
Si Si7 0.664973 0.015679 0.253253
Si Si8 0.186476 0.117398 0.098032
O O1 0.277929 0.468674 0.544002
O O2 0.238779 0.208185 0.247826
O O3 0.997697 0.694549 0.721832
O O4 0.164942 0.304105 0.544023
O O5 0.971284 0.180519 0.819601
O O6 0.130449 0.101084 0.561919
O O7 0.235008 0.032178 0.694880
O O8 0.000000 0.500000 0.000000
O O9 0.474151 0.671681 0.511037
O O10 0.722057 0.468790 0.200574
O O11 0.726510 0.177962 0.117928
O O12 0.789789 0.102170 0.796343
O O13 0.694559 0.523455 0.030778
O O14 0.407393 0.855869 0.262843
O O15 0.500000 0.000000 0.500000
O O16 0.413100 0.089609 0.788376
O O17 0.771856 0.859931 0.013159
#
# Coordination Sequence:
#
# PCOD8034647 Si02
#       8
#     2   2   2   2   2   2   2   2
#     4  11  24  45  73  95 136 183 226 288 338 400
#     4  12  23  41  68  99 135 177 227 276 338 405
#     4  12  23  46  70  98 139 182 226 279 345 401
#     4  12  24  40  68 102 139 176 224 278 340 407
#     4  12  23  43  65 102 141 172 226 277 342 406
#     4  12  21  42  67  97 134 180 218 270 346 408
#     4  12  24  42  71 100 136 179 230 279 337 409
#     4  11  26  46  67 101 134 178 239 277 335 408
#
# _framework density 21.341704
#
# number of rings (size 3 to 8) (size 9 to 14) (size 15 to 20)
#    0.000    0.250    6.250    3.750    0.000    0.500 
#    0.000    0.000    0.000    0.000    0.000    0.000 
#    0.000    0.000    0.000    0.000    0.000    0.000 
#
# Total GULP energy -198519.345467 kJ/mol
# GULP energy per Si atom -12407.459092 kJ/mol
# Density = 2.129313 g / cm^3
# Si number density = 21.341704 Si / 1000 Ang^3
#
#
#
# Elastic Constant Matrix: (Units=GPa)
#
#
# Indices 1 2 3 4 5 6 
#
# 1 113.9965 8.4740 37.6620 9.9084 8.8193 -15.7834
# 2 8.4740 71.7615 29.4297 2.3423 6.2882 -7.0541
# 3 37.6620 29.4297 87.8713 10.1496 7.7703 -7.9682
# 4 9.9084 2.3423 10.1496 49.2197 0.3730 -1.9868
# 5 8.8193 6.2882 7.7703 0.3730 36.4558 0.9913
# 6 -15.7834 -7.0541 -7.9682 -1.9868 0.9913 34.3861
#
#
#
# Elastic Compliance Matrix: (Units=1/GPa)
#
#
# Indices 1 2 3 4 5 6 
#
# 1 0.010984 0.001136 -0.004389 -0.001173 -0.002021 0.004248
# 2 0.001136 0.016544 -0.005639 0.000270 -0.002002 0.002682
# 3 -0.004389 -0.005639 0.015527 -0.002026 -0.001264 0.000346
# 4 -0.001173 0.000270 -0.002026 0.020965 0.000448 0.000246
# 5 -0.002021 -0.002002 -0.001264 0.000448 0.028596 -0.002430
# 6 0.004248 0.002682 0.000346 0.000246 -0.002430 0.031746
#
#
# Mechanical properties :
#
#
# Convention : Reuss Voigt Hill
#
# Bulk Modulus (GPa) = 39.56976 47.19564 43.38270
# Shear Modulus (GPa) = 33.20747 37.21656 35.21201
#
# Velocity S-wave (km/s) = 3.94888 4.18046 4.06632
# Velocity P-wave (km/s) = 6.27478 6.74270 6.51294
#
# Compressibility (1/GPa) = 0.02527182
#
# Stress axis : x y z
#
# Youngs Moduli (GPa) = 91.03901 60.44649 64.40387
#
# Poissons Ratio (x) = -0.06866 0.28266
# Poissons Ratio (y) = -0.10340 0.36314
# Poissons Ratio (z) = 0.39955 0.34083
#
# Static dielectric constant tensor:
#      x y z
#    x 3.962560 -0.135560 -0.116380 
#    y -0.135560 4.044780 -0.112360 
#    z -0.116380 -0.112360 4.050980 
# 
# 
# High freq. dielectric constant tensor:
#      x y z
#    x 1.838490 -0.005320 -0.003630 
#    y -0.005320 1.844690 0.003140 
#    z -0.003630 0.003140 1.838770 
# 
# From -- ./inp_files/258125.got.cif
#   From: 2010.06.25/outbox.cif.g09.slc.cpg/sg2_130_cif.got.tgz:258125.got - 2010.06.27 13:26:56.
