data_PCOD8034025
_publ_section_title
;
Structure prediction by ZEFSAII (Michael W. Deem and Ramdas Pophale) SiO2 
 PCOD8034025
Probable space group: P -1
;
_chemical_formula_sum "Si O2"
_cell_formula_units_Z 14
_cell_length_a 12.668335
_cell_length_b 8.922346
_cell_length_c 18.853188
_cell_angle_alpha 139.409525
_cell_angle_beta 27.735461
_cell_angle_gamma 127.065292
_cell_volume 628.097961
_symmetry_space_group_name_H-M "P -1"
_symmetry_group_IT_number 2
_symmetry_cell_setting 'triclinic'
loop_
_space_group_symop_operation_xyz
x,y,z
-x,-y,-z
loop_
_atom_site_type_symbol
_atom_site_label
_atom_site_fract_x
_atom_site_fract_y
_atom_site_fract_z
Si Si1 0.024656 0.292561 0.627966
Si Si2 0.564142 0.145169 0.214494
Si Si3 0.117467 0.507972 0.857830
Si Si4 0.794476 0.706142 0.995457
Si Si5 0.693403 0.895302 0.902990
Si Si6 0.910365 0.951803 0.356111
Si Si7 0.697202 0.367018 0.721946
O O1 0.296207 0.218524 0.421595
O O2 0.960753 0.159879 0.688521
O O3 0.961885 0.573981 0.785048
O O4 0.866657 0.234646 0.636549
O O5 0.659407 0.378599 0.228401
O O6 0.712574 0.988057 0.132469
O O7 0.595152 0.976862 0.067579
O O8 0.214535 0.243315 0.673773
O O9 0.919914 0.665112 0.981738
O O10 0.000000 0.500000 0.000000
O O11 0.571168 0.588290 0.081308
O O12 0.764823 0.612070 0.751937
O O13 0.915674 0.997925 0.789227
O O14 0.500000 0.000000 0.000000
O O15 0.732271 0.197442 0.570748
#
# Coordination Sequence:
#
# PCOD8034025 Si02
#       7
#     2   2   2   2   2   2   2
#     4  11  24  44  76 108 144 181 235 294 357 425
#     4  12  25  47  74 103 143 192 234 291 350 420
#     4  11  25  50  71  98 145 186 244 291 349 415
#     4  11  25  45  74 105 141 192 235 294 349 418
#     4  12  25  42  70 104 148 185 231 295 358 418
#     4  11  24  43  70 103 140 187 230 291 351 417
#     4  12  24  45  72 109 145 181 237 290 362 428
#
# _framework density 22.289515999999999
#
# number of rings (size 3 to 8) (size 9 to 14) (size 15 to 20)
#    0.000    0.571    4.286    4.286    2.000    2.286 
#    2.571    0.714    0.000    0.000    0.000    0.000 
#    0.000    0.000    0.000    0.000    0.000    0.000 
#
# Total GULP energy -173629.811196 kJ/mol
# GULP energy per Si atom -12402.129371 kJ/mol
# Density = 2.223878 g / cm^3
# Si number density = 22.289516 Si / 1000 Ang^3
#
#
#
# Elastic Constant Matrix: (Units=GPa)
#
#
# Indices 1 2 3 4 5 6 
#
# 1 92.4728 14.5777 41.0648 2.6851 9.8466 -0.3906
# 2 14.5777 120.5363 41.4708 6.9045 8.1635 5.3195
# 3 41.0648 41.4708 147.3967 8.0350 8.5453 -0.4337
# 4 2.6851 6.9045 8.0350 38.4651 3.7781 10.2634
# 5 9.8466 8.1635 8.5453 3.7781 29.1853 2.1173
# 6 -0.3906 5.3195 -0.4337 10.2634 2.1173 28.3426
#
#
#
# Elastic Compliance Matrix: (Units=1/GPa)
#
#
# Indices 1 2 3 4 5 6 
#
# 1 0.012652 -0.000199 -0.003280 0.000058 -0.003288 0.000386
# 2 -0.000199 0.009377 -0.002458 -0.000604 -0.001652 -0.001458
# 3 -0.003280 -0.002458 0.008501 -0.001333 -0.000600 0.001074
# 4 0.000058 -0.000604 -0.001333 0.029392 -0.002513 -0.010362
# 5 -0.003288 -0.001652 -0.000600 -0.002513 0.036449 -0.001557
# 6 0.000386 -0.001458 0.001074 -0.010362 -0.001557 0.039446
#
#
# Mechanical properties :
#
#
# Convention : Reuss Voigt Hill
#
# Bulk Modulus (GPa) = 53.60758 61.62582 57.61670
# Shear Modulus (GPa) = 32.48629 36.75143 34.61886
#
# Velocity S-wave (km/s) = 3.82182 4.06497 3.94527
# Velocity P-wave (km/s) = 6.60136 7.05265 6.83073
#
# Compressibility (1/GPa) = 0.01865408
#
# Stress axis : x y z
#
# Youngs Moduli (GPa) = 79.03808 106.64400 117.63942
#
# Poissons Ratio (x) = 0.02125 0.38588
# Poissons Ratio (y) = 0.01575 0.28920
# Poissons Ratio (z) = 0.25926 0.26217
#
# Static dielectric constant tensor:
#      x y z
#    x 4.017130 -0.179160 0.192130 
#    y -0.179160 4.308250 0.083940 
#    z 0.192130 0.083940 4.208990 
# 
# 
# High freq. dielectric constant tensor:
#      x y z
#    x 1.869590 -0.005220 0.010740 
#    y -0.005220 1.886390 0.011400 
#    z 0.010740 0.011400 1.885730 
# 
# From -- ./inp_files/296884.got.cif
#   From: 2010.06.25/outbox.cif.g09.slc.cpg/sg2_149_cif.got.tgz:296884.got - 2010.06.27 13:26:56.
