data_PCOD8034558
_publ_section_title
;
Structure prediction by ZEFSAII (Michael W. Deem and Ramdas Pophale) SiO2 
 PCOD8034558
Probable space group: P -1
;
_chemical_formula_sum "Si O2"
_cell_formula_units_Z 16
_cell_length_a 11.218691
_cell_length_b 9.016078
_cell_length_c 12.179825
_cell_angle_alpha 128.282098
_cell_angle_beta 48.322323
_cell_angle_gamma 120.788765
_cell_volume 711.727991
_symmetry_space_group_name_H-M "P -1"
_symmetry_group_IT_number 2
_symmetry_cell_setting 'triclinic'
loop_
_space_group_symop_operation_xyz
x,y,z
-x,-y,-z
loop_
_atom_site_type_symbol
_atom_site_label
_atom_site_fract_x
_atom_site_fract_y
_atom_site_fract_z
Si Si1 0.292317 0.918450 0.760653
Si Si2 0.357958 0.507754 0.505292
Si Si3 0.746731 0.236623 0.874670
Si Si4 0.616160 0.182851 0.695852
Si Si5 0.872100 0.053204 0.343674
Si Si6 0.478170 0.455056 0.168474
Si Si7 0.918468 0.810358 0.396826
Si Si8 0.234906 0.075447 0.101348
O O1 0.271357 0.688932 0.665120
O O2 0.187761 0.998485 0.766336
O O3 0.480473 0.003774 0.663437
O O4 0.224202 0.980770 0.945106
O O5 0.500000 0.500000 0.500000
O O6 0.432444 0.521640 0.345806
O O7 0.221142 0.317640 0.506620
O O8 0.672465 0.140438 0.763502
O O9 0.938840 0.309983 0.774784
O O10 0.712935 0.073879 0.913165
O O11 0.663754 0.418842 0.041156
O O12 0.768362 0.204802 0.528699
O O13 0.541162 0.377866 0.829017
O O14 0.063490 0.136963 0.265310
O O15 0.840374 0.865855 0.355555
O O16 0.369953 0.261729 0.103377
O O17 0.000000 0.000000 0.500000
#
# Coordination Sequence:
#
# PCOD8034558 Si02
#       8
#     2   2   2   2   2   2   2   2
#     4  12  26  48  66 104 148 187 230 291 366 420
#     4  12  27  44  74 107 145 187 238 291 356 425
#     4  11  24  45  72 101 139 181 241 294 340 413
#     4  12  25  44  69 104 141 186 233 292 358 416
#     4  11  24  45  71 100 144 184 228 295 360 419
#     4  12  26  45  69 106 138 190 242 287 350 425
#     4  11  24  47  74 106 139 190 236 292 350 417
#     4  11  26  46  73 102 140 189 239 294 348 420
#
# _framework density 22.480497
#
# number of rings (size 3 to 8) (size 9 to 14) (size 15 to 20)
#    0.000    0.500    3.750    4.500    3.500    1.500 
#    2.250    1.875    0.000    0.000    0.000    0.000 
#    0.000    0.000    0.000    0.000    0.000    0.000 
#
# Total GULP energy -198476.126480 kJ/mol
# GULP energy per Si atom -12404.757905 kJ/mol
# Density = 2.242933 g / cm^3
# Si number density = 22.480497 Si / 1000 Ang^3
#
#
#
# Elastic Constant Matrix: (Units=GPa)
#
#
# Indices 1 2 3 4 5 6 
#
# 1 137.3351 43.6230 39.3366 -0.9877 0.7054 -27.8885
# 2 43.6230 81.6117 32.6484 0.5510 -2.6224 -6.5484
# 3 39.3366 32.6484 117.3957 -0.6465 -10.2712 -4.6074
# 4 -0.9877 0.5510 -0.6465 30.8720 -2.6677 1.1718
# 5 0.7054 -2.6224 -10.2712 -2.6677 55.1154 -7.3331
# 6 -27.8885 -6.5484 -4.6074 1.1718 -7.3331 34.3553
#
#
#
# Elastic Compliance Matrix: (Units=1/GPa)
#
#
# Indices 1 2 3 4 5 6 
#
# 1 0.010825 -0.004317 -0.002096 0.000112 0.000301 0.007744
# 2 -0.004317 0.015673 -0.002939 -0.000436 0.000116 -0.000872
# 3 -0.002096 -0.002939 0.010170 0.000368 0.001728 -0.000541
# 4 0.000112 -0.000436 0.000368 0.032570 0.001526 -0.000728
# 5 0.000301 0.000116 0.001728 0.001526 0.019144 0.004533
# 6 0.007744 -0.000872 -0.000541 -0.000728 0.004533 0.036147
#
#
# Mechanical properties :
#
#
# Convention : Reuss Voigt Hill
#
# Bulk Modulus (GPa) = 55.66552 63.06206 59.36379
# Shear Modulus (GPa) = 33.50731 38.78417 36.14574
#
# Velocity S-wave (km/s) = 3.86489 4.15810 4.01418
# Velocity P-wave (km/s) = 6.68820 7.15303 6.92452
#
# Compressibility (1/GPa) = 0.01796444
#
# Stress axis : x y z
#
# Youngs Moduli (GPa) = 92.37991 63.80311 98.33246
#
# Poissons Ratio (x) = 0.27547 0.20606
# Poissons Ratio (y) = 0.39885 0.28896
# Poissons Ratio (z) = 0.19359 0.18749
#
# Static dielectric constant tensor:
#      x y z
#    x 4.319530 -0.211930 -0.185880 
#    y -0.211930 3.831270 -0.194760 
#    z -0.185880 -0.194760 4.308600 
# 
# 
# High freq. dielectric constant tensor:
#      x y z
#    x 1.903690 -0.017800 -0.006320 
#    y -0.017800 1.867850 -0.016860 
#    z -0.006320 -0.016860 1.900860 
# 
# From -- ./inp_files/419923.got.cif
#   From: 2010.06.25/outbox.cif.g09.slc.cpg/sg2_210_cif.got.tgz:419923.got - 2010.06.27 13:26:56.
