data_PCOD8034867
_publ_section_title
;
Structure prediction by ZEFSAII (Michael W. Deem and Ramdas Pophale) SiO2 
 PCOD8034867
Probable space group: P -1
;
_chemical_formula_sum "Si O2"
_cell_formula_units_Z 12
_cell_length_a 18.803380
_cell_length_b 6.778489
_cell_length_c 5.110314
_cell_angle_alpha 106.931996
_cell_angle_beta 103.260115
_cell_angle_gamma 58.562522
_cell_volume 529.249759
_symmetry_space_group_name_H-M "P -1"
_symmetry_group_IT_number 2
_symmetry_cell_setting 'triclinic'
loop_
_space_group_symop_operation_xyz
x,y,z
-x,-y,-z
loop_
_atom_site_type_symbol
_atom_site_label
_atom_site_fract_x
_atom_site_fract_y
_atom_site_fract_z
Si Si1 0.316975 0.354154 0.335025
Si Si2 0.543269 0.107575 0.900488
Si Si3 0.427257 0.549201 0.655276
Si Si4 0.208182 0.464171 0.785388
Si Si5 0.917084 0.997638 0.017216
Si Si6 0.917029 0.728423 0.424611
O O1 0.346535 0.552326 0.458407
O O2 0.247342 0.396646 0.504714
O O3 0.396562 0.089760 0.333437
O O4 0.281544 0.370584 0.022335
O O5 0.463960 0.334690 0.805778
O O6 0.600505 0.197700 0.136492
O O7 0.500000 0.000000 0.000000
O O8 0.500000 0.500000 0.500000
O O9 0.152810 0.339571 0.740640
O O10 0.153974 0.744735 0.863779
O O11 0.938349 0.830780 0.224061
O O12 0.883937 0.912052 0.708895
O O13 0.000000 0.000000 0.000000
O O14 0.000000 0.500000 0.500000
#
# Coordination Sequence:
#
# PCOD8034867 Si02
#       6
#     2   2   2   2   2   2
#     4  12  27  47  71 106 153 184 238 310 363 421
#     4  11  24  46  73 104 138 193 243 296 355 434
#     4  11  25  44  75 102 137 190 250 284 358 437
#     4  12  29  47  69 111 150 188 238 303 370 419
#     4  12  26  47  79 107 145 191 244 299 352 435
#     4  12  26  47  79 106 141 193 247 290 358 439
#
# _framework density 22.673607000000001
#
# number of rings (size 3 to 8) (size 9 to 14) (size 15 to 20)
#    0.000    0.333    3.333    4.500    7.000    4.000 
#    0.000    0.000    0.000    0.000    0.000    0.000 
#    0.000    0.000    0.000    0.000    0.000    0.000 
#
# Total GULP energy -148844.862645 kJ/mol
# GULP energy per Si atom -12403.738554 kJ/mol
# Density = 2.262200 g / cm^3
# Si number density = 22.673607 Si / 1000 Ang^3
#
#
#
# Elastic Constant Matrix: (Units=GPa)
#
#
# Indices 1 2 3 4 5 6 
#
# 1 130.1188 52.2673 44.2396 6.4117 4.0470 20.2432
# 2 52.2673 114.3148 46.2229 9.6492 -8.2598 21.9720
# 3 44.2396 46.2229 129.8335 11.6822 5.2113 17.1436
# 4 6.4117 9.6492 11.6822 50.0645 3.4172 -7.4318
# 5 4.0470 -8.2598 5.2113 3.4172 59.5722 5.3112
# 6 20.2432 21.9720 17.1436 -7.4318 5.3112 38.3770
#
#
#
# Elastic Compliance Matrix: (Units=1/GPa)
#
#
# Indices 1 2 3 4 5 6 
#
# 1 0.010122 -0.003404 -0.001817 -0.000549 -0.000739 -0.002583
# 2 -0.003404 0.012759 -0.002595 -0.002383 0.002828 -0.005203
# 3 -0.001817 -0.002595 0.009721 -0.001799 -0.000793 -0.002137
# 4 -0.000549 -0.002383 -0.001799 0.022104 -0.002029 0.007019
# 5 -0.000739 0.002828 -0.000793 -0.002029 0.017746 -0.003724
# 6 -0.002583 -0.005203 -0.002137 0.007019 -0.003724 0.033228
#
#
# Mechanical properties :
#
#
# Convention : Reuss Voigt Hill
#
# Bulk Modulus (GPa) = 58.92483 73.30300 66.11392
# Shear Modulus (GPa) = 39.37988 45.03856 42.20922
#
# Velocity S-wave (km/s) = 4.17203 4.46173 4.31931
# Velocity P-wave (km/s) = 7.01801 7.67740 7.35510
#
# Compressibility (1/GPa) = 0.01697077
#
# Stress axis : x y z
#
# Youngs Moduli (GPa) = 98.79178 78.37742 102.87140
#
# Poissons Ratio (x) = 0.26680 0.18693
# Poissons Ratio (y) = 0.33629 0.26690
# Poissons Ratio (z) = 0.17951 0.20335
#
# Static dielectric constant tensor:
#      x y z
#    x 4.100600 0.098180 0.209050 
#    y 0.098180 4.227080 0.456710 
#    z 0.209050 0.456710 4.560230 
# 
# 
# High freq. dielectric constant tensor:
#      x y z
#    x 1.900540 0.013600 0.004460 
#    y 0.013600 1.899640 0.010820 
#    z 0.004460 0.010820 1.915800 
# 
# From -- ./inp_files/8314.got.cif
#   From: 2010.06.25/outbox.cif.g09.slc.cpg/sg2_5_cif.got.tgz:8314.got - 2010.06.27 13:26:56.
