data_PCOD8034399
_publ_section_title
;
Structure prediction by ZEFSAII (Michael W. Deem and Ramdas Pophale) SiO2 
 PCOD8034399
Probable space group: P -1
;
_chemical_formula_sum "Si O2"
_cell_formula_units_Z 16
_cell_length_a 15.269522
_cell_length_b 14.723475
_cell_length_c 9.424208
_cell_angle_alpha 139.518704
_cell_angle_beta 38.827073
_cell_angle_gamma 142.205873
_cell_volume 753.878212
_symmetry_space_group_name_H-M "P -1"
_symmetry_group_IT_number 2
_symmetry_cell_setting 'triclinic'
loop_
_space_group_symop_operation_xyz
x,y,z
-x,-y,-z
loop_
_atom_site_type_symbol
_atom_site_label
_atom_site_fract_x
_atom_site_fract_y
_atom_site_fract_z
Si Si1 0.599756 0.772626 0.706075
Si Si2 0.223714 0.147279 0.010105
Si Si3 0.676580 0.027629 0.513378
Si Si4 0.431595 0.735182 0.153168
Si Si5 0.590208 0.284036 0.387248
Si Si6 0.910157 0.846227 0.523607
Si Si7 0.222340 0.862205 0.171096
Si Si8 0.327469 0.481371 0.197824
O O1 0.525577 0.693163 0.553437
O O2 0.736658 0.728324 0.531916
O O3 0.680799 0.965594 0.823656
O O4 0.457281 0.706843 0.922470
O O5 0.402205 0.197943 0.895798
O O6 0.188643 0.005450 0.773143
O O7 0.106711 0.091635 0.225875
O O8 0.206649 0.291081 0.126070
O O9 0.635055 0.139833 0.600395
O O10 0.747163 0.118382 0.677730
O O11 0.516443 0.859273 0.541489
O O12 0.303358 0.568831 0.194156
O O13 0.691011 0.443756 0.541319
O O14 0.716073 0.252322 0.105407
O O15 0.029588 0.771733 0.286571
O O16 0.000000 0.000000 0.500000
O O17 0.500000 0.500000 0.000000
#
# Coordination Sequence:
#
# PCOD8034399 Si02
#       8
#     2   2   2   2   2   2   2   2
#     4   9  17  32  55  83 113 139 184 236 274 323
#     4  10  21  35  53  80 117 150 179 227 285 331
#     4  11  18  31  59  85 113 140 187 242 275 322
#     4  10  17  31  53  86 110 137 184 231 280 320
#     4  11  18  33  58  86 115 142 184 236 285 318
#     4   9  20  36  55  78 114 149 188 225 273 343
#     4  10  19  32  55  86 114 141 187 232 285 320
#     4  10  21  34  52  84 118 147 177 229 287 337
#
# _framework density 21.223586000000001
#
# number of rings (size 3 to 8) (size 9 to 14) (size 15 to 20)
#    0.000    2.000    5.000    1.125    0.000    0.500 
#    0.000    6.250    0.000    0.750    0.000    0.000 
#    0.000    0.000    0.000    0.000    0.000    0.000 
#
# Total GULP energy -198284.035748 kJ/mol
# GULP energy per Si atom -12392.752234 kJ/mol
# Density = 2.117528 g / cm^3
# Si number density = 21.223586 Si / 1000 Ang^3
#
#
#
# Elastic Constant Matrix: (Units=GPa)
#
#
# Indices 1 2 3 4 5 6 
#
# 1 81.2651 33.9532 46.6893 -1.9458 -1.6103 -20.3873
# 2 33.9532 58.5705 46.2356 -1.6815 6.7040 -24.5672
# 3 46.6893 46.2356 135.8454 -13.4101 3.3145 -15.6736
# 4 -1.9458 -1.6815 -13.4101 27.6487 -6.1082 -0.8418
# 5 -1.6103 6.7040 3.3145 -6.1082 27.2439 -12.5513
# 6 -20.3873 -24.5672 -15.6736 -0.8418 -12.5513 26.3519
#
#
#
# Elastic Compliance Matrix: (Units=1/GPa)
#
#
# Indices 1 2 3 4 5 6 
#
# 1 0.019906 -0.003221 -0.004125 0.001763 0.009574 0.014560
# 2 -0.003221 0.037535 -0.008301 0.000173 0.005538 0.030207
# 3 -0.004125 -0.008301 0.011595 0.004598 -0.000476 -0.004113
# 4 0.001763 0.000173 0.004598 0.042185 0.014789 0.012652
# 5 0.009574 0.005538 -0.000476 0.014789 0.057856 0.040316
# 6 0.014560 0.030207 -0.004113 0.012652 0.040316 0.094534
#
#
# Mechanical properties :
#
#
# Convention : Reuss Voigt Hill
#
# Bulk Modulus (GPa) = 26.49571 58.82636 42.66103
# Shear Modulus (GPa) = 16.26094 26.16908 21.21501
#
# Velocity S-wave (km/s) = 2.77099 3.51525 3.16507
# Velocity P-wave (km/s) = 4.76959 6.65233 5.78803
#
# Compressibility (1/GPa) = 0.03774196
#
# Stress axis : x y z
#
# Youngs Moduli (GPa) = 50.23658 26.64212 86.24248
#
# Poissons Ratio (x) = 0.08582 0.35573
# Poissons Ratio (y) = 0.16182 0.71588
# Poissons Ratio (z) = 0.20722 0.22115
#
# Static dielectric constant tensor:
#      x y z
#    x 4.375790 -0.355470 -0.209460 
#    y -0.355470 3.899580 -0.060030 
#    z -0.209460 -0.060030 4.253480 
# 
# 
# High freq. dielectric constant tensor:
#      x y z
#    x 1.828030 -0.033760 0.005320 
#    y -0.033760 1.786620 -0.013390 
#    z 0.005320 -0.013390 1.836430 
# 
# From -- ./inp_files/316034.got.cif
#   From: 2010.06.25/outbox.cif.g09.slc.cpg/sg2_159_cif.got.tgz:316034.got - 2010.06.27 13:26:56.
