data_PCOD8034137
_publ_section_title
;
Structure prediction by ZEFSAII (Michael W. Deem and Ramdas Pophale) SiO2 
 PCOD8034137
Probable space group: P -1
;
_chemical_formula_sum "Si O2"
_cell_formula_units_Z 16
_cell_length_a 5.255161
_cell_length_b 12.326448
_cell_length_c 14.857326
_cell_angle_alpha 118.200782
_cell_angle_beta 116.840925
_cell_angle_gamma 99.384796
_cell_volume 664.448349
_symmetry_space_group_name_H-M "P -1"
_symmetry_group_IT_number 2
_symmetry_cell_setting 'triclinic'
loop_
_space_group_symop_operation_xyz
x,y,z
-x,-y,-z
loop_
_atom_site_type_symbol
_atom_site_label
_atom_site_fract_x
_atom_site_fract_y
_atom_site_fract_z
Si Si1 0.337595 0.438536 0.355517
Si Si2 0.773254 0.010128 0.890907
Si Si3 0.014579 0.859001 0.745071
Si Si4 0.968533 0.837028 0.526342
Si Si5 0.870228 0.564112 0.338122
Si Si6 0.497017 0.095573 0.619528
Si Si7 0.844911 0.265399 0.897607
Si Si8 0.448899 0.552996 0.104984
O O1 0.500000 0.500000 0.500000
O O2 0.601031 0.469655 0.331709
O O3 0.121858 0.271851 0.260629
O O4 0.104543 0.503574 0.322347
O O5 0.827938 0.165477 0.937848
O O6 0.402924 0.922405 0.829704
O O7 0.874032 0.959528 0.796624
O O8 0.000000 0.000000 0.000000
O O9 0.867419 0.814883 0.605332
O O10 0.076116 0.720915 0.472217
O O11 0.650571 0.808919 0.406941
O O12 0.262369 0.992299 0.619131
O O13 0.730028 0.580482 0.228941
O O14 0.833515 0.195176 0.767716
O O15 0.500000 0.000000 0.500000
O O16 0.543823 0.297842 0.851595
O O17 0.121698 0.417741 0.032491
O O18 0.500000 0.500000 0.000000
#
# Coordination Sequence:
#
# PCOD8034137 Si02
#       8
#     2   2   2   2   2   2   2   2
#     4  12  28  47  77 111 156 193 254 311 384 455
#     4  12  29  50  78 107 151 200 256 313 378 456
#     4  12  27  49  74 111 146 198 249 318 384 452
#     4  11  25  41  72 110 146 191 251 307 392 445
#     4  12  28  48  77 111 151 206 254 316 380 462
#     4  11  24  43  74 108 148 192 246 322 378 458
#     4  11  26  48  72 110 151 195 261 308 388 443
#     4  11  29  47  76 106 154 207 254 321 373 468
#
# _framework density 24.080127000000001
#
# number of rings (size 3 to 8) (size 9 to 14) (size 15 to 20)
#    0.000    0.500    3.750    2.250   14.000    0.000 
#    0.000    0.000    0.000    0.000    0.000    0.000 
#    0.000    0.000    0.000    0.000    0.000    0.000 
#
# Total GULP energy -198282.647888 kJ/mol
# GULP energy per Si atom -12392.665493 kJ/mol
# Density = 2.402532 g / cm^3
# Si number density = 24.080127 Si / 1000 Ang^3
#
#
#
# Elastic Constant Matrix: (Units=GPa)
#
#
# Indices 1 2 3 4 5 6 
#
# 1 65.8437 13.3795 0.8115 3.1811 7.6508 -9.8481
# 2 13.3795 159.2483 36.7049 -3.4313 13.1004 -12.9672
# 3 0.8115 36.7049 76.1138 -3.1201 -9.8931 -5.6058
# 4 3.1811 -3.4313 -3.1201 37.6269 -1.8017 -2.7872
# 5 7.6508 13.1004 -9.8931 -1.8017 36.5467 -1.9510
# 6 -9.8481 -12.9672 -5.6058 -2.7872 -1.9510 32.7582
#
#
#
# Elastic Compliance Matrix: (Units=1/GPa)
#
#
# Indices 1 2 3 4 5 6 
#
# 1 0.016408 -0.000838 0.000115 -0.001273 -0.002935 0.004338
# 2 -0.000838 0.007738 -0.004026 0.000416 -0.003564 0.001946
# 3 0.000115 -0.004026 0.016024 0.001357 0.005912 0.001651
# 4 -0.001273 0.000416 0.001357 0.027109 0.001951 0.002437
# 5 -0.002935 -0.003564 0.005912 0.001951 0.030990 0.000730
# 6 0.004338 0.001946 0.001651 0.002437 0.000730 0.033134
#
#
# Mechanical properties :
#
#
# Convention : Reuss Voigt Hill
#
# Bulk Modulus (GPa) = 32.60225 44.77751 38.68988
# Shear Modulus (GPa) = 33.08548 38.07367 35.57957
#
# Velocity S-wave (km/s) = 3.71074 3.98065 3.84806
# Velocity P-wave (km/s) = 5.65048 6.30579 5.98711
#
# Compressibility (1/GPa) = 0.03067273
#
# Stress axis : x y z
#
# Youngs Moduli (GPa) = 60.94748 129.22691 62.40676
#
# Poissons Ratio (x) = 0.10827 -0.00717
# Poissons Ratio (y) = 0.05106 0.25123
# Poissons Ratio (z) = -0.00701 0.52022
#
# Static dielectric constant tensor:
#      x y z
#    x 4.221400 -0.172660 -0.159300 
#    y -0.172660 4.604540 -0.041640 
#    z -0.159300 -0.041640 4.218720 
# 
# 
# High freq. dielectric constant tensor:
#      x y z
#    x 1.946140 -0.006110 -0.004490 
#    y -0.006110 1.978210 -0.001150 
#    z -0.004490 -0.001150 1.964950 
# 
# From -- ./inp_files/482977.got.cif
#   From: 2010.06.25/outbox.cif.g09.slc.cpg/sg2_242_cif.got.tgz:482977.got - 2010.06.27 13:26:56.
