data_PCOD8034444
_publ_section_title
;
Structure prediction by ZEFSAII (Michael W. Deem and Ramdas Pophale) SiO2 
 PCOD8034444
Probable space group: P -1
;
_chemical_formula_sum "Si O2"
_cell_formula_units_Z 16
_cell_length_a 9.822667
_cell_length_b 14.815154
_cell_length_c 8.311585
_cell_angle_alpha 96.940617
_cell_angle_beta 109.371609
_cell_angle_gamma 38.792969
_cell_volume 695.216429
_symmetry_space_group_name_H-M "P -1"
_symmetry_group_IT_number 2
_symmetry_cell_setting 'triclinic'
loop_
_space_group_symop_operation_xyz
x,y,z
-x,-y,-z
loop_
_atom_site_type_symbol
_atom_site_label
_atom_site_fract_x
_atom_site_fract_y
_atom_site_fract_z
Si Si1 0.347808 0.664606 0.956551
Si Si2 0.132383 0.159336 0.326973
Si Si3 0.822642 0.672399 0.457214
Si Si4 0.259771 0.089011 0.005624
Si Si5 0.058784 0.356528 0.853640
Si Si6 0.067764 0.900799 0.148329
Si Si7 0.650303 0.119246 0.516379
Si Si8 0.390805 0.326500 0.164683
O O1 0.488382 0.675170 0.927024
O O2 0.126348 0.751398 0.777612
O O3 0.500000 0.500000 0.000000
O O4 0.270415 0.734099 0.120211
O O5 0.111185 0.275472 0.391621
O O6 0.284937 0.074607 0.205344
O O7 0.262168 0.029815 0.481361
O O8 0.817934 0.712727 0.284818
O O9 0.569617 0.760413 0.424764
O O10 0.000000 0.500000 0.500000
O O11 0.052123 0.261924 0.914538
O O12 0.170855 0.036341 0.890060
O O13 0.500000 0.000000 0.000000
O O14 0.789293 0.523043 0.767828
O O15 0.227035 0.333055 0.023772
O O16 0.148884 0.913535 0.342161
O O17 0.000000 0.000000 0.000000
O O18 0.583857 0.183868 0.324872
#
# Coordination Sequence:
#
# PCOD8034444 Si02
#       8
#     2   2   2   2   2   2   2   2
#     4  11  25  44  74 100 143 197 238 297 366 441
#     4  11  26  47  68 108 148 185 247 295 368 439
#     4  12  26  46  71 106 143 196 239 298 372 435
#     4  11  24  44  77 108 144 192 240 302 362 438
#     4  11  25  44  67 105 143 182 251 299 364 432
#     4  11  24  48  71 107 146 191 236 289 377 441
#     4  12  24  46  72 104 148 186 243 305 362 437
#     4  11  25  43  72 104 139 193 242 307 359 429
#
# _framework density 23.014417000000002
#
# number of rings (size 3 to 8) (size 9 to 14) (size 15 to 20)
#    0.000    0.750    3.750    4.125    7.000    2.500 
#    0.000    1.875    0.000    0.000    0.000    0.000 
#    0.000    0.000    0.000    0.000    0.000    0.000 
#
# Total GULP energy -198420.810870 kJ/mol
# GULP energy per Si atom -12401.300679 kJ/mol
# Density = 2.296204 g / cm^3
# Si number density = 23.014417 Si / 1000 Ang^3
#
#
#
# Elastic Constant Matrix: (Units=GPa)
#
#
# Indices 1 2 3 4 5 6 
#
# 1 136.3362 34.8673 26.9966 -6.9243 1.2660 10.8853
# 2 34.8673 107.6140 20.9771 -15.8434 3.6703 16.6103
# 3 26.9966 20.9771 92.4829 -15.3502 -0.5123 12.2595
# 4 -6.9243 -15.8434 -15.3502 40.9184 7.0116 -4.9648
# 5 1.2660 3.6703 -0.5123 7.0116 39.5768 2.0270
# 6 10.8853 16.6103 12.2595 -4.9648 2.0270 40.2916
#
#
#
# Elastic Compliance Matrix: (Units=1/GPa)
#
#
# Indices 1 2 3 4 5 6 
#
# 1 0.008329 -0.002253 -0.001858 -0.000256 0.000004 -0.000788
# 2 -0.002253 0.011263 -0.000893 0.003495 -0.001436 -0.003260
# 3 -0.001858 -0.000893 0.012509 0.003775 -0.000239 -0.002459
# 4 -0.000256 0.003495 0.003775 0.028227 -0.005331 0.001226
# 5 0.000004 -0.001436 -0.000239 -0.005331 0.026409 -0.001322
# 6 -0.000788 -0.003260 -0.002459 0.001226 -0.001322 0.027342
#
#
# Mechanical properties :
#
#
# Convention : Reuss Voigt Hill
#
# Bulk Modulus (GPa) = 45.26237 55.79056 50.52647
# Shear Modulus (GPa) = 38.03694 41.06350 39.55022
#
# Velocity S-wave (km/s) = 4.06981 4.22862 4.14997
# Velocity P-wave (km/s) = 6.46483 6.93800 6.70559
#
# Compressibility (1/GPa) = 0.02209341
#
# Stress axis : x y z
#
# Youngs Moduli (GPa) = 120.06641 88.78512 79.94247
#
# Poissons Ratio (x) = 0.19999 0.14856
# Poissons Ratio (y) = 0.27046 0.07137
# Poissons Ratio (z) = 0.22313 0.07927
#
# Static dielectric constant tensor:
#      x y z
#    x 4.409830 0.224390 0.017340 
#    y 0.224390 5.122240 0.293850 
#    z 0.017340 0.293850 4.369360 
# 
# 
# High freq. dielectric constant tensor:
#      x y z
#    x 1.924450 0.004860 -0.006480 
#    y 0.004860 1.924530 -0.006500 
#    z -0.006480 -0.006500 1.898540 
# 
# From -- ./inp_files/206935.got.cif
#   From: 2010.06.25/outbox.cif.g09.slc.cpg/sg2_104_cif.got.tgz:206935.got - 2010.06.27 13:26:56.
