data_PCOD8034256
_publ_section_title
;
Structure prediction by ZEFSAII (Michael W. Deem and Ramdas Pophale) SiO2 
 PCOD8034256
Probable space group: P -1
;
_chemical_formula_sum "Si O2"
_cell_formula_units_Z 16
_cell_length_a 29.840385
_cell_length_b 5.226616
_cell_length_c 6.733147
_cell_angle_alpha 71.535553
_cell_angle_beta 47.015730
_cell_angle_gamma 87.504718
_cell_volume 705.817123
_symmetry_space_group_name_H-M "P -1"
_symmetry_group_IT_number 2
_symmetry_cell_setting 'triclinic'
loop_
_space_group_symop_operation_xyz
x,y,z
-x,-y,-z
loop_
_atom_site_type_symbol
_atom_site_label
_atom_site_fract_x
_atom_site_fract_y
_atom_site_fract_z
Si Si1 0.238287 0.476604 0.767509
Si Si2 0.601198 0.633918 0.169828
Si Si3 0.500822 0.689833 0.141189
Si Si4 0.867110 0.301088 0.778538
Si Si5 0.849778 0.840804 0.230359
Si Si6 0.680853 0.234990 0.868111
Si Si7 0.213726 0.994808 0.232846
Si Si8 0.958422 0.693893 0.162256
O O1 0.196072 0.348931 0.739199
O O2 0.301317 0.684064 0.436901
O O3 0.199416 0.638533 0.980017
O O4 0.256375 0.244655 0.909496
O O5 0.563116 0.688133 0.078450
O O6 0.559198 0.440247 0.508860
O O7 0.654154 0.477022 0.986213
O O8 0.631767 0.934857 0.098045
O O9 0.500000 0.500000 0.000000
O O10 0.500000 0.000000 0.000000
O O11 0.851361 0.136959 0.656868
O O12 0.925190 0.569486 0.501043
O O13 0.887372 0.123422 0.937054
O O14 0.902605 0.688510 0.176219
O O15 0.806634 0.898086 0.524915
O O16 0.744021 0.222896 0.801617
O O17 0.000000 0.500000 0.000000
O O18 0.000000 0.000000 0.000000
#
# Coordination Sequence:
#
# PCOD8034256 Si02
#       8
#     2   2   2   2   2   2   2   2
#     4  11  25  42  72 100 135 190 229 272 355 435
#     4  11  27  45  68 109 145 179 238 295 335 408
#     4  11  24  49  76  97 139 201 237 278 353 398
#     4  11  25  45  72  96 135 185 233 273 355 435
#     4  11  24  47  71  95 139 183 229 286 352 425
#     4  12  25  44  69 108 149 173 229 298 343 404
#     4  11  24  44  70 100 139 188 226 277 355 428
#     4  12  28  46  70 103 135 176 237 300 350 412
#
# _framework density 22.668762000000001
#
# number of rings (size 3 to 8) (size 9 to 14) (size 15 to 20)
#    0.000    0.750    2.500    3.750    7.000    6.000 
#    0.000    0.000    0.000    0.000    0.000    0.000 
#    0.000    0.000    0.000    0.000    0.000    0.000 
#
# Total GULP energy -198427.064134 kJ/mol
# GULP energy per Si atom -12401.691508 kJ/mol
# Density = 2.261717 g / cm^3
# Si number density = 22.668762 Si / 1000 Ang^3
#
#
#
# Elastic Constant Matrix: (Units=GPa)
#
#
# Indices 1 2 3 4 5 6 
#
# 1 91.2482 32.0652 48.3592 5.1989 17.0948 -23.2038
# 2 32.0652 110.5559 37.6280 -10.6908 8.1745 -17.8428
# 3 48.3592 37.6280 133.0953 -28.3195 12.3478 -16.8176
# 4 5.1989 -10.6908 -28.3195 47.4124 -7.9570 2.4943
# 5 17.0948 8.1745 12.3478 -7.9570 34.7507 0.1284
# 6 -23.2038 -17.8428 -16.8176 2.4943 0.1284 48.3510
#
#
#
# Elastic Compliance Matrix: (Units=1/GPa)
#
#
# Indices 1 2 3 4 5 6 
#
# 1 0.018785 -0.002452 -0.006279 -0.008092 -0.008309 0.006366
# 2 -0.002452 0.010813 -0.001501 0.001620 -0.000441 0.002209
# 3 -0.006279 -0.001501 0.011744 0.007525 0.000991 0.000127
# 4 -0.008092 0.001620 0.007525 0.028191 0.007389 -0.002142
# 5 -0.008309 -0.000441 0.000991 0.007389 0.034323 -0.004278
# 6 0.006366 0.002209 0.000127 -0.002142 -0.004278 0.024718
#
#
# Mechanical properties :
#
#
# Convention : Reuss Voigt Hill
#
# Bulk Modulus (GPa) = 47.89715 63.44492 55.67103
# Shear Modulus (GPa) = 32.05148 40.55928 36.30538
#
# Velocity S-wave (km/s) = 3.76427 4.23450 4.00629
# Velocity P-wave (km/s) = 6.32993 7.20809 6.78324
#
# Compressibility (1/GPa) = 0.02087807
#
# Stress axis : x y z
#
# Youngs Moduli (GPa) = 53.23416 92.47981 85.14757
#
# Poissons Ratio (x) = 0.22677 0.53462
# Poissons Ratio (y) = 0.13054 0.12783
# Poissons Ratio (z) = 0.33424 0.13884
#
# Static dielectric constant tensor:
#      x y z
#    x 4.293240 -0.085480 0.069290 
#    y -0.085480 4.006120 -0.322840 
#    z 0.069290 -0.322840 4.557440 
# 
# 
# High freq. dielectric constant tensor:
#      x y z
#    x 1.887030 -0.009880 0.015140 
#    y -0.009880 1.907440 -0.011460 
#    z 0.015140 -0.011460 1.913080 
# 
# From -- ./inp_files/14738.got.cif
#   From: 2010.06.25/outbox.cif.g09.slc.cpg/sg2_8_cif.got.tgz:14738.got - 2010.06.27 13:26:56.
