data_PCOD8034456
_publ_section_title
;
Structure prediction by ZEFSAII (Michael W. Deem and Ramdas Pophale) SiO2 
 PCOD8034456
Probable space group: P -1
;
_chemical_formula_sum "Si O2"
_cell_formula_units_Z 16
_cell_length_a 5.192129
_cell_length_b 29.851339
_cell_length_c 9.625559
_cell_angle_alpha 37.841134
_cell_angle_beta 85.719447
_cell_angle_gamma 64.244456
_cell_volume 720.423644
_symmetry_space_group_name_H-M "P -1"
_symmetry_group_IT_number 2
_symmetry_cell_setting 'triclinic'
loop_
_space_group_symop_operation_xyz
x,y,z
-x,-y,-z
loop_
_atom_site_type_symbol
_atom_site_label
_atom_site_fract_x
_atom_site_fract_y
_atom_site_fract_z
Si Si1 0.791757 0.091661 0.873805
Si Si2 0.823751 0.591828 0.195952
Si Si3 0.095449 0.540114 0.010618
Si Si4 0.821442 0.089664 0.193735
Si Si5 0.914553 0.801471 0.989752
Si Si6 0.970563 0.792721 0.440378
Si Si7 0.221512 0.648706 0.565846
Si Si8 0.065510 0.708284 0.936544
O O1 0.403136 0.141565 0.762474
O O2 0.884732 0.154105 0.654301
O O3 0.933658 0.064648 0.090978
O O4 0.000000 0.000000 0.000000
O O5 0.444931 0.648402 0.098716
O O6 0.000000 0.500000 0.500000
O O7 0.884350 0.571198 0.080774
O O8 0.945460 0.647162 0.115814
O O9 0.469127 0.453917 0.240352
O O10 0.014876 0.631429 0.717882
O O11 0.000000 0.500000 0.000000
O O12 0.448162 0.129508 0.108925
O O13 0.881320 0.160965 0.074671
O O14 0.000000 0.000000 0.500000
O O15 0.068688 0.701618 0.297573
O O16 0.895513 0.792177 0.847797
O O17 0.231220 0.718344 0.495259
O O18 0.969564 0.744783 0.695560
#
# Coordination Sequence:
#
# PCOD8034456 Si02
#       8
#     2   2   2   2   2   2   2   2
#     4  12  27  47  76 108 138 182 226 295 356 422
#     4  12  26  46  66 100 144 186 236 290 347 406
#     4  11  26  40  72 100 141 187 240 296 343 412
#     4  12  27  48  73 106 142 181 233 291 353 429
#     4  12  27  46  75 101 142 188 234 287 354 422
#     4  12  25  47  74 102 144 180 239 285 353 426
#     4  11  24  45  66 105 136 189 237 289 348 408
#     4  12  27  45  70 102 139 187 233 287 350 412
#
# _framework density 22.209154000000002
#
# number of rings (size 3 to 8) (size 9 to 14) (size 15 to 20)
#    0.000    0.250    3.750    4.125   10.500    0.000 
#    0.000    0.000    0.000    0.000    0.000    0.000 
#    0.000    0.000    0.000    0.000    0.000    0.000 
#
# Total GULP energy -198353.878028 kJ/mol
# GULP energy per Si atom -12397.117377 kJ/mol
# Density = 2.215861 g / cm^3
# Si number density = 22.209154 Si / 1000 Ang^3
#
#
#
# Elastic Constant Matrix: (Units=GPa)
#
#
# Indices 1 2 3 4 5 6 
#
# 1 118.5596 13.3927 21.0131 -8.6834 -10.3845 7.3143
# 2 13.3927 109.2667 -2.6697 4.2517 -9.5130 15.3800
# 3 21.0131 -2.6697 114.1892 1.8466 -3.8531 0.9174
# 4 -8.6834 4.2517 1.8466 37.3141 5.4074 -0.8374
# 5 -10.3845 -9.5130 -3.8531 5.4074 36.8782 1.4900
# 6 7.3143 15.3800 0.9174 -0.8374 1.4900 36.0615
#
#
#
# Elastic Compliance Matrix: (Units=1/GPa)
#
#
# Indices 1 2 3 4 5 6 
#
# 1 0.009242 -0.000870 -0.001675 0.002014 0.001968 -0.001495
# 2 -0.000870 0.010213 0.000563 -0.001913 0.002905 -0.004358
# 3 -0.001675 0.000563 0.009123 -0.001023 0.000784 -0.000189
# 4 0.002014 -0.001913 -0.001023 0.028176 -0.004216 0.001262
# 5 0.001968 0.002905 0.000784 -0.004216 0.029240 -0.002964
# 6 -0.001495 -0.004358 -0.000189 0.001262 -0.002964 0.030049
#
#
# Mechanical properties :
#
#
# Convention : Reuss Voigt Hill
#
# Bulk Modulus (GPa) = 40.62851 45.05420 42.84135
# Shear Modulus (GPa) = 38.99774 42.73605 40.86689
#
# Velocity S-wave (km/s) = 4.19493 4.39139 4.29428
# Velocity P-wave (km/s) = 6.46502 6.78548 6.62719
#
# Compressibility (1/GPa) = 0.02461326
#
# Stress axis : x y z
#
# Youngs Moduli (GPa) = 108.20256 97.91346 109.60872
#
# Poissons Ratio (x) = 0.08521 0.18362
# Poissons Ratio (y) = 0.09416 -0.06170
# Poissons Ratio (z) = 0.18126 -0.05511
#
# Static dielectric constant tensor:
#      x y z
#    x 4.043280 -0.107820 -0.207520 
#    y -0.107820 2.884310 -0.500620 
#    z -0.207520 -0.500620 3.697800 
# 
# 
# High freq. dielectric constant tensor:
#      x y z
#    x 1.878790 0.003050 -0.007310 
#    y 0.003050 1.888550 0.005470 
#    z -0.007310 0.005470 1.887210 
# 
# From -- ./inp_files/143274.got.cif
#   From: 2010.06.25/outbox.cif.g09.slc.cpg/sg2_72_cif.got.tgz:143274.got - 2010.06.27 13:26:56.
