data_PCOD8034433
_publ_section_title
;
Structure prediction by ZEFSAII (Michael W. Deem and Ramdas Pophale) SiO2 
 PCOD8034433
Probable space group: P -1
;
_chemical_formula_sum "Si O2"
_cell_formula_units_Z 14
_cell_length_a 8.215462
_cell_length_b 12.515511
_cell_length_c 9.263882
_cell_angle_alpha 58.637938
_cell_angle_beta 133.141850
_cell_angle_gamma 112.708516
_cell_volume 592.776920
_symmetry_space_group_name_H-M "P -1"
_symmetry_group_IT_number 2
_symmetry_cell_setting 'triclinic'
loop_
_space_group_symop_operation_xyz
x,y,z
-x,-y,-z
loop_
_atom_site_type_symbol
_atom_site_label
_atom_site_fract_x
_atom_site_fract_y
_atom_site_fract_z
Si Si1 0.414072 0.085551 0.017809
Si Si2 0.306505 0.464322 0.019266
Si Si3 0.588301 0.260585 0.458071
Si Si4 0.817149 0.270514 0.144374
Si Si5 0.938565 0.267592 0.895851
Si Si6 0.734408 0.937789 0.752571
Si Si7 0.965662 0.172190 0.581410
O O1 0.215778 0.169382 0.787787
O O2 0.590480 0.193411 0.095336
O O3 0.357566 0.008126 0.187161
O O4 0.500000 0.000000 0.000000
O O5 0.418513 0.371437 0.266773
O O6 0.088355 0.394633 0.862861
O O7 0.500000 0.500000 0.000000
O O8 0.219527 0.582824 0.965922
O O9 0.461678 0.131800 0.413975
O O10 0.817369 0.279784 0.488524
O O11 0.689292 0.261430 0.680958
O O12 0.915057 0.246805 0.065488
O O13 0.990508 0.211050 0.401853
O O14 0.078123 0.151681 0.009128
O O15 0.844326 0.038693 0.639679
#
# Coordination Sequence:
#
# PCOD8034433 Si02
#       7
#     2   2   2   2   2   2   2
#     4  12  27  43  70 108 143 184 238 290 344 422
#     4  11  24  48  74 103 140 180 241 293 338 418
#     4  11  24  44  76 101 134 195 229 282 354 411
#     4  12  27  47  67 110 145 179 237 295 342 414
#     4  11  26  45  75 101 141 187 231 288 354 416
#     4  11  24  46  70 105 145 183 239 286 345 425
#     4  12  25  44  72  98 145 193 224 283 358 408
#
# _framework density 23.617653000000001
#
# number of rings (size 3 to 8) (size 9 to 14) (size 15 to 20)
#    0.000    0.571    4.286    3.000    2.000    6.857 
#    0.000    0.000    0.000    0.000    0.000    0.000 
#    0.000    0.000    0.000    0.000    0.000    0.000 
#
# Total GULP energy -173505.107343 kJ/mol
# GULP energy per Si atom -12393.221953 kJ/mol
# Density = 2.356390 g / cm^3
# Si number density = 23.617653 Si / 1000 Ang^3
#
#
#
# Elastic Constant Matrix: (Units=GPa)
#
#
# Indices 1 2 3 4 5 6 
#
# 1 52.1111 -14.3712 -0.9185 7.7381 -23.1847 -14.2638
# 2 -14.3712 53.3413 -3.5170 5.5137 -13.4840 -21.3995
# 3 -0.9185 -3.5170 112.6423 14.3112 -4.9437 -17.1575
# 4 7.7381 5.5137 14.3112 11.8552 1.3993 2.6164
# 5 -23.1847 -13.4840 -4.9437 1.3993 52.3542 1.1917
# 6 -14.2638 -21.3995 -17.1575 2.6164 1.1917 31.4075
#
#
#
# Elastic Compliance Matrix: (Units=1/GPa)
#
#
# Indices 1 2 3 4 5 6 
#
# 1 -0.015404 -0.030510 -0.014459 0.052351 -0.016547 -0.039416
# 2 -0.030510 -0.014910 -0.013719 0.053460 -0.019274 -0.035231
# 3 -0.014459 -0.013719 0.003622 0.015875 -0.009680 -0.014891
# 4 0.052351 0.053460 0.015875 -0.013376 0.037248 0.068573
# 5 -0.016547 -0.019274 -0.009680 0.037248 0.005565 -0.029249
# 6 -0.039416 -0.035231 -0.014891 0.068573 -0.029249 -0.022803
#
#
# Mechanical properties :
#
#
# Convention : Reuss Voigt Hill
#
# Bulk Modulus (GPa) = -6.94113 20.05351 6.55619
# Shear Modulus (GPa) = 415.02526 34.91682 224.97104
#
# Velocity S-wave (km/s) = 13.27058 3.84919 9.77048
# Velocity P-wave (km/s) = 15.22713 5.31643 11.40460
#
# Compressibility (1/GPa) = -0.14406879
#
# Stress axis : x y z
#
# Youngs Moduli (GPa) = -64.91934 -67.07082 276.12781
#
# Poissons Ratio (x) = -2.04636 3.99264
# Poissons Ratio (y) = -1.98072 3.78809
# Poissons Ratio (z) = -0.93869 -0.92012
#
# Static dielectric constant tensor:
#      x y z
#    x 4.417720 0.016230 0.239920 
#    y 0.016230 4.432220 -0.060650 
#    z 0.239920 -0.060650 4.648000 
# 
# 
# High freq. dielectric constant tensor:
#      x y z
#    x 1.939780 0.002710 0.009290 
#    y 0.002710 1.925870 0.001250 
#    z 0.009290 0.001250 1.955640 
# 
# From -- ./inp_files/177007.got.cif
#   From: 2010.06.25/outbox.cif.g09.slc.cpg/sg2_89_cif.got.tgz:177007.got - 2010.06.27 13:26:56.
