data_PCOD8034366
_publ_section_title
;
Structure prediction by ZEFSAII (Michael W. Deem and Ramdas Pophale) SiO2 
 PCOD8034366
Probable space group: P -1
;
_chemical_formula_sum "Si O2"
_cell_formula_units_Z 16
_cell_length_a 6.519635
_cell_length_b 15.819150
_cell_length_c 8.356174
_cell_angle_alpha 122.369848
_cell_angle_beta 90.592281
_cell_angle_gamma 74.018359
_cell_volume 689.721085
_symmetry_space_group_name_H-M "P -1"
_symmetry_group_IT_number 2
_symmetry_cell_setting 'triclinic'
loop_
_space_group_symop_operation_xyz
x,y,z
-x,-y,-z
loop_
_atom_site_type_symbol
_atom_site_label
_atom_site_fract_x
_atom_site_fract_y
_atom_site_fract_z
Si Si1 0.324184 0.251708 0.614241
Si Si2 0.940646 0.053803 0.727473
Si Si3 0.515340 0.557874 0.218730
Si Si4 0.542006 0.086658 0.967876
Si Si5 0.095422 0.573336 0.690901
Si Si6 0.281636 0.869714 0.687833
Si Si7 0.862494 0.771411 0.074590
Si Si8 0.892724 0.314739 0.496484
O O1 0.442428 0.337076 0.732391
O O2 0.500793 0.149193 0.435075
O O3 0.241964 0.217207 0.740750
O O4 0.132463 0.305372 0.543324
O O5 0.945926 0.174799 0.853593
O O6 0.709278 0.045752 0.778646
O O7 0.131211 0.989251 0.782614
O O8 0.000000 0.000000 0.500000
O O9 0.689211 0.494990 0.287086
O O10 0.278392 0.584459 0.320197
O O11 0.500000 0.500000 0.000000
O O12 0.314787 0.163545 0.985914
O O13 0.654625 0.152023 0.147799
O O14 0.500000 0.000000 0.000000
O O15 0.137531 0.663023 0.670171
O O16 0.000000 0.500000 0.500000
O O17 0.939583 0.647080 0.899848
O O18 0.148852 0.792292 0.560904
#
# Coordination Sequence:
#
# PCOD8034366 Si02
#       8
#     2   2   2   2   2   2   2   2
#     4  11  25  46  71 108 145 197 244 309 378 441
#     4  12  27  47  72 109 148 194 245 304 375 450
#     4  11  26  45  71 105 145 192 248 312 375 445
#     4  12  27  45  74 106 148 193 245 306 376 444
#     4  12  26  47  74 105 145 197 250 308 378 441
#     4  11  25  43  74 103 144 188 247 302 374 449
#     4  12  28  45  73 105 149 193 250 305 371 454
#     4  11  24  44  73 101 143 188 248 306 372 445
#
# _framework density 23.197783999999999
#
# number of rings (size 3 to 8) (size 9 to 14) (size 15 to 20)
#    0.000    0.500    2.500    4.500    8.750    6.000 
#    0.000    0.000    0.000    0.000    0.000    0.000 
#    0.000    0.000    0.000    0.000    0.000    0.000 
#
# Total GULP energy -198344.456430 kJ/mol
# GULP energy per Si atom -12396.528527 kJ/mol
# Density = 2.314498 g / cm^3
# Si number density = 23.197784 Si / 1000 Ang^3
#
#
#
# Elastic Constant Matrix: (Units=GPa)
#
#
# Indices 1 2 3 4 5 6 
#
# 1 90.0267 10.6457 17.4316 10.8926 -4.9373 3.6136
# 2 10.6457 74.4434 -1.2110 -0.5316 3.6718 1.4528
# 3 17.4316 -1.2110 99.5696 4.2319 2.3440 10.6846
# 4 10.8926 -0.5316 4.2319 39.5802 -3.8895 -7.0708
# 5 -4.9373 3.6718 2.3440 -3.8895 42.7448 -9.2317
# 6 3.6136 1.4528 10.6846 -7.0708 -9.2317 36.8176
#
#
#
# Elastic Compliance Matrix: (Units=1/GPa)
#
#
# Indices 1 2 3 4 5 6 
#
# 1 0.012193 -0.001840 -0.001955 -0.003210 0.001193 -0.000874
# 2 -0.001840 0.013804 0.000609 0.000313 -0.001593 -0.000880
# 3 -0.001955 0.000609 0.010898 -0.001464 -0.001815 -0.003731
# 4 -0.003210 0.000313 -0.001464 0.027933 0.003743 0.007031
# 5 0.001193 -0.001593 -0.001815 0.003743 0.025762 0.007651
# 6 -0.000874 -0.000880 -0.003731 0.007031 0.007651 0.031633
#
#
# Mechanical properties :
#
#
# Convention : Reuss Voigt Hill
#
# Bulk Modulus (GPa) = 32.76255 35.30802 34.03529
# Shear Modulus (GPa) = 36.03102 39.64008 37.83555
#
# Velocity S-wave (km/s) = 3.94535 4.13823 4.04294
# Velocity P-wave (km/s) = 5.90832 6.17145 6.04132
#
# Compressibility (1/GPa) = 0.03052266
#
# Stress axis : x y z
#
# Youngs Moduli (GPa) = 82.01543 72.44238 91.75854
#
# Poissons Ratio (x) = 0.13330 0.17937
# Poissons Ratio (y) = 0.15092 -0.05585
# Poissons Ratio (z) = 0.16032 -0.04410
#
# Static dielectric constant tensor:
#      x y z
#    x 4.437880 -0.087830 -0.065070 
#    y -0.087830 4.199980 -0.046900 
#    z -0.065070 -0.046900 4.424700 
# 
# 
# High freq. dielectric constant tensor:
#      x y z
#    x 1.923840 -0.000940 -0.001230 
#    y -0.000940 1.922460 -0.005780 
#    z -0.001230 -0.005780 1.929970 
# 
# From -- ./inp_files/46320.got.cif
#   From: 2010.06.25/outbox.cif.g09.slc.cpg/sg2_24_cif.got.tgz:46320.got - 2010.06.27 13:26:56.
