data_PCOD8034534
_publ_section_title
;
Structure prediction by ZEFSAII (Michael W. Deem and Ramdas Pophale) SiO2 
 PCOD8034534
Probable space group: P -1
;
_chemical_formula_sum "Si O2"
_cell_formula_units_Z 16
_cell_length_a 25.123630
_cell_length_b 8.470339
_cell_length_c 8.893224
_cell_angle_alpha 76.685249
_cell_angle_beta 41.344248
_cell_angle_gamma 46.612968
_cell_volume 730.533412
_symmetry_space_group_name_H-M "P -1"
_symmetry_group_IT_number 2
_symmetry_cell_setting 'triclinic'
loop_
_space_group_symop_operation_xyz
x,y,z
-x,-y,-z
loop_
_atom_site_type_symbol
_atom_site_label
_atom_site_fract_x
_atom_site_fract_y
_atom_site_fract_z
Si Si1 0.677916 0.510980 0.718967
Si Si2 0.546232 0.467845 0.202480
Si Si3 0.691543 0.021913 0.236977
Si Si4 0.773059 0.611903 0.729120
Si Si5 0.498551 0.790637 0.777462
Si Si6 0.712589 0.625741 0.173636
Si Si7 0.962334 0.678292 0.900857
Si Si8 0.121711 0.860621 0.867975
O O1 0.748201 0.549485 0.643422
O O2 0.551189 0.772862 0.830621
O O3 0.765744 0.276717 0.460218
O O4 0.650191 0.417792 0.916005
O O5 0.637471 0.248622 0.190427
O O6 0.419698 0.788042 0.438488
O O7 0.485201 0.427846 0.232546
O O8 0.687891 0.855308 0.200915
O O9 0.842601 0.799692 0.026875
O O10 0.909565 0.494587 0.441165
O O11 0.766061 0.507507 0.915400
O O12 0.658512 0.924634 0.942985
O O13 0.573297 0.757968 0.484431
O O14 0.832068 0.365284 0.079545
O O15 0.000000 0.500000 0.000000
O O16 0.910202 0.934003 0.010441
O O17 0.000000 0.000000 0.000000
#
# Coordination Sequence:
#
# PCOD8034534 Si02
#       8
#     2   2   2   2   2   2   2   2
#     4  11  25  41  74  99 140 182 236 292 344 420
#     4  11  25  43  74 105 141 180 239 297 349 409
#     4  11  25  45  69 105 143 185 230 293 358 399
#     4  12  26  44  70 107 136 193 229 286 349 423
#     4  11  24  45  70 105 139 181 237 292 354 404
#     4  11  25  45  75  98 145 179 238 290 341 424
#     4  12  29  46  73 102 148 184 233 287 354 423
#     4  11  24  48  68 102 136 186 229 285 352 409
#
# _framework density 21.901803000000001
#
# number of rings (size 3 to 8) (size 9 to 14) (size 15 to 20)
#    0.000    0.750    2.500    4.125   10.500    2.000 
#    0.000    0.000    0.000    0.000    0.000    0.000 
#    0.000    0.000    0.000    0.000    0.000    0.000 
#
# Total GULP energy -198283.618466 kJ/mol
# GULP energy per Si atom -12392.726154 kJ/mol
# Density = 2.185195 g / cm^3
# Si number density = 21.901803 Si / 1000 Ang^3
#
#
#
# Elastic Constant Matrix: (Units=GPa)
#
#
# Indices 1 2 3 4 5 6 
#
# 1 100.2485 16.7366 28.7276 8.8320 -3.4629 -6.1780
# 2 16.7366 86.8889 51.9273 5.5395 -1.3432 -7.9409
# 3 28.7276 51.9273 119.2425 -1.0094 3.8972 -16.9905
# 4 8.8320 5.5395 -1.0094 33.5466 -1.2567 -4.0278
# 5 -3.4629 -1.3432 3.8972 -1.2567 34.4089 5.3442
# 6 -6.1780 -7.9409 -16.9905 -4.0278 5.3442 32.0489
#
#
#
# Elastic Compliance Matrix: (Units=1/GPa)
#
#
# Indices 1 2 3 4 5 6 
#
# 1 0.011074 -0.000401 -0.002542 -0.002864 0.001264 0.000117
# 2 -0.000401 0.015897 -0.006948 -0.002725 0.001327 -0.000385
# 3 -0.002542 -0.006948 0.012911 0.002755 -0.002733 0.005435
# 4 -0.002864 -0.002725 0.002755 0.031597 -0.000211 0.004240
# 5 0.001264 0.001327 -0.002733 -0.000211 0.030473 -0.005984
# 6 0.000117 -0.000385 0.005435 0.004240 -0.005984 0.035542
#
#
# Mechanical properties :
#
#
# Convention : Reuss Voigt Hill
#
# Bulk Modulus (GPa) = 49.74887 55.68475 52.71681
# Shear Modulus (GPa) = 30.49224 33.93345 32.21284
#
# Velocity S-wave (km/s) = 3.73530 3.94044 3.83924
# Velocity P-wave (km/s) = 6.43173 6.79579 6.61626
#
# Compressibility (1/GPa) = 0.02010096
#
# Stress axis : x y z
#
# Youngs Moduli (GPa) = 90.30271 62.90351 77.45079
#
# Poissons Ratio (x) = 0.02522 0.19690
# Poissons Ratio (y) = 0.03620 0.53811
# Poissons Ratio (z) = 0.22957 0.43704
#
# Static dielectric constant tensor:
#      x y z
#    x 3.231880 -0.180360 0.293030 
#    y -0.180360 3.925470 0.073320 
#    z 0.293030 0.073320 4.148320 
# 
# 
# High freq. dielectric constant tensor:
#      x y z
#    x 1.872930 -0.007840 0.003470 
#    y -0.007840 1.863810 0.003980 
#    z 0.003470 0.003980 1.870090 
# 
# From -- ./inp_files/356425.got.cif
#   From: 2010.06.25/outbox.cif.g09.slc.cpg/sg2_179_cif.got.tgz:356425.got - 2010.06.27 13:26:56.
