data_PCOD8034750
_publ_section_title
;
Structure prediction by ZEFSAII (Michael W. Deem and Ramdas Pophale) SiO2 
 PCOD8034750
Probable space group: P -1
;
_chemical_formula_sum "Si O2"
_cell_formula_units_Z 14
_cell_length_a 14.139656
_cell_length_b 8.661835
_cell_length_c 15.103513
_cell_angle_alpha 138.297005
_cell_angle_beta 29.874646
_cell_angle_gamma 135.564611
_cell_volume 600.451337
_symmetry_space_group_name_H-M "P -1"
_symmetry_group_IT_number 2
_symmetry_cell_setting 'triclinic'
loop_
_space_group_symop_operation_xyz
x,y,z
-x,-y,-z
loop_
_atom_site_type_symbol
_atom_site_label
_atom_site_fract_x
_atom_site_fract_y
_atom_site_fract_z
Si Si1 0.025877 0.609351 0.930461
Si Si2 0.942370 0.118913 0.234733
Si Si3 0.279861 0.743259 0.070426
Si Si4 0.621622 0.617487 0.033741
Si Si5 0.628521 0.007085 0.573017
Si Si6 0.332494 0.658460 0.573754
Si Si7 0.619073 0.848610 0.714927
O O1 0.249496 0.641199 0.734570
O O2 0.922145 0.416926 0.861525
O O3 0.000000 0.500000 0.000000
O O4 0.951165 0.851974 0.086367
O O5 0.845597 0.123345 0.413029
O O6 0.801007 0.204770 0.316400
O O7 0.155393 0.283838 0.133472
O O8 0.238576 0.959716 0.257560
O O9 0.399017 0.585094 0.962627
O O10 0.401483 0.841566 0.925641
O O11 0.522305 0.820403 0.240877
O O12 0.500000 0.500000 0.000000
O O13 0.552015 0.798675 0.473458
O O14 0.638596 0.923467 0.629243
O O15 0.330532 0.407613 0.422567
#
# Coordination Sequence:
#
# PCOD8034750 Si02
#       7
#     2   2   2   2   2   2   2
#     4  12  24  43  73 106 141 186 240 301 357 425
#     4  12  26  46  73 108 143 189 243 302 361 428
#     4  11  24  46  69 100 149 189 240 294 362 426
#     4  12  25  48  73 104 145 191 240 296 363 426
#     4  12  24  45  75 107 144 190 246 296 361 431
#     4  12  23  44  72 104 150 187 244 299 355 434
#     4  11  25  44  69 106 144 195 239 299 359 426
#
# _framework density 23.315795999999999
#
# number of rings (size 3 to 8) (size 9 to 14) (size 15 to 20)
#    0.000    0.286    4.286    5.571    0.000    1.143 
#    0.000    0.000    0.000    0.000    0.000    0.000 
#    0.000    0.000    0.000    0.000    0.000    0.000 
#
# Total GULP energy -173614.179635 kJ/mol
# GULP energy per Si atom -12401.012831 kJ/mol
# Density = 2.326273 g / cm^3
# Si number density = 23.315796 Si / 1000 Ang^3
#
#
#
# Elastic Constant Matrix: (Units=GPa)
#
#
# Indices 1 2 3 4 5 6 
#
# 1 83.0393 43.7931 29.0967 6.2971 18.1183 11.1417
# 2 43.7931 123.1320 56.0541 10.9865 11.6352 3.4831
# 3 29.0967 56.0541 124.1841 -0.2764 10.1369 1.0035
# 4 6.2971 10.9865 -0.2764 58.0475 -2.9903 -0.8944
# 5 18.1183 11.6352 10.1369 -2.9903 28.8086 -2.0578
# 6 11.1417 3.4831 1.0035 -0.8944 -2.0578 34.1373
#
#
#
# Elastic Compliance Matrix: (Units=1/GPa)
#
#
# Indices 1 2 3 4 5 6 
#
# 1 0.017920 -0.004551 -0.001319 -0.001674 -0.009568 -0.005966
# 2 -0.004551 0.011887 -0.004256 -0.001803 -0.000606 0.000314
# 3 -0.001319 -0.004256 0.010359 0.000957 -0.000959 0.000528
# 4 -0.001674 -0.001803 0.000957 0.017951 0.003406 0.001378
# 5 -0.009568 -0.000606 -0.000959 0.003406 0.042082 0.005839
# 6 -0.005966 0.000314 0.000528 0.001378 0.005839 0.031581
#
#
# Mechanical properties :
#
#
# Convention : Reuss Voigt Hill
#
# Bulk Modulus (GPa) = 50.21745 65.36036 57.78890
# Shear Modulus (GPa) = 31.51201 37.62612 34.56907
#
# Velocity S-wave (km/s) = 3.68031 4.02152 3.85469
# Velocity P-wave (km/s) = 6.29637 7.04677 6.68211
#
# Compressibility (1/GPa) = 0.01991340
#
# Stress axis : x y z
#
# Youngs Moduli (GPa) = 55.80478 84.12791 96.53438
#
# Poissons Ratio (x) = 0.38283 0.12734
# Poissons Ratio (y) = 0.25394 0.41088
# Poissons Ratio (z) = 0.07361 0.35807
#
# Static dielectric constant tensor:
#      x y z
#    x 3.591470 -0.046430 0.068670 
#    y -0.046430 4.675790 -0.039060 
#    z 0.068670 -0.039060 4.404220 
# 
# 
# High freq. dielectric constant tensor:
#      x y z
#    x 1.915330 -0.007120 0.011330 
#    y -0.007120 1.943830 -0.002640 
#    z 0.011330 -0.002640 1.929430 
# 
# From -- ./inp_files/159383.got.cif
#   From: 2010.06.25/outbox.cif.g09.slc.cpg/sg2_80_cif.got.tgz:159383.got - 2010.06.27 13:26:56.
