data_PCOD8034420
_publ_section_title
;
Structure prediction by ZEFSAII (Michael W. Deem and Ramdas Pophale) SiO2 
 PCOD8034420
Probable space group: P -1
;
_chemical_formula_sum "Si O2"
_cell_formula_units_Z 12
_cell_length_a 9.369551
_cell_length_b 10.421813
_cell_length_c 9.400425
_cell_angle_alpha 53.319036
_cell_angle_beta 45.612660
_cell_angle_gamma 76.204882
_cell_volume 499.637208
_symmetry_space_group_name_H-M "P -1"
_symmetry_group_IT_number 2
_symmetry_cell_setting 'triclinic'
loop_
_space_group_symop_operation_xyz
x,y,z
-x,-y,-z
loop_
_atom_site_type_symbol
_atom_site_label
_atom_site_fract_x
_atom_site_fract_y
_atom_site_fract_z
Si Si1 0.295979 0.695174 0.188729
Si Si2 0.467926 0.842378 0.233842
Si Si3 0.489703 0.823543 0.690023
Si Si4 0.892013 0.842005 0.077201
Si Si5 0.846288 0.676118 0.492690
Si Si6 0.151222 0.690089 0.800668
O O1 0.423416 0.693340 0.246212
O O2 0.256208 0.515696 0.259028
O O3 0.082957 0.739717 0.346910
O O4 0.419796 0.832504 0.895744
O O5 0.674634 0.860770 0.165766
O O6 0.267514 0.791452 0.513495
O O7 0.500000 0.000000 0.000000
O O8 0.716114 0.795482 0.559313
O O9 0.324548 0.679259 0.805485
O O10 0.500000 0.000000 0.500000
O O11 0.852126 0.678736 0.314339
O O12 0.025634 0.811805 0.870764
O O13 0.000000 0.000000 0.000000
O O14 0.000000 0.500000 0.000000
#
# Coordination Sequence:
#
# PCOD8034420 Si02
#       6
#     2   2   2   2   2   2
#     4  11  26  45  72 112 150 194 255 319 379 456
#     4  12  28  47  75 114 156 196 264 326 383 456
#     4  12  25  46  78 108 150 210 259 306 391 472
#     4  12  26  48  79 109 154 211 255 313 395 470
#     4  11  24  44  75 105 148 201 250 308 387 459
#     4  12  28  46  78 115 153 197 263 320 385 461
#
# _framework density 24.017424999999999
#
# number of rings (size 3 to 8) (size 9 to 14) (size 15 to 20)
#    0.000    0.333    3.333    4.500    4.667    3.333 
#    0.000    0.000    0.000    0.000    0.000    0.000 
#    0.000    0.000    0.000    0.000    0.000    0.000 
#
# Total GULP energy -148717.992216 kJ/mol
# GULP energy per Si atom -12393.166018 kJ/mol
# Density = 2.396276 g / cm^3
# Si number density = 24.017425 Si / 1000 Ang^3
#
#
#
# Elastic Constant Matrix: (Units=GPa)
#
#
# Indices 1 2 3 4 5 6 
#
# 1 144.3800 50.4712 46.0274 -2.4697 -5.6110 10.5467
# 2 50.4712 136.6282 66.9742 12.8929 -19.4702 -4.6924
# 3 46.0274 66.9742 159.4679 11.7311 1.1438 4.5285
# 4 -2.4697 12.8929 11.7311 37.3507 2.6936 5.5392
# 5 -5.6110 -19.4702 1.1438 2.6936 35.7512 5.8988
# 6 10.5467 -4.6924 4.5285 5.5392 5.8988 46.5873
#
#
#
# Elastic Compliance Matrix: (Units=1/GPa)
#
#
# Indices 1 2 3 4 5 6 
#
# 1 0.008555 -0.002748 -0.001418 0.002302 0.000108 -0.002363
# 2 -0.002748 0.011470 -0.003851 -0.003630 0.005909 0.001835
# 3 -0.001418 -0.003851 0.008413 -0.001167 -0.002429 -0.000438
# 4 0.002302 -0.003630 -0.001167 0.029345 -0.003151 -0.003863
# 5 0.000108 0.005909 -0.002429 -0.003151 0.031995 -0.002870
# 6 -0.002363 0.001835 -0.000438 -0.003863 -0.002870 0.023050
#
#
# Mechanical properties :
#
#
# Convention : Reuss Voigt Hill
#
# Bulk Modulus (GPa) = 80.62647 85.26909 82.94778
# Shear Modulus (GPa) = 37.59442 42.40472 39.99957
#
# Velocity S-wave (km/s) = 3.96068 4.20644 4.08541
# Velocity P-wave (km/s) = 7.38639 7.69235 7.54092
#
# Compressibility (1/GPa) = 0.01240288
#
# Stress axis : x y z
#
# Youngs Moduli (GPa) = 116.88856 87.18451 118.85785
#
# Poissons Ratio (x) = 0.23960 0.16855
# Poissons Ratio (y) = 0.32124 0.45778
# Poissons Ratio (z) = 0.16576 0.33579
#
# Static dielectric constant tensor:
#      x y z
#    x 5.132110 0.472460 0.024500 
#    y 0.472460 4.325140 0.025200 
#    z 0.024500 0.025200 4.833460 
# 
# 
# High freq. dielectric constant tensor:
#      x y z
#    x 1.956950 0.005960 -0.000900 
#    y 0.005960 1.945840 -0.002200 
#    z -0.000900 -0.002200 1.977560 
# 
# From -- ./inp_files/166997.got.cif
#   From: 2010.06.25/outbox.cif.g09.slc.cpg/sg2_84_cif.got.tgz:166997.got - 2010.06.27 13:26:56.
