data_PCOD8034487
_publ_section_title
;
Structure prediction by ZEFSAII (Michael W. Deem and Ramdas Pophale) SiO2 
 PCOD8034487
Probable space group: P -1
;
_chemical_formula_sum "Si O2"
_cell_formula_units_Z 14
_cell_length_a 21.072357
_cell_length_b 9.167535
_cell_length_c 6.086682
_cell_angle_alpha 129.440092
_cell_angle_beta 124.213138
_cell_angle_gamma 39.735481
_cell_volume 573.974412
_symmetry_space_group_name_H-M "P -1"
_symmetry_group_IT_number 2
_symmetry_cell_setting 'triclinic'
loop_
_space_group_symop_operation_xyz
x,y,z
-x,-y,-z
loop_
_atom_site_type_symbol
_atom_site_label
_atom_site_fract_x
_atom_site_fract_y
_atom_site_fract_z
Si Si1 0.824981 0.884097 0.954136
Si Si2 0.800513 0.184667 0.816865
Si Si3 0.964106 0.902999 0.518712
Si Si4 0.825454 0.530766 0.364905
Si Si5 0.482442 0.170939 0.435812
Si Si6 0.647444 0.282512 0.277413
Si Si7 0.638900 0.924131 0.144969
O O1 0.812860 0.675211 0.702942
O O2 0.844987 0.937374 0.801819
O O3 0.917083 0.792670 0.204096
O O4 0.723305 0.140595 0.088117
O O5 0.698313 0.286042 0.598718
O O6 0.881859 0.123456 0.733660
O O7 0.780870 0.387619 0.147481
O O8 0.054904 0.682372 0.637125
O O9 0.000000 0.000000 0.500000
O O10 0.760649 0.732341 0.234580
O O11 0.442723 0.435972 0.699913
O O12 0.587230 0.040711 0.391848
O O13 0.500000 0.000000 0.500000
O O14 0.397827 0.217733 0.155406
O O15 0.605887 0.141060 0.120979
#
# Coordination Sequence:
#
# PCOD8034487 Si02
#       7
#     2   2   2   2   2   2   2
#     4  11  26  43  69 106 136 186 228 278 343 399
#     4  11  24  45  69 101 138 184 228 286 334 403
#     4  11  25  44  68 103 141 184 229 283 338 396
#     4  12  24  45  72  96 145 180 232 278 343 406
#     4  11  27  46  73 103 136 176 230 285 352 410
#     4  11  25  47  72 100 143 174 233 284 344 415
#     4  11  26  45  71 106 131 185 228 283 348 407
#
# _framework density 24.39133
#
# number of rings (size 3 to 8) (size 9 to 14) (size 15 to 20)
#    0.000    0.857    4.286    1.286    4.000    2.286 
#    0.000    0.000    0.000    0.000    0.000    0.000 
#    0.000    0.000    0.000    0.000    0.000    0.000 
#
# Total GULP energy -173524.312340 kJ/mol
# GULP energy per Si atom -12394.593739 kJ/mol
# Density = 2.433581 g / cm^3
# Si number density = 24.391330 Si / 1000 Ang^3
#
#
#
# Elastic Constant Matrix: (Units=GPa)
#
#
# Indices 1 2 3 4 5 6 
#
# 1 99.9233 23.0391 9.4880 6.2189 -11.1186 12.5995
# 2 23.0391 118.6585 8.5452 6.1537 3.3695 9.7881
# 3 9.4880 8.5452 105.5165 19.2482 22.5948 0.7785
# 4 6.2189 6.1537 19.2482 38.6753 8.0950 3.2608
# 5 -11.1186 3.3695 22.5948 8.0950 30.9201 -1.0146
# 6 12.5995 9.7881 0.7785 3.2608 -1.0146 22.4865
#
#
#
# Elastic Compliance Matrix: (Units=1/GPa)
#
#
# Indices 1 2 3 4 5 6 
#
# 1 0.012084 -0.001858 -0.001944 -0.001520 0.006190 -0.005395
# 2 -0.001858 0.009108 -0.000127 -0.000522 -0.001527 -0.002912
# 3 -0.001944 -0.000127 0.012218 -0.004041 -0.008526 0.000923
# 4 -0.001520 -0.000522 -0.004041 0.029604 -0.005396 -0.003317
# 5 0.006190 -0.001527 -0.008526 -0.005396 0.042382 0.000186
# 6 -0.005395 -0.002912 0.000923 -0.003317 0.000186 0.049219
#
#
# Mechanical properties :
#
#
# Convention : Reuss Voigt Hill
#
# Bulk Modulus (GPa) = 39.13591 45.13810 42.13700
# Shear Modulus (GPa) = 29.24093 37.28479 33.26286
#
# Velocity S-wave (km/s) = 3.46616 3.91398 3.69686
# Velocity P-wave (km/s) = 5.66559 6.24273 5.96115
#
# Compressibility (1/GPa) = 0.02555198
#
# Stress axis : x y z
#
# Youngs Moduli (GPa) = 82.75123 109.79188 81.84411
#
# Poissons Ratio (x) = 0.20401 0.15914
# Poissons Ratio (y) = 0.15377 0.01038
# Poissons Ratio (z) = 0.16091 0.01392
#
# Static dielectric constant tensor:
#      x y z
#    x 4.165140 -0.050580 0.295650 
#    y -0.050580 4.306750 0.085140 
#    z 0.295650 0.085140 4.664100 
# 
# 
# High freq. dielectric constant tensor:
#      x y z
#    x 1.942770 -0.001590 0.022020 
#    y -0.001590 1.969880 0.001310 
#    z 0.022020 0.001310 1.986830 
# 
# From -- ./inp_files/37718.got.cif
#   From: 2010.06.25/outbox.cif.g09.slc.cpg/sg2_19_cif.got.tgz:37718.got - 2010.06.27 13:26:56.
