data_PCOD8034522
_publ_section_title
;
Structure prediction by ZEFSAII (Michael W. Deem and Ramdas Pophale) SiO2 
 PCOD8034522
Probable space group: P -1
;
_chemical_formula_sum "Si O2"
_cell_formula_units_Z 12
_cell_length_a 22.355569
_cell_length_b 8.423006
_cell_length_c 11.174241
_cell_angle_alpha 52.739717
_cell_angle_beta 149.096467
_cell_angle_gamma 147.858477
_cell_volume 515.385910
_symmetry_space_group_name_H-M "P -1"
_symmetry_group_IT_number 2
_symmetry_cell_setting 'triclinic'
loop_
_space_group_symop_operation_xyz
x,y,z
-x,-y,-z
loop_
_atom_site_type_symbol
_atom_site_label
_atom_site_fract_x
_atom_site_fract_y
_atom_site_fract_z
Si Si1 0.649740 0.818030 0.192567
Si Si2 0.862086 0.823053 0.954955
Si Si3 0.668915 0.291442 0.026309
Si Si4 0.470371 0.436971 0.641545
Si Si5 0.990726 0.765321 0.542965
Si Si6 0.893584 0.178228 0.032541
O O1 0.649192 0.717431 0.368798
O O2 0.575506 0.946586 0.007035
O O3 0.862120 0.087367 0.378283
O O4 0.500000 0.500000 0.000000
O O5 0.666553 0.676381 0.649871
O O6 0.810731 0.530639 0.046895
O O7 0.959348 0.067602 0.124899
O O8 0.000000 0.000000 0.000000
O O9 0.778489 0.433345 0.277324
O O10 0.519833 0.271561 0.781982
O O11 0.657518 0.841979 0.786651
O O12 0.027811 0.684549 0.760922
O O13 0.000000 0.000000 0.500000
O O14 0.000000 0.500000 0.000000
#
# Coordination Sequence:
#
# PCOD8034522 Si02
#       6
#     2   2   2   2   2   2
#     4  12  25  44  71 103 140 181 243 294 344 417
#     4  11  25  46  71 103 143 186 232 286 358 423
#     4  11  24  45  70 102 140 191 231 293 349 414
#     4  11  24  48  69 103 143 182 237 290 354 419
#     4  12  23  46  70 103 143 184 238 286 351 416
#     4  11  25  44  69 100 145 186 229 291 348 418
#
# _framework density 23.283522999999999
#
# number of rings (size 3 to 8) (size 9 to 14) (size 15 to 20)
#    0.000    0.667    5.000    4.000    4.667    0.000 
#    6.000    1.667    0.000    0.000    0.000    0.000 
#    0.000    0.000    0.000    0.000    0.000    0.000 
#
# Total GULP energy -148725.545076 kJ/mol
# GULP energy per Si atom -12393.795423 kJ/mol
# Density = 2.323053 g / cm^3
# Si number density = 23.283523 Si / 1000 Ang^3
#
#
#
# Elastic Constant Matrix: (Units=GPa)
#
#
# Indices 1 2 3 4 5 6 
#
# 1 120.9793 44.4537 30.2541 4.6297 -13.6642 22.3197
# 2 44.4537 150.5500 28.3833 -7.4032 -9.3174 2.8289
# 3 30.2541 28.3833 100.5905 -9.3858 -15.0046 -10.9624
# 4 4.6297 -7.4032 -9.3858 15.4455 5.5353 -8.7886
# 5 -13.6642 -9.3174 -15.0046 5.5353 41.2473 0.3361
# 6 22.3197 2.8289 -10.9624 -8.7886 0.3361 55.2100
#
#
#
# Elastic Compliance Matrix: (Units=1/GPa)
#
#
# Indices 1 2 3 4 5 6 
#
# 1 0.013260 -0.003338 -0.004756 -0.014719 0.003953 -0.008501
# 2 -0.003338 0.007960 -0.000581 0.005534 -0.000275 0.001709
# 3 -0.004756 -0.000581 0.013676 0.012721 0.001506 0.006684
# 4 -0.014719 0.005534 0.012721 0.097469 -0.012272 0.023783
# 5 0.003953 -0.000275 0.001506 -0.012272 0.027714 -0.003407
# 6 -0.008501 0.001709 0.006684 0.023783 -0.003407 0.026596
#
#
# Mechanical properties :
#
#
# Convention : Reuss Voigt Hill
#
# Bulk Modulus (GPa) = 56.99311 64.25576 60.62444
# Shear Modulus (GPa) = 23.82386 40.31580 32.06983
#
# Velocity S-wave (km/s) = 3.20223 4.16566 3.71531
# Velocity P-wave (km/s) = 6.18089 7.12699 6.67073
#
# Compressibility (1/GPa) = 0.01754598
#
# Stress axis : x y z
#
# Youngs Moduli (GPa) = 75.41471 125.62181 73.12180
#
# Poissons Ratio (x) = 0.41933 0.34780
# Poissons Ratio (y) = 0.25174 0.04246
# Poissons Ratio (z) = 0.35871 0.07294
#
# Static dielectric constant tensor:
#      x y z
#    x 4.301190 0.359300 -0.386380 
#    y 0.359300 2.301190 -2.965200 
#    z -0.386380 -2.965200 0.533660 
# 
# 
# High freq. dielectric constant tensor:
#      x y z
#    x 1.942070 0.023800 -0.014080 
#    y 0.023800 1.924450 -0.004420 
#    z -0.014080 -0.004420 1.912140 
# 
# From -- ./inp_files/148301.got.cif
#   From: 2010.06.25/outbox.cif.g09.slc.cpg/sg2_75_cif.got.tgz:148301.got - 2010.06.27 13:26:56.
