data_PCOD8034344
_publ_section_title
;
Structure prediction by ZEFSAII (Michael W. Deem and Ramdas Pophale) SiO2 
 PCOD8034344
Probable space group: P -1
;
_chemical_formula_sum "Si O2"
_cell_formula_units_Z 16
_cell_length_a 20.224583
_cell_length_b 11.423515
_cell_length_c 8.525108
_cell_angle_alpha 137.603015
_cell_angle_beta 72.677917
_cell_angle_gamma 139.295900
_cell_volume 695.415084
_symmetry_space_group_name_H-M "P -1"
_symmetry_group_IT_number 2
_symmetry_cell_setting 'triclinic'
loop_
_space_group_symop_operation_xyz
x,y,z
-x,-y,-z
loop_
_atom_site_type_symbol
_atom_site_label
_atom_site_fract_x
_atom_site_fract_y
_atom_site_fract_z
Si Si1 0.866768 0.273482 0.792663
Si Si2 0.133394 0.229114 0.070752
Si Si3 0.293311 0.871198 0.723966
Si Si4 0.628568 0.866691 0.731951
Si Si5 0.780327 0.946910 0.209791
Si Si6 0.870282 0.684758 0.198052
Si Si7 0.606767 0.183647 0.979979
Si Si8 0.538095 0.255697 0.810567
O O1 0.739324 0.973293 0.691274
O O2 0.852036 0.133789 0.506572
O O3 0.867753 0.477232 0.955161
O O4 0.000000 0.500000 0.000000
O O5 0.231744 0.558056 0.415224
O O6 0.150968 0.064539 0.943510
O O7 0.147884 0.262491 0.905268
O O8 0.000000 0.000000 0.000000
O O9 0.213213 0.869186 0.721798
O O10 0.424108 0.149688 0.812890
O O11 0.314336 0.920949 0.944098
O O12 0.500000 0.500000 0.500000
O O13 0.590524 0.942879 0.712030
O O14 0.638371 0.581499 0.970835
O O15 0.759506 0.513623 0.228364
O O16 0.000000 0.000000 0.500000
O O17 0.589569 0.295160 0.976283
O O18 0.500000 0.000000 0.000000
O O19 0.500000 0.000000 0.500000
#
# Coordination Sequence:
#
# PCOD8034344 Si02
#       8
#     2   2   2   2   2   2   2   2
#     4  11  26  45  73 106 145 192 248 302 373 443
#     4  12  28  47  75 107 146 197 249 303 374 442
#     4  12  26  48  72 111 148 191 252 305 371 451
#     4  11  27  45  71 106 149 192 245 310 368 440
#     4  12  26  48  75 106 149 194 245 310 372 446
#     4  11  24  47  72 104 151 196 245 304 369 447
#     4  11  24  44  72 104 141 190 251 297 363 444
#     4  12  24  44  75 105 144 194 242 300 383 438
#
# _framework density 23.007842
#
# number of rings (size 3 to 8) (size 9 to 14) (size 15 to 20)
#    0.000    0.500    5.000    1.875    8.750    1.500 
#    0.000    0.000    0.000    0.000    0.000    0.000 
#    0.000    0.000    0.000    0.000    0.000    0.000 
#
# Total GULP energy -198236.244695 kJ/mol
# GULP energy per Si atom -12389.765293 kJ/mol
# Density = 2.295547 g / cm^3
# Si number density = 23.007842 Si / 1000 Ang^3
#
#
#
# Elastic Constant Matrix: (Units=GPa)
#
#
# Indices 1 2 3 4 5 6 
#
# 1 127.7472 29.7072 31.7462 0.4520 -17.5034 29.1234
# 2 29.7072 99.0934 18.9173 12.6685 2.3352 36.6977
# 3 31.7462 18.9173 129.2015 -0.0953 -2.8748 8.6078
# 4 0.4520 12.6685 -0.0953 35.8706 6.6450 7.5375
# 5 -17.5034 2.3352 -2.8748 6.6450 35.5515 3.4788
# 6 29.1234 36.6977 8.6078 7.5375 3.4788 45.9358
#
#
#
# Elastic Compliance Matrix: (Units=1/GPa)
#
#
# Indices 1 2 3 4 5 6 
#
# 1 0.010711 -0.000646 -0.001984 0.000374 0.005711 -0.006397
# 2 -0.000646 0.014907 -0.001304 -0.003037 0.000219 -0.010774
# 3 -0.001984 -0.001304 0.008364 0.000430 -0.000362 0.000689
# 4 0.000374 -0.003037 0.000430 0.030402 -0.005019 -0.002500
# 5 0.005711 0.000219 -0.000362 -0.005019 0.032359 -0.005355
# 6 -0.006397 -0.010774 0.000689 -0.002500 -0.005355 0.035119
#
#
# Mechanical properties :
#
#
# Convention : Reuss Voigt Hill
#
# Bulk Modulus (GPa) = 38.29029 57.42040 47.85535
# Shear Modulus (GPa) = 33.68527 41.84967 37.76747
#
# Velocity S-wave (km/s) = 3.83048 4.26952 4.05594
# Velocity P-wave (km/s) = 6.02012 7.02254 6.54056
#
# Compressibility (1/GPa) = 0.02611628
#
# Stress axis : x y z
#
# Youngs Moduli (GPa) = 93.36521 67.08334 119.55290
#
# Poissons Ratio (x) = 0.04331 0.23715
# Poissons Ratio (y) = 0.06028 0.15584
# Poissons Ratio (z) = 0.18520 0.08745
#
# Static dielectric constant tensor:
#      x y z
#    x 4.519580 0.058130 -0.138830 
#    y 0.058130 4.448740 0.214640 
#    z -0.138830 0.214640 4.242900 
# 
# 
# High freq. dielectric constant tensor:
#      x y z
#    x 1.928650 0.013650 -0.007980 
#    y 0.013650 1.910010 0.014160 
#    z -0.007980 0.014160 1.906430 
# 
# From -- ./inp_files/279571.got.cif
#   From: 2010.06.25/outbox.cif.g09.slc.cpg/sg2_140_cif.got.tgz:279571.got - 2010.06.27 13:26:56.
