data_PCOD8034926
_publ_section_title
;
Structure prediction by ZEFSAII (Michael W. Deem and Ramdas Pophale) SiO2 
 PCOD8034926
Probable space group: P -1
;
_chemical_formula_sum "Si O2"
_cell_formula_units_Z 14
_cell_length_a 5.374873
_cell_length_b 14.919465
_cell_length_c 9.270109
_cell_angle_alpha 59.897787
_cell_angle_beta 80.917879
_cell_angle_gamma 98.956239
_cell_volume 610.584470
_symmetry_space_group_name_H-M "P -1"
_symmetry_group_IT_number 2
_symmetry_cell_setting 'triclinic'
loop_
_space_group_symop_operation_xyz
x,y,z
-x,-y,-z
loop_
_atom_site_type_symbol
_atom_site_label
_atom_site_fract_x
_atom_site_fract_y
_atom_site_fract_z
Si Si1 0.551383 0.413472 0.458360
Si Si2 0.738991 0.946696 0.155053
Si Si3 0.645932 0.151607 0.107134
Si Si4 0.859469 0.778490 0.808633
Si Si5 0.870234 0.789050 0.460972
Si Si6 0.299729 0.761349 0.254424
Si Si7 0.249959 0.467089 0.944878
O O1 0.500000 0.500000 0.500000
O O2 0.296347 0.323370 0.501936
O O3 0.727827 0.356431 0.584161
O O4 0.702331 0.471775 0.259576
O O5 0.580655 0.034985 0.128438
O O6 0.766947 0.892784 0.352314
O O7 0.409816 0.155548 0.846142
O O8 0.000000 0.000000 0.000000
O O9 0.381071 0.170731 0.180686
O O10 0.864741 0.151627 0.208146
O O11 0.782507 0.244893 0.901878
O O12 0.900635 0.773780 0.638670
O O13 0.806312 0.659586 0.975373
O O14 0.145229 0.818949 0.329230
O O15 0.500000 0.500000 0.000000
O O16 0.000000 0.500000 0.000000
#
# Coordination Sequence:
#
# PCOD8034926 Si02
#       7
#     2   2   2   2   2   2   2
#     4  11  26  45  72 108 141 188 247 304 356 430
#     4  11  24  46  76 105 141 192 243 299 368 426
#     4  12  27  46  75 106 147 191 244 300 357 432
#     4  12  28  47  71 110 150 187 243 299 363 433
#     4  11  26  46  71 104 145 189 239 300 365 434
#     4  11  25  46  74 101 145 188 245 299 360 434
#     4  12  25  48  76 101 147 197 237 287 373 433
#
# _framework density 22.928849
#
# number of rings (size 3 to 8) (size 9 to 14) (size 15 to 20)
#    0.000    0.571    2.857    3.857   10.000    1.714 
#    0.000    0.000    0.000    0.000    0.000    0.000 
#    0.000    0.000    0.000    0.000    0.000    0.000 
#
# Total GULP energy -173539.554808 kJ/mol
# GULP energy per Si atom -12395.682486 kJ/mol
# Density = 2.287666 g / cm^3
# Si number density = 22.928849 Si / 1000 Ang^3
#
#
#
# Elastic Constant Matrix: (Units=GPa)
#
#
# Indices 1 2 3 4 5 6 
#
# 1 122.0039 34.8118 38.5070 9.3888 -3.9430 -24.5321
# 2 34.8118 84.9508 33.0207 5.9904 -1.7163 -9.3556
# 3 38.5070 33.0207 167.4996 5.2625 4.8298 0.9580
# 4 9.3888 5.9904 5.2625 40.7307 -3.7316 -5.0167
# 5 -3.9430 -1.7163 4.8298 -3.7316 41.2021 -1.7408
# 6 -24.5321 -9.3556 0.9580 -5.0167 -1.7408 31.2013
#
#
#
# Elastic Compliance Matrix: (Units=1/GPa)
#
#
# Indices 1 2 3 4 5 6 
#
# 1 0.011437 -0.002876 -0.002127 -0.000798 0.001496 0.008151
# 2 -0.002876 0.014052 -0.002110 -0.000844 0.000562 0.001913
# 3 -0.002127 -0.002110 0.006944 -0.000542 -0.001268 -0.002676
# 4 -0.000798 -0.000844 -0.000542 0.025567 0.002411 0.003382
# 5 0.001496 0.000562 -0.001268 0.002411 0.024938 0.003163
# 6 0.008151 0.001913 -0.002676 0.003382 0.003163 0.039834
#
#
# Mechanical properties :
#
#
# Convention : Reuss Voigt Hill
#
# Bulk Modulus (GPa) = 54.92248 65.23703 60.07976
# Shear Modulus (GPa) = 34.94903 40.50112 37.72508
#
# Velocity S-wave (km/s) = 3.90838 4.20740 4.06064
# Velocity P-wave (km/s) = 6.66129 7.21918 6.94584
#
# Compressibility (1/GPa) = 0.01820748
#
# Stress axis : x y z
#
# Youngs Moduli (GPa) = 87.43547 71.16673 144.01062
#
# Poissons Ratio (x) = 0.20467 0.30632
# Poissons Ratio (y) = 0.25145 0.30380
# Poissons Ratio (z) = 0.18598 0.15013
#
# Static dielectric constant tensor:
#      x y z
#    x 4.301240 -0.037490 0.165540 
#    y -0.037490 4.178010 -0.228000 
#    z 0.165540 -0.228000 4.043910 
# 
# 
# High freq. dielectric constant tensor:
#      x y z
#    x 1.906440 -0.005610 0.009160 
#    y -0.005610 1.907330 -0.010600 
#    z 0.009160 -0.010600 1.929810 
# 
# From -- ./inp_files/134976.got.cif
#   From: 2010.06.25/outbox.cif.g09.slc.cpg/sg2_68_cif.got.tgz:134976.got - 2010.06.27 13:26:56.
