data_PCOD8034636
_publ_section_title
;
Structure prediction by ZEFSAII (Michael W. Deem and Ramdas Pophale) SiO2 
 PCOD8034636
Probable space group: P -1
;
_chemical_formula_sum "Si O2"
_cell_formula_units_Z 14
_cell_length_a 8.851628
_cell_length_b 9.514031
_cell_length_c 17.389198
_cell_angle_alpha 59.015471
_cell_angle_beta 28.165876
_cell_angle_gamma 60.660477
_cell_volume 590.242323
_symmetry_space_group_name_H-M "P -1"
_symmetry_group_IT_number 2
_symmetry_cell_setting 'triclinic'
loop_
_space_group_symop_operation_xyz
x,y,z
-x,-y,-z
loop_
_atom_site_type_symbol
_atom_site_label
_atom_site_fract_x
_atom_site_fract_y
_atom_site_fract_z
Si Si1 0.158679 0.314141 0.401448
Si Si2 0.509938 0.505232 0.583712
Si Si3 0.348556 0.418314 0.889629
Si Si4 0.572602 0.118492 0.155837
Si Si5 0.370964 0.842804 0.062872
Si Si6 0.771180 0.767918 0.140483
Si Si7 0.278862 0.168750 0.549549
O O1 0.397821 0.450944 0.275103
O O2 0.255539 0.208187 0.311056
O O3 0.142828 0.197369 0.516043
O O4 0.816777 0.404641 0.511792
O O5 0.500000 0.500000 0.500000
O O6 0.211479 0.404724 0.771853
O O7 0.487461 0.691137 0.571932
O O8 0.404951 0.327906 0.972085
O O9 0.411926 0.261029 0.848853
O O10 0.000000 0.500000 0.000000
O O11 0.579059 0.923258 0.225617
O O12 0.618207 0.144156 0.037485
O O13 0.863581 0.193235 0.049449
O O14 0.008844 0.827572 0.260241
O O15 0.500000 0.000000 0.000000
O O16 0.500000 0.000000 0.500000
#
# Coordination Sequence:
#
# PCOD8034636 Si02
#       7
#     2   2   2   2   2   2   2
#     4  12  27  50  78 109 149 197 252 312 373 450
#     4  12  27  49  74 109 153 199 249 314 373 442
#     4  12  24  46  77 107 146 199 249 302 380 445
#     4  11  27  46  76 109 150 192 250 304 367 445
#     4  12  27  48  74 108 150 194 250 307 368 447
#     4  11  24  45  73 104 153 196 239 301 377 438
#     4  12  29  49  77 110 151 197 253 308 376 447
#
# _framework density 23.719073000000002
#
# number of rings (size 3 to 8) (size 9 to 14) (size 15 to 20)
#    0.000    0.286    5.714    2.143    8.000    3.429 
#    0.000    0.000    0.000    0.000    0.000    0.000 
#    0.000    0.000    0.000    0.000    0.000    0.000 
#
# Total GULP energy -173540.583112 kJ/mol
# GULP energy per Si atom -12395.755937 kJ/mol
# Density = 2.366509 g / cm^3
# Si number density = 23.719073 Si / 1000 Ang^3
#
#
#
# Elastic Constant Matrix: (Units=GPa)
#
#
# Indices 1 2 3 4 5 6 
#
# 1 118.1447 43.0861 21.6580 -0.8019 21.5865 -6.2495
# 2 43.0861 160.5686 43.4372 -5.7944 -1.9489 -4.8403
# 3 21.6580 43.4372 60.3047 -9.4547 14.4547 5.7285
# 4 -0.8019 -5.7944 -9.4547 41.5558 0.0557 -2.2677
# 5 21.5865 -1.9489 14.4547 0.0557 43.7827 2.1335
# 6 -6.2495 -4.8403 5.7285 -2.2677 2.1335 49.3110
#
#
#
# Elastic Compliance Matrix: (Units=1/GPa)
#
#
# Indices 1 2 3 4 5 6 
#
# 1 0.010592 -0.002644 -0.000846 -0.000274 -0.005128 0.001390
# 2 -0.002644 0.008733 -0.006378 -0.000230 0.003745 0.001090
# 3 -0.000846 -0.006378 0.024328 0.004475 -0.007757 -0.003018
# 4 -0.000274 -0.000230 0.004475 0.025082 -0.001416 0.000638
# 5 -0.005128 0.003745 -0.007757 -0.001416 0.028130 -0.000663
# 6 0.001390 0.001090 -0.003018 0.000638 -0.000663 0.020971
#
#
# Mechanical properties :
#
#
# Convention : Reuss Voigt Hill
#
# Bulk Modulus (GPa) = 41.80946 61.70897 51.75921
# Shear Modulus (GPa) = 34.35415 42.31901 38.33658
#
# Velocity S-wave (km/s) = 3.80988 4.22853 4.02466
# Velocity P-wave (km/s) = 6.08431 7.06497 6.59290
#
# Compressibility (1/GPa) = 0.02391803
#
# Stress axis : x y z
#
# Youngs Moduli (GPa) = 94.41095 114.51298 41.10511
#
# Poissons Ratio (x) = 0.30273 0.03476
# Poissons Ratio (y) = 0.24959 0.26217
# Poissons Ratio (z) = 0.07984 0.73035
#
# Static dielectric constant tensor:
#      x y z
#    x 4.717640 0.156980 0.064170 
#    y 0.156980 4.706690 -0.294340 
#    z 0.064170 -0.294340 4.367300 
# 
# 
# High freq. dielectric constant tensor:
#      x y z
#    x 1.947900 0.005020 0.002200 
#    y 0.005020 1.958940 -0.014330 
#    z 0.002200 -0.014330 1.935820 
# 
# From -- ./inp_files/158993.got.cif
#   From: 2010.06.25/outbox.cif.g09.slc.cpg/sg2_80_cif.got.tgz:158993.got - 2010.06.27 13:26:56.
