data_PCOD8034734
_publ_section_title
;
Structure prediction by ZEFSAII (Michael W. Deem and Ramdas Pophale) SiO2 
 PCOD8034734
Probable space group: P -1
;
_chemical_formula_sum "Si O2"
_cell_formula_units_Z 12
_cell_length_a 9.327104
_cell_length_b 8.331851
_cell_length_c 12.299333
_cell_angle_alpha 107.435024
_cell_angle_beta 35.439053
_cell_angle_gamma 95.079279
_cell_volume 507.408369
_symmetry_space_group_name_H-M "P -1"
_symmetry_group_IT_number 2
_symmetry_cell_setting 'triclinic'
loop_
_space_group_symop_operation_xyz
x,y,z
-x,-y,-z
loop_
_atom_site_type_symbol
_atom_site_label
_atom_site_fract_x
_atom_site_fract_y
_atom_site_fract_z
Si Si1 0.305451 0.033452 0.848185
Si Si2 0.731152 0.136251 0.715431
Si Si3 0.598623 0.668195 0.497349
Si Si4 0.379049 0.844988 0.964445
Si Si5 0.916279 0.649802 0.497425
Si Si6 0.028714 0.304964 0.904903
O O1 0.542494 0.119259 0.730245
O O2 0.079490 0.164730 0.945274
O O3 0.381083 0.837260 0.709903
O O4 0.221452 0.012120 0.021883
O O5 0.809690 0.314635 0.690674
O O6 0.619973 0.114965 0.900184
O O7 0.000000 0.000000 0.500000
O O8 0.500000 0.500000 0.500000
O O9 0.821208 0.589206 0.431502
O O10 0.721142 0.744805 0.336147
O O11 0.675257 0.801760 0.728138
O O12 0.232781 0.696388 0.998441
O O13 0.000000 0.500000 0.500000
O O14 0.000000 0.500000 0.000000
#
# Coordination Sequence:
#
# PCOD8034734 Si02
#       6
#     2   2   2   2   2   2
#     4  11  25  44  71 103 136 192 232 286 354 414
#     4  12  23  46  72 103 142 180 234 289 349 419
#     4  11  24  47  68 100 145 185 236 287 346 420
#     4  11  24  46  68 101 141 182 236 285 348 418
#     4  11  26  45  70 104 139 185 232 287 352 415
#     4  12  25  44  69 104 142 183 234 292 349 418
#
# _framework density 23.649591000000001
#
# number of rings (size 3 to 8) (size 9 to 14) (size 15 to 20)
#    0.000    0.667    5.000    3.500    4.667    2.000 
#    0.000    0.000    0.000    0.000    0.000    0.000 
#    0.000    0.000    0.000    0.000    0.000    0.000 
#
# Total GULP energy -148672.043764 kJ/mol
# GULP energy per Si atom -12389.336980 kJ/mol
# Density = 2.359576 g / cm^3
# Si number density = 23.649591 Si / 1000 Ang^3
#
#
#
# Elastic Constant Matrix: (Units=GPa)
#
#
# Indices 1 2 3 4 5 6 
#
# 1 133.1194 48.6629 31.8037 10.4744 1.5084 11.8626
# 2 48.6629 108.2651 17.4645 0.0044 11.0979 0.8696
# 3 31.8037 17.4645 99.1667 -23.6625 11.2058 2.1113
# 4 10.4744 0.0044 -23.6625 43.0087 2.1434 1.0600
# 5 1.5084 11.0979 11.2058 2.1434 38.8977 -12.9548
# 6 11.8626 0.8696 2.1113 1.0600 -12.9548 62.5947
#
#
#
# Elastic Compliance Matrix: (Units=1/GPa)
#
#
# Indices 1 2 3 4 5 6 
#
# 1 0.010474 -0.004244 -0.003915 -0.004758 0.001744 -0.001352
# 2 -0.004244 0.011473 -0.000017 0.001182 -0.003180 -0.000033
# 3 -0.003915 -0.000017 0.014014 0.008917 -0.004653 -0.000844
# 4 -0.004758 0.001182 0.008917 0.029568 -0.004643 -0.000877
# 5 0.001744 -0.003180 -0.004653 -0.004643 0.030210 0.006201
# 6 -0.001352 -0.000033 -0.000844 -0.000877 0.006201 0.017559
#
#
# Mechanical properties :
#
#
# Convention : Reuss Voigt Hill
#
# Bulk Modulus (GPa) = 51.00020 59.60148 55.30084
# Shear Modulus (GPa) = 36.71383 45.07491 40.89437
#
# Velocity S-wave (km/s) = 3.94434 4.37045 4.16285
# Velocity P-wave (km/s) = 6.50811 7.12211 6.82202
#
# Compressibility (1/GPa) = 0.01960777
#
# Stress axis : x y z
#
# Youngs Moduli (GPa) = 95.47400 87.15999 71.35635
#
# Poissons Ratio (x) = 0.36991 0.27939
# Poissons Ratio (y) = 0.40519 0.00124
# Poissons Ratio (z) = 0.37382 0.00151
#
# Static dielectric constant tensor:
#      x y z
#    x 4.218240 -0.169770 0.738600 
#    y -0.169770 4.386310 -0.364350 
#    z 0.738600 -0.364350 2.936170 
# 
# 
# High freq. dielectric constant tensor:
#      x y z
#    x 1.950880 0.021410 0.004800 
#    y 0.021410 1.948830 -0.033570 
#    z 0.004800 -0.033570 1.927040 
# 
# From -- ./inp_files/241305.got.cif
#   From: 2010.06.25/outbox.cif.g09.slc.cpg/sg2_121_cif.got.tgz:241305.got - 2010.06.27 13:26:56.
