data_PCOD8034861
_publ_section_title
;
Structure prediction by ZEFSAII (Michael W. Deem and Ramdas Pophale) SiO2 
 PCOD8034861
Probable space group: P -1
;
_chemical_formula_sum "Si O2"
_cell_formula_units_Z 16
_cell_length_a 9.221489
_cell_length_b 14.180863
_cell_length_c 8.935262
_cell_angle_alpha 72.039013
_cell_angle_beta 61.798123
_cell_angle_gamma 40.331548
_cell_volume 663.696558
_symmetry_space_group_name_H-M "P -1"
_symmetry_group_IT_number 2
_symmetry_cell_setting 'triclinic'
loop_
_space_group_symop_operation_xyz
x,y,z
-x,-y,-z
loop_
_atom_site_type_symbol
_atom_site_label
_atom_site_fract_x
_atom_site_fract_y
_atom_site_fract_z
Si Si1 0.551634 0.564936 0.621281
Si Si2 0.216345 0.867598 0.121448
Si Si3 0.717496 0.150842 0.568641
Si Si4 0.029641 0.315185 0.331195
Si Si5 0.570589 0.003667 0.627193
Si Si6 0.831533 0.398640 0.076597
Si Si7 0.894145 0.887406 0.081568
Si Si8 0.669626 0.629906 0.821845
O O1 0.355240 0.722135 0.556998
O O2 0.423035 0.522925 0.765158
O O3 0.671440 0.566539 0.701332
O O4 0.759195 0.436764 0.469710
O O5 0.345256 0.796099 0.253638
O O6 0.993127 0.889603 0.190395
O O7 0.400328 0.774256 0.938462
O O8 0.111654 0.025497 0.086025
O O9 0.564080 0.125186 0.593713
O O10 0.000000 0.000000 0.500000
O O11 0.159821 0.154296 0.387164
O O12 0.188683 0.333849 0.309484
O O13 0.026724 0.327528 0.147236
O O14 0.500000 0.000000 0.500000
O O15 0.370961 0.043366 0.813202
O O16 0.807658 0.511282 0.944468
O O17 0.912376 0.279756 0.978800
#
# Coordination Sequence:
#
# PCOD8034861 Si02
#       8
#     2   2   2   2   2   2   2   2
#     4  12  27  50  70 106 144 195 237 296 357 434
#     4  11  24  46  73 102 142 191 232 304 355 429
#     4  12  27  46  75 108 146 187 242 296 365 425
#     4  12  27  47  73 105 150 184 244 297 357 426
#     4  12  27  44  74 111 145 191 239 298 364 427
#     4  12  27  46  74 106 140 192 241 295 358 426
#     4  11  25  44  74 103 146 182 246 293 359 428
#     4  12  26  47  73 106 143 193 239 292 363 426
#
# _framework density 24.107400999999999
#
# number of rings (size 3 to 8) (size 9 to 14) (size 15 to 20)
#    0.000    0.250    2.500    6.000    7.000    2.000 
#    0.000    0.000    0.000    0.000    0.000    0.000 
#    0.000    0.000    0.000    0.000    0.000    0.000 
#
# Total GULP energy -198508.492507 kJ/mol
# GULP energy per Si atom -12406.780782 kJ/mol
# Density = 2.405253 g / cm^3
# Si number density = 24.107401 Si / 1000 Ang^3
#
#
#
# Elastic Constant Matrix: (Units=GPa)
#
#
# Indices 1 2 3 4 5 6 
#
# 1 74.7357 -12.7369 6.5725 6.5200 10.4270 -1.5488
# 2 -12.7369 100.0441 19.0698 4.2581 -4.0143 -7.7478
# 3 6.5725 19.0698 76.9304 2.7570 12.1570 -3.5377
# 4 6.5200 4.2581 2.7570 40.1267 -13.8422 2.3167
# 5 10.4270 -4.0143 12.1570 -13.8422 46.6284 -3.5580
# 6 -1.5488 -7.7478 -3.5377 2.3167 -3.5580 36.9026
#
#
#
# Elastic Compliance Matrix: (Units=1/GPa)
#
#
# Indices 1 2 3 4 5 6 
#
# 1 0.014750 0.002140 -0.000981 -0.003976 -0.003975 0.000841
# 2 0.002140 0.011102 -0.002965 -0.001073 0.001108 0.002311
# 3 -0.000981 -0.002965 0.014613 -0.002084 -0.004431 0.000441
# 4 -0.003976 -0.001073 -0.002084 0.029337 0.009936 -0.001476
# 5 -0.003975 0.001108 -0.004431 0.009936 0.026656 0.001587
# 6 0.000841 0.002311 0.000441 -0.001476 0.001587 0.027907
#
#
# Mechanical properties :
#
#
# Convention : Reuss Voigt Hill
#
# Bulk Modulus (GPa) = 27.13587 30.83567 28.98577
# Shear Modulus (GPa) = 35.64730 40.65186 38.14958
#
# Velocity S-wave (km/s) = 3.84954 4.11089 3.98236
# Velocity P-wave (km/s) = 5.57129 5.94569 5.76154
#
# Compressibility (1/GPa) = 0.03685160
#
# Stress axis : x y z
#
# Youngs Moduli (GPa) = 67.79535 90.07115 68.43342
#
# Poissons Ratio (x) = -0.19273 0.06716
# Poissons Ratio (y) = -0.14507 0.20293
# Poissons Ratio (z) = 0.06653 0.26709
#
# Static dielectric constant tensor:
#      x y z
#    x 4.514410 0.064640 0.042510 
#    y 0.064640 4.298860 -0.012750 
#    z 0.042510 -0.012750 4.367800 
# 
# 
# High freq. dielectric constant tensor:
#      x y z
#    x 1.972730 0.004410 0.005910 
#    y 0.004410 1.960950 -0.001750 
#    z 0.005910 -0.001750 1.956240 
# 
# From -- ./inp_files/206801.got.cif
#   From: 2010.06.25/outbox.cif.g09.slc.cpg/sg2_104_cif.got.tgz:206801.got - 2010.06.27 13:26:56.
