data_PCOD8034342
_publ_section_title
;
Structure prediction by ZEFSAII (Michael W. Deem and Ramdas Pophale) SiO2 
 PCOD8034342
Probable space group: P -1
;
_chemical_formula_sum "Si O2"
_cell_formula_units_Z 16
_cell_length_a 18.223080
_cell_length_b 12.337221
_cell_length_c 15.001963
_cell_angle_alpha 151.667493
_cell_angle_beta 30.600235
_cell_angle_gamma 130.166899
_cell_volume 720.875380
_symmetry_space_group_name_H-M "P -1"
_symmetry_group_IT_number 2
_symmetry_cell_setting 'triclinic'
loop_
_space_group_symop_operation_xyz
x,y,z
-x,-y,-z
loop_
_atom_site_type_symbol
_atom_site_label
_atom_site_fract_x
_atom_site_fract_y
_atom_site_fract_z
Si Si1 0.152121 0.548090 0.376396
Si Si2 0.819052 0.497282 0.329390
Si Si3 0.849121 0.972349 0.601152
Si Si4 0.706733 0.428491 0.577159
Si Si5 0.558567 0.012190 0.705381
Si Si6 0.875770 0.013091 0.401628
Si Si7 0.504480 0.272177 0.275052
Si Si8 0.591158 0.025823 0.338875
O O1 0.174984 0.678518 0.537960
O O2 0.000000 0.500000 0.500000
O O3 0.140370 0.726390 0.435083
O O4 0.294331 0.265300 0.015192
O O5 0.900585 0.669629 0.334043
O O6 0.805505 0.503130 0.454908
O O7 0.635131 0.609247 0.567188
O O8 0.937752 0.208360 0.962339
O O9 0.820800 0.078607 0.608175
O O10 0.000000 0.000000 0.500000
O O11 0.681833 0.123568 0.939050
O O12 0.674206 0.204735 0.405570
O O13 0.540842 0.675491 0.960569
O O14 0.514639 0.874218 0.569314
O O15 0.748145 0.931506 0.431376
O O16 0.530427 0.914716 0.759455
O O17 0.500000 0.500000 0.500000
O O18 0.500000 0.000000 0.500000
#
# Coordination Sequence:
#
# PCOD8034342 Si02
#       8
#     2   2   2   2   2   2   2   2
#     4  11  27  46  70 102 143 186 238 300 356 419
#     4  12  25  46  72 101 145 189 233 288 360 426
#     4  12  27  45  71 106 144 183 238 300 354 424
#     4  11  24  47  72 101 139 189 241 291 358 428
#     4  11  24  45  71 102 145 184 236 301 352 426
#     4  12  26  45  70 104 144 185 236 298 354 422
#     4  12  25  45  72 103 140 194 236 284 363 427
#     4  11  24  44  72 104 136 183 241 294 360 421
#
# _framework density 22.195236000000001
#
# number of rings (size 3 to 8) (size 9 to 14) (size 15 to 20)
#    0.000    0.500    2.500    5.250    3.500    7.000 
#    0.000    0.000    0.000    0.000    0.000    0.000 
#    0.000    0.000    0.000    0.000    0.000    0.000 
#
# Total GULP energy -198395.107999 kJ/mol
# GULP energy per Si atom -12399.694250 kJ/mol
# Density = 2.214472 g / cm^3
# Si number density = 22.195236 Si / 1000 Ang^3
#
#
#
# Elastic Constant Matrix: (Units=GPa)
#
#
# Indices 1 2 3 4 5 6 
#
# 1 138.7131 74.0001 38.4972 0.0041 4.3815 2.9564
# 2 74.0001 138.5095 20.4194 -4.4284 -7.6070 -0.5891
# 3 38.4972 20.4194 74.5677 -10.9331 -6.5197 6.3380
# 4 0.0041 -4.4284 -10.9331 43.0416 4.2379 4.0898
# 5 4.3815 -7.6070 -6.5197 4.2379 34.6410 -2.9135
# 6 2.9564 -0.5891 6.3380 4.0898 -2.9135 49.1216
#
#
#
# Elastic Compliance Matrix: (Units=1/GPa)
#
#
# Indices 1 2 3 4 5 6 
#
# 1 0.011826 -0.005822 -0.005024 -0.001506 -0.003554 -0.000219
# 2 -0.005822 0.010456 0.000491 0.000849 0.003065 0.000524
# 3 -0.005024 0.000491 0.016947 0.004230 0.003244 -0.002038
# 4 -0.001506 0.000849 0.004230 0.024852 -0.002089 -0.002638
# 5 -0.003554 0.003065 0.003244 -0.002089 0.031011 0.001845
# 6 -0.000219 0.000524 -0.002038 -0.002638 0.001845 0.020969
#
#
# Mechanical properties :
#
#
# Convention : Reuss Voigt Hill
#
# Bulk Modulus (GPa) = 54.00170 68.62486 61.31328
# Shear Modulus (GPa) = 34.97847 39.95242 37.46544
#
# Velocity S-wave (km/s) = 3.97412 4.24730 4.11298
# Velocity P-wave (km/s) = 6.74102 7.41880 7.08801
#
# Compressibility (1/GPa) = 0.01851793
#
# Stress axis : x y z
#
# Youngs Moduli (GPa) = 84.55715 95.64334 59.00667
#
# Poissons Ratio (x) = 0.55683 0.29646
# Poissons Ratio (y) = 0.49228 -0.02895
# Poissons Ratio (z) = 0.42484 -0.04692
#
# Static dielectric constant tensor:
#      x y z
#    x 4.089520 -0.035960 0.088140 
#    y -0.035960 4.259970 -0.000080 
#    z 0.088140 -0.000080 3.841890 
# 
# 
# High freq. dielectric constant tensor:
#      x y z
#    x 1.888120 -0.006010 -0.000940 
#    y -0.006010 1.889050 -0.001650 
#    z -0.000940 -0.001650 1.876310 
# 
# From -- ./inp_files/246005.got.cif
#   From: 2010.06.25/outbox.cif.g09.slc.cpg/sg2_124_cif.got.tgz:246005.got - 2010.06.27 13:26:56.
