data_PCOD8034267
_publ_section_title
;
Structure prediction by ZEFSAII (Michael W. Deem and Ramdas Pophale) SiO2 
 PCOD8034267
Probable space group: P -1
;
_chemical_formula_sum "Si O2"
_cell_formula_units_Z 16
_cell_length_a 13.228549
_cell_length_b 13.857199
_cell_length_c 10.093103
_cell_angle_alpha 116.369446
_cell_angle_beta 135.522543
_cell_angle_gamma 31.333603
_cell_volume 600.719661
_symmetry_space_group_name_H-M "P -1"
_symmetry_group_IT_number 2
_symmetry_cell_setting 'triclinic'
loop_
_space_group_symop_operation_xyz
x,y,z
-x,-y,-z
loop_
_atom_site_type_symbol
_atom_site_label
_atom_site_fract_x
_atom_site_fract_y
_atom_site_fract_z
Si Si1 0.147888 0.226711 0.376305
Si Si2 0.628279 0.336820 0.332291
Si Si3 0.015849 0.041833 0.740929
Si Si4 0.605246 0.023041 0.856755
Si Si5 0.072668 0.575086 0.984616
Si Si6 0.762765 0.470309 0.420473
Si Si7 0.784239 0.064335 0.762878
Si Si8 0.247220 0.242289 0.888735
O O1 0.453691 0.077050 0.614252
O O2 0.034535 0.367018 0.231959
O O3 0.927352 0.372094 0.377637
O O4 0.164370 0.093442 0.262092
O O5 0.619559 0.446229 0.295536
O O6 0.807433 0.243727 0.576123
O O7 0.751014 0.158736 0.256867
O O8 0.314517 0.508625 0.184973
O O9 0.830655 0.067683 0.653916
O O10 0.177129 0.016537 0.983128
O O11 0.362897 0.219502 0.845518
O O12 0.805720 0.791881 0.954784
O O13 0.183029 0.385012 0.013788
O O14 0.528602 0.711523 0.344675
O O15 0.962546 0.360849 0.666996
O O16 0.000000 0.000000 0.000000
O O17 0.500000 0.000000 0.000000
#
# Coordination Sequence:
#
# PCOD8034267 Si02
#       8
#     2   2   2   2   2   2   2   2
#     4  11  26  45  69 104 145 179 234 287 349 421
#     4  11  24  44  71  99 141 186 233 287 347 411
#     4  11  24  44  70 101 142 184 233 290 344 410
#     4  11  24  45  71 101 138 184 231 289 346 415
#     4  12  26  44  73 102 136 187 232 286 353 420
#     4  11  25  44  70 102 139 188 226 287 352 410
#     4  12  26  44  73 105 143 184 233 292 350 417
#     4  11  26  45  68 100 139 178 231 287 351 416
#
# _framework density 26.634720999999999
#
# number of rings (size 3 to 8) (size 9 to 14) (size 15 to 20)
#    0.000    0.750    2.500    4.125    3.500    8.500 
#    0.000    0.000    0.000    0.000    0.000    0.000 
#    0.000    0.000    0.000    0.000    0.000    0.000 
#
# Total GULP energy -198374.812199 kJ/mol
# GULP energy per Si atom -12398.425762 kJ/mol
# Density = 2.657410 g / cm^3
# Si number density = 26.634721 Si / 1000 Ang^3
#
#
#
# Elastic Constant Matrix: (Units=GPa)
#
#
# Indices 1 2 3 4 5 6 
#
# 1 48.3751 32.9991 4.0902 -2.4001 12.7543 -0.1879
# 2 32.9991 141.6242 51.6825 -17.9645 16.9341 -12.2714
# 3 4.0902 51.6825 144.9052 -3.4672 19.8652 -10.7180
# 4 -2.4001 -17.9645 -3.4672 44.0075 0.9651 3.9247
# 5 12.7543 16.9341 19.8652 0.9651 32.2170 -4.1826
# 6 -0.1879 -12.2714 -10.7180 3.9247 -4.1826 42.9714
#
#
#
# Elastic Compliance Matrix: (Units=1/GPa)
#
#
# Indices 1 2 3 4 5 6 
#
# 1 0.027251 -0.006444 0.002644 -0.000562 -0.009263 -0.001912
# 2 -0.006444 0.010431 -0.003211 0.003516 -0.000830 0.001748
# 3 0.002644 -0.003211 0.008650 -0.000461 -0.004568 0.000849
# 4 -0.000562 0.003516 -0.000461 0.024280 -0.002270 -0.001552
# 5 -0.009263 -0.000830 -0.004568 -0.002270 0.038355 0.002524
# 6 -0.001912 0.001748 0.000849 -0.001552 0.002524 0.024361
#
#
# Mechanical properties :
#
#
# Convention : Reuss Voigt Hill
#
# Bulk Modulus (GPa) = 30.95068 56.93869 43.94469
# Shear Modulus (GPa) = 31.62156 40.24802 35.93479
#
# Velocity S-wave (km/s) = 3.44936 3.89152 3.67709
# Velocity P-wave (km/s) = 5.24497 6.45104 5.87902
#
# Compressibility (1/GPa) = 0.03230947
#
# Stress axis : x y z
#
# Youngs Moduli (GPa) = 36.69623 95.86860 115.60892
#
# Poissons Ratio (x) = 0.61776 -0.30568
# Poissons Ratio (y) = 0.23647 0.37125
# Poissons Ratio (z) = -0.09703 0.30786
#
# Static dielectric constant tensor:
#      x y z
#    x 5.441610 -0.575210 -0.016790 
#    y -0.575210 5.334610 -0.054710 
#    z -0.016790 -0.054710 4.823040 
# 
# 
# High freq. dielectric constant tensor:
#      x y z
#    x 2.089270 -0.013020 0.005040 
#    y -0.013020 2.090050 -0.004790 
#    z 0.005040 -0.004790 2.068690 
# 
# From -- ./inp_files/455838.got.cif
#   From: 2010.06.25/outbox.cif.g09.slc.cpg/sg2_228_cif.got.tgz:455838.got - 2010.06.27 13:26:56.
