data_PCOD8034222
_publ_section_title
;
Structure prediction by ZEFSAII (Michael W. Deem and Ramdas Pophale) SiO2 
 PCOD8034222
Probable space group: P -1
;
_chemical_formula_sum "Si O2"
_cell_formula_units_Z 12
_cell_length_a 11.387129
_cell_length_b 10.841705
_cell_length_c 11.884224
_cell_angle_alpha 93.365730
_cell_angle_beta 98.520221
_cell_angle_gamma 154.428514
_cell_volume 559.108554
_symmetry_space_group_name_H-M "P -1"
_symmetry_group_IT_number 2
_symmetry_cell_setting 'triclinic'
loop_
_space_group_symop_operation_xyz
x,y,z
-x,-y,-z
loop_
_atom_site_type_symbol
_atom_site_label
_atom_site_fract_x
_atom_site_fract_y
_atom_site_fract_z
Si Si1 0.147194 0.637577 0.909365
Si Si2 0.241738 0.967142 0.232932
Si Si3 0.069722 0.340665 0.256432
Si Si4 0.291355 0.700099 0.510470
Si Si5 0.488473 0.625192 0.142062
Si Si6 0.362240 0.512027 0.860486
O O1 0.035315 0.399222 0.834406
O O2 0.040326 0.635422 0.805618
O O3 0.000000 0.500000 0.000000
O O4 0.500000 0.000000 0.000000
O O5 0.005818 0.843324 0.245385
O O6 0.524720 0.190113 0.357718
O O7 0.407247 0.170764 0.152698
O O8 0.231169 0.530148 0.406880
O O9 0.264321 0.457972 0.196983
O O10 0.806865 0.994641 0.235291
O O11 0.000000 0.500000 0.500000
O O12 0.500000 0.000000 0.500000
O O13 0.504183 0.493532 0.148735
O O14 0.376701 0.556684 0.998232
#
# Coordination Sequence:
#
# PCOD8034222 Si02
#       6
#     2   2   2   2   2   2
#     4  12  24  37  64  99 133 162 212 283 337 392
#     4  12  24  43  68  99 133 178 228 270 335 403
#     4  12  24  43  66  97 134 175 228 269 337 395
#     4  12  26  46  67  95 138 186 220 272 335 400
#     4  11  24  44  68  99 135 178 219 278 337 397
#     4  11  24  44  70  98 136 177 223 275 341 395
#
# _framework density 21.462738999999999
#
# number of rings (size 3 to 8) (size 9 to 14) (size 15 to 20)
#    0.000    0.333    1.667    9.000    2.333    2.667 
#    0.000    5.000    0.000    0.000    0.000    0.000 
#    0.000    0.000    0.000    0.000    0.000    0.000 
#
# Total GULP energy -148677.552683 kJ/mol
# GULP energy per Si atom -12389.796057 kJ/mol
# Density = 2.141389 g / cm^3
# Si number density = 21.462739 Si / 1000 Ang^3
#
#
#
# Elastic Constant Matrix: (Units=GPa)
#
#
# Indices 1 2 3 4 5 6 
#
# 1 110.9526 66.8021 74.2899 0.1116 -0.0143 14.4797
# 2 66.8021 203.3411 77.7725 11.1602 -13.4205 16.2673
# 3 74.2899 77.7725 136.9973 9.4131 -5.0867 -0.8233
# 4 0.1116 11.1602 9.4131 33.5830 4.0088 -0.7865
# 5 -0.0143 -13.4205 -5.0867 4.0088 45.5093 3.6557
# 6 14.4797 16.2673 -0.8233 -0.7865 3.6557 42.8684
#
#
#
# Elastic Compliance Matrix: (Units=1/GPa)
#
#
# Indices 1 2 3 4 5 6 
#
# 1 0.016154 -0.002217 -0.007783 0.002925 -0.001407 -0.004591
# 2 -0.002217 0.007067 -0.002612 -0.001916 0.002137 -0.002201
# 3 -0.007783 -0.002612 0.013242 -0.002807 0.000652 0.003767
# 4 0.002925 -0.001916 -0.002807 0.031648 -0.003712 0.000582
# 5 -0.001407 0.002137 0.000652 -0.003712 0.023193 -0.002369
# 6 -0.004591 -0.002201 0.003767 0.000582 -0.002369 0.025998
#
#
# Mechanical properties :
#
#
# Convention : Reuss Voigt Hill
#
# Bulk Modulus (GPa) = 88.95827 98.78000 93.86913
# Shear Modulus (GPa) = 34.18252 39.88724 37.03488
#
# Velocity S-wave (km/s) = 3.99513 4.31564 4.15847
# Velocity P-wave (km/s) = 7.92585 8.42359 8.17851
#
# Compressibility (1/GPa) = 0.01124123
#
# Stress axis : x y z
#
# Youngs Moduli (GPa) = 61.90283 141.49354 75.51459
#
# Poissons Ratio (x) = 0.31363 0.58770
# Poissons Ratio (y) = 0.13721 0.19728
# Poissons Ratio (z) = 0.48176 0.36964
#
# Static dielectric constant tensor:
#      x y z
#    x 4.097030 -0.039920 0.057480 
#    y -0.039920 3.965290 0.052410 
#    z 0.057480 0.052410 3.959220 
# 
# 
# High freq. dielectric constant tensor:
#      x y z
#    x 1.858120 0.002040 0.005840 
#    y 0.002040 1.871530 0.004420 
#    z 0.005840 0.004420 1.831600 
# 
# From -- ./inp_files/422581.got.cif
#   From: 2010.06.25/outbox.cif.g09.slc.cpg/sg2_212_cif.got.tgz:422581.got - 2010.06.27 13:26:56.
