data_PCOD8034454
_publ_section_title
;
Structure prediction by ZEFSAII (Michael W. Deem and Ramdas Pophale) SiO2 
 PCOD8034454
Probable space group: P -1
;
_chemical_formula_sum "Si O2"
_cell_formula_units_Z 14
_cell_length_a 5.294912
_cell_length_b 13.642659
_cell_length_c 7.967911
_cell_angle_alpha 99.262396
_cell_angle_beta 68.787272
_cell_angle_gamma 86.150265
_cell_volume 524.640352
_symmetry_space_group_name_H-M "P -1"
_symmetry_group_IT_number 2
_symmetry_cell_setting 'triclinic'
loop_
_space_group_symop_operation_xyz
x,y,z
-x,-y,-z
loop_
_atom_site_type_symbol
_atom_site_label
_atom_site_fract_x
_atom_site_fract_y
_atom_site_fract_z
Si Si1 0.929330 0.608660 0.469589
Si Si2 0.100256 0.877589 0.258527
Si Si3 0.277441 0.078489 0.329614
Si Si4 0.715697 0.500199 0.148735
Si Si5 0.694365 0.343034 0.348925
Si Si6 0.312015 0.652748 0.143896
Si Si7 0.125708 0.862477 0.868548
O O1 0.124675 0.681167 0.533777
O O2 0.019667 0.615305 0.254094
O O3 0.000000 0.500000 0.500000
O O4 0.624045 0.663570 0.563497
O O5 0.297677 0.771619 0.170788
O O6 0.849057 0.873578 0.449296
O O7 0.283983 0.958154 0.307784
O O8 0.012092 0.904709 0.090804
O O9 0.587133 0.100163 0.241401
O O10 0.096157 0.110978 0.217242
O O11 0.739267 0.458318 0.321165
O O12 0.527797 0.607394 0.223929
O O13 0.574807 0.409335 0.066694
O O14 0.000000 0.500000 0.000000
O O15 0.818889 0.258781 0.161207
#
# Coordination Sequence:
#
# PCOD8034454 Si02
#       7
#     2   2   2   2   2   2   2
#     4  12  25  44  70 100 144 192 240 302 364 427
#     4  11  25  49  77 110 150 202 249 316 384 445
#     4  11  28  50  76 114 152 192 262 315 373 462
#     4  11  25  42  65 100 143 182 234 293 348 449
#     4  12  25  44  69 101 140 187 245 293 359 448
#     4  11  24  45  66 101 142 188 239 292 369 437
#     4  12  25  50  76 109 152 201 248 315 384 441
#
# _framework density 26.684947000000001
#
# number of rings (size 3 to 8) (size 9 to 14) (size 15 to 20)
#    0.000    0.571    2.857    4.714    4.000    4.571 
#    5.143    0.000    0.000    0.000    0.000    0.000 
#    0.000    0.000    0.000    0.000    0.000    0.000 
#
# Total GULP energy -173453.855996 kJ/mol
# GULP energy per Si atom -12389.561143 kJ/mol
# Density = 2.662421 g / cm^3
# Si number density = 26.684947 Si / 1000 Ang^3
#
#
#
# Elastic Constant Matrix: (Units=GPa)
#
#
# Indices 1 2 3 4 5 6 
#
# 1 135.7209 4.2249 41.9303 -2.7262 -5.5838 -13.9319
# 2 4.2249 99.5964 15.5552 10.3096 -0.7182 -9.1709
# 3 41.9303 15.5552 158.6965 4.3295 10.4183 -8.7279
# 4 -2.7262 10.3096 4.3295 49.3332 7.0339 -4.1825
# 5 -5.5838 -0.7182 10.4183 7.0339 37.9448 1.3888
# 6 -13.9319 -9.1709 -8.7279 -4.1825 1.3888 14.5169
#
#
#
# Elastic Compliance Matrix: (Units=1/GPa)
#
#
# Indices 1 2 3 4 5 6 
#
# 1 0.008874 0.000572 -0.002094 0.001011 0.001420 0.007774
# 2 0.000572 0.010921 -0.000864 -0.001722 0.000614 0.006373
# 3 -0.002094 -0.000864 0.007205 -0.000062 -0.002364 0.001985
# 4 0.001011 -0.001722 -0.000062 0.021838 -0.004154 0.006535
# 5 0.001420 0.000614 -0.002364 -0.004154 0.028124 -0.003558
# 6 0.007774 0.006373 0.001985 0.006535 -0.003558 0.083789
#
#
# Mechanical properties :
#
#
# Convention : Reuss Voigt Hill
#
# Bulk Modulus (GPa) = 44.98936 57.49274 51.24105
# Shear Modulus (GPa) = 28.91296 42.51255 35.71276
#
# Velocity S-wave (km/s) = 3.29522 3.99573 3.66226
# Velocity P-wave (km/s) = 5.60125 6.54825 6.09318
#
# Compressibility (1/GPa) = 0.02222748
#
# Stress axis : x y z
#
# Youngs Moduli (GPa) = 112.68972 91.56835 138.78580
#
# Poissons Ratio (x) = -0.05238 0.29061
# Poissons Ratio (y) = -0.06446 0.11997
# Poissons Ratio (z) = 0.23596 0.07915
#
# Static dielectric constant tensor:
#      x y z
#    x 5.366230 0.542960 1.615980 
#    y 0.542960 5.384520 1.251630 
#    z 1.615980 1.251630 7.934470 
# 
# 
# High freq. dielectric constant tensor:
#      x y z
#    x 2.069530 0.001850 0.020360 
#    y 0.001850 2.078420 0.009800 
#    z 0.020360 0.009800 2.097340 
# 
# From -- ./inp_files/134326.got.cif
#   From: 2010.06.25/outbox.cif.g09.slc.cpg/sg2_68_cif.got.tgz:134326.got - 2010.06.27 13:26:56.
