data_PCOD8034202
_publ_section_title
;
Structure prediction by ZEFSAII (Michael W. Deem and Ramdas Pophale) SiO2 
 PCOD8034202
Probable space group: P -1
;
_chemical_formula_sum "Si O2"
_cell_formula_units_Z 16
_cell_length_a 8.249092
_cell_length_b 7.407295
_cell_length_c 15.695935
_cell_angle_alpha 122.334447
_cell_angle_beta 76.922636
_cell_angle_gamma 123.290983
_cell_volume 674.293041
_symmetry_space_group_name_H-M "P -1"
_symmetry_group_IT_number 2
_symmetry_cell_setting 'triclinic'
loop_
_space_group_symop_operation_xyz
x,y,z
-x,-y,-z
loop_
_atom_site_type_symbol
_atom_site_label
_atom_site_fract_x
_atom_site_fract_y
_atom_site_fract_z
Si Si1 0.761432 0.498823 0.767479
Si Si2 0.359558 0.664919 0.604215
Si Si3 0.747443 0.273791 0.888867
Si Si4 0.738848 0.040821 0.568936
Si Si5 0.812918 0.579907 0.121389
Si Si6 0.507815 0.315006 0.228042
Si Si7 0.967068 0.835337 0.569322
Si Si8 0.124142 0.898334 0.746889
O O1 0.707047 0.395251 0.843042
O O2 0.623407 0.597265 0.779723
O O3 0.987245 0.726621 0.796873
O O4 0.734250 0.285933 0.651909
O O5 0.525634 0.795684 0.545216
O O6 0.445360 0.588939 0.655112
O O7 0.174829 0.428929 0.525118
O O8 0.301016 0.856611 0.696611
O O9 0.960540 0.315937 0.870167
O O10 0.593305 0.981733 0.836341
O O11 0.717072 0.397202 0.006834
O O12 0.894215 0.027454 0.609381
O O13 0.814427 0.054519 0.466819
O O14 0.710109 0.432900 0.182757
O O15 0.780995 0.811447 0.169853
O O16 0.976055 0.811026 0.662323
#
# Coordination Sequence:
#
# PCOD8034202 Si02
#       8
#     2   2   2   2   2   2   2   2
#     4  12  24  47  76 100 150 185 228 302 346 418
#     4  12  25  45  70 104 140 190 234 290 356 415
#     4  11  25  51  73 108 143 183 237 293 358 419
#     4  11  24  44  68 101 140 187 231 295 344 416
#     4  11  26  47  77 104 143 190 231 294 359 419
#     4  12  26  47  74 107 145 183 239 293 353 420
#     4  11  26  46  68 101 146 186 238 290 348 420
#     4  12  25  47  71 105 146 188 239 291 351 421
#
# _framework density 23.728556000000001
#
# number of rings (size 3 to 8) (size 9 to 14) (size 15 to 20)
#    0.000    0.500    3.750    4.125    3.500    1.500 
#    2.250    0.000    0.000    0.000    0.000    0.000 
#    0.000    0.000    0.000    0.000    0.000    0.000 
#
# Total GULP energy -198507.211304 kJ/mol
# GULP energy per Si atom -12406.700707 kJ/mol
# Density = 2.367455 g / cm^3
# Si number density = 23.728556 Si / 1000 Ang^3
#
#
#
# Elastic Constant Matrix: (Units=GPa)
#
#
# Indices 1 2 3 4 5 6 
#
# 1 60.2322 17.9247 21.1523 -1.6703 -8.9920 -6.4819
# 2 17.9247 162.8901 37.4714 1.7853 -14.1808 6.3470
# 3 21.1523 37.4714 84.1695 13.7397 -14.8719 -5.5005
# 4 -1.6703 1.7853 13.7397 12.8990 5.0844 -7.6140
# 5 -8.9920 -14.1808 -14.8719 5.0844 22.3476 -5.1900
# 6 -6.4819 6.3470 -5.5005 -7.6140 -5.1900 41.9315
#
#
#
# Elastic Compliance Matrix: (Units=1/GPa)
#
#
# Indices 1 2 3 4 5 6 
#
# 1 0.020014 -0.001013 -0.005550 0.010473 0.002431 0.004722
# 2 -0.001013 0.007084 -0.002666 0.000184 0.001969 -0.001301
# 3 -0.005550 -0.002666 0.023059 -0.032912 0.018654 -0.001097
# 4 0.010473 0.000184 -0.032912 0.142294 -0.045897 0.017431
# 5 0.002431 0.001969 0.018654 -0.045897 0.070509 0.002918
# 6 0.004722 -0.001301 -0.001097 0.017431 0.002918 0.028158
#
#
# Mechanical properties :
#
#
# Convention : Reuss Voigt Hill
#
# Bulk Modulus (GPa) = 31.54707 51.15428 41.35068
# Shear Modulus (GPa) = 15.61800 30.81850 23.21825
#
# Velocity S-wave (km/s) = 2.56831 3.60779 3.13148
# Velocity P-wave (km/s) = 4.70307 6.24177 5.52624
#
# Compressibility (1/GPa) = 0.03169866
#
# Stress axis : x y z
#
# Youngs Moduli (GPa) = 49.96405 141.16188 43.36621
#
# Poissons Ratio (x) = 0.14296 0.24070
# Poissons Ratio (y) = 0.05060 0.11563
# Poissons Ratio (z) = 0.27732 0.37640
#
# Static dielectric constant tensor:
#      x y z
#    x 4.290030 -0.043970 -0.190100 
#    y -0.043970 4.601720 -0.143750 
#    z -0.190100 -0.143750 4.193460 
# 
# 
# High freq. dielectric constant tensor:
#      x y z
#    x 1.946910 0.001360 -0.013100 
#    y 0.001360 1.962950 -0.000980 
#    z -0.013100 -0.000980 1.928610 
# 
# From -- ./inp_files/556541.got.cif
#   From: 2010.06.25/outbox.cif.g09.slc.cpg/sg2_279_cif.got.tgz:556541.got - 2010.06.27 13:26:56.
