data_PCOD8034507
_publ_section_title
;
Structure prediction by ZEFSAII (Michael W. Deem and Ramdas Pophale) SiO2 
 PCOD8034507
Probable space group: P -1
;
_chemical_formula_sum "Si O2"
_cell_formula_units_Z 14
_cell_length_a 6.766375
_cell_length_b 19.440272
_cell_length_c 20.161322
_cell_angle_alpha 21.018574
_cell_angle_beta 51.988276
_cell_angle_gamma 62.035624
_cell_volume 694.796866
_symmetry_space_group_name_H-M "P -1"
_symmetry_group_IT_number 2
_symmetry_cell_setting 'triclinic'
loop_
_space_group_symop_operation_xyz
x,y,z
-x,-y,-z
loop_
_atom_site_type_symbol
_atom_site_label
_atom_site_fract_x
_atom_site_fract_y
_atom_site_fract_z
Si Si1 0.068139 0.101861 0.715543
Si Si2 0.039404 0.135688 0.536606
Si Si3 0.673818 0.382758 0.364289
Si Si4 0.756459 0.654081 0.230626
Si Si5 0.400784 0.594403 0.875000
Si Si6 0.174177 0.600446 0.437369
Si Si7 0.103408 0.311883 0.074244
O O1 0.993618 0.108409 0.648714
O O2 0.904775 0.211131 0.692602
O O3 0.385499 0.205526 0.569905
O O4 0.982042 0.865104 0.968623
O O5 0.902511 0.286362 0.400118
O O6 0.357224 0.230109 0.370696
O O7 0.900380 0.917355 0.725443
O O8 0.670380 0.479859 0.349019
O O9 0.734504 0.556601 0.139604
O O10 0.492276 0.695027 0.270940
O O11 0.888898 0.575191 0.335029
O O12 0.201956 0.699336 0.849547
O O13 0.500000 0.500000 0.000000
O O14 0.254115 0.404847 0.027053
O O15 0.000000 0.500000 0.500000
#
# Coordination Sequence:
#
# PCOD8034507 Si02
#       7
#     2   2   2   2   2   2   2
#     4  12  25  42  69  97 132 176 220 270 331 384
#     4  12  25  42  69  97 132 176 220 270 331 384
#     4  12  24  42  66 100 128 174 226 264 326 394
#     4  11  25  44  68  97 132 174 218 272 327 391
#     4  11  24  45  69  96 137 172 217 272 328 393
#     4  11  24  45  69  96 137 172 217 272 328 393
#     4  11  25  44  68  97 132 174 218 272 327 391
#
# _framework density 20.149774000000001
#
# number of rings (size 3 to 8) (size 9 to 14) (size 15 to 20)
#    0.000    0.571    7.143    0.857    0.000    5.714 
#    0.000    0.000    0.000    0.000    0.000    0.000 
#    0.000    0.000    0.000    0.000    0.000    0.000 
#
# Total GULP energy -173712.045665 kJ/mol
# GULP energy per Si atom -12408.003262 kJ/mol
# Density = 2.010391 g / cm^3
# Si number density = 20.149774 Si / 1000 Ang^3
#
#
#
# Elastic Constant Matrix: (Units=GPa)
#
#
# Indices 1 2 3 4 5 6 
#
# 1 91.7173 19.9029 12.0565 -4.4112 3.6626 4.9433
# 2 19.9029 79.8937 18.5249 -3.3011 -2.1993 9.1908
# 3 12.0565 18.5249 92.3179 -5.7739 -6.0501 -8.7028
# 4 -4.4112 -3.3011 -5.7739 32.8505 0.9298 -4.7051
# 5 3.6626 -2.1993 -6.0501 0.9298 31.9934 6.4971
# 6 4.9433 9.1908 -8.7028 -4.7051 6.4971 30.0286
#
#
#
# Elastic Compliance Matrix: (Units=1/GPa)
#
#
# Indices 1 2 3 4 5 6 
#
# 1 0.011774 -0.002551 -0.001158 0.001023 -0.001570 -0.000993
# 2 -0.002551 0.014491 -0.002970 -0.000219 0.001810 -0.005302
# 3 -0.001158 -0.002970 0.012254 0.002347 0.001212 0.004757
# 4 0.001023 -0.000219 0.002347 0.031875 -0.001827 0.005968
# 5 -0.001570 0.001810 0.001212 -0.001827 0.033355 -0.007447
# 6 -0.000993 -0.005302 0.004757 0.005968 -0.007447 0.039013
#
#
# Mechanical properties :
#
#
# Convention : Reuss Voigt Hill
#
# Bulk Modulus (GPa) = 39.74360 40.54416 40.14388
# Shear Modulus (GPa) = 30.39351 33.20414 31.79882
#
# Velocity S-wave (km/s) = 3.88800 4.06380 3.97687
# Velocity P-wave (km/s) = 6.31841 6.49495 6.40729
#
# Compressibility (1/GPa) = 0.02516128
#
# Stress axis : x y z
#
# Youngs Moduli (GPa) = 84.92976 69.00611 81.60681
#
# Poissons Ratio (x) = 0.17606 0.09452
# Poissons Ratio (y) = 0.21669 0.24234
# Poissons Ratio (z) = 0.09837 0.20492
#
# Static dielectric constant tensor:
#      x y z
#    x 3.708980 -0.011720 -0.027310 
#    y -0.011720 3.964550 0.112320 
#    z -0.027310 0.112320 3.673470 
# 
# 
# High freq. dielectric constant tensor:
#      x y z
#    x 1.795520 0.004470 0.000000 
#    y 0.004470 1.804090 0.005500 
#    z 0.000000 0.005500 1.792530 
# 
# From -- ./inp_files/6704.got.cif
#   From: 2010.06.25/outbox.cif.g09.slc.cpg/sg2_4_cif.got.tgz:6704.got - 2010.06.27 13:26:56.
