data_PCOD8034545
_publ_section_title
;
Structure prediction by ZEFSAII (Michael W. Deem and Ramdas Pophale) SiO2 
 PCOD8034545
Probable space group: P -1
;
_chemical_formula_sum "Si O2"
_cell_formula_units_Z 16
_cell_length_a 22.332016
_cell_length_b 28.046138
_cell_length_c 17.189415
_cell_angle_alpha 20.550949
_cell_angle_beta 157.859423
_cell_angle_gamma 168.998267
_cell_volume 717.174954
_symmetry_space_group_name_H-M "P -1"
_symmetry_group_IT_number 2
_symmetry_cell_setting 'triclinic'
loop_
_space_group_symop_operation_xyz
x,y,z
-x,-y,-z
loop_
_atom_site_type_symbol
_atom_site_label
_atom_site_fract_x
_atom_site_fract_y
_atom_site_fract_z
Si Si1 0.357010 0.800912 0.745804
Si Si2 0.640246 0.243171 0.775640
Si Si3 0.334180 0.056297 0.255101
Si Si4 0.368633 0.550187 0.418573
Si Si5 0.603875 0.539018 0.850393
Si Si6 0.641366 0.977446 0.382879
Si Si7 0.383177 0.516822 0.771359
Si Si8 0.663888 0.964318 0.022683
O O1 0.429313 0.790145 0.766213
O O2 0.999352 0.497843 0.793369
O O3 0.406280 0.002064 0.494813
O O4 0.571535 0.892328 0.930905
O O5 0.610970 0.310918 0.711786
O O6 0.418362 0.125570 0.618260
O O7 0.500000 0.000000 0.000000
O O8 0.378376 0.243560 0.050157
O O9 0.988541 0.766943 0.251220
O O10 0.529288 0.541456 0.669593
O O11 0.542849 0.734681 0.268601
O O12 0.010296 0.249709 0.427517
O O13 0.537059 0.600782 0.742549
O O14 0.962131 0.753228 0.952911
O O15 0.471564 0.724049 0.606428
O O16 0.489527 0.012575 0.160823
O O17 0.500000 0.500000 0.000000
#
# Coordination Sequence:
#
# PCOD8034545 Si02
#       8
#     2   2   2   2   2   2   2   2
#     4  11  24  45  70 110 142 183 247 304 354 423
#     4  12  22  43  74 104 145 186 241 299 354 426
#     4  11  25  45  71 100 148 189 238 301 360 432
#     4  12  25  47  71 108 147 194 241 299 364 439
#     4  12  27  47  70 104 153 190 236 305 376 423
#     4  12  24  44  76 104 139 191 247 290 359 427
#     4  12  26  45  70 103 143 195 241 292 369 441
#     4  12  26  44  73 110 143 190 246 301 359 430
#
# _framework density 22.309759
#
# number of rings (size 3 to 8) (size 9 to 14) (size 15 to 20)
#    0.000    0.250    5.000    4.125    3.500    0.500 
#    0.000    1.250    0.000    0.000    0.000    0.000 
#    0.000    0.000    0.000    0.000    0.000    0.000 
#
# Total GULP energy -198278.055801 kJ/mol
# GULP energy per Si atom -12392.378488 kJ/mol
# Density = 2.225898 g / cm^3
# Si number density = 22.309759 Si / 1000 Ang^3
#
#
#
# Elastic Constant Matrix: (Units=GPa)
#
#
# Indices 1 2 3 4 5 6 
#
# 1 185.9198 116.2688 77.4685 -24.0537 -98.6636 -40.0680
# 2 116.2688 227.2509 89.5361 -13.8971 -61.2681 -27.9741
# 3 77.4685 89.5361 157.6830 -17.7221 -54.4435 -18.6720
# 4 -24.0537 -13.8971 -17.7221 49.8694 3.9893 3.3531
# 5 -98.6636 -61.2681 -54.4435 3.9893 96.9500 24.2459
# 6 -40.0680 -27.9741 -18.6720 3.3531 24.2459 49.2498
#
#
#
# Elastic Compliance Matrix: (Units=1/GPa)
#
#
# Indices 1 2 3 4 5 6 
#
# 1 0.016297 -0.003964 -0.000285 0.005355 0.012619 0.004322
# 2 -0.003964 0.007149 -0.002487 -0.000754 -0.000990 0.000431
# 3 -0.000285 -0.002487 0.009268 0.002196 0.003219 0.000135
# 4 0.005355 -0.000754 0.002196 0.022751 0.005094 0.000704
# 5 0.012619 -0.000990 0.003219 0.005094 0.024500 -0.001484
# 6 0.004322 0.000431 0.000135 0.000704 -0.001484 0.024800
#
#
# Mechanical properties :
#
#
# Convention : Reuss Voigt Hill
#
# Bulk Modulus (GPa) = 51.97180 126.37784 89.17482
# Shear Modulus (GPa) = 40.11179 58.38587 49.24883
#
# Velocity S-wave (km/s) = 4.24482 5.12127 4.70350
# Velocity P-wave (km/s) = 6.88264 9.57808 8.33998
#
# Compressibility (1/GPa) = 0.01924120
#
# Stress axis : x y z
#
# Youngs Moduli (GPa) = 61.35916 139.88788 107.89434
#
# Poissons Ratio (x) = 0.55456 0.03078
# Poissons Ratio (y) = 0.24325 0.26834
# Poissons Ratio (z) = 0.01750 0.34791
#
# Static dielectric constant tensor:
#      x y z
#    x 5.382280 -0.461320 0.514260 
#    y -0.461320 4.183950 -0.286100 
#    z 0.514260 -0.286100 4.893100 
# 
# 
# High freq. dielectric constant tensor:
#      x y z
#    x 1.870930 -0.008310 -0.012150 
#    y -0.008310 1.889960 -0.007460 
#    z -0.012150 -0.007460 1.904880 
# 
# From -- ./inp_files/579395.got.cif
#   From: 2010.06.25/outbox.cif.g09.slc.cpg/sg2_290_cif.got.tgz:579395.got - 2010.06.27 13:26:56.
