data_PCOD8034460
_publ_section_title
;
Structure prediction by ZEFSAII (Michael W. Deem and Ramdas Pophale) SiO2 
 PCOD8034460
Probable space group: P -1
;
_chemical_formula_sum "Si O2"
_cell_formula_units_Z 16
_cell_length_a 9.280881
_cell_length_b 15.230564
_cell_length_c 12.488306
_cell_angle_alpha 137.293424
_cell_angle_beta 71.271647
_cell_angle_gamma 75.593729
_cell_volume 743.966559
_symmetry_space_group_name_H-M "P -1"
_symmetry_group_IT_number 2
_symmetry_cell_setting 'triclinic'
loop_
_space_group_symop_operation_xyz
x,y,z
-x,-y,-z
loop_
_atom_site_type_symbol
_atom_site_label
_atom_site_fract_x
_atom_site_fract_y
_atom_site_fract_z
Si Si1 0.374888 0.699871 0.156375
Si Si2 0.237629 0.160968 0.501766
Si Si3 0.818987 0.503860 0.571654
Si Si4 0.395233 0.950898 0.049496
Si Si5 0.816867 0.558808 0.853233
Si Si6 0.062693 0.107890 0.091371
Si Si7 0.948553 0.898779 0.319853
Si Si8 0.733791 0.908588 0.177309
O O1 0.224921 0.750125 0.132830
O O2 0.192313 0.875583 0.443115
O O3 0.500000 0.500000 0.000000
O O4 0.566228 0.685768 0.074751
O O5 0.137151 0.125384 0.578302
O O6 0.030436 0.393959 0.734489
O O7 0.335276 0.027266 0.253290
O O8 0.460190 0.092590 0.438836
O O9 0.851421 0.450747 0.641982
O O10 0.855093 0.348165 0.355212
O O11 0.000000 0.500000 0.500000
O O12 0.564134 0.719416 0.801351
O O13 0.167910 0.051667 0.133594
O O14 0.500000 0.000000 0.000000
O O15 0.816406 0.709559 0.958651
O O16 0.237421 0.029810 0.883625
O O17 0.000000 0.000000 0.000000
O O18 0.898573 0.858619 0.185560
#
# Coordination Sequence:
#
# PCOD8034460 Si02
#       8
#     2   2   2   2   2   2   2   2
#     4  11  24  45  67 101 134 186 231 278 348 417
#     4  12  22  41  73 103 130 185 239 283 339 413
#     4  12  21  42  73 100 130 178 236 282 339 425
#     4  12  21  42  75 100 133 183 238 282 342 424
#     4  12  23  40  76  99 130 183 240 278 342 418
#     4  12  28  44  68 108 145 176 229 300 359 402
#     4  11  26  44  69  98 147 179 224 289 353 407
#     4  12  26  45  66 105 140 179 233 288 347 420
#
# _framework density 21.506343000000001
#
# number of rings (size 3 to 8) (size 9 to 14) (size 15 to 20)
#    0.000    0.250    8.750    0.375    0.000    6.000 
#    0.000    0.000    0.000    0.000    0.000    0.000 
#    0.000    0.000    0.000    0.000    0.000    0.000 
#
# Total GULP energy -198377.072439 kJ/mol
# GULP energy per Si atom -12398.567027 kJ/mol
# Density = 2.145739 g / cm^3
# Si number density = 21.506343 Si / 1000 Ang^3
#
#
#
# Elastic Constant Matrix: (Units=GPa)
#
#
# Indices 1 2 3 4 5 6 
#
# 1 119.3395 27.7848 36.9057 16.4976 7.1948 -2.6478
# 2 27.7848 83.8212 28.6034 17.7807 5.8390 -2.7066
# 3 36.9057 28.6034 88.1413 26.1892 -5.6883 -2.2920
# 4 16.4976 17.7807 26.1892 39.5396 -7.1017 2.3923
# 5 7.1948 5.8390 -5.6883 -7.1017 29.2576 5.7173
# 6 -2.6478 -2.7066 -2.2920 2.3923 5.7173 39.8431
#
#
#
# Elastic Compliance Matrix: (Units=1/GPa)
#
#
# Indices 1 2 3 4 5 6 
#
# 1 0.010317 -0.001534 -0.003415 -0.002061 -0.003595 0.001025
# 2 -0.001534 0.014905 -0.002951 -0.005063 -0.004737 0.001725
# 3 -0.003415 -0.002951 0.016148 -0.007505 0.002634 0.000574
# 4 -0.002061 -0.005063 -0.007505 0.035372 0.009504 -0.004400
# 5 -0.003595 -0.004737 0.002634 0.009504 0.040145 -0.006741
# 6 0.001025 0.001725 0.000574 -0.004400 -0.006741 0.026548
#
#
# Mechanical properties :
#
#
# Convention : Reuss Voigt Hill
#
# Bulk Modulus (GPa) = 39.10840 53.09889 46.10365
# Shear Modulus (GPa) = 29.80451 34.92861 32.36656
#
# Velocity S-wave (km/s) = 3.72674 4.03439 3.88361
# Velocity P-wave (km/s) = 6.06153 6.81508 6.44932
#
# Compressibility (1/GPa) = 0.02556996
#
# Stress axis : x y z
#
# Youngs Moduli (GPa) = 96.92667 67.08961 61.92678
#
# Poissons Ratio (x) = 0.10290 0.21150
# Poissons Ratio (y) = 0.14866 0.18276
# Poissons Ratio (z) = 0.33103 0.19800
#
# Static dielectric constant tensor:
#      x y z
#    x 3.579940 -0.026950 -0.233260 
#    y -0.026950 3.884390 0.180740 
#    z -0.233260 0.180740 4.155670 
# 
# 
# High freq. dielectric constant tensor:
#      x y z
#    x 1.833280 -0.000060 -0.007440 
#    y -0.000060 1.855310 0.012310 
#    z -0.007440 0.012310 1.847210 
# 
# From -- ./inp_files/399587.got.cif
#   From: 2010.06.25/outbox.cif.g09.slc.cpg/sg2_200_cif.got.tgz:399587.got - 2010.06.27 13:26:56.
