data_PCOD8034930
_publ_section_title
;
Structure prediction by ZEFSAII (Michael W. Deem and Ramdas Pophale) SiO2 
 PCOD8034930
Probable space group: P -1
;
_chemical_formula_sum "Si O2"
_cell_formula_units_Z 16
_cell_length_a 8.205508
_cell_length_b 13.296698
_cell_length_c 15.852694
_cell_angle_alpha 44.979862
_cell_angle_beta 99.782403
_cell_angle_gamma 62.633405
_cell_volume 667.598320
_symmetry_space_group_name_H-M "P -1"
_symmetry_group_IT_number 2
_symmetry_cell_setting 'triclinic'
loop_
_space_group_symop_operation_xyz
x,y,z
-x,-y,-z
loop_
_atom_site_type_symbol
_atom_site_label
_atom_site_fract_x
_atom_site_fract_y
_atom_site_fract_z
Si Si1 0.735871 0.878012 0.398584
Si Si2 0.104378 0.695156 0.030080
Si Si3 0.321185 0.358716 0.670210
Si Si4 0.576199 0.889967 0.934328
Si Si5 0.318890 0.526289 0.410324
Si Si6 0.274162 0.905385 0.576834
Si Si7 0.672446 0.069844 0.616981
Si Si8 0.730846 0.119912 0.984579
O O1 0.607345 0.831042 0.457178
O O2 0.057913 0.614051 0.548105
O O3 0.525232 0.085992 0.181810
O O4 0.756213 0.978942 0.412522
O O5 0.178523 0.794399 0.019514
O O6 0.901720 0.734800 0.047728
O O7 0.409084 0.398875 0.211900
O O8 0.938826 0.845364 0.838153
O O9 0.282233 0.412961 0.534535
O O10 0.350946 0.166428 0.792950
O O11 0.618353 0.222779 0.816982
O O12 0.546101 0.766078 0.060278
O O13 0.500000 0.500000 0.500000
O O14 0.527531 0.331220 0.465102
O O15 0.006920 0.814712 0.184442
O O16 0.222949 0.025222 0.413312
O O17 0.000000 0.000000 0.500000
#
# Coordination Sequence:
#
# PCOD8034930 Si02
#       8
#     2   2   2   2   2   2   2   2
#     4  11  24  49  74 104 150 192 243 299 362 436
#     4  11  27  50  71 111 145 189 254 298 355 447
#     4  12  24  45  74 114 149 185 243 296 369 447
#     4  11  24  46  76 110 148 190 236 305 371 431
#     4  12  24  42  74 110 155 188 234 305 367 435
#     4  12  30  50  74 103 144 195 250 305 358 436
#     4  11  26  48  75 106 144 196 242 301 368 428
#     4  12  26  41  76 112 149 196 230 298 377 433
#
# _framework density 23.96651
#
# number of rings (size 3 to 8) (size 9 to 14) (size 15 to 20)
#    0.000    0.500    5.000    2.625    8.750    3.500 
#    4.500    0.000    0.000    0.000    0.000    0.000 
#    0.000    0.000    0.000    0.000    0.000    0.000 
#
# Total GULP energy -198317.032550 kJ/mol
# GULP energy per Si atom -12394.814534 kJ/mol
# Density = 2.391196 g / cm^3
# Si number density = 23.966510 Si / 1000 Ang^3
#
#
#
# Elastic Constant Matrix: (Units=GPa)
#
#
# Indices 1 2 3 4 5 6 
#
# 1 106.2535 43.8158 30.4170 -6.3491 18.5098 3.3280
# 2 43.8158 145.2577 31.8508 4.4225 13.0814 9.2142
# 3 30.4170 31.8508 98.0792 -1.6172 26.9150 -1.8926
# 4 -6.3491 4.4225 -1.6172 38.3267 0.1188 9.2030
# 5 18.5098 13.0814 26.9150 0.1188 26.2711 6.5820
# 6 3.3280 9.2142 -1.8926 9.2030 6.5820 41.7582
#
#
#
# Elastic Compliance Matrix: (Units=1/GPa)
#
#
# Indices 1 2 3 4 5 6 
#
# 1 0.012121 -0.002947 -0.001134 0.002304 -0.005937 0.000061
# 2 -0.002947 0.008295 -0.001900 -0.001175 0.000265 -0.001464
# 3 -0.001134 -0.001900 0.015299 -0.000134 -0.014822 0.003569
# 4 0.002304 -0.001175 -0.000134 0.028091 0.000526 -0.006204
# 5 -0.005937 0.000265 -0.014822 0.000526 0.059752 -0.009791
# 6 0.000061 -0.001464 0.003569 -0.006204 -0.009791 0.027338
#
#
# Mechanical properties :
#
#
# Convention : Reuss Voigt Hill
#
# Bulk Modulus (GPa) = 42.09978 62.41751 52.25864
# Shear Modulus (GPa) = 29.27824 37.50501 33.39162
#
# Velocity S-wave (km/s) = 3.49898 3.96016 3.73669
# Velocity P-wave (km/s) = 5.82477 6.85644 6.36155
#
# Compressibility (1/GPa) = 0.02375309
#
# Stress axis : x y z
#
# Youngs Moduli (GPa) = 82.49956 120.55912 65.36512
#
# Poissons Ratio (x) = 0.35529 0.07410
# Poissons Ratio (y) = 0.24313 0.12420
# Poissons Ratio (z) = 0.09353 0.22907
#
# Static dielectric constant tensor:
#      x y z
#    x 5.075770 -0.266940 -0.375900 
#    y -0.266940 4.288890 0.391190 
#    z -0.375900 0.391190 4.944340 
# 
# 
# High freq. dielectric constant tensor:
#      x y z
#    x 1.963640 0.002100 0.013180 
#    y 0.002100 1.952030 0.017350 
#    z 0.013180 0.017350 1.960770 
# 
# From -- ./inp_files/500195.got.cif
#   From: 2010.06.25/outbox.cif.g09.slc.cpg/sg2_251_cif.got.tgz:500195.got - 2010.06.27 13:26:56.
