data_PCOD8034020
_publ_section_title
;
Structure prediction by ZEFSAII (Michael W. Deem and Ramdas Pophale) SiO2 
 PCOD8034020
Probable space group: P -1
;
_chemical_formula_sum "Si O2"
_cell_formula_units_Z 16
_cell_length_a 15.574968
_cell_length_b 9.262574
_cell_length_c 9.206511
_cell_angle_alpha 73.298297
_cell_angle_beta 43.904281
_cell_angle_gamma 101.232459
_cell_volume 702.396851
_symmetry_space_group_name_H-M "P -1"
_symmetry_group_IT_number 2
_symmetry_cell_setting 'triclinic'
loop_
_space_group_symop_operation_xyz
x,y,z
-x,-y,-z
loop_
_atom_site_type_symbol
_atom_site_label
_atom_site_fract_x
_atom_site_fract_y
_atom_site_fract_z
Si Si1 0.546693 0.885604 0.061605
Si Si2 0.885285 0.625240 0.512194
Si Si3 0.354357 0.290637 0.235757
Si Si4 0.004967 0.653058 0.861147
Si Si5 0.075405 0.896139 0.962142
Si Si6 0.836670 0.254629 0.661582
Si Si7 0.351049 0.566661 0.622150
Si Si8 0.626772 0.750453 0.439545
O O1 0.619403 0.816357 0.885476
O O2 0.688207 0.043893 0.945458
O O3 0.405265 0.716855 0.380795
O O4 0.500000 0.000000 0.000000
O O5 0.787598 0.704430 0.640761
O O6 0.791714 0.398072 0.702532
O O7 0.958342 0.694838 0.242641
O O8 0.023164 0.712835 0.431480
O O9 0.347896 0.220814 0.426043
O O10 0.500000 0.500000 0.000000
O O11 0.115032 0.723313 0.569879
O O12 0.823370 0.545620 0.073970
O O13 0.000000 0.500000 0.000000
O O14 0.093450 0.845156 0.792399
O O15 0.230251 0.031101 0.836147
O O16 0.000000 0.000000 0.000000
O O17 0.462502 0.684226 0.591872
O O18 0.356148 0.403161 0.600088
#
# Coordination Sequence:
#
# PCOD8034020 Si02
#       8
#     2   2   2   2   2   2   2   2
#     4  12  26  46  71 101 140 183 225 283 347 415
#     4  11  25  46  69 100 138 177 229 286 337 407
#     4  12  24  42  70  98 135 181 229 271 345 414
#     4  12  24  44  71 100 137 184 226 279 345 411
#     4  12  22  43  71  97 134 179 234 274 339 412
#     4  11  26  45  71 101 140 179 229 286 343 403
#     4  11  25  45  67 104 145 171 229 289 346 400
#     4  11  24  43  70 102 134 181 224 291 340 405
#
# _framework density 22.779145
#
# number of rings (size 3 to 8) (size 9 to 14) (size 15 to 20)
#    0.000    0.500    5.000    3.000    1.750    0.500 
#    0.000    1.250    0.000    0.000    0.000    0.000 
#    0.000    0.000    0.000    0.000    0.000    0.000 
#
# Total GULP energy -198223.070585 kJ/mol
# GULP energy per Si atom -12388.941912 kJ/mol
# Density = 2.272730 g / cm^3
# Si number density = 22.779145 Si / 1000 Ang^3
#
#
#
# Elastic Constant Matrix: (Units=GPa)
#
#
# Indices 1 2 3 4 5 6 
#
# 1 103.9512 42.8775 0.9908 -5.7258 -4.8851 0.0579
# 2 42.8775 111.6485 9.0130 -9.7876 -15.2708 5.8930
# 3 0.9908 9.0130 47.7351 -12.2732 -15.4252 0.3307
# 4 -5.7258 -9.7876 -12.2732 30.0877 14.5041 -8.0713
# 5 -4.8851 -15.2708 -15.4252 14.5041 30.1007 -8.7869
# 6 0.0579 5.8930 0.3307 -8.0713 -8.7869 34.3958
#
#
#
# Elastic Compliance Matrix: (Units=1/GPa)
#
#
# Indices 1 2 3 4 5 6 
#
# 1 0.011520 -0.004466 0.000865 0.001559 -0.000413 0.000998
# 2 -0.004466 0.011385 -0.000549 0.000307 0.004405 -0.000740
# 3 0.000865 -0.000549 0.026370 0.006305 0.011586 0.004278
# 4 0.001559 0.000307 0.006305 0.045940 -0.016623 0.006418
# 5 -0.000413 0.004405 0.011586 -0.016623 0.051809 0.008469
# 6 0.000998 -0.000740 0.004278 0.006418 0.008469 0.032827
#
#
# Mechanical properties :
#
#
# Convention : Reuss Voigt Hill
#
# Bulk Modulus (GPa) = 24.40645 41.01082 32.70864
# Shear Modulus (GPa) = 24.77581 32.94705 28.86143
#
# Velocity S-wave (km/s) = 3.30154 3.80724 3.56337
# Velocity P-wave (km/s) = 5.02704 6.11306 5.59646
#
# Compressibility (1/GPa) = 0.04097277
#
# Stress axis : x y z
#
# Youngs Moduli (GPa) = 86.80684 87.83602 37.92170
#
# Poissons Ratio (x) = 0.39231 -0.03279
# Poissons Ratio (y) = 0.38771 0.02083
# Poissons Ratio (z) = -0.07505 0.04824
#
# Static dielectric constant tensor:
#      x y z
#    x 4.257090 0.036080 -0.369760 
#    y 0.036080 4.083470 -0.367790 
#    z -0.369760 -0.367790 3.766770 
# 
# 
# High freq. dielectric constant tensor:
#      x y z
#    x 1.907530 0.005900 -0.005290 
#    y 0.005900 1.908130 -0.018690 
#    z -0.005290 -0.018690 1.904450 
# 
# From -- ./inp_files/206331.got.cif
#   From: 2010.06.25/outbox.cif.g09.slc.cpg/sg2_104_cif.got.tgz:206331.got - 2010.06.27 13:26:56.
