data_PCOD8034683
_publ_section_title
;
Structure prediction by ZEFSAII (Michael W. Deem and Ramdas Pophale) SiO2 
 PCOD8034683
Probable space group: P -1
;
_chemical_formula_sum "Si O2"
_cell_formula_units_Z 14
_cell_length_a 9.388153
_cell_length_b 15.544902
_cell_length_c 8.057309
_cell_angle_alpha 53.058353
_cell_angle_beta 63.414074
_cell_angle_gamma 38.381757
_cell_volume 582.866791
_symmetry_space_group_name_H-M "P -1"
_symmetry_group_IT_number 2
_symmetry_cell_setting 'triclinic'
loop_
_space_group_symop_operation_xyz
x,y,z
-x,-y,-z
loop_
_atom_site_type_symbol
_atom_site_label
_atom_site_fract_x
_atom_site_fract_y
_atom_site_fract_z
Si Si1 0.734471 0.426900 0.045373
Si Si2 0.633509 0.116857 0.941076
Si Si3 0.095349 0.065114 0.321303
Si Si4 0.267913 0.055666 0.577807
Si Si5 0.416541 0.618084 0.264660
Si Si6 0.962269 0.353690 0.574594
Si Si7 0.851221 0.644230 0.220768
O O1 0.638485 0.533085 0.135880
O O2 0.889310 0.248906 0.205702
O O3 0.500000 0.500000 0.000000
O O4 0.892540 0.444495 0.865436
O O5 0.231122 0.997745 0.153955
O O6 0.729591 0.025360 0.170686
O O7 0.679176 0.222833 0.798591
O O8 0.362691 0.216460 0.944591
O O9 0.254389 0.008501 0.461157
O O10 0.000000 0.000000 0.500000
O O11 0.066388 0.241397 0.492261
O O12 0.500000 0.000000 0.500000
O O13 0.500000 0.500000 0.500000
O O14 0.214426 0.645863 0.245377
O O15 0.831766 0.524771 0.384310
O O16 0.168979 0.287426 0.668326
#
# Coordination Sequence:
#
# PCOD8034683 Si02
#       7
#     2   2   2   2   2   2   2
#     4  12  27  47  77 112 148 199 262 311 377 461
#     4  12  28  49  82 112 156 207 255 322 391 460
#     4  12  29  50  78 113 157 201 258 322 388 459
#     4  12  28  48  76 113 157 201 261 317 389 459
#     4  12  25  48  74 111 153 197 254 316 384 454
#     4  11  24  45  74 110 154 201 249 318 381 456
#     4  11  25  46  78 109 153 199 258 312 385 453
#
# _framework density 24.019210999999999
#
# number of rings (size 3 to 8) (size 9 to 14) (size 15 to 20)
#    0.000    0.286    2.857    5.143    4.000    3.429 
#    0.000    0.000    0.000    0.000    0.000    0.000 
#    0.000    0.000    0.000    0.000    0.000    0.000 
#
# Total GULP energy -173484.905858 kJ/mol
# GULP energy per Si atom -12391.778990 kJ/mol
# Density = 2.396454 g / cm^3
# Si number density = 24.019211 Si / 1000 Ang^3
#
#
#
# Elastic Constant Matrix: (Units=GPa)
#
#
# Indices 1 2 3 4 5 6 
#
# 1 143.5949 46.9251 40.9093 -5.8992 2.0135 0.2686
# 2 46.9251 129.7415 35.7775 9.3802 0.7000 5.2981
# 3 40.9093 35.7775 118.6735 3.6451 14.0050 10.7046
# 4 -5.8992 9.3802 3.6451 36.9226 -7.5534 -2.1694
# 5 2.0135 0.7000 14.0050 -7.5534 36.9946 0.7479
# 6 0.2686 5.2981 10.7046 -2.1694 0.7479 45.3966
#
#
#
# Elastic Compliance Matrix: (Units=1/GPa)
#
#
# Indices 1 2 3 4 5 6 
#
# 1 0.008625 -0.002673 -0.002451 0.002562 0.001013 0.000945
# 2 -0.002673 0.009386 -0.001768 -0.002661 0.000110 -0.000792
# 3 -0.002451 -0.001768 0.010567 -0.001978 -0.004191 -0.002296
# 4 0.002562 -0.002661 -0.001978 0.029860 0.006714 0.002078
# 5 0.001013 0.000110 -0.004191 0.006714 0.029915 0.000797
# 6 0.000945 -0.000792 -0.002296 0.002078 0.000797 0.022743
#
#
# Mechanical properties :
#
#
# Convention : Reuss Voigt Hill
#
# Bulk Modulus (GPa) = 67.59396 71.02596 69.30996
# Shear Modulus (GPa) = 38.51766 41.75595 40.13681
#
# Velocity S-wave (km/s) = 4.00887 4.17398 4.09226
# Velocity P-wave (km/s) = 7.04491 7.27078 7.15873
#
# Compressibility (1/GPa) = 0.01479422
#
# Stress axis : x y z
#
# Youngs Moduli (GPa) = 115.94191 106.54074 94.63581
#
# Poissons Ratio (x) = 0.28477 0.23194
# Poissons Ratio (y) = 0.30990 0.16733
# Poissons Ratio (z) = 0.28415 0.18838
#
# Static dielectric constant tensor:
#      x y z
#    x 4.652590 0.499640 0.101250 
#    y 0.499640 3.101470 -0.027540 
#    z 0.101250 -0.027540 4.272630 
# 
# 
# High freq. dielectric constant tensor:
#      x y z
#    x 1.979530 0.002750 0.005820 
#    y 0.002750 1.960850 0.002930 
#    z 0.005820 0.002930 1.952600 
# 
# From -- ./inp_files/205880.got.cif
#   From: 2010.06.25/outbox.cif.g09.slc.cpg/sg2_103_cif.got.tgz:205880.got - 2010.06.27 13:26:56.
