data_PCOD8034307
_publ_section_title
;
Structure prediction by ZEFSAII (Michael W. Deem and Ramdas Pophale) SiO2 
 PCOD8034307
Probable space group: P -1
;
_chemical_formula_sum "Si O2"
_cell_formula_units_Z 16
_cell_length_a 11.832269
_cell_length_b 8.398984
_cell_length_c 9.823410
_cell_angle_alpha 95.878201
_cell_angle_beta 49.940756
_cell_angle_gamma 88.624126
_cell_volume 738.063527
_symmetry_space_group_name_H-M "P -1"
_symmetry_group_IT_number 2
_symmetry_cell_setting 'triclinic'
loop_
_space_group_symop_operation_xyz
x,y,z
-x,-y,-z
loop_
_atom_site_type_symbol
_atom_site_label
_atom_site_fract_x
_atom_site_fract_y
_atom_site_fract_z
Si Si1 0.559095 0.659651 0.413003
Si Si2 0.670062 0.674209 0.846543
Si Si3 0.563062 0.208390 0.753091
Si Si4 0.614570 0.852535 0.644616
Si Si5 0.938694 0.795699 0.757406
Si Si6 0.847338 0.327429 0.638123
Si Si7 0.950793 0.857868 0.311402
Si Si8 0.897550 0.664438 0.076405
O O1 0.500000 0.500000 0.500000
O O2 0.447124 0.726455 0.387104
O O3 0.547187 0.792106 0.552862
O O4 0.727299 0.629951 0.223905
O O5 0.590958 0.722917 0.768793
O O6 0.776043 0.808738 0.816897
O O7 0.765765 0.502115 0.750064
O O8 0.545621 0.672639 0.058341
O O9 0.728541 0.207402 0.681050
O O10 0.523807 0.024607 0.768532
O O11 0.787760 0.871466 0.501761
O O12 0.046621 0.664903 0.575089
O O13 0.927366 0.735899 0.913566
O O14 0.994597 0.968416 0.720680
O O15 0.939444 0.261493 0.692358
O O16 0.947783 0.790859 0.155978
O O17 0.000000 0.500000 0.000000
#
# Coordination Sequence:
#
# PCOD8034307 Si02
#       8
#     2   2   2   2   2   2   2   2
#     4  11  26  47  70 100 137 178 227 275 343 406
#     4  12  25  43  68 104 139 176 228 281 340 396
#     4  12  25  47  67 100 141 179 226 279 340 403
#     4  11  24  45  72 100 137 181 227 277 335 407
#     4  12  23  45  69 101 139 178 227 277 335 405
#     4  12  25  43  74  99 138 182 226 281 337 404
#     4  11  24  44  71 104 133 180 231 275 337 399
#     4  11  26  45  71 102 136 174 229 284 332 402
#
# _framework density 21.678349000000001
#
# number of rings (size 3 to 8) (size 9 to 14) (size 15 to 20)
#    0.000    0.500    3.750    4.500    5.250    0.000 
#    2.250    0.000    0.000    0.000    0.000    0.000 
#    0.000    0.000    0.000    0.000    0.000    0.000 
#
# Total GULP energy -198469.989190 kJ/mol
# GULP energy per Si atom -12404.374324 kJ/mol
# Density = 2.162901 g / cm^3
# Si number density = 21.678349 Si / 1000 Ang^3
#
#
#
# Elastic Constant Matrix: (Units=GPa)
#
#
# Indices 1 2 3 4 5 6 
#
# 1 90.8199 22.1111 49.3102 -6.1940 13.6227 2.5533
# 2 22.1111 97.2547 33.2427 -8.5080 12.5335 -24.8289
# 3 49.3102 33.2427 129.1890 -6.9168 24.4981 -20.3158
# 4 -6.1940 -8.5080 -6.9168 33.6747 -3.9495 -6.8145
# 5 13.6227 12.5335 24.4981 -3.9495 33.4793 -5.0569
# 6 2.5533 -24.8289 -20.3158 -6.8145 -5.0569 26.2701
#
#
#
# Elastic Compliance Matrix: (Units=1/GPa)
#
#
# Indices 1 2 3 4 5 6 
#
# 1 0.016153 -0.004311 -0.006603 -0.002095 -0.002142 -0.011707
# 2 -0.004311 0.016390 0.000949 0.007047 -0.001498 0.018183
# 3 -0.006603 0.000949 0.012956 0.003422 -0.005011 0.011481
# 4 -0.002095 0.007047 0.003422 0.036064 0.002899 0.019423
# 5 -0.002142 -0.001498 -0.005011 0.002899 0.035694 0.002540
# 6 -0.011707 0.018183 0.011481 0.019423 0.002540 0.070795
#
#
# Mechanical properties :
#
#
# Convention : Reuss Voigt Hill
#
# Bulk Modulus (GPa) = 39.11197 58.51019 48.81108
# Shear Modulus (GPa) = 23.09409 32.85813 27.97611
#
# Velocity S-wave (km/s) = 3.26744 3.89744 3.59626
# Velocity P-wave (km/s) = 5.68472 6.87765 6.30944
#
# Compressibility (1/GPa) = 0.02556762
#
# Stress axis : x y z
#
# Youngs Moduli (GPa) = 61.90734 61.01383 77.18690
#
# Poissons Ratio (x) = 0.26306 0.50967
# Poissons Ratio (y) = 0.26691 -0.07325
# Poissons Ratio (z) = 0.40877 -0.05790
#
# Static dielectric constant tensor:
#      x y z
#    x 4.137930 0.243040 -0.045840 
#    y 0.243040 3.781760 0.175470 
#    z -0.045840 0.175470 3.947860 
# 
# 
# High freq. dielectric constant tensor:
#      x y z
#    x 1.865650 0.005080 0.009640 
#    y 0.005080 1.856900 0.003710 
#    z 0.009640 0.003710 1.863240 
# 
# From -- ./inp_files/158709.got.cif
#   From: 2010.06.25/outbox.cif.g09.slc.cpg/sg2_80_cif.got.tgz:158709.got - 2010.06.27 13:26:56.
