data_PCOD8034210
_publ_section_title
;
Structure prediction by ZEFSAII (Michael W. Deem and Ramdas Pophale) SiO2 
 PCOD8034210
Probable space group: P -1
;
_chemical_formula_sum "Si O2"
_cell_formula_units_Z 16
_cell_length_a 11.065669
_cell_length_b 18.342571
_cell_length_c 9.545911
_cell_angle_alpha 27.549190
_cell_angle_beta 115.975814
_cell_angle_gamma 124.580212
_cell_volume 726.921710
_symmetry_space_group_name_H-M "P -1"
_symmetry_group_IT_number 2
_symmetry_cell_setting 'triclinic'
loop_
_space_group_symop_operation_xyz
x,y,z
-x,-y,-z
loop_
_atom_site_type_symbol
_atom_site_label
_atom_site_fract_x
_atom_site_fract_y
_atom_site_fract_z
Si Si1 0.357330 0.436291 0.358788
Si Si2 0.666719 0.177363 0.679631
Si Si3 0.042397 0.483567 0.707850
Si Si4 0.364455 0.162656 0.616691
Si Si5 0.145715 0.599219 0.991901
Si Si6 0.324398 0.296362 0.875475
Si Si7 0.140828 0.184247 0.242968
Si Si8 0.359473 0.961114 0.400046
O O1 0.323082 0.261626 0.551780
O O2 0.262190 0.536651 0.088339
O O3 0.303743 0.397884 0.558297
O O4 0.528620 0.570979 0.195130
O O5 0.826060 0.338292 0.474713
O O6 0.544066 0.244885 0.550569
O O7 0.608276 0.081988 0.665683
O O8 0.687264 0.041737 0.028220
O O9 0.000000 0.500000 0.500000
O O10 0.894565 0.443745 0.791669
O O11 0.094284 0.331749 0.022456
O O12 0.280493 0.181382 0.403245
O O13 0.212516 0.807511 0.652561
O O14 0.000000 0.500000 0.000000
O O15 0.186538 0.228296 0.028312
O O16 0.337743 0.134600 0.086713
O O17 0.000000 0.000000 0.500000
O O18 0.500000 0.000000 0.500000
#
# Coordination Sequence:
#
# PCOD8034210 Si02
#       8
#     2   2   2   2   2   2   2   2
#     4  11  24  44  68 103 134 180 229 283 350 402
#     4  11  25  46  68 105 138 185 236 282 360 414
#     4  12  26  46  72 101 144 187 228 291 355 418
#     4  11  25  44  73  98 141 179 231 297 338 421
#     4  12  25  43  68 102 140 179 234 281 343 419
#     4  11  24  44  69 101 136 176 232 285 341 414
#     4  12  26  46  69 103 138 183 236 286 353 414
#     4  12  23  43  70 101 139 181 230 284 344 412
#
# _framework density 22.010624
#
# number of rings (size 3 to 8) (size 9 to 14) (size 15 to 20)
#    0.000    0.500    3.750    4.500    0.000    4.000 
#    0.000    1.875    0.000    0.000    0.000    0.000 
#    0.000    0.000    0.000    0.000    0.000    0.000 
#
# Total GULP energy -198432.776356 kJ/mol
# GULP energy per Si atom -12402.048522 kJ/mol
# Density = 2.196053 g / cm^3
# Si number density = 22.010624 Si / 1000 Ang^3
#
#
#
# Elastic Constant Matrix: (Units=GPa)
#
#
# Indices 1 2 3 4 5 6 
#
# 1 60.1360 2.5439 19.8828 5.9399 -4.3658 -20.6873
# 2 2.5439 86.9305 21.6063 -1.0725 -0.1677 -3.2805
# 3 19.8828 21.6063 90.7834 -9.9585 -4.8383 4.9545
# 4 5.9399 -1.0725 -9.9585 34.3558 -1.7644 -1.0453
# 5 -4.3658 -0.1677 -4.8383 -1.7644 50.9786 -0.3065
# 6 -20.6873 -3.2805 4.9545 -1.0453 -0.3065 33.5409
#
#
#
# Elastic Compliance Matrix: (Units=1/GPa)
#
#
# Indices 1 2 3 4 5 6 
#
# 1 0.025509 0.001678 -0.007483 -0.005944 0.001375 0.016830
# 2 0.001678 0.012437 -0.003582 -0.000865 -0.000169 0.002752
# 3 -0.007483 -0.003582 0.014504 0.005219 0.000863 -0.006938
# 4 -0.005944 -0.000865 0.005219 0.031568 0.001055 -0.003529
# 5 0.001375 -0.000169 0.000863 0.001055 0.019857 0.000919
# 6 0.016830 0.002752 -0.006938 -0.003529 0.000919 0.041387
#
#
# Mechanical properties :
#
#
# Convention : Reuss Voigt Hill
#
# Bulk Modulus (GPa) = 29.69484 36.21288 32.95386
# Shear Modulus (GPa) = 28.52874 36.69619 32.61246
#
# Velocity S-wave (km/s) = 3.60409 4.08757 3.85342
# Velocity P-wave (km/s) = 5.55335 6.22622 5.89939
#
# Compressibility (1/GPa) = 0.03367589
#
# Stress axis : x y z
#
# Youngs Moduli (GPa) = 39.20184 80.40267 68.94754
#
# Poissons Ratio (x) = -0.13491 0.51597
# Poissons Ratio (y) = -0.06578 0.24694
# Poissons Ratio (z) = 0.29337 0.28797
#
# Static dielectric constant tensor:
#      x y z
#    x 4.517110 -0.138790 -0.290660 
#    y -0.138790 3.893510 0.018400 
#    z -0.290660 0.018400 4.159440 
# 
# 
# High freq. dielectric constant tensor:
#      x y z
#    x 1.870290 -0.005810 -0.001480 
#    y -0.005810 1.867770 -0.001400 
#    z -0.001480 -0.001400 1.885100 
# 
# From -- ./inp_files/278700.got.cif
#   From: 2010.06.25/outbox.cif.g09.slc.cpg/sg2_140_cif.got.tgz:278700.got - 2010.06.27 13:26:56.
