data_PCOD8034652
_publ_section_title
;
Structure prediction by ZEFSAII (Michael W. Deem and Ramdas Pophale) SiO2 
 PCOD8034652
Probable space group: P -1
;
_chemical_formula_sum "Si O2"
_cell_formula_units_Z 16
_cell_length_a 12.372843
_cell_length_b 8.740180
_cell_length_c 8.736559
_cell_angle_alpha 107.744049
_cell_angle_beta 98.783519
_cell_angle_gamma 56.144027
_cell_volume 747.083999
_symmetry_space_group_name_H-M "P -1"
_symmetry_group_IT_number 2
_symmetry_cell_setting 'triclinic'
loop_
_space_group_symop_operation_xyz
x,y,z
-x,-y,-z
loop_
_atom_site_type_symbol
_atom_site_label
_atom_site_fract_x
_atom_site_fract_y
_atom_site_fract_z
Si Si1 0.227672 0.004854 0.266714
Si Si2 0.389570 0.689763 0.961374
Si Si3 0.438464 0.203966 0.125519
Si Si4 0.854445 0.476629 0.860394
Si Si5 0.143644 0.827471 0.444419
Si Si6 0.005251 0.664541 0.842335
Si Si7 0.238306 0.583617 0.683086
Si Si8 0.616330 0.820876 0.554282
O O1 0.264904 0.151489 0.381308
O O2 0.098655 0.119008 0.168078
O O3 0.215134 0.906059 0.384662
O O4 0.335458 0.848136 0.130042
O O5 0.460308 0.734286 0.859679
O O6 0.282715 0.655139 0.858344
O O7 0.500000 0.500000 0.000000
O O8 0.291514 0.349345 0.072855
O O9 0.437521 0.196181 0.303212
O O10 0.500000 0.000000 0.000000
O O11 0.849640 0.341935 0.696272
O O12 0.935654 0.549515 0.814175
O O13 0.927484 0.347188 0.984897
O O14 0.213764 0.734084 0.590992
O O15 0.000000 0.000000 0.500000
O O16 0.112334 0.580309 0.705233
O O17 0.343026 0.366994 0.591487
O O18 0.500000 0.000000 0.500000
#
# Coordination Sequence:
#
# PCOD8034652 Si02
#       8
#     2   2   2   2   2   2   2   2
#     4  12  25  48  69 103 141 185 234 289 346 428
#     4  12  27  46  73  99 139 188 236 286 341 415
#     4  12  24  49  72 100 138 185 241 284 346 419
#     4  11  25  46  71 103 140 187 230 293 347 426
#     4  12  26  43  68 104 145 179 226 287 358 413
#     4  11  24  45  74 100 140 183 235 280 357 423
#     4  12  27  46  72 106 141 185 228 296 354 415
#     4  12  28  47  72 103 139 186 235 291 352 416
#
# _framework density 21.416601
#
# number of rings (size 3 to 8) (size 9 to 14) (size 15 to 20)
#    0.000    0.250    5.000    3.000    7.000    2.500 
#    0.000    0.000    0.000    0.000    0.000    0.000 
#    0.000    0.000    0.000    0.000    0.000    0.000 
#
# Total GULP energy -198400.967060 kJ/mol
# GULP energy per Si atom -12400.060441 kJ/mol
# Density = 2.136786 g / cm^3
# Si number density = 21.416601 Si / 1000 Ang^3
#
#
#
# Elastic Constant Matrix: (Units=GPa)
#
#
# Indices 1 2 3 4 5 6 
#
# 1 117.7633 32.6290 38.9540 -0.2830 -26.0126 8.6291
# 2 32.6290 127.7125 31.7880 -14.3654 -5.3020 -13.6081
# 3 38.9540 31.7880 74.7120 -8.3172 -14.1003 9.2258
# 4 -0.2830 -14.3654 -8.3172 42.6376 5.3085 -0.7384
# 5 -26.0126 -5.3020 -14.1003 5.3085 46.7053 -5.1904
# 6 8.6291 -13.6081 9.2258 -0.7384 -5.1904 36.1789
#
#
#
# Elastic Compliance Matrix: (Units=1/GPa)
#
#
# Indices 1 2 3 4 5 6 
#
# 1 0.011747 -0.002170 -0.004259 -0.002145 0.005049 -0.001852
# 2 -0.002170 0.010140 -0.003676 0.002889 -0.000918 0.005196
# 3 -0.004259 -0.003676 0.018350 0.001982 0.002001 -0.004719
# 4 -0.002145 0.002889 0.001982 0.025193 -0.003001 0.001177
# 5 0.005049 -0.000918 0.002001 -0.003001 0.025230 0.001499
# 6 -0.001852 0.005196 -0.004719 0.001177 0.001499 0.031479
#
#
# Mechanical properties :
#
#
# Convention : Reuss Voigt Hill
#
# Bulk Modulus (GPa) = 49.93175 58.54777 54.23976
# Shear Modulus (GPa) = 33.55110 39.55881 36.55496
#
# Velocity S-wave (km/s) = 3.96232 4.30246 4.13589
# Velocity P-wave (km/s) = 6.65570 7.21654 6.94179
#
# Compressibility (1/GPa) = 0.02002734
#
# Stress axis : x y z
#
# Youngs Moduli (GPa) = 85.12547 98.61832 54.49486
#
# Poissons Ratio (x) = 0.21402 0.23209
# Poissons Ratio (y) = 0.18474 0.20033
# Poissons Ratio (z) = 0.36254 0.36254
#
# Static dielectric constant tensor:
#      x y z
#    x 3.850850 0.040040 -0.385650 
#    y 0.040040 4.143050 -0.247890 
#    z -0.385650 -0.247890 3.738810 
# 
# 
# High freq. dielectric constant tensor:
#      x y z
#    x 1.850550 0.002860 -0.013130 
#    y 0.002860 1.860390 -0.008530 
#    z -0.013130 -0.008530 1.847670 
# 
# From -- ./inp_files/244569.got.cif
#   From: 2010.06.25/outbox.cif.g09.slc.cpg/sg2_123_cif.got.tgz:244569.got - 2010.06.27 13:26:56.
