data_PCOD8034015
_publ_section_title
;
Structure prediction by ZEFSAII (Michael W. Deem and Ramdas Pophale) SiO2 
 PCOD8034015
Probable space group: P -1
;
_chemical_formula_sum "Si O2"
_cell_formula_units_Z 16
_cell_length_a 12.957208
_cell_length_b 18.950236
_cell_length_c 8.502242
_cell_angle_alpha 149.174177
_cell_angle_beta 49.502173
_cell_angle_gamma 138.218952
_cell_volume 712.527080
_symmetry_space_group_name_H-M "P -1"
_symmetry_group_IT_number 2
_symmetry_cell_setting 'triclinic'
loop_
_space_group_symop_operation_xyz
x,y,z
-x,-y,-z
loop_
_atom_site_type_symbol
_atom_site_label
_atom_site_fract_x
_atom_site_fract_y
_atom_site_fract_z
Si Si1 0.556704 0.306098 0.645644
Si Si2 0.675013 0.659134 0.253503
Si Si3 0.132215 0.665857 0.135244
Si Si4 0.862294 0.344193 0.260226
Si Si5 0.011295 0.156788 0.860911
Si Si6 0.355780 0.327854 0.338471
Si Si7 0.462049 0.828335 0.261798
Si Si8 0.030270 0.165874 0.227056
O O1 0.412360 0.251201 0.563989
O O2 0.701237 0.321150 0.437108
O O3 0.522220 0.185182 0.591608
O O4 0.575962 0.470988 0.005660
O O5 0.825860 0.698935 0.078071
O O6 0.714817 0.715751 0.500732
O O7 0.291445 0.700574 0.129063
O O8 0.084728 0.795303 0.483351
O O9 0.144903 0.650740 0.909145
O O10 0.000000 0.500000 0.000000
O O11 0.000000 0.500000 0.500000
O O12 0.877398 0.190425 0.992330
O O13 0.989867 0.150456 0.055328
O O14 0.000000 0.000000 0.500000
O O15 0.500000 0.500000 0.500000
O O16 0.210009 0.300692 0.323375
O O17 0.408325 0.200431 0.002653
O O18 0.500000 0.000000 0.500000
O O19 0.000000 0.000000 0.000000
#
# Coordination Sequence:
#
# PCOD8034015 Si02
#       8
#     2   2   2   2   2   2   2   2
#     4  11  24  43  70 100 138 185 229 286 349 411
#     4  11  24  43  70 101 138 181 236 285 343 419
#     4  12  26  44  70 104 138 182 230 286 347 414
#     4  12  24  44  70 101 140 181 236 288 344 416
#     4  12  26  45  71 103 141 185 230 287 353 416
#     4  12  24  43  71 103 138 185 238 283 346 422
#     4  12  26  46  69 103 143 183 231 294 355 416
#     4  12  26  46  69 101 142 184 229 284 348 415
#
# _framework density 22.455287999999999
#
# number of rings (size 3 to 8) (size 9 to 14) (size 15 to 20)
#    0.000    0.250    2.500    7.500    1.750    2.000 
#    0.000    1.875    0.000    0.000    0.000    0.000 
#    0.000    0.000    0.000    0.000    0.000    0.000 
#
# Total GULP energy -198448.774282 kJ/mol
# GULP energy per Si atom -12403.048393 kJ/mol
# Density = 2.240418 g / cm^3
# Si number density = 22.455288 Si / 1000 Ang^3
#
#
#
# Elastic Constant Matrix: (Units=GPa)
#
#
# Indices 1 2 3 4 5 6 
#
# 1 117.8847 27.0795 23.3957 -8.5094 -16.2496 -14.6127
# 2 27.0795 101.2150 24.2353 -10.4531 -5.1149 -26.1918
# 3 23.3957 24.2353 108.0843 -21.5996 -11.2920 -19.2004
# 4 -8.5094 -10.4531 -21.5996 46.3596 5.6738 -5.0589
# 5 -16.2496 -5.1149 -11.2920 5.6738 34.7494 0.7358
# 6 -14.6127 -26.1918 -19.2004 -5.0589 0.7358 43.9863
#
#
#
# Elastic Compliance Matrix: (Units=1/GPa)
#
#
# Indices 1 2 3 4 5 6 
#
# 1 0.009871 -0.001655 -0.000856 0.000771 0.003927 0.001943
# 2 -0.001655 0.012609 -0.000592 0.003001 0.000250 0.007041
# 3 -0.000856 -0.000592 0.011821 0.005487 0.002349 0.005115
# 4 0.000771 0.003001 0.005487 0.025981 -0.001815 0.007457
# 5 0.003927 0.000250 0.002349 -0.001815 0.031674 0.001741
# 6 0.001943 0.007041 0.005115 0.007457 0.001741 0.030633
#
#
# Mechanical properties :
#
#
# Convention : Reuss Voigt Hill
#
# Bulk Modulus (GPa) = 35.59493 52.95611 44.27552
# Shear Modulus (GPa) = 36.18990 41.85062 39.02026
#
# Velocity S-wave (km/s) = 4.01888 4.32178 4.17308
# Velocity P-wave (km/s) = 6.11728 6.96691 6.55587
#
# Compressibility (1/GPa) = 0.02809388
#
# Stress axis : x y z
#
# Youngs Moduli (GPa) = 101.30946 79.30756 84.59688
#
# Poissons Ratio (x) = 0.13125 0.07241
# Poissons Ratio (y) = 0.16767 0.05012
# Poissons Ratio (z) = 0.08672 0.04699
#
# Static dielectric constant tensor:
#      x y z
#    x 4.409110 0.057100 -0.235040 
#    y 0.057100 3.973830 -0.233700 
#    z -0.235040 -0.233700 4.539480 
# 
# 
# High freq. dielectric constant tensor:
#      x y z
#    x 1.898360 -0.007110 -0.009390 
#    y -0.007110 1.891100 -0.012400 
#    z -0.009390 -0.012400 1.897750 
# 
# From -- ./inp_files/280218.got.cif
#   From: 2010.06.25/outbox.cif.g09.slc.cpg/sg2_141_cif.got.tgz:280218.got - 2010.06.27 13:26:56.
