data_PCOD8034170
_publ_section_title
;
Structure prediction by ZEFSAII (Michael W. Deem and Ramdas Pophale) SiO2 
 PCOD8034170
Probable space group: P -1
;
_chemical_formula_sum "Si O2"
_cell_formula_units_Z 14
_cell_length_a 8.424779
_cell_length_b 21.095510
_cell_length_c 20.607045
_cell_angle_alpha 19.963788
_cell_angle_beta 147.282880
_cell_angle_gamma 148.719953
_cell_volume 634.108118
_symmetry_space_group_name_H-M "P -1"
_symmetry_group_IT_number 2
_symmetry_cell_setting 'triclinic'
loop_
_space_group_symop_operation_xyz
x,y,z
-x,-y,-z
loop_
_atom_site_type_symbol
_atom_site_label
_atom_site_fract_x
_atom_site_fract_y
_atom_site_fract_z
Si Si1 0.737402 0.589841 0.310265
Si Si2 0.796354 0.824987 0.984699
Si Si3 0.874755 0.168717 0.225021
Si Si4 0.133865 0.258374 0.364328
Si Si5 0.155913 0.495021 0.901859
Si Si6 0.929523 0.445003 0.729857
Si Si7 0.753197 0.749775 0.299825
O O1 0.446438 0.430492 0.328042
O O2 0.645071 0.659315 0.279122
O O3 0.000000 0.500000 0.500000
O O4 0.875086 0.781521 0.127125
O O5 0.459104 0.846782 0.845662
O O6 0.055237 0.020014 0.858671
O O7 0.809468 0.644288 0.118102
O O8 0.121672 0.258099 0.281957
O O9 0.871959 0.953892 0.408463
O O10 0.966539 0.303818 0.063308
O O11 0.842749 0.308787 0.247339
O O12 0.971922 0.489413 0.777632
O O13 0.500000 0.500000 0.000000
O O14 0.969919 0.647810 0.510082
O O15 0.580075 0.292592 0.738191
#
# Coordination Sequence:
#
# PCOD8034170 Si02
#       7
#     2   2   2   2   2   2   2
#     4  12  23  42  71 100 135 179 225 283 332 395
#     4  12  24  42  73 100 134 178 233 276 338 404
#     4  11  26  45  74 101 129 180 231 285 336 395
#     4  11  25  47  70  99 140 170 234 286 328 401
#     4  12  26  44  72  98 140 181 222 278 345 403
#     4  11  25  43  64 102 139 181 220 278 341 403
#     4  11  24  44  65 100 140 181 222 277 341 400
#
# _framework density 22.078254999999999
#
# number of rings (size 3 to 8) (size 9 to 14) (size 15 to 20)
#    0.000    0.571    4.286    3.000    2.000    4.000 
#    0.000    0.000    0.000    0.000    0.000    0.000 
#    0.000    0.000    0.000    0.000    0.000    0.000 
#
# Total GULP energy -173622.010729 kJ/mol
# GULP energy per Si atom -12401.572195 kJ/mol
# Density = 2.202800 g / cm^3
# Si number density = 22.078255 Si / 1000 Ang^3
#
#
#
# Elastic Constant Matrix: (Units=GPa)
#
#
# Indices 1 2 3 4 5 6 
#
# 1 96.3100 14.1103 56.0232 -11.0846 -0.4305 -6.3602
# 2 14.1103 53.7753 34.3234 -5.4317 -10.3802 -6.6079
# 3 56.0232 34.3234 163.3241 -14.7456 -2.1235 -7.7683
# 4 -11.0846 -5.4317 -14.7456 24.0233 -2.9478 -0.2281
# 5 -0.4305 -10.3802 -2.1235 -2.9478 54.7052 13.2214
# 6 -6.3602 -6.6079 -7.7683 -0.2281 13.2214 37.5895
#
#
#
# Elastic Compliance Matrix: (Units=1/GPa)
#
#
# Indices 1 2 3 4 5 6 
#
# 1 0.013330 -0.000399 -0.004105 0.003518 -0.000294 0.001462
# 2 -0.000399 0.022645 -0.004236 0.002827 0.003873 0.001693
# 3 -0.004105 -0.004236 0.008658 0.002406 -0.000501 0.000541
# 4 0.003518 0.002827 0.002406 0.045732 0.002919 0.000840
# 5 -0.000294 0.003873 -0.000501 0.002919 0.020785 -0.006766
# 6 0.001462 0.001693 0.000541 0.000840 -0.006766 0.029645
#
#
# Mechanical properties :
#
#
# Convention : Reuss Voigt Hill
#
# Bulk Modulus (GPa) = 36.82952 58.03589 47.43271
# Shear Modulus (GPa) = 29.88185 37.19376 33.53780
#
# Velocity S-wave (km/s) = 3.68292 4.10888 3.90172
# Velocity P-wave (km/s) = 5.89939 6.98957 6.46749
#
# Compressibility (1/GPa) = 0.02715213
#
# Stress axis : x y z
#
# Youngs Moduli (GPa) = 75.02054 44.15892 115.50630
#
# Poissons Ratio (x) = 0.01763 0.47416
# Poissons Ratio (y) = 0.02995 0.48928
# Poissons Ratio (z) = 0.30797 0.18706
#
# Static dielectric constant tensor:
#      x y z
#    x 3.989720 0.052780 0.059470 
#    y 0.052780 3.801600 0.254440 
#    z 0.059470 0.254440 4.505480 
# 
# 
# High freq. dielectric constant tensor:
#      x y z
#    x 1.879480 0.000370 0.002930 
#    y 0.000370 1.857050 0.012110 
#    z 0.002930 0.012110 1.888280 
# 
# From -- ./inp_files/315799.got.cif
#   From: 2010.06.25/outbox.cif.g09.slc.cpg/sg2_158_cif.got.tgz:315799.got - 2010.06.27 13:26:56.
