data_PCOD8034121
_publ_section_title
;
Structure prediction by ZEFSAII (Michael W. Deem and Ramdas Pophale) SiO2 
 PCOD8034121
Probable space group: P -1
;
_chemical_formula_sum "Si O2"
_cell_formula_units_Z 16
_cell_length_a 14.122162
_cell_length_b 15.254258
_cell_length_c 14.583024
_cell_angle_alpha 30.063994
_cell_angle_beta 47.754474
_cell_angle_gamma 28.203823
_cell_volume 687.437384
_symmetry_space_group_name_H-M "P -1"
_symmetry_group_IT_number 2
_symmetry_cell_setting 'triclinic'
loop_
_space_group_symop_operation_xyz
x,y,z
-x,-y,-z
loop_
_atom_site_type_symbol
_atom_site_label
_atom_site_fract_x
_atom_site_fract_y
_atom_site_fract_z
Si Si1 0.129792 0.864244 0.653664
Si Si2 0.099965 0.258261 0.083363
Si Si3 0.152094 0.900067 0.911889
Si Si4 0.252924 0.492459 0.458258
Si Si5 0.588360 0.574890 0.975348
Si Si6 0.421091 0.679387 0.479250
Si Si7 0.564214 0.977248 0.582059
Si Si8 0.023775 0.603913 0.661420
O O1 0.231374 0.775209 0.566169
O O2 0.004920 0.818919 0.786157
O O3 0.975960 0.203822 0.464531
O O4 0.324106 0.640429 0.804107
O O5 0.335981 0.961416 0.242478
O O6 0.000000 0.500000 0.000000
O O7 0.098980 0.358193 0.897094
O O8 0.331393 0.830236 0.900576
O O9 0.281824 0.605744 0.040138
O O10 0.992410 0.173316 0.699375
O O11 0.000000 0.000000 0.000000
O O12 0.392313 0.495402 0.409201
O O13 0.366910 0.299957 0.465918
O O14 0.208325 0.391964 0.654270
O O15 0.614394 0.752438 0.815378
O O16 0.500000 0.500000 0.500000
O O17 0.500000 0.000000 0.500000
O O18 0.780869 0.851848 0.555716
#
# Coordination Sequence:
#
# PCOD8034121 Si02
#       8
#     2   2   2   2   2   2   2   2
#     4  12  24  50  77 105 155 194 250 318 375 448
#     4  12  26  48  78 109 141 208 254 304 392 443
#     4  11  24  43  73 108 147 196 252 302 374 455
#     4  12  26  47  73 110 152 198 250 312 374 448
#     4  11  25  44  74 107 143 200 246 301 381 445
#     4  12  28  46  76 114 149 197 256 315 377 448
#     4  12  26  46  73 111 153 197 251 307 377 450
#     4  12  26  49  77 106 158 199 252 317 373 455
#
# _framework density 23.274847999999999
#
# number of rings (size 3 to 8) (size 9 to 14) (size 15 to 20)
#    0.000    0.250    5.000    3.375    3.500    4.500 
#    0.000    0.000    0.000    0.000    0.000    0.000 
#    0.000    0.000    0.000    0.000    0.000    0.000 
#
# Total GULP energy -198344.467208 kJ/mol
# GULP energy per Si atom -12396.529201 kJ/mol
# Density = 2.322187 g / cm^3
# Si number density = 23.274848 Si / 1000 Ang^3
#
#
#
# Elastic Constant Matrix: (Units=GPa)
#
#
# Indices 1 2 3 4 5 6 
#
# 1 93.2269 37.0756 34.9523 1.0743 -9.0423 9.9362
# 2 37.0756 152.5772 25.7737 13.0406 -7.3146 11.8124
# 3 34.9523 25.7737 119.1364 8.9551 -1.9452 -1.2975
# 4 1.0743 13.0406 8.9551 41.9672 1.1157 1.4345
# 5 -9.0423 -7.3146 -1.9452 1.1157 41.4050 2.0912
# 6 9.9362 11.8124 -1.2975 1.4345 2.0912 39.6896
#
#
#
# Elastic Compliance Matrix: (Units=1/GPa)
#
#
# Indices 1 2 3 4 5 6 
#
# 1 0.013569 -0.002456 -0.003532 0.001204 0.002480 -0.002956
# 2 -0.002456 0.007634 -0.000775 -0.002112 0.000916 -0.001655
# 3 -0.003532 -0.000775 0.009741 -0.001786 -0.000479 0.001523
# 4 0.001204 -0.002112 -0.001786 0.024877 -0.000835 -0.000587
# 5 0.002480 0.000916 -0.000479 -0.000835 0.024966 -0.002195
# 6 -0.002956 -0.001655 0.001523 -0.000587 -0.002195 0.026615
#
#
# Mechanical properties :
#
#
# Convention : Reuss Voigt Hill
#
# Bulk Modulus (GPa) = 57.41220 62.28264 59.84742
# Shear Modulus (GPa) = 39.45277 42.42160 40.93719
#
# Velocity S-wave (km/s) = 4.12160 4.27387 4.19843
# Velocity P-wave (km/s) = 6.88264 7.15348 7.01937
#
# Compressibility (1/GPa) = 0.01741790
#
# Stress axis : x y z
#
# Youngs Moduli (GPa) = 73.69713 130.98742 102.66189
#
# Poissons Ratio (x) = 0.32168 0.36259
# Poissons Ratio (y) = 0.18099 0.07961
# Poissons Ratio (z) = 0.26029 0.10157
#
# Static dielectric constant tensor:
#      x y z
#    x 5.401140 -0.369010 1.517640 
#    y -0.369010 4.312640 -0.208870 
#    z 1.517640 -0.208870 6.125520 
# 
# 
# High freq. dielectric constant tensor:
#      x y z
#    x 1.928320 -0.001340 0.013880 
#    y -0.001340 1.927360 0.007580 
#    z 0.013880 0.007580 1.929830 
# 
# From -- ./inp_files/534117.got.cif
#   From: 2010.06.25/outbox.cif.g09.slc.cpg/sg2_268_cif.got.tgz:534117.got - 2010.06.27 13:26:56.
