data_PCOD8034627
_publ_section_title
;
Structure prediction by ZEFSAII (Michael W. Deem and Ramdas Pophale) SiO2 
 PCOD8034627
Probable space group: P -1
;
_chemical_formula_sum "Si O2"
_cell_formula_units_Z 16
_cell_length_a 8.928340
_cell_length_b 12.586902
_cell_length_c 9.011993
_cell_angle_alpha 116.407193
_cell_angle_beta 96.384681
_cell_angle_gamma 57.631147
_cell_volume 755.291178
_symmetry_space_group_name_H-M "P -1"
_symmetry_group_IT_number 2
_symmetry_cell_setting 'triclinic'
loop_
_space_group_symop_operation_xyz
x,y,z
-x,-y,-z
loop_
_atom_site_type_symbol
_atom_site_label
_atom_site_fract_x
_atom_site_fract_y
_atom_site_fract_z
Si Si1 0.156682 0.525068 0.004132
Si Si2 0.787469 0.081360 0.792147
Si Si3 0.375598 0.955389 0.531935
Si Si4 0.929996 0.847702 0.165132
Si Si5 0.119318 0.191492 0.189654
Si Si6 0.506869 0.340521 0.120087
Si Si7 0.738738 0.455453 0.288814
Si Si8 0.378017 0.286671 0.364083
O O1 0.316895 0.428595 0.072779
O O2 0.085407 0.688153 0.127359
O O3 0.221799 0.483940 0.816056
O O4 0.000000 0.500000 0.000000
O O5 0.704959 0.097985 0.631747
O O6 0.980637 0.061386 0.786128
O O7 0.812654 0.944942 0.788116
O O8 0.656105 0.221230 0.956634
O O9 0.484874 0.827834 0.576870
O O10 0.500000 0.000000 0.500000
O O11 0.217026 0.091244 0.684319
O O12 0.832352 0.853302 0.004636
O O13 0.214352 0.269811 0.301896
O O14 0.905671 0.298759 0.251150
O O15 0.565257 0.447820 0.238288
O O16 0.488781 0.265401 0.214528
O O17 0.704199 0.556792 0.484985
#
# Coordination Sequence:
#
# PCOD8034627 Si02
#       8
#     2   2   2   2   2   2   2   2
#     4  11  25  43  74 101 140 186 234 285 347 421
#     4  12  25  46  74 100 141 181 232 292 344 422
#     4  12  28  46  69 106 139 182 231 288 350 414
#     4  11  26  46  70 103 140 181 233 285 352 413
#     4  11  24  45  73 103 138 185 231 286 352 415
#     4  12  25  45  73 104 137 188 232 289 349 411
#     4  11  25  46  69 104 140 183 235 287 349 411
#     4  12  27  44  69 103 145 182 232 292 346 416
#
# _framework density 21.183881
#
# number of rings (size 3 to 8) (size 9 to 14) (size 15 to 20)
#    0.000    0.500    3.750    4.875    8.750    2.000 
#    0.000    0.000    0.000    0.000    0.000    0.000 
#    0.000    0.000    0.000    0.000    0.000    0.000 
#
# Total GULP energy -198543.173761 kJ/mol
# GULP energy per Si atom -12408.948360 kJ/mol
# Density = 2.113567 g / cm^3
# Si number density = 21.183881 Si / 1000 Ang^3
#
#
#
# Elastic Constant Matrix: (Units=GPa)
#
#
# Indices 1 2 3 4 5 6 
#
# 1 132.9131 42.3778 49.7628 -1.9682 10.6727 -1.6739
# 2 42.3778 92.0865 32.3332 -23.3520 1.4865 0.9285
# 3 49.7628 32.3332 126.1710 -1.5648 6.3685 -9.7599
# 4 -1.9682 -23.3520 -1.5648 34.3477 -0.7068 6.3497
# 5 10.6727 1.4865 6.3685 -0.7068 46.7890 -1.6391
# 6 -1.6739 0.9285 -9.7599 6.3497 -1.6391 28.7723
#
#
#
# Elastic Compliance Matrix: (Units=1/GPa)
#
#
# Indices 1 2 3 4 5 6 
#
# 1 0.010034 -0.004250 -0.002791 -0.002521 -0.001804 0.000228
# 2 -0.004250 0.016881 -0.002882 0.011924 0.000853 -0.004352
# 3 -0.002791 -0.002882 0.010060 -0.002381 -0.000543 0.003838
# 4 -0.002521 0.011924 -0.002381 0.038806 0.000761 -0.009860
# 5 -0.001804 0.000853 -0.000543 0.000761 0.021869 0.000761
# 6 0.000228 -0.004352 0.003838 -0.009860 0.000761 0.038431
#
#
# Mechanical properties :
#
#
# Convention : Reuss Voigt Hill
#
# Bulk Modulus (GPa) = 58.37905 66.67979 62.52942
# Shear Modulus (GPa) = 30.93369 37.09489 34.01429
#
# Velocity S-wave (km/s) = 3.82546 4.18914 4.01143
# Velocity P-wave (km/s) = 6.86515 7.41239 7.14401
#
# Compressibility (1/GPa) = 0.01712943
#
# Stress axis : x y z
#
# Youngs Moduli (GPa) = 99.65946 59.23820 99.40676
#
# Poissons Ratio (x) = 0.25177 0.27744
# Poissons Ratio (y) = 0.42357 0.28645
# Poissons Ratio (z) = 0.27815 0.17070
#
# Static dielectric constant tensor:
#      x y z
#    x 3.957440 0.024570 0.009220 
#    y 0.024570 3.875340 -0.116940 
#    z 0.009220 -0.116940 4.082960 
# 
# 
# High freq. dielectric constant tensor:
#      x y z
#    x 1.844680 0.001370 0.004670 
#    y 0.001370 1.838860 -0.004250 
#    z 0.004670 -0.004250 1.841680 
# 
# From -- ./inp_files/190159.got.cif
#   From: 2010.06.25/outbox.cif.g09.slc.cpg/sg2_96_cif.got.tgz:190159.got - 2010.06.27 13:26:56.
