data_PCOD8034940
_publ_section_title
;
Structure prediction by ZEFSAII (Michael W. Deem and Ramdas Pophale) SiO2 
 PCOD8034940
Probable space group: P -1
;
_chemical_formula_sum "Si O2"
_cell_formula_units_Z 14
_cell_length_a 12.152615
_cell_length_b 5.372667
_cell_length_c 8.729796
_cell_angle_alpha 94.924869
_cell_angle_beta 97.282488
_cell_angle_gamma 99.336636
_cell_volume 554.590347
_symmetry_space_group_name_H-M "P -1"
_symmetry_group_IT_number 2
_symmetry_cell_setting 'triclinic'
loop_
_space_group_symop_operation_xyz
x,y,z
-x,-y,-z
loop_
_atom_site_type_symbol
_atom_site_label
_atom_site_fract_x
_atom_site_fract_y
_atom_site_fract_z
Si Si1 0.413537 0.233906 0.562903
Si Si2 0.335903 0.563040 0.810350
Si Si3 0.818174 0.064896 0.524928
Si Si4 0.125584 0.823956 0.791428
Si Si5 0.123671 0.388077 0.284153
Si Si6 0.538192 0.902051 0.750158
Si Si7 0.262781 0.218816 0.046112
O O1 0.348619 0.433781 0.641905
O O2 0.459112 0.306540 0.400975
O O3 0.317863 0.979472 0.512877
O O4 0.513433 0.162138 0.683929
O O5 0.213805 0.633869 0.794122
O O6 0.439380 0.799733 0.849373
O O7 0.345024 0.380578 0.945719
O O8 0.874109 0.044220 0.367324
O O9 0.858668 0.345041 0.613019
O O10 0.857801 0.847723 0.621250
O O11 0.004069 0.666257 0.803017
O O12 0.160509 0.033034 0.939216
O O13 0.209238 0.406093 0.157234
O O14 0.659154 0.948662 0.856685
#
# Coordination Sequence:
#
# PCOD8034940 Si02
#       7
#     2   2   2   2   2   2   2
#     4  11  24  46  78 108 155 193 269 317 386 452
#     4  12  25  45  73 109 156 205 251 319 386 458
#     4  12  25  52  80 113 149 202 265 319 377 453
#     4  12  28  49  76 110 157 200 257 322 385 456
#     4  12  30  50  82 114 154 205 264 316 384 456
#     4  11  25  46  74 110 150 204 259 316 390 455
#     4  12  28  46  74 111 161 199 255 313 397 460
#
# _framework density 25.243859
#
# number of rings (size 3 to 8) (size 9 to 14) (size 15 to 20)
#    0.000    0.286    4.286    3.000    4.000    6.286 
#    0.000    0.000    0.000    0.000    0.000    0.000 
#    0.000    0.000    0.000    0.000    0.000    0.000 
#
# Total GULP energy -173648.139944 kJ/mol
# GULP energy per Si atom -12403.438567 kJ/mol
# Density = 2.518640 g / cm^3
# Si number density = 25.243859 Si / 1000 Ang^3
#
#
#
# Elastic Constant Matrix: (Units=GPa)
#
#
# Indices 1 2 3 4 5 6 
#
# 1 128.9590 22.6052 30.8942 -2.0521 7.4489 10.0631
# 2 22.6052 90.4157 37.5208 -4.3868 8.8709 -12.0096
# 3 30.8942 37.5208 104.9124 -0.3664 10.0963 5.3063
# 4 -2.0521 -4.3868 -0.3664 28.8245 9.3660 -10.6021
# 5 7.4489 8.8709 10.0963 9.3660 28.8306 5.0774
# 6 10.0631 -12.0096 5.3063 -10.6021 5.0774 34.4895
#
#
#
# Elastic Compliance Matrix: (Units=1/GPa)
#
#
# Indices 1 2 3 4 5 6 
#
# 1 0.008747 -0.001904 -0.001712 -0.000755 -0.000276 -0.003143
# 2 -0.001904 0.016189 -0.005027 0.008609 -0.007410 0.010703
# 3 -0.001712 -0.005027 0.012110 -0.001644 -0.001109 -0.003456
# 4 -0.000755 0.008609 -0.001644 0.051625 -0.022642 0.022674
# 5 -0.000276 -0.007410 -0.001109 -0.022642 0.047652 -0.016305
# 6 -0.003143 0.010703 -0.003456 0.022674 -0.016305 0.043540
#
#
# Mechanical properties :
#
#
# Convention : Reuss Voigt Hill
#
# Bulk Modulus (GPa) = 50.60815 56.25860 53.43338
# Shear Modulus (GPa) = 24.54152 33.98005 29.26078
#
# Velocity S-wave (km/s) = 3.12136 3.67287 3.40829
# Velocity P-wave (km/s) = 5.75167 6.34988 6.05817
#
# Compressibility (1/GPa) = 0.01975966
#
# Stress axis : x y z
#
# Youngs Moduli (GPa) = 114.31891 61.77193 82.57849
#
# Poissons Ratio (x) = 0.11758 0.14140
# Poissons Ratio (y) = 0.21761 0.41514
# Poissons Ratio (z) = 0.19574 0.31054
#
# Static dielectric constant tensor:
#      x y z
#    x 4.754040 0.120580 -0.137020 
#    y 0.120580 4.329360 -0.087790 
#    z -0.137020 -0.087790 4.806950 
# 
# 
# High freq. dielectric constant tensor:
#      x y z
#    x 2.020410 0.002150 -0.006560 
#    y 0.002150 1.997170 -0.002990 
#    z -0.006560 -0.002990 2.016370 
# 
# From -- ./inp_files/229918.got.cif
#   From: 2010.06.25/outbox.cif.g09.slc.cpg/sg2_115_cif.got.tgz:229918.got - 2010.06.27 13:26:56.
