data_PCOD8034234
_publ_section_title
;
Structure prediction by ZEFSAII (Michael W. Deem and Ramdas Pophale) SiO2 
 PCOD8034234
Probable space group: P -1
;
_chemical_formula_sum "Si O2"
_cell_formula_units_Z 16
_cell_length_a 12.502126
_cell_length_b 23.061446
_cell_length_c 9.995435
_cell_angle_alpha 35.859562
_cell_angle_beta 42.671631
_cell_angle_gamma 26.780152
_cell_volume 759.895224
_symmetry_space_group_name_H-M "P -1"
_symmetry_group_IT_number 2
_symmetry_cell_setting 'triclinic'
loop_
_space_group_symop_operation_xyz
x,y,z
-x,-y,-z
loop_
_atom_site_type_symbol
_atom_site_label
_atom_site_fract_x
_atom_site_fract_y
_atom_site_fract_z
Si Si1 0.533217 0.519657 0.284557
Si Si2 0.003270 0.779247 0.672279
Si Si3 0.975054 0.673892 0.151554
Si Si4 0.744248 0.842267 0.530883
Si Si5 0.137990 0.939713 0.625001
Si Si6 0.965775 0.212851 0.875522
Si Si7 0.695830 0.645930 0.608297
Si Si8 0.792404 0.602741 0.890622
O O1 0.500000 0.500000 0.500000
O O2 0.710248 0.365006 0.326755
O O3 0.286260 0.627077 0.235998
O O4 0.613816 0.595577 0.079764
O O5 0.933058 0.771016 0.607307
O O6 0.908091 0.933947 0.497009
O O7 0.905324 0.749856 0.928772
O O8 0.764731 0.698147 0.341864
O O9 0.978308 0.766253 0.072154
O O10 0.230466 0.496798 0.250104
O O11 0.667701 0.764800 0.730004
O O12 0.835719 0.848918 0.297946
O O13 0.500000 0.000000 0.500000
O O14 0.416728 0.785911 0.633973
O O15 0.034041 0.905776 0.884372
O O16 0.000000 0.000000 0.500000
O O17 0.864211 0.576502 0.716338
O O18 0.000000 0.500000 0.000000
#
# Coordination Sequence:
#
# PCOD8034234 Si02
#       8
#     2   2   2   2   2   2   2   2
#     4  12  25  45  73 104 137 176 233 289 339 408
#     4  12  25  45  69 100 137 180 230 281 345 407
#     4  11  24  44  74  99 133 178 238 283 343 402
#     4  12  27  45  70  99 138 182 225 280 343 410
#     4  12  27  44  68 101 145 183 225 280 353 414
#     4  12  25  46  72 101 138 182 229 289 343 406
#     4  11  24  44  69 103 136 181 226 290 342 412
#     4  12  21  44  71  99 134 176 232 283 338 401
#
# _framework density 21.055534000000002
#
# number of rings (size 3 to 8) (size 9 to 14) (size 15 to 20)
#    0.000    0.250    7.500    0.750    1.750    4.000 
#    0.000    0.000    0.000    0.000    0.000    0.000 
#    0.000    0.000    0.000    0.000    0.000    0.000 
#
# Total GULP energy -198343.532314 kJ/mol
# GULP energy per Si atom -12396.470770 kJ/mol
# Density = 2.100761 g / cm^3
# Si number density = 21.055534 Si / 1000 Ang^3
#
#
#
# Elastic Constant Matrix: (Units=GPa)
#
#
# Indices 1 2 3 4 5 6 
#
# 1 55.1199 25.7197 15.8263 -0.2940 0.6865 13.8570
# 2 25.7197 133.7854 59.2501 1.6812 -18.2832 4.6311
# 3 15.8263 59.2501 135.8821 -3.1864 -9.2363 18.8181
# 4 -0.2940 1.6812 -3.1864 24.4625 12.3820 2.7920
# 5 0.6865 -18.2832 -9.2363 12.3820 48.1401 -7.3919
# 6 13.8570 4.6311 18.8181 2.7920 -7.3919 34.2744
#
#
#
# Elastic Compliance Matrix: (Units=1/GPa)
#
#
# Indices 1 2 3 4 5 6 
#
# 1 0.023021 -0.005125 0.000772 0.004380 -0.004857 -0.010443
# 2 -0.005125 0.011147 -0.004655 -0.004661 0.005326 0.004650
# 3 0.000772 -0.004655 0.010069 0.003075 -0.001527 -0.005792
# 4 0.004380 -0.004661 0.003075 0.050906 -0.015935 -0.010413
# 5 -0.004857 0.005326 -0.001527 -0.015935 0.028121 0.009445
# 6 -0.010443 0.004650 -0.005792 -0.010413 0.009445 0.038835
#
#
# Mechanical properties :
#
#
# Convention : Reuss Voigt Hill
#
# Bulk Modulus (GPa) = 38.13542 58.48664 48.31103
# Shear Modulus (GPa) = 26.47528 36.30815 31.39172
#
# Velocity S-wave (km/s) = 3.54983 4.15709 3.86541
# Velocity P-wave (km/s) = 5.91210 7.13299 6.55105
#
# Compressibility (1/GPa) = 0.02622234
#
# Stress axis : x y z
#
# Youngs Moduli (GPa) = 43.43847 89.71104 99.31043
#
# Poissons Ratio (x) = 0.45976 -0.07669
# Poissons Ratio (y) = 0.22262 0.46227
# Poissons Ratio (z) = -0.03354 0.41759
#
# Static dielectric constant tensor:
#      x y z
#    x 4.253260 0.039100 -0.232220 
#    y 0.039100 3.896050 0.035210 
#    z -0.232220 0.035210 4.487510 
# 
# 
# High freq. dielectric constant tensor:
#      x y z
#    x 1.824420 0.013740 0.003370 
#    y 0.013740 1.824050 -0.003050 
#    z 0.003370 -0.003050 1.851010 
# 
# From -- ./inp_files/184341.got.cif
#   From: 2010.06.25/outbox.cif.g09.slc.cpg/sg2_93_cif.got.tgz:184341.got - 2010.06.27 13:26:56.
