data_PCOD8034019
_publ_section_title
;
Structure prediction by ZEFSAII (Michael W. Deem and Ramdas Pophale) SiO2 
 PCOD8034019
Probable space group: P -1
;
_chemical_formula_sum "Si O2"
_cell_formula_units_Z 14
_cell_length_a 19.319440
_cell_length_b 9.646366
_cell_length_c 12.302710
_cell_angle_alpha 131.971927
_cell_angle_beta 26.143752
_cell_angle_gamma 142.708069
_cell_volume 603.169574
_symmetry_space_group_name_H-M "P -1"
_symmetry_group_IT_number 2
_symmetry_cell_setting 'triclinic'
loop_
_space_group_symop_operation_xyz
x,y,z
-x,-y,-z
loop_
_atom_site_type_symbol
_atom_site_label
_atom_site_fract_x
_atom_site_fract_y
_atom_site_fract_z
Si Si1 0.500596 0.102924 0.441276
Si Si2 0.167811 0.561935 0.150435
Si Si3 0.950563 0.144558 0.079385
Si Si4 0.196176 0.482812 0.296679
Si Si5 0.796410 0.761744 0.642619
Si Si6 0.446354 0.049977 0.924889
Si Si7 0.141183 0.420834 0.756998
O O1 0.645324 0.382448 0.390527
O O2 0.500000 0.000000 0.500000
O O3 0.282369 0.005044 0.665095
O O4 0.586964 0.014339 0.188668
O O5 0.206562 0.438973 0.129330
O O6 0.067188 0.399320 0.102402
O O7 0.027460 0.629911 0.421927
O O8 0.369443 0.812452 0.971659
O O9 0.032912 0.189327 0.863135
O O10 0.000000 0.000000 0.000000
O O11 0.273838 0.380888 0.218331
O O12 0.323962 0.763044 0.275680
O O13 0.823216 0.625416 0.439832
O O14 0.648545 0.817491 0.841512
O O15 0.000000 0.000000 0.500000
O O16 0.000000 0.500000 0.000000
#
# Coordination Sequence:
#
# PCOD8034019 Si02
#       7
#     2   2   2   2   2   2   2
#     4  12  25  45  79 104 142 199 242 292 366 435
#     4  11  24  46  69 101 144 191 228 294 362 428
#     4  12  28  46  74 107 147 191 246 299 361 433
#     4  11  24  43  70 101 145 184 230 291 365 416
#     4  12  26  44  73 110 141 182 244 301 350 421
#     4  12  24  46  73 105 141 185 247 293 355 430
#     4  12  25  49  75 105 148 193 242 300 362 435
#
# _framework density 23.210718
#
# number of rings (size 3 to 8) (size 9 to 14) (size 15 to 20)
#    0.000    0.286    5.714    3.429    2.000    1.714 
#    2.571    0.000    0.000    0.000    0.000    0.000 
#    0.000    0.000    0.000    0.000    0.000    0.000 
#
# Total GULP energy -173559.044744 kJ/mol
# GULP energy per Si atom -12397.074625 kJ/mol
# Density = 2.315789 g / cm^3
# Si number density = 23.210718 Si / 1000 Ang^3
#
#
#
# Elastic Constant Matrix: (Units=GPa)
#
#
# Indices 1 2 3 4 5 6 
#
# 1 126.8719 33.7609 40.3560 1.2488 10.8762 -14.7825
# 2 33.7609 106.7986 41.9040 -27.9055 -8.5616 6.3077
# 3 40.3560 41.9040 83.1289 -1.9769 10.6098 -3.9386
# 4 1.2488 -27.9055 -1.9769 42.3888 1.6343 -0.6172
# 5 10.8762 -8.5616 10.6098 1.6343 35.0719 -1.9021
# 6 -14.7825 6.3077 -3.9386 -0.6172 -1.9021 55.0496
#
#
#
# Elastic Compliance Matrix: (Units=1/GPa)
#
#
# Indices 1 2 3 4 5 6 
#
# 1 0.010225 -0.003034 -0.003008 -0.002293 -0.002745 0.002758
# 2 -0.003034 0.016826 -0.007760 0.010501 0.006747 -0.002947
# 3 -0.003008 -0.007760 0.018154 -0.003917 -0.006210 0.001122
# 4 -0.002293 0.010501 -0.003917 0.030251 0.002960 -0.001658
# 5 -0.002745 0.006747 -0.006210 0.002960 0.032709 -0.000791
# 6 0.002758 -0.002947 0.001122 -0.001658 -0.000791 0.019278
#
#
# Mechanical properties :
#
#
# Convention : Reuss Voigt Hill
#
# Bulk Modulus (GPa) = 56.81377 60.98236 58.89807
# Shear Modulus (GPa) = 31.07235 39.88729 35.47982
#
# Velocity S-wave (km/s) = 3.66280 4.14996 3.91397
# Velocity P-wave (km/s) = 6.51296 7.02092 6.77171
#
# Compressibility (1/GPa) = 0.01760137
#
# Stress axis : x y z
#
# Youngs Moduli (GPa) = 97.79523 59.43139 55.08461
#
# Poissons Ratio (x) = 0.18034 0.16569
# Poissons Ratio (y) = 0.29674 0.42744
# Poissons Ratio (z) = 0.29417 0.46117
#
# Static dielectric constant tensor:
#      x y z
#    x 4.769460 0.107860 0.658840 
#    y 0.107860 4.250030 -0.086280 
#    z 0.658840 -0.086280 3.907900 
# 
# 
# High freq. dielectric constant tensor:
#      x y z
#    x 1.930560 0.007990 0.012620 
#    y 0.007990 1.921500 -0.029210 
#    z 0.012620 -0.029210 1.909840 
# 
# From -- ./inp_files/280000.got.cif
#   From: 2010.06.25/outbox.cif.g09.slc.cpg/sg2_140_cif.got.tgz:280000.got - 2010.06.27 13:26:56.
