data_PCOD8034530
_publ_section_title
;
Structure prediction by ZEFSAII (Michael W. Deem and Ramdas Pophale) SiO2 
 PCOD8034530
Probable space group: P -1
;
_chemical_formula_sum "Si O2"
_cell_formula_units_Z 16
_cell_length_a 15.403694
_cell_length_b 9.097716
_cell_length_c 15.289484
_cell_angle_alpha 109.584980
_cell_angle_beta 153.776194
_cell_angle_gamma 86.463780
_cell_volume 730.339205
_symmetry_space_group_name_H-M "P -1"
_symmetry_group_IT_number 2
_symmetry_cell_setting 'triclinic'
loop_
_space_group_symop_operation_xyz
x,y,z
-x,-y,-z
loop_
_atom_site_type_symbol
_atom_site_label
_atom_site_fract_x
_atom_site_fract_y
_atom_site_fract_z
Si Si1 0.874955 0.405164 0.777957
Si Si2 0.082995 0.251289 0.180809
Si Si3 0.860147 0.049532 0.445571
Si Si4 0.494477 0.649844 0.086064
Si Si5 0.962557 0.437084 0.555069
Si Si6 0.659915 0.577760 0.384569
Si Si7 0.692077 0.837887 0.781519
Si Si8 0.854787 0.760379 0.087598
O O1 0.945362 0.575497 0.809424
O O2 0.588988 0.259450 0.497963
O O3 0.975322 0.291637 0.810196
O O4 0.000000 0.500000 0.000000
O O5 0.224236 0.273185 0.401300
O O6 0.239109 0.275447 0.241653
O O7 0.824356 0.051495 0.906111
O O8 0.843905 0.213305 0.420106
O O9 0.991684 0.096719 0.667137
O O10 0.592266 0.853032 0.170047
O O11 0.000000 0.000000 0.500000
O O12 0.669351 0.697107 0.334782
O O13 0.500000 0.500000 0.000000
O O14 0.226401 0.557888 0.859771
O O15 0.798363 0.482500 0.467421
O O16 0.000000 0.500000 0.500000
O O17 0.386283 0.417898 0.126390
O O18 0.780246 0.849041 0.962483
#
# Coordination Sequence:
#
# PCOD8034530 Si02
#       8
#     2   2   2   2   2   2   2   2
#     4  12  24  45  71 100 140 187 226 286 349 407
#     4  11  24  45  70 104 140 182 230 289 350 407
#     4  12  25  46  72 102 140 183 230 293 350 410
#     4  12  24  48  68  97 140 178 232 290 349 416
#     4  12  26  46  71 102 136 183 233 285 351 416
#     4  12  24  46  72  99 141 183 233 292 348 416
#     4  11  25  46  69 103 143 180 235 287 343 422
#     4  12  25  46  72 101 142 186 236 283 352 415
#
# _framework density 21.907627999999999
#
# number of rings (size 3 to 8) (size 9 to 14) (size 15 to 20)
#    0.000    0.250    6.250    2.625    0.000    2.000 
#    4.500    0.000    0.000    0.000    0.000    0.000 
#    0.000    0.000    0.000    0.000    0.000    0.000 
#
# Total GULP energy -198405.920786 kJ/mol
# GULP energy per Si atom -12400.370049 kJ/mol
# Density = 2.185776 g / cm^3
# Si number density = 21.907628 Si / 1000 Ang^3
#
#
#
# Elastic Constant Matrix: (Units=GPa)
#
#
# Indices 1 2 3 4 5 6 
#
# 1 115.1686 37.4488 51.6049 -6.5152 -9.5778 2.3942
# 2 37.4488 99.3798 62.3473 8.2528 20.1537 8.2404
# 3 51.6049 62.3473 129.3788 4.7996 8.1797 -2.0104
# 4 -6.5152 8.2528 4.7996 42.4965 8.5320 1.5605
# 5 -9.5778 20.1537 8.1797 8.5320 50.7068 -7.0102
# 6 2.3942 8.2404 -2.0104 1.5605 -7.0102 32.4198
#
#
#
# Elastic Compliance Matrix: (Units=1/GPa)
#
#
# Indices 1 2 3 4 5 6 
#
# 1 0.011679 -0.003235 -0.003406 0.002031 0.003764 0.000465
# 2 -0.003235 0.017614 -0.006788 -0.001497 -0.007112 -0.006125
# 3 -0.003406 -0.006788 0.012397 -0.000831 0.000598 0.002915
# 4 0.002031 -0.001497 -0.000831 0.024959 -0.003328 -0.001742
# 5 0.003764 -0.007112 0.000598 -0.003328 0.024699 0.007068
# 6 0.000465 -0.006125 0.002915 -0.001742 0.007068 0.034161
#
#
# Mechanical properties :
#
#
# Convention : Reuss Voigt Hill
#
# Bulk Modulus (GPa) = 67.41466 71.85881 69.63673
# Shear Modulus (GPa) = 31.78412 37.95971 34.87192
#
# Velocity S-wave (km/s) = 3.81310 4.16711 3.99403
# Velocity P-wave (km/s) = 7.08699 7.48499 7.28870
#
# Compressibility (1/GPa) = 0.01483357
#
# Stress axis : x y z
#
# Youngs Moduli (GPa) = 85.62419 56.77183 80.66404
#
# Poissons Ratio (x) = 0.18364 0.27471
# Poissons Ratio (y) = 0.27698 0.54755
# Poissons Ratio (z) = 0.29160 0.38537
#
# Static dielectric constant tensor:
#      x y z
#    x 4.237230 0.331250 -0.114470 
#    y 0.331250 4.792260 -0.080040 
#    z -0.114470 -0.080040 4.080700 
# 
# 
# High freq. dielectric constant tensor:
#      x y z
#    x 1.875760 0.011700 -0.002060 
#    y 0.011700 1.863290 0.001010 
#    z -0.002060 0.001010 1.872620 
# 
# From -- ./inp_files/315232.got.cif
#   From: 2010.06.25/outbox.cif.g09.slc.cpg/sg2_158_cif.got.tgz:315232.got - 2010.06.27 13:26:56.
