data_PCOD8034903
_publ_section_title
;
Structure prediction by ZEFSAII (Michael W. Deem and Ramdas Pophale) SiO2 
 PCOD8034903
Probable space group: P -1
;
_chemical_formula_sum "Si O2"
_cell_formula_units_Z 14
_cell_length_a 15.226451
_cell_length_b 10.805141
_cell_length_c 5.497106
_cell_angle_alpha 58.840324
_cell_angle_beta 103.215000
_cell_angle_gamma 130.643927
_cell_volume 578.988494
_symmetry_space_group_name_H-M "P -1"
_symmetry_group_IT_number 2
_symmetry_cell_setting 'triclinic'
loop_
_space_group_symop_operation_xyz
x,y,z
-x,-y,-z
loop_
_atom_site_type_symbol
_atom_site_label
_atom_site_fract_x
_atom_site_fract_y
_atom_site_fract_z
Si Si1 0.929873 0.956459 0.247799
Si Si2 0.477226 0.561201 0.172587
Si Si3 0.075187 0.490072 0.246006
Si Si4 0.737573 0.538952 0.663004
Si Si5 0.374024 0.042575 0.311965
Si Si6 0.551334 0.158705 0.673125
Si Si7 0.878072 0.190020 0.754249
O O1 0.811847 0.741403 0.377507
O O2 0.000000 0.000000 0.500000
O O3 0.892515 0.086819 0.082370
O O4 0.000000 0.000000 0.000000
O O5 0.500000 0.500000 0.500000
O O6 0.340241 0.472673 0.157382
O O7 0.500000 0.500000 0.000000
O O8 0.559246 0.788020 0.015426
O O9 0.172705 0.495534 0.159606
O O10 0.137183 0.667112 0.284362
O O11 0.991349 0.296393 0.542124
O O12 0.000000 0.500000 0.000000
O O13 0.644384 0.375454 0.584652
O O14 0.441817 0.135765 0.514543
O O15 0.382240 0.879161 0.434454
O O16 0.239045 0.955750 0.331622
O O17 0.500000 0.000000 0.000000
#
# Coordination Sequence:
#
# PCOD8034903 Si02
#       7
#     2   2   2   2   2   2   2
#     4  12  28  52  78 119 164 218 274 327 408 490
#     4  12  28  51  76 116 155 208 267 329 408 484
#     4  11  25  46  75 114 155 211 268 330 410 477
#     4  12  25  51  83 111 169 212 273 339 414 483
#     4  11  25  44  76 110 157 205 267 337 405 479
#     4  11  24  46  74 116 153 209 271 331 411 482
#     4  11  25  46  73 113 161 204 271 337 396 489
#
# _framework density 24.180099999999999
#
# number of rings (size 3 to 8) (size 9 to 14) (size 15 to 20)
#    0.000    0.571    4.286    2.571    2.000    3.429 
#    5.143    0.000    0.000    0.000    0.000    0.000 
#    0.000    0.000    0.000    0.000    0.000    0.000 
#
# Total GULP energy -173546.996760 kJ/mol
# GULP energy per Si atom -12396.214054 kJ/mol
# Density = 2.412506 g / cm^3
# Si number density = 24.180100 Si / 1000 Ang^3
#
#
#
# Elastic Constant Matrix: (Units=GPa)
#
#
# Indices 1 2 3 4 5 6 
#
# 1 186.8354 57.7749 60.8988 4.5509 -0.7722 20.1038
# 2 57.7749 155.8977 84.0490 -15.4491 -0.2504 25.0631
# 3 60.8988 84.0490 151.9182 0.4498 19.5075 12.3933
# 4 4.5509 -15.4491 0.4498 50.2186 5.9476 1.0236
# 5 -0.7722 -0.2504 19.5075 5.9476 42.2333 9.3202
# 6 20.1038 25.0631 12.3933 1.0236 9.3202 40.9663
#
#
#
# Elastic Compliance Matrix: (Units=1/GPa)
#
#
# Indices 1 2 3 4 5 6 
#
# 1 0.006654 -0.001047 -0.002119 -0.001067 0.001765 -0.002358
# 2 -0.001047 0.011083 -0.005720 0.003260 0.003420 -0.005395
# 3 -0.002119 -0.005720 0.011118 -0.001054 -0.005606 0.002478
# 4 -0.001067 0.003260 -0.001054 0.021313 -0.002256 -0.001171
# 5 0.001765 0.003420 -0.005606 -0.002256 0.028326 -0.007651
# 6 -0.002358 -0.005395 0.002478 -0.001171 -0.007651 0.029889
#
#
# Mechanical properties :
#
#
# Convention : Reuss Voigt Hill
#
# Bulk Modulus (GPa) = 90.24567 100.01075 95.12821
# Shear Modulus (GPa) = 38.50623 46.14556 42.32589
#
# Velocity S-wave (km/s) = 3.99491 4.37328 4.18837
# Velocity P-wave (km/s) = 7.66045 8.18238 7.92571
#
# Compressibility (1/GPa) = 0.01108086
#
# Stress axis : x y z
#
# Youngs Moduli (GPa) = 150.28801 90.23179 89.94768
#
# Poissons Ratio (x) = 0.09449 0.19060
# Poissons Ratio (y) = 0.15739 0.51453
# Poissons Ratio (z) = 0.31846 0.51616
#
# Static dielectric constant tensor:
#      x y z
#    x 4.818340 -0.191040 0.234190 
#    y -0.191040 4.686510 -0.384220 
#    z 0.234190 -0.384220 4.474610 
# 
# 
# High freq. dielectric constant tensor:
#      x y z
#    x 1.969130 0.001660 0.014500 
#    y 0.001660 1.967280 -0.018410 
#    z 0.014500 -0.018410 1.959270 
# 
# From -- ./inp_files/94338.got.cif
#   From: 2010.06.25/outbox.cif.g09.slc.cpg/sg2_48_cif.got.tgz:94338.got - 2010.06.27 13:26:56.
