data_PCOD8034901
_publ_section_title
;
Structure prediction by ZEFSAII (Michael W. Deem and Ramdas Pophale) SiO2 
 PCOD8034901
Probable space group: P -1
;
_chemical_formula_sum "Si O2"
_cell_formula_units_Z 16
_cell_length_a 9.635535
_cell_length_b 15.231487
_cell_length_c 12.053311
_cell_angle_alpha 35.414367
_cell_angle_beta 139.033665
_cell_angle_gamma 136.018354
_cell_volume 646.314467
_symmetry_space_group_name_H-M "P -1"
_symmetry_group_IT_number 2
_symmetry_cell_setting 'triclinic'
loop_
_space_group_symop_operation_xyz
x,y,z
-x,-y,-z
loop_
_atom_site_type_symbol
_atom_site_label
_atom_site_fract_x
_atom_site_fract_y
_atom_site_fract_z
Si Si1 0.650921 0.833557 0.284589
Si Si2 0.212878 0.610947 0.957737
Si Si3 0.312813 0.991736 0.307137
Si Si4 0.456884 0.940534 0.853322
Si Si5 0.760685 0.372655 0.651387
Si Si6 0.516473 0.425842 0.250943
Si Si7 0.995221 0.295572 0.468195
Si Si8 0.796048 0.704697 0.992173
O O1 0.428503 0.690066 0.306707
O O2 0.866710 0.772701 0.468643
O O3 0.677473 0.943253 0.297244
O O4 0.637287 0.929049 0.065760
O O5 0.283750 0.774147 0.897371
O O6 0.178042 0.642408 0.773661
O O7 0.405195 0.524562 0.165749
O O8 0.000000 0.500000 0.000000
O O9 0.120272 0.833223 0.377956
O O10 0.500000 0.000000 0.500000
O O11 0.408181 0.984138 0.250806
O O12 0.222751 0.145030 0.104070
O O13 0.652483 0.333613 0.503585
O O14 0.848976 0.560901 0.518477
O O15 0.946338 0.282702 0.879480
O O16 0.329082 0.300456 0.196381
O O17 0.690919 0.540686 0.158766
#
# Coordination Sequence:
#
# PCOD8034901 Si02
#       8
#     2   2   2   2   2   2   2   2
#     4  11  28  49  73 110 156 200 260 318 381 470
#     4  12  23  45  77 110 151 203 252 318 383 455
#     4  12  27  50  78 113 157 202 256 324 385 462
#     4  11  26  49  71 106 157 201 250 317 385 451
#     4  12  26  49  80 113 152 202 261 316 384 461
#     4  11  24  46  74 110 154 198 254 322 376 458
#     4  12  26  47  79 116 150 201 262 314 388 460
#     4  11  26  46  75 112 154 200 256 312 391 455
#
# _framework density 24.755752000000001
#
# number of rings (size 3 to 8) (size 9 to 14) (size 15 to 20)
#    0.000    0.500    3.750    3.000    7.000    2.000 
#    0.000    0.000    0.000    0.000    0.000    0.000 
#    0.000    0.000    0.000    0.000    0.000    0.000 
#
# Total GULP energy -198494.483597 kJ/mol
# GULP energy per Si atom -12405.905225 kJ/mol
# Density = 2.469941 g / cm^3
# Si number density = 24.755752 Si / 1000 Ang^3
#
#
#
# Elastic Constant Matrix: (Units=GPa)
#
#
# Indices 1 2 3 4 5 6 
#
# 1 147.0263 57.2625 39.2625 -5.8312 -9.5460 0.3949
# 2 57.2625 132.0300 33.3585 -11.4240 -6.4692 -2.4231
# 3 39.2625 33.3585 82.4523 13.0158 -10.7433 -8.6789
# 4 -5.8312 -11.4240 13.0158 43.3746 -1.6815 -6.6361
# 5 -9.5460 -6.4692 -10.7433 -1.6815 44.9067 -0.6641
# 6 0.3949 -2.4231 -8.6789 -6.6361 -0.6641 38.4250
#
#
#
# Elastic Compliance Matrix: (Units=1/GPa)
#
#
# Indices 1 2 3 4 5 6 
#
# 1 0.008904 -0.002902 -0.003260 0.001322 0.000733 -0.000770
# 2 -0.002902 0.009902 -0.003050 0.003222 0.000208 0.000525
# 3 -0.003260 -0.003050 0.016427 -0.005669 0.002624 0.002618
# 4 0.001322 0.003222 -0.005669 0.026329 0.000426 0.003464
# 5 0.000733 0.000208 0.002624 0.000426 0.023114 0.001071
# 6 -0.000770 0.000525 0.002618 0.003464 0.001071 0.027274
#
#
# Mechanical properties :
#
#
# Convention : Reuss Voigt Hill
#
# Bulk Modulus (GPa) = 59.49461 69.03062 64.26262
# Shear Modulus (GPa) = 36.77068 40.78292 38.77680
#
# Velocity S-wave (km/s) = 3.85819 4.06324 3.96204
# Velocity P-wave (km/s) = 6.62815 7.06813 6.85167
#
# Compressibility (1/GPa) = 0.01680824
#
# Stress axis : x y z
#
# Youngs Moduli (GPa) = 112.30291 100.98979 60.87483
#
# Poissons Ratio (x) = 0.29308 0.19847
# Poissons Ratio (y) = 0.32591 0.18569
# Poissons Ratio (z) = 0.36614 0.30806
#
# Static dielectric constant tensor:
#      x y z
#    x 4.562060 -0.043790 -0.017680 
#    y -0.043790 4.530820 -0.040970 
#    z -0.017680 -0.040970 4.552590 
# 
# 
# High freq. dielectric constant tensor:
#      x y z
#    x 1.992540 -0.001550 0.000020 
#    y -0.001550 1.989130 -0.006420 
#    z 0.000020 -0.006420 1.989410 
# 
# From -- ./inp_files/398476.got.cif
#   From: 2010.06.25/outbox.cif.g09.slc.cpg/sg2_200_cif.got.tgz:398476.got - 2010.06.27 13:26:56.
