data_PCOD8034221
_publ_section_title
;
Structure prediction by ZEFSAII (Michael W. Deem and Ramdas Pophale) SiO2 
 PCOD8034221
Probable space group: P -1
;
_chemical_formula_sum "Si O2"
_cell_formula_units_Z 16
_cell_length_a 9.667332
_cell_length_b 8.592593
_cell_length_c 12.198818
_cell_angle_alpha 122.945517
_cell_angle_beta 60.083529
_cell_angle_gamma 92.397585
_cell_volume 699.444695
_symmetry_space_group_name_H-M "P -1"
_symmetry_group_IT_number 2
_symmetry_cell_setting 'triclinic'
loop_
_space_group_symop_operation_xyz
x,y,z
-x,-y,-z
loop_
_atom_site_type_symbol
_atom_site_label
_atom_site_fract_x
_atom_site_fract_y
_atom_site_fract_z
Si Si1 0.877334 0.398997 0.827008
Si Si2 0.809475 0.099491 0.076988
Si Si3 0.314287 0.188215 0.842430
Si Si4 0.989400 0.575786 0.652456
Si Si5 0.684018 0.119920 0.714252
Si Si6 0.686381 0.486673 0.384639
Si Si7 0.694972 0.952276 0.872894
Si Si8 0.772718 0.835512 0.374955
O O1 0.973712 0.419111 0.685576
O O2 0.741750 0.298597 0.804215
O O3 0.033294 0.252669 0.774981
O O4 0.816856 0.599245 0.997071
O O5 0.742414 0.330584 0.206355
O O6 0.702826 0.985420 0.141034
O O7 0.772226 0.101691 0.962312
O O8 0.000000 0.000000 0.000000
O O9 0.488608 0.220720 0.813356
O O10 0.320258 0.112981 0.685622
O O11 0.815272 0.751437 0.800357
O O12 0.000000 0.500000 0.500000
O O13 0.170736 0.607811 0.614908
O O14 0.720440 0.957060 0.734222
O O15 0.762472 0.020021 0.529733
O O16 0.500000 0.500000 0.500000
O O17 0.688006 0.695706 0.420364
O O18 0.500000 0.000000 0.000000
#
# Coordination Sequence:
#
# PCOD8034221 Si02
#       8
#     2   2   2   2   2   2   2   2
#     4  11  24  45  67 100 132 176 225 270 337 402
#     4  12  24  44  70  99 132 179 227 275 336 396
#     4  12  25  46  67 100 138 172 225 280 329 401
#     4  11  24  44  68  98 138 173 221 282 331 398
#     4  12  26  45  68 100 134 179 223 272 342 396
#     4  11  25  44  67 101 134 173 229 272 339 400
#     4  12  24  44  70  97 137 175 225 282 328 396
#     4  11  26  46  67  98 137 176 221 278 332 401
#
# _framework density 22.87529
#
# number of rings (size 3 to 8) (size 9 to 14) (size 15 to 20)
#    0.000    0.500    3.750    4.500    5.250    2.000 
#    0.000    0.000    0.000    0.000    0.000    0.000 
#    0.000    0.000    0.000    0.000    0.000    0.000 
#
# Total GULP energy -198251.224605 kJ/mol
# GULP energy per Si atom -12390.701538 kJ/mol
# Density = 2.282323 g / cm^3
# Si number density = 22.875290 Si / 1000 Ang^3
#
#
#
# Elastic Constant Matrix: (Units=GPa)
#
#
# Indices 1 2 3 4 5 6 
#
# 1 155.2098 12.2747 33.3130 -14.5346 -3.9558 3.6142
# 2 12.2747 34.0815 9.9501 3.2240 8.6341 4.8812
# 3 33.3130 9.9501 93.5989 -2.2071 15.7189 1.2613
# 4 -14.5346 3.2240 -2.2071 30.5322 0.1804 4.1070
# 5 -3.9558 8.6341 15.7189 0.1804 56.3758 1.3163
# 6 3.6142 4.8812 1.2613 4.1070 1.3163 30.7134
#
#
#
# Elastic Compliance Matrix: (Units=1/GPa)
#
#
# Indices 1 2 3 4 5 6 
#
# 1 0.007638 -0.002639 -0.002617 0.003845 0.001680 -0.000958
# 2 -0.002639 0.032990 -0.001839 -0.004296 -0.004616 -0.004085
# 3 -0.002617 -0.001839 0.012367 -0.000173 -0.003356 0.000259
# 4 0.003845 -0.004296 -0.000173 0.035632 0.000968 -0.004569
# 5 0.001680 -0.004616 -0.003356 0.000968 0.019502 -0.000292
# 6 -0.000958 -0.004085 0.000259 -0.004569 -0.000292 0.033934
#
#
# Mechanical properties :
#
#
# Convention : Reuss Voigt Hill
#
# Bulk Modulus (GPa) = 25.76949 43.77397 34.77173
# Shear Modulus (GPa) = 29.55308 38.68110 34.11709
#
# Velocity S-wave (km/s) = 3.59823 4.11658 3.86610
# Velocity P-wave (km/s) = 5.34347 6.46316 5.92980
#
# Compressibility (1/GPa) = 0.03880558
#
# Stress axis : x y z
#
# Youngs Moduli (GPa) = 130.91821 30.31266 80.86303
#
# Poissons Ratio (x) = 0.08000 0.21158
# Poissons Ratio (y) = 0.34551 0.14869
# Poissons Ratio (z) = 0.34256 0.05574
#
# Static dielectric constant tensor:
#      x y z
#    x 4.320650 0.284390 0.422910 
#    y 0.284390 3.519140 -0.471010 
#    z 0.422910 -0.471010 3.416750 
# 
# 
# High freq. dielectric constant tensor:
#      x y z
#    x 1.932310 0.000220 0.003320 
#    y 0.000220 1.880340 0.005820 
#    z 0.003320 0.005820 1.914460 
# 
# From -- ./inp_files/383120.got.cif
#   From: 2010.06.25/outbox.cif.g09.slc.cpg/sg2_192_cif.got.tgz:383120.got - 2010.06.27 13:26:56.
