data_PCOD8034714
_publ_section_title
;
Structure prediction by ZEFSAII (Michael W. Deem and Ramdas Pophale) SiO2 
 PCOD8034714
Probable space group: P -1
;
_chemical_formula_sum "Si O2"
_cell_formula_units_Z 12
_cell_length_a 8.903055
_cell_length_b 11.284876
_cell_length_c 14.124264
_cell_angle_alpha 149.297412
_cell_angle_beta 39.474749
_cell_angle_gamma 129.918363
_cell_volume 459.562322
_symmetry_space_group_name_H-M "P -1"
_symmetry_group_IT_number 2
_symmetry_cell_setting 'triclinic'
loop_
_space_group_symop_operation_xyz
x,y,z
-x,-y,-z
loop_
_atom_site_type_symbol
_atom_site_label
_atom_site_fract_x
_atom_site_fract_y
_atom_site_fract_z
Si Si1 0.535477 0.089681 0.939529
Si Si2 0.663451 0.308102 0.345880
Si Si3 0.031964 0.226924 0.813113
Si Si4 0.854536 0.644554 0.950506
Si Si5 0.736762 0.430663 0.599770
Si Si6 0.668993 0.195732 0.671774
O O1 0.814700 0.087837 0.787131
O O2 0.418955 0.937830 0.813558
O O3 0.429293 0.343859 0.143973
O O4 0.500000 0.000000 0.000000
O O5 0.500000 0.500000 0.500000
O O6 0.626767 0.320203 0.484201
O O7 0.945015 0.324946 0.204576
O O8 0.248743 0.080351 0.553786
O O9 0.000000 0.500000 0.000000
O O10 0.054745 0.220801 0.910631
O O11 0.820223 0.364873 0.781065
O O12 0.599628 0.772960 0.138344
O O13 0.707407 0.265769 0.590976
O O14 0.000000 0.500000 0.500000
#
# Coordination Sequence:
#
# PCOD8034714 Si02
#       6
#     2   2   2   2   2   2
#     4  12  24  44  75 109 150 196 256 308 376 451
#     4  12  24  45  78 115 152 202 252 311 378 453
#     4  12  26  49  76 107 152 205 253 318 384 458
#     4  11  24  45  76 109 152 198 254 312 386 451
#     4  12  25  45  76 114 151 199 253 313 378 448
#     4  11  26  48  74 111 154 197 257 319 381 458
#
# _framework density 26.111802999999998
#
# number of rings (size 3 to 8) (size 9 to 14) (size 15 to 20)
#    0.000    0.333    5.000    3.500    0.000    2.667 
#    0.000    6.667    0.000    0.000    0.000    0.000 
#    0.000    0.000    0.000    0.000    0.000    0.000 
#
# Total GULP energy -148733.098386 kJ/mol
# GULP energy per Si atom -12394.424865 kJ/mol
# Density = 2.605237 g / cm^3
# Si number density = 26.111803 Si / 1000 Ang^3
#
#
#
# Elastic Constant Matrix: (Units=GPa)
#
#
# Indices 1 2 3 4 5 6 
#
# 1 99.4962 38.4107 45.8395 -5.7629 17.5722 33.7567
# 2 38.4107 89.6016 49.4827 -7.0890 -10.2931 29.6998
# 3 45.8395 49.4827 197.4170 13.4163 -0.3040 21.0120
# 4 -5.7629 -7.0890 13.4163 43.7301 9.2226 -0.2618
# 5 17.5722 -10.2931 -0.3040 9.2226 51.5185 1.6069
# 6 33.7567 29.6998 21.0120 -0.2618 1.6069 40.3989
#
#
#
# Elastic Compliance Matrix: (Units=1/GPa)
#
#
# Indices 1 2 3 4 5 6 
#
# 1 0.017461 -0.003063 -0.002418 0.003948 -0.006953 -0.010778
# 2 -0.003063 0.017845 -0.002939 0.002397 0.004450 -0.009192
# 3 -0.002418 -0.002939 0.006484 -0.002944 0.000779 0.000759
# 4 0.003948 0.002397 -0.002944 0.025801 -0.005406 -0.003148
# 5 -0.006953 0.004450 0.000779 -0.005406 0.023607 0.001158
# 6 -0.010778 -0.009192 0.000759 -0.003148 0.001158 0.040055
#
#
# Mechanical properties :
#
#
# Convention : Reuss Voigt Hill
#
# Bulk Modulus (GPa) = 40.08412 72.66451 56.37432
# Shear Modulus (GPa) = 31.96718 43.98162 37.97440
#
# Velocity S-wave (km/s) = 3.50271 4.10855 3.81767
# Velocity P-wave (km/s) = 5.63409 7.09898 6.40853
#
# Compressibility (1/GPa) = 0.02494754
#
# Stress axis : x y z
#
# Youngs Moduli (GPa) = 57.27159 56.03951 154.22168
#
# Poissons Ratio (x) = 0.17167 0.37296
# Poissons Ratio (y) = 0.17545 0.45328
# Poissons Ratio (z) = 0.13850 0.16471
#
# Static dielectric constant tensor:
#      x y z
#    x 5.199090 0.295400 0.196970 
#    y 0.295400 4.612020 0.040320 
#    z 0.196970 0.040320 5.308270 
# 
# 
# High freq. dielectric constant tensor:
#      x y z
#    x 2.059980 0.016320 0.010710 
#    y 0.016320 2.041580 -0.001370 
#    z 0.010710 -0.001370 2.066230 
# 
# From -- ./inp_files/501053.got.cif
#   From: 2010.06.25/outbox.cif.g09.slc.cpg/sg2_251_cif.got.tgz:501053.got - 2010.06.27 13:26:56.
