data_PCOD8034733
_publ_section_title
;
Structure prediction by ZEFSAII (Michael W. Deem and Ramdas Pophale) SiO2 
 PCOD8034733
Probable space group: P -1
;
_chemical_formula_sum "Si O2"
_cell_formula_units_Z 16
_cell_length_a 8.525845
_cell_length_b 11.167619
_cell_length_c 14.908197
_cell_angle_alpha 129.221507
_cell_angle_beta 130.121221
_cell_angle_gamma 43.328761
_cell_volume 707.699423
_symmetry_space_group_name_H-M "P -1"
_symmetry_group_IT_number 2
_symmetry_cell_setting 'triclinic'
loop_
_space_group_symop_operation_xyz
x,y,z
-x,-y,-z
loop_
_atom_site_type_symbol
_atom_site_label
_atom_site_fract_x
_atom_site_fract_y
_atom_site_fract_z
Si Si1 0.634122 0.564257 0.514742
Si Si2 0.777108 0.028621 0.489249
Si Si3 0.100500 0.609169 0.137469
Si Si4 0.949935 0.412087 0.242834
Si Si5 0.202055 0.014768 0.132538
Si Si6 0.342240 0.646161 0.743422
Si Si7 0.937375 0.034108 0.751515
Si Si8 0.733115 0.758215 0.227043
O O1 0.500000 0.500000 0.500000
O O2 0.463495 0.777944 0.531257
O O3 0.893654 0.512606 0.622852
O O4 0.719195 0.443604 0.400916
O O5 0.822698 0.022094 0.609634
O O6 0.729121 0.872124 0.366297
O O7 0.000000 0.000000 0.500000
O O8 0.370777 0.450538 0.188660
O O9 0.089154 0.770376 0.150898
O O10 0.949880 0.718756 0.221930
O O11 0.000000 0.500000 0.000000
O O12 0.773845 0.384160 0.226912
O O13 0.774529 0.563024 0.177080
O O14 0.146027 0.214447 0.179494
O O15 0.475861 0.866686 0.130084
O O16 0.203981 0.987611 0.228111
O O17 0.000000 0.000000 0.000000
O O18 0.219519 0.863343 0.780880
#
# Coordination Sequence:
#
# PCOD8034733 Si02
#       8
#     2   2   2   2   2   2   2   2
#     4  12  23  41  72 107 150 181 239 299 359 444
#     4  12  22  43  70 109 147 181 234 297 371 424
#     4  12  28  45  70 107 141 192 249 299 359 426
#     4  11  25  45  71 105 139 194 235 293 369 428
#     4  11  28  49  71 104 146 198 249 293 354 435
#     4  11  24  46  68 100 145 188 238 293 361 429
#     4  11  25  47  74 103 149 191 236 306 363 429
#     4  12  26  45  76 104 145 188 237 306 364 428
#
# _framework density 22.608468999999999
#
# number of rings (size 3 to 8) (size 9 to 14) (size 15 to 20)
#    0.000    0.500    3.750    4.125    5.250    3.500 
#    0.000    0.000    0.000    0.000    0.000    0.000 
#    0.000    0.000    0.000    0.000    0.000    0.000 
#
# Total GULP energy -198389.430795 kJ/mol
# GULP energy per Si atom -12399.339425 kJ/mol
# Density = 2.255701 g / cm^3
# Si number density = 22.608469 Si / 1000 Ang^3
#
#
#
# Elastic Constant Matrix: (Units=GPa)
#
#
# Indices 1 2 3 4 5 6 
#
# 1 54.3090 34.4255 16.3367 -11.9956 2.7908 -9.1477
# 2 34.4255 189.9450 29.1711 2.1444 13.9365 -4.5858
# 3 16.3367 29.1711 91.2838 -2.0471 20.1312 -1.2104
# 4 -11.9956 2.1444 -2.0471 35.6099 -2.6280 10.6534
# 5 2.7908 13.9365 20.1312 -2.6280 36.7345 -3.8940
# 6 -9.1477 -4.5858 -1.2104 10.6534 -3.8940 45.0896
#
#
#
# Elastic Compliance Matrix: (Units=1/GPa)
#
#
# Indices 1 2 3 4 5 6 
#
# 1 0.023959 -0.004022 -0.003317 0.007457 0.002354 0.002804
# 2 -0.004022 0.006289 -0.000961 -0.001947 -0.001681 0.000113
# 3 -0.003317 -0.000961 0.013337 -0.000534 -0.006823 -0.000876
# 4 0.007457 -0.001947 -0.000534 0.032706 0.002143 -0.006242
# 5 0.002354 -0.001681 -0.006823 0.002143 0.031825 0.002366
# 6 0.002804 0.000113 -0.000876 -0.006242 0.002366 0.024414
#
#
# Mechanical properties :
#
#
# Convention : Reuss Voigt Hill
#
# Bulk Modulus (GPa) = 37.05974 55.04492 46.05233
# Shear Modulus (GPa) = 31.62027 40.52709 36.07368
#
# Velocity S-wave (km/s) = 3.74385 4.23846 3.99881
# Velocity P-wave (km/s) = 5.92588 6.95360 6.46021
#
# Compressibility (1/GPa) = 0.02698346
#
# Stress axis : x y z
#
# Youngs Moduli (GPa) = 41.73786 158.99937 74.97971
#
# Poissons Ratio (x) = 0.63951 0.24873
# Poissons Ratio (y) = 0.16787 0.07209
# Poissons Ratio (z) = 0.13846 0.15288
#
# Static dielectric constant tensor:
#      x y z
#    x 3.956900 0.005890 -0.134200 
#    y 0.005890 4.592310 0.206280 
#    z -0.134200 0.206280 3.876210 
# 
# 
# High freq. dielectric constant tensor:
#      x y z
#    x 1.884430 -0.005370 0.003470 
#    y -0.005370 1.923640 0.005100 
#    z 0.003470 0.005100 1.884820 
# 
# From -- ./inp_files/259002.got.cif
#   From: 2010.06.25/outbox.cif.g09.slc.cpg/sg2_130_cif.got.tgz:259002.got - 2010.06.27 13:26:56.
