data_PCOD8034359
_publ_section_title
;
Structure prediction by ZEFSAII (Michael W. Deem and Ramdas Pophale) SiO2 
 PCOD8034359
Probable space group: P -1
;
_chemical_formula_sum "Si O2"
_cell_formula_units_Z 16
_cell_length_a 8.810264
_cell_length_b 10.149165
_cell_length_c 12.067552
_cell_angle_alpha 123.732903
_cell_angle_beta 59.577126
_cell_angle_gamma 114.229637
_cell_volume 761.151764
_symmetry_space_group_name_H-M "P -1"
_symmetry_group_IT_number 2
_symmetry_cell_setting 'triclinic'
loop_
_space_group_symop_operation_xyz
x,y,z
-x,-y,-z
loop_
_atom_site_type_symbol
_atom_site_label
_atom_site_fract_x
_atom_site_fract_y
_atom_site_fract_z
Si Si1 0.471158 0.552295 0.857388
Si Si2 0.482978 0.619012 0.461838
Si Si3 0.882610 0.328537 0.431008
Si Si4 0.110251 0.777205 0.386982
Si Si5 0.265971 0.120279 0.405442
Si Si6 0.552593 0.147750 0.128730
Si Si7 0.790506 0.543609 0.892910
Si Si8 0.927609 0.164344 0.120748
O O1 0.475572 0.432907 0.699451
O O2 0.406549 0.706919 0.904204
O O3 0.666750 0.586295 0.857795
O O4 0.322730 0.473099 0.961552
O O5 0.500000 0.500000 0.500000
O O6 0.280295 0.632619 0.560256
O O7 0.607602 0.793837 0.504807
O O8 0.813192 0.229450 0.520596
O O9 0.964259 0.215575 0.260841
O O10 0.000000 0.500000 0.500000
O O11 0.128387 0.617059 0.237783
O O12 0.906157 0.794894 0.489900
O O13 0.220749 0.929122 0.352261
O O14 0.374602 0.160265 0.270178
O O15 0.722059 0.139436 0.142095
O O16 0.500000 0.000000 0.000000
O O17 0.952933 0.690827 0.924333
O O18 0.000000 0.000000 0.000000
#
# Coordination Sequence:
#
# PCOD8034359 Si02
#       8
#     2   2   2   2   2   2   2   2
#     4  11  24  44  72  98 140 185 222 286 349 411
#     4  12  22  43  70 103 132 178 232 282 342 417
#     4  12  23  43  74 101 137 184 232 288 347 416
#     4  11  25  44  69 100 140 181 232 289 346 405
#     4  11  26  44  68 100 139 178 235 285 344 412
#     4  12  26  46  68  98 140 184 227 284 355 413
#     4  11  25  47  68 104 140 181 233 282 351 415
#     4  12  27  45  71 106 139 182 236 288 344 422
#
# _framework density 21.020775
#
# number of rings (size 3 to 8) (size 9 to 14) (size 15 to 20)
#    0.000    0.500    5.000    2.250    5.250    3.000 
#    2.250    0.000    0.000    0.000    0.000    0.000 
#    0.000    0.000    0.000    0.000    0.000    0.000 
#
# Total GULP energy -198332.936870 kJ/mol
# GULP energy per Si atom -12395.808554 kJ/mol
# Density = 2.097293 g / cm^3
# Si number density = 21.020775 Si / 1000 Ang^3
#
#
#
# Elastic Constant Matrix: (Units=GPa)
#
#
# Indices 1 2 3 4 5 6 
#
# 1 105.9621 42.3361 36.7934 0.6025 -4.3912 8.5089
# 2 42.3361 104.2003 44.7377 8.7555 -2.7103 5.9505
# 3 36.7934 44.7377 142.7909 4.0847 9.6657 8.1013
# 4 0.6025 8.7555 4.0847 42.0870 -1.6786 2.8135
# 5 -4.3912 -2.7103 9.6657 -1.6786 38.1427 2.3398
# 6 8.5089 5.9505 8.1013 2.8135 2.3398 38.5263
#
#
#
# Elastic Compliance Matrix: (Units=1/GPa)
#
#
# Indices 1 2 3 4 5 6 
#
# 1 0.011878 -0.003965 -0.001861 0.001024 0.001713 -0.001798
# 2 -0.003965 0.012714 -0.002952 -0.002232 0.001120 -0.000372
# 3 -0.001861 -0.002952 0.008633 -0.000248 -0.002575 -0.000774
# 4 0.001024 -0.002232 -0.000248 0.024394 0.001199 -0.001684
# 5 0.001713 0.001120 -0.002575 0.001199 0.027307 -0.001756
# 6 -0.001798 -0.000372 -0.000774 -0.001684 -0.001756 0.026803
#
#
# Mechanical properties :
#
#
# Convention : Reuss Voigt Hill
#
# Bulk Modulus (GPa) = 63.83225 66.74310 65.28767
# Shear Modulus (GPa) = 37.17220 39.02361 38.09791
#
# Velocity S-wave (km/s) = 4.20974 4.31331 4.26184
# Velocity P-wave (km/s) = 7.35265 7.52503 7.43934
#
# Compressibility (1/GPa) = 0.01566606
#
# Stress axis : x y z
#
# Youngs Moduli (GPa) = 84.19238 78.65652 115.83243
#
# Poissons Ratio (x) = 0.31191 0.21560
# Poissons Ratio (y) = 0.33386 0.34197
# Poissons Ratio (z) = 0.15671 0.23222
#
# Static dielectric constant tensor:
#      x y z
#    x 4.021190 0.051760 -0.018460 
#    y 0.051760 3.773700 0.095870 
#    z -0.018460 0.095870 4.084960 
# 
# 
# High freq. dielectric constant tensor:
#      x y z
#    x 1.830720 0.001890 -0.002820 
#    y 0.001890 1.825420 0.002260 
#    z -0.002820 0.002260 1.844210 
# 
# From -- ./inp_files/383130.got.cif
#   From: 2010.06.25/outbox.cif.g09.slc.cpg/sg2_192_cif.got.tgz:383130.got - 2010.06.27 13:26:56.
