data_PCOD8034791
_publ_section_title
;
Structure prediction by ZEFSAII (Michael W. Deem and Ramdas Pophale) SiO2 
 PCOD8034791
Probable space group: P -1
;
_chemical_formula_sum "Si O2"
_cell_formula_units_Z 16
_cell_length_a 8.909416
_cell_length_b 15.554287
_cell_length_c 11.532540
_cell_angle_alpha 134.895045
_cell_angle_beta 38.765841
_cell_angle_gamma 131.478031
_cell_volume 685.909840
_symmetry_space_group_name_H-M "P -1"
_symmetry_group_IT_number 2
_symmetry_cell_setting 'triclinic'
loop_
_space_group_symop_operation_xyz
x,y,z
-x,-y,-z
loop_
_atom_site_type_symbol
_atom_site_label
_atom_site_fract_x
_atom_site_fract_y
_atom_site_fract_z
Si Si1 0.772177 0.813471 0.800201
Si Si2 0.591798 0.046802 0.114587
Si Si3 0.968755 0.730293 0.006420
Si Si4 0.655558 0.141969 0.532101
Si Si5 0.616131 0.792942 0.454715
Si Si6 0.445557 0.315801 0.970996
Si Si7 0.359347 0.361138 0.489062
Si Si8 0.949266 0.479596 0.877634
O O1 0.614904 0.747193 0.719847
O O2 0.059280 0.857432 0.638960
O O3 0.717609 0.716436 0.845840
O O4 0.683264 0.934508 0.010887
O O5 0.373587 0.080909 0.355304
O O6 0.819639 0.170377 0.093354
O O7 0.500000 0.000000 0.000000
O O8 0.875072 0.798433 0.238148
O O9 0.738075 0.668022 0.004281
O O10 0.077599 0.613873 0.868539
O O11 0.596969 0.214051 0.520212
O O12 0.585501 0.209692 0.752145
O O13 0.500000 0.000000 0.500000
O O14 0.562233 0.674184 0.462922
O O15 0.657180 0.443484 0.988883
O O16 0.500000 0.500000 0.500000
O O17 0.072454 0.368172 0.659504
O O18 0.000000 0.500000 0.000000
#
# Coordination Sequence:
#
# PCOD8034791 Si02
#       8
#     2   2   2   2   2   2   2   2
#     4  12  25  45  71 103 142 181 233 289 350 417
#     4  12  26  43  70 106 139 182 235 291 352 417
#     4  11  26  47  71 101 142 183 236 291 351 419
#     4  11  24  47  71 104 141 186 236 289 350 428
#     4  11  24  46  70  98 140 181 232 287 353 404
#     4  11  25  45  71 105 140 186 233 291 355 420
#     4  12  25  45  68 104 143 184 235 287 354 422
#     4  12  24  45  73 102 140 184 236 290 350 420
#
# _framework density 23.326682000000002
#
# number of rings (size 3 to 8) (size 9 to 14) (size 15 to 20)
#    0.000    0.500    3.750    4.875    1.750    2.000 
#    2.250    1.250    0.000    0.000    0.000    0.000 
#    0.000    0.000    0.000    0.000    0.000    0.000 
#
# Total GULP energy -198370.734023 kJ/mol
# GULP energy per Si atom -12398.170876 kJ/mol
# Density = 2.327359 g / cm^3
# Si number density = 23.326682 Si / 1000 Ang^3
#
#
#
# Elastic Constant Matrix: (Units=GPa)
#
#
# Indices 1 2 3 4 5 6 
#
# 1 101.0319 39.8256 14.6168 -0.2179 6.0355 -3.4332
# 2 39.8256 123.4015 15.3108 3.2413 -0.9780 -6.1528
# 3 14.6168 15.3108 94.5033 12.4394 9.4599 -6.5372
# 4 -0.2179 3.2413 12.4394 36.2797 -7.1499 -1.4933
# 5 6.0355 -0.9780 9.4599 -7.1499 37.1820 4.5721
# 6 -3.4332 -6.1528 -6.5372 -1.4933 4.5721 41.2941
#
#
#
# Elastic Compliance Matrix: (Units=1/GPa)
#
#
# Indices 1 2 3 4 5 6 
#
# 1 0.011592 -0.003611 -0.001067 0.000447 -0.001676 0.000458
# 2 -0.003611 0.009446 -0.000963 -0.000321 0.000914 0.000842
# 3 -0.001067 -0.000963 0.012077 -0.004786 -0.004086 0.001959
# 4 0.000447 -0.000321 -0.004786 0.030613 0.007078 -0.000445
# 5 -0.001676 0.000914 -0.004086 0.007078 0.030049 -0.003721
# 6 0.000458 0.000842 0.001959 -0.000445 -0.003721 0.025086
#
#
# Mechanical properties :
#
#
# Convention : Reuss Voigt Hill
#
# Bulk Modulus (GPa) = 45.80190 50.93811 48.37001
# Shear Modulus (GPa) = 36.38385 39.56339 37.97362
#
# Velocity S-wave (km/s) = 3.95365 4.12279 4.03911
# Velocity P-wave (km/s) = 6.36549 6.67439 6.52177
#
# Compressibility (1/GPa) = 0.02183316
#
# Stress axis : x y z
#
# Youngs Moduli (GPa) = 86.26412 105.86360 82.80028
#
# Poissons Ratio (x) = 0.38227 0.08838
# Poissons Ratio (y) = 0.31149 0.07974
# Poissons Ratio (z) = 0.09207 0.10195
#
# Static dielectric constant tensor:
#      x y z
#    x 4.259770 -0.157530 -0.253170 
#    y -0.157530 4.080010 0.235950 
#    z -0.253170 0.235950 5.123680 
# 
# 
# High freq. dielectric constant tensor:
#      x y z
#    x 1.924760 -0.010990 -0.000070 
#    y -0.010990 1.914500 0.005400 
#    z -0.000070 0.005400 1.938980 
# 
# From -- ./inp_files/350028.got.cif
#   From: 2010.06.25/outbox.cif.g09.slc.cpg/sg2_176_cif.got.tgz:350028.got - 2010.06.27 13:26:56.
