data_PCOD8034883
_publ_section_title
;
Structure prediction by ZEFSAII (Michael W. Deem and Ramdas Pophale) SiO2 
 PCOD8034883
Probable space group: P -1
;
_chemical_formula_sum "Si O2"
_cell_formula_units_Z 16
_cell_length_a 9.796958
_cell_length_b 11.286762
_cell_length_c 9.167623
_cell_angle_alpha 56.182438
_cell_angle_beta 122.696823
_cell_angle_gamma 103.984979
_cell_volume 706.229087
_symmetry_space_group_name_H-M "P -1"
_symmetry_group_IT_number 2
_symmetry_cell_setting 'triclinic'
loop_
_space_group_symop_operation_xyz
x,y,z
-x,-y,-z
loop_
_atom_site_type_symbol
_atom_site_label
_atom_site_fract_x
_atom_site_fract_y
_atom_site_fract_z
Si Si1 0.272878 0.911413 0.369888
Si Si2 0.992505 0.505768 0.317784
Si Si3 0.011379 0.035476 0.648523
Si Si4 0.246558 0.252769 0.567082
Si Si5 0.437484 0.630105 0.269486
Si Si6 0.341813 0.495735 0.008889
Si Si7 0.877842 0.205882 0.904283
Si Si8 0.627718 0.802947 0.643592
O O1 0.152433 0.903692 0.168480
O O2 0.431298 0.800380 0.520641
O O3 0.159646 0.876848 0.466107
O O4 0.329612 0.069474 0.314208
O O5 0.000000 0.500000 0.500000
O O6 0.133292 0.401757 0.393551
O O7 0.012411 0.667661 0.165941
O O8 0.820820 0.448097 0.210294
O O9 0.159732 0.134252 0.690092
O O10 0.000000 0.000000 0.500000
O O11 0.032619 0.886837 0.852092
O O12 0.409692 0.277172 0.733938
O O13 0.290320 0.193884 0.470503
O O14 0.500000 0.500000 0.500000
O O15 0.365724 0.584728 0.106838
O O16 0.299506 0.729899 0.197884
O O17 0.306103 0.337220 0.139214
O O18 0.500000 0.500000 0.000000
#
# Coordination Sequence:
#
# PCOD8034883 Si02
#       8
#     2   2   2   2   2   2   2   2
#     4  11  24  46  74 102 148 198 248 302 375 446
#     4  12  28  47  79 112 151 198 256 319 377 455
#     4  12  28  45  73 111 151 195 254 312 373 453
#     4  12  25  48  77 110 154 192 251 311 378 446
#     4  12  24  48  77 109 150 198 249 318 378 452
#     4  12  28  44  74 111 148 194 256 305 386 445
#     4  12  26  47  79 104 152 200 250 307 390 437
#     4  11  24  46  74 102 148 199 244 306 372 453
#
# _framework density 22.655536000000001
#
# number of rings (size 3 to 8) (size 9 to 14) (size 15 to 20)
#    0.000    0.250    5.000    2.625    5.250    3.500 
#    0.000    0.000    0.000    0.000    0.000    0.000 
#    0.000    0.000    0.000    0.000    0.000    0.000 
#
# Total GULP energy -198423.217773 kJ/mol
# GULP energy per Si atom -12401.451111 kJ/mol
# Density = 2.260397 g / cm^3
# Si number density = 22.655536 Si / 1000 Ang^3
#
#
#
# Elastic Constant Matrix: (Units=GPa)
#
#
# Indices 1 2 3 4 5 6 
#
# 1 156.4316 35.9793 40.3922 9.2402 5.0166 4.7432
# 2 35.9793 117.6644 43.3794 20.8990 -7.2423 7.5063
# 3 40.3922 43.3794 105.2474 20.2285 -6.3493 1.3435
# 4 9.2402 20.8990 20.2285 45.9387 7.5113 -3.5234
# 5 5.0166 -7.2423 -6.3493 7.5113 39.8010 0.1371
# 6 4.7432 7.5063 1.3435 -3.5234 0.1371 51.1818
#
#
#
# Elastic Compliance Matrix: (Units=1/GPa)
#
#
# Indices 1 2 3 4 5 6 
#
# 1 0.007404 -0.001554 -0.002399 0.000525 -0.001697 -0.000355
# 2 -0.001554 0.011045 -0.003035 -0.003907 0.002465 -0.001672
# 3 -0.002399 -0.003035 0.012614 -0.004102 0.002536 0.000047
# 4 0.000525 -0.003907 -0.004102 0.026489 -0.006439 0.002473
# 5 -0.001697 0.002465 0.002536 -0.006439 0.027410 -0.000787
# 6 -0.000355 -0.001672 0.000047 0.002473 -0.000787 0.019987
#
#
# Mechanical properties :
#
#
# Convention : Reuss Voigt Hill
#
# Bulk Modulus (GPa) = 58.52916 68.76058 63.64487
# Shear Modulus (GPa) = 40.12136 44.69047 42.40591
#
# Velocity S-wave (km/s) = 4.21281 4.44622 4.33109
# Velocity P-wave (km/s) = 7.03947 7.53491 7.29140
#
# Compressibility (1/GPa) = 0.01708550
#
# Stress axis : x y z
#
# Youngs Moduli (GPa) = 135.06572 90.53690 79.27647
#
# Poissons Ratio (x) = 0.14072 0.19022
# Poissons Ratio (y) = 0.20993 0.24060
# Poissons Ratio (z) = 0.32409 0.27478
#
# Static dielectric constant tensor:
#      x y z
#    x 4.738870 0.100710 0.175640 
#    y 0.100710 4.550370 0.031130 
#    z 0.175640 0.031130 4.035520 
# 
# 
# High freq. dielectric constant tensor:
#      x y z
#    x 1.919460 0.000910 0.011790 
#    y 0.000910 1.911660 0.011220 
#    z 0.011790 0.011220 1.878170 
# 
# From -- ./inp_files/185360.got.cif
#   From: 2010.06.25/outbox.cif.g09.slc.cpg/sg2_93_cif.got.tgz:185360.got - 2010.06.27 13:26:56.
