data_PCOD8034501
_publ_section_title
;
Structure prediction by ZEFSAII (Michael W. Deem and Ramdas Pophale) SiO2 
 PCOD8034501
Probable space group: P -1
;
_chemical_formula_sum "Si O2"
_cell_formula_units_Z 14
_cell_length_a 9.896594
_cell_length_b 22.521897
_cell_length_c 8.250857
_cell_angle_alpha 136.510772
_cell_angle_beta 44.252554
_cell_angle_gamma 151.818909
_cell_volume 580.806329
_symmetry_space_group_name_H-M "P -1"
_symmetry_group_IT_number 2
_symmetry_cell_setting 'triclinic'
loop_
_space_group_symop_operation_xyz
x,y,z
-x,-y,-z
loop_
_atom_site_type_symbol
_atom_site_label
_atom_site_fract_x
_atom_site_fract_y
_atom_site_fract_z
Si Si1 0.005254 0.903339 0.012700
Si Si2 0.324198 0.623740 0.532118
Si Si3 0.119695 0.825483 0.457669
Si Si4 0.478885 0.452023 0.598095
Si Si5 0.581131 0.150700 0.176360
Si Si6 0.373983 0.062347 0.545324
Si Si7 0.771214 0.693965 0.038398
O O1 0.881315 0.958288 0.220043
O O2 0.781465 0.775061 0.062600
O O3 0.335002 0.012395 0.020325
O O4 0.009331 0.859616 0.748969
O O5 0.354586 0.585800 0.606352
O O6 0.411084 0.752356 0.719417
O O7 0.567815 0.654473 0.281075
O O8 0.000000 0.500000 0.500000
O O9 0.363350 0.844497 0.364816
O O10 0.865465 0.676658 0.321049
O O11 0.242477 0.920728 0.386836
O O12 0.500000 0.500000 0.500000
O O13 0.624821 0.561829 0.822483
O O14 0.494860 0.126177 0.390927
O O15 0.899180 0.216061 0.007851
#
# Coordination Sequence:
#
# PCOD8034501 Si02
#       7
#     2   2   2   2   2   2   2
#     4  12  24  43  73 106 142 192 238 296 362 422
#     4  12  28  50  76 106 141 190 249 299 358 434
#     4  11  26  45  68 104 150 191 236 297 363 425
#     4  12  25  49  73 103 151 191 236 297 365 431
#     4  12  25  45  74 106 143 186 246 299 357 424
#     4  11  24  45  69 105 144 189 243 298 355 426
#     4  12  26  47  74 105 146 192 241 299 364 428
#
# _framework density 24.104419
#
# number of rings (size 3 to 8) (size 9 to 14) (size 15 to 20)
#    0.000    0.286    5.714    2.571    2.000    1.143 
#    2.571    1.429    0.000    0.000    0.000    0.000 
#    0.000    0.000    0.000    0.000    0.000    0.000 
#
# Total GULP energy -173603.798874 kJ/mol
# GULP energy per Si atom -12400.271348 kJ/mol
# Density = 2.404956 g / cm^3
# Si number density = 24.104419 Si / 1000 Ang^3
#
#
#
# Elastic Constant Matrix: (Units=GPa)
#
#
# Indices 1 2 3 4 5 6 
#
# 1 131.2363 42.9082 10.9880 -10.0401 -14.3944 -12.8792
# 2 42.9082 147.9729 10.6441 5.6918 -2.2250 13.7618
# 3 10.9880 10.6441 61.0553 -22.1905 -1.4931 5.4431
# 4 -10.0401 5.6918 -22.1905 44.6855 6.3420 -6.9783
# 5 -14.3944 -2.2250 -1.4931 6.3420 21.6977 -2.3733
# 6 -12.8792 13.7618 5.4431 -6.9783 -2.3733 58.5893
#
#
#
# Elastic Compliance Matrix: (Units=1/GPa)
#
#
# Indices 1 2 3 4 5 6 
#
# 1 0.009832 -0.003107 -0.000676 0.001959 0.005960 0.003429
# 2 -0.003107 0.008141 -0.001681 -0.002896 -0.000804 -0.002817
# 3 -0.000676 -0.001681 0.020617 0.010554 -0.002342 -0.000507
# 4 0.001959 -0.002896 0.010554 0.029905 -0.006638 0.003423
# 5 0.005960 -0.000804 -0.002342 -0.006638 0.052070 0.003035
# 6 0.003429 -0.002817 -0.000507 0.003423 0.003035 0.019061
#
#
# Mechanical properties :
#
#
# Convention : Reuss Voigt Hill
#
# Bulk Modulus (GPa) = 36.15007 52.14947 44.14977
# Shear Modulus (GPa) = 31.29378 43.37610 37.33494
#
# Velocity S-wave (km/s) = 3.60705 4.24666 3.93986
# Velocity P-wave (km/s) = 5.69013 6.76220 6.24919
#
# Compressibility (1/GPa) = 0.02766246
#
# Stress axis : x y z
#
# Youngs Moduli (GPa) = 101.70453 122.83285 48.50370
#
# Poissons Ratio (x) = 0.38166 0.03278
# Poissons Ratio (y) = 0.31601 0.08154
# Poissons Ratio (z) = 0.06873 0.20650
#
# Static dielectric constant tensor:
#      x y z
#    x 4.832390 -0.207950 -0.186790 
#    y -0.207950 4.897450 0.097890 
#    z -0.186790 0.097890 4.135060 
# 
# 
# High freq. dielectric constant tensor:
#      x y z
#    x 1.980840 -0.007030 -0.006550 
#    y -0.007030 1.979700 0.001230 
#    z -0.006550 0.001230 1.938560 
# 
# From -- ./inp_files/224008.got.cif
#   From: 2010.06.25/outbox.cif.g09.slc.cpg/sg2_113_cif.got.tgz:224008.got - 2010.06.27 13:26:56.
