data_PCOD8034658
_publ_section_title
;
Structure prediction by ZEFSAII (Michael W. Deem and Ramdas Pophale) SiO2 
 PCOD8034658
Probable space group: P -1
;
_chemical_formula_sum "Si O2"
_cell_formula_units_Z 16
_cell_length_a 8.852929
_cell_length_b 14.142418
_cell_length_c 11.892121
_cell_angle_alpha 108.421163
_cell_angle_beta 131.628085
_cell_angle_gamma 108.471662
_cell_volume 706.971291
_symmetry_space_group_name_H-M "P -1"
_symmetry_group_IT_number 2
_symmetry_cell_setting 'triclinic'
loop_
_space_group_symop_operation_xyz
x,y,z
-x,-y,-z
loop_
_atom_site_type_symbol
_atom_site_label
_atom_site_fract_x
_atom_site_fract_y
_atom_site_fract_z
Si Si1 0.264475 0.467708 0.600780
Si Si2 0.058850 0.548823 0.367823
Si Si3 0.196932 0.626407 0.049782
Si Si4 0.102492 0.925456 0.040894
Si Si5 0.068074 0.285024 0.955146
Si Si6 0.144953 0.868346 0.793979
Si Si7 0.102995 0.133663 0.531171
Si Si8 0.781800 0.181816 0.531162
O O1 0.190198 0.505964 0.687701
O O2 0.595936 0.542902 0.818222
O O3 0.282564 0.550623 0.535709
O O4 0.013262 0.291486 0.386959
O O5 0.234235 0.707964 0.466969
O O6 0.900242 0.434993 0.145611
O O7 0.545214 0.727755 0.264406
O O8 0.000000 0.500000 0.000000
O O9 0.154983 0.728171 0.086960
O O10 0.435674 0.024677 0.290967
O O11 0.058388 0.852182 0.874101
O O12 0.894157 0.804256 0.991205
O O13 0.000000 0.000000 0.000000
O O14 0.922837 0.215658 0.735757
O O15 0.032296 0.919993 0.681743
O O16 0.500000 0.000000 0.000000
O O17 0.987687 0.193323 0.553413
O O18 0.000000 0.000000 0.500000
#
# Coordination Sequence:
#
# PCOD8034658 Si02
#       8
#     2   2   2   2   2   2   2   2
#     4  11  25  46  75 105 139 189 235 300 360 435
#     4  11  24  45  74 102 143 180 243 287 368 426
#     4  12  26  44  73 108 145 186 238 302 362 425
#     4  12  28  46  72 106 145 190 240 300 363 426
#     4  12  27  45  72 106 147 185 237 297 367 424
#     4  12  26  49  74 100 144 189 246 292 358 436
#     4  12  28  46  75 103 143 197 246 294 360 432
#     4  12  25  49  71 103 147 190 242 293 358 438
#
# _framework density 22.631755999999999
#
# number of rings (size 3 to 8) (size 9 to 14) (size 15 to 20)
#    0.000    0.250    3.750    4.125    5.250    6.000 
#    0.000    0.000    0.000    0.000    0.000    0.000 
#    0.000    0.000    0.000    0.000    0.000    0.000 
#
# Total GULP energy -198376.117992 kJ/mol
# GULP energy per Si atom -12398.507375 kJ/mol
# Density = 2.258024 g / cm^3
# Si number density = 22.631756 Si / 1000 Ang^3
#
#
#
# Elastic Constant Matrix: (Units=GPa)
#
#
# Indices 1 2 3 4 5 6 
#
# 1 100.1945 19.6651 67.2321 -4.5931 -1.2800 5.0172
# 2 19.6651 139.1857 29.3823 -18.9238 -14.8147 17.2878
# 3 67.2321 29.3823 141.5608 -21.8749 -6.7191 23.5810
# 4 -4.5931 -18.9238 -21.8749 33.1497 8.4763 -4.2946
# 5 -1.2800 -14.8147 -6.7191 8.4763 43.7731 -3.4351
# 6 5.0172 17.2878 23.5810 -4.2946 -3.4351 35.3102
#
#
#
# Elastic Compliance Matrix: (Units=1/GPa)
#
#
# Indices 1 2 3 4 5 6 
#
# 1 0.015389 -0.001397 -0.008158 -0.003515 -0.000321 0.003487
# 2 -0.001397 0.008493 0.000150 0.003840 0.001845 -0.003413
# 3 -0.008158 0.000150 0.013082 0.006706 -0.000015 -0.006837
# 4 -0.003515 0.003840 0.006706 0.037379 -0.005154 -0.001814
# 5 -0.000321 0.001845 -0.000015 -0.005154 0.024528 0.000911
# 6 0.003487 -0.003413 -0.006837 -0.001814 0.000911 0.033930
#
#
# Mechanical properties :
#
#
# Convention : Reuss Voigt Hill
#
# Bulk Modulus (GPa) = 55.08465 68.16667 61.62566
# Shear Modulus (GPa) = 31.71350 40.09069 35.90210
#
# Velocity S-wave (km/s) = 3.74743 4.21341 3.98723
# Velocity P-wave (km/s) = 6.56633 7.33865 6.96320
#
# Compressibility (1/GPa) = 0.01815388
#
# Stress axis : x y z
#
# Youngs Moduli (GPa) = 64.98077 117.74772 76.44197
#
# Poissons Ratio (x) = 0.16452 0.62362
# Poissons Ratio (y) = 0.09079 -0.01150
# Poissons Ratio (z) = 0.53012 -0.01771
#
# Static dielectric constant tensor:
#      x y z
#    x 4.085230 0.001630 -0.090360 
#    y 0.001630 4.595900 0.176650 
#    z -0.090360 0.176650 4.749920 
# 
# 
# High freq. dielectric constant tensor:
#      x y z
#    x 1.896710 0.004000 -0.002120 
#    y 0.004000 1.912350 -0.011420 
#    z -0.002120 -0.011420 1.905390 
# 
# From -- ./inp_files/298801.got.cif
#   From: 2010.06.25/outbox.cif.g09.slc.cpg/sg2_150_cif.got.tgz:298801.got - 2010.06.27 13:26:56.
