data_PCOD8034423
_publ_section_title
;
Structure prediction by ZEFSAII (Michael W. Deem and Ramdas Pophale) SiO2 
 PCOD8034423
Probable space group: P -1
;
_chemical_formula_sum "Si O2"
_cell_formula_units_Z 16
_cell_length_a 11.743611
_cell_length_b 8.257684
_cell_length_c 9.429279
_cell_angle_alpha 58.301766
_cell_angle_beta 100.121071
_cell_angle_gamma 114.383319
_cell_volume 707.603828
_symmetry_space_group_name_H-M "P -1"
_symmetry_group_IT_number 2
_symmetry_cell_setting 'triclinic'
loop_
_space_group_symop_operation_xyz
x,y,z
-x,-y,-z
loop_
_atom_site_type_symbol
_atom_site_label
_atom_site_fract_x
_atom_site_fract_y
_atom_site_fract_z
Si Si1 0.736674 0.671772 0.175177
Si Si2 0.788434 0.037686 0.822145
Si Si3 0.730609 0.330101 0.887288
Si Si4 0.025687 0.295974 0.284097
Si Si5 0.967349 0.854782 0.342318
Si Si6 0.526341 0.482913 0.676674
Si Si7 0.622486 0.949659 0.557777
Si Si8 0.237137 0.714240 0.775039
O O1 0.834042 0.775259 0.273860
O O2 0.600429 0.647073 0.209711
O O3 0.733451 0.447608 0.241617
O O4 0.770885 0.811489 0.977634
O O5 0.769799 0.164484 0.891806
O O6 0.928244 0.154138 0.740016
O O7 0.688123 0.027139 0.686056
O O8 0.615799 0.357912 0.770309
O O9 0.847840 0.543960 0.826730
O O10 0.690364 0.252991 0.074536
O O11 0.910989 0.364076 0.193741
O O12 0.040861 0.291471 0.459083
O O13 0.003961 0.084162 0.299581
O O14 0.500000 0.500000 0.500000
O O15 0.592882 0.709081 0.652310
O O16 0.500000 0.000000 0.500000
O O17 0.716097 0.067385 0.397209
#
# Coordination Sequence:
#
# PCOD8034423 Si02
#       8
#     2   2   2   2   2   2   2   2
#     4  12  27  45  73 102 146 187 237 289 352 415
#     4  12  27  48  73 107 141 188 236 294 348 419
#     4  12  28  46  74 106 145 184 238 291 352 416
#     4  11  24  44  75 106 143 181 236 292 357 415
#     4  11  24  45  74 107 141 185 234 294 352 420
#     4  12  28  47  73 106 145 188 236 288 353 422
#     4  12  26  48  74 104 145 185 238 284 359 419
#     4  12  26  46  74 107 140 188 232 296 351 418
#
# _framework density 22.611522000000001
#
# number of rings (size 3 to 8) (size 9 to 14) (size 15 to 20)
#    0.000    0.250    2.500    6.000    8.750    2.500 
#    0.000    0.000    0.000    0.000    0.000    0.000 
#    0.000    0.000    0.000    0.000    0.000    0.000 
#
# Total GULP energy -198569.241383 kJ/mol
# GULP energy per Si atom -12410.577586 kJ/mol
# Density = 2.256006 g / cm^3
# Si number density = 22.611522 Si / 1000 Ang^3
#
#
#
# Elastic Constant Matrix: (Units=GPa)
#
#
# Indices 1 2 3 4 5 6 
#
# 1 110.6133 18.4085 11.4676 4.9667 10.7618 12.3948
# 2 18.4085 85.4010 33.4000 4.2653 -6.9843 10.1136
# 3 11.4676 33.4000 124.7035 16.5857 9.4208 10.8875
# 4 4.9667 4.2653 16.5857 31.2350 1.6569 3.1695
# 5 10.7618 -6.9843 9.4208 1.6569 36.6392 1.9605
# 6 12.3948 10.1136 10.8875 3.1695 1.9605 36.0788
#
#
#
# Elastic Compliance Matrix: (Units=1/GPa)
#
#
# Indices 1 2 3 4 5 6 
#
# 1 0.010031 -0.002168 0.000268 -0.001000 -0.003241 -0.002655
# 2 -0.002168 0.014294 -0.003813 0.000424 0.004451 -0.002391
# 3 0.000268 -0.003813 0.009977 -0.004506 -0.003088 -0.001470
# 4 -0.001000 0.000424 -0.004506 0.034655 0.000044 -0.001462
# 5 -0.003241 0.004451 -0.003088 0.000044 0.029930 -0.000832
# 6 -0.002655 -0.002391 -0.001470 -0.001462 -0.000832 0.029917
#
#
# Mechanical properties :
#
#
# Convention : Reuss Voigt Hill
#
# Bulk Modulus (GPa) = 43.71368 49.69666 46.70517
# Shear Modulus (GPa) = 33.81685 37.95338 35.88511
#
# Velocity S-wave (km/s) = 3.87144 4.10139 3.98807
# Velocity P-wave (km/s) = 6.27364 6.66744 6.47353
#
# Compressibility (1/GPa) = 0.02287613
#
# Stress axis : x y z
#
# Youngs Moduli (GPa) = 99.68811 69.96011 100.23402
#
# Poissons Ratio (x) = 0.15165 -0.02684
# Poissons Ratio (y) = 0.21609 0.38219
# Poissons Ratio (z) = -0.02670 0.26675
#
# Static dielectric constant tensor:
#      x y z
#    x 4.205730 0.085140 -0.038910 
#    y 0.085140 4.100840 -0.075690 
#    z -0.038910 -0.075690 4.313630 
# 
# 
# High freq. dielectric constant tensor:
#      x y z
#    x 1.904370 0.001760 0.001510 
#    y 0.001760 1.896320 0.003380 
#    z 0.001510 0.003380 1.907960 
# 
# From -- ./inp_files/242574.got.cif
#   From: 2010.06.25/outbox.cif.g09.slc.cpg/sg2_122_cif.got.tgz:242574.got - 2010.06.27 13:26:56.
