data_PCOD8034720
_publ_section_title
;
Structure prediction by ZEFSAII (Michael W. Deem and Ramdas Pophale) SiO2 
 PCOD8034720
Probable space group: P -1
;
_chemical_formula_sum "Si O2"
_cell_formula_units_Z 14
_cell_length_a 11.734095
_cell_length_b 9.024044
_cell_length_c 8.735062
_cell_angle_alpha 120.048840
_cell_angle_beta 47.721148
_cell_angle_gamma 118.418167
_cell_volume 578.243953
_symmetry_space_group_name_H-M "P -1"
_symmetry_group_IT_number 2
_symmetry_cell_setting 'triclinic'
loop_
_space_group_symop_operation_xyz
x,y,z
-x,-y,-z
loop_
_atom_site_type_symbol
_atom_site_label
_atom_site_fract_x
_atom_site_fract_y
_atom_site_fract_z
Si Si1 0.393351 0.483471 0.936619
Si Si2 0.017908 0.456506 0.287297
Si Si3 0.864786 0.747565 0.426949
Si Si4 0.837428 0.018929 0.827664
Si Si5 0.373486 0.207601 0.569247
Si Si6 0.156826 0.932872 0.816851
Si Si7 0.578267 0.180666 0.097655
O O1 0.435145 0.324637 0.720762
O O2 0.462569 0.659605 0.873751
O O3 0.500000 0.500000 0.000000
O O4 0.202221 0.450004 0.101096
O O5 0.000000 0.500000 0.500000
O O6 0.956560 0.597074 0.308893
O O7 0.895910 0.276091 0.263452
O O8 0.726068 0.686590 0.396882
O O9 0.976189 0.908974 0.319052
O O10 0.793409 0.830606 0.682772
O O11 0.767455 0.998623 0.052080
O O12 0.762181 0.176106 0.909521
O O13 0.524065 0.179837 0.323638
O O14 0.274045 0.018063 0.618749
O O15 0.000000 0.000000 0.000000
O O16 0.500000 0.000000 0.000000
#
# Coordination Sequence:
#
# PCOD8034720 Si02
#       7
#     2   2   2   2   2   2   2
#     4  12  30  52  74 112 160 202 247 316 383 456
#     4  12  28  45  81 115 150 194 256 312 382 444
#     4  11  24  46  79 109 146 199 252 315 371 446
#     4  11  24  45  77 106 151 192 255 313 374 450
#     4  12  28  50  78 109 156 201 256 312 383 453
#     4  12  25  46  77 113 149 193 252 319 380 440
#     4  12  28  49  75 108 150 205 254 302 386 458
#
# _framework density 24.211236
#
# number of rings (size 3 to 8) (size 9 to 14) (size 15 to 20)
#    0.000    0.286    5.714    1.286   10.000    2.857 
#    0.000    0.000    0.000    0.000    0.000    0.000 
#    0.000    0.000    0.000    0.000    0.000    0.000 
#
# Total GULP energy -173460.081216 kJ/mol
# GULP energy per Si atom -12390.005801 kJ/mol
# Density = 2.415613 g / cm^3
# Si number density = 24.211236 Si / 1000 Ang^3
#
#
#
# Elastic Constant Matrix: (Units=GPa)
#
#
# Indices 1 2 3 4 5 6 
#
# 1 113.8133 31.3308 41.5732 15.8796 12.8887 1.9741
# 2 31.3308 135.6160 55.5980 5.8427 8.8861 -2.2330
# 3 41.5732 55.5980 149.0148 12.3592 14.3121 9.1277
# 4 15.8796 5.8427 12.3592 37.1512 3.8333 2.3012
# 5 12.8887 8.8861 14.3121 3.8333 47.1026 7.9075
# 6 1.9741 -2.2330 9.1277 2.3012 7.9075 32.7305
#
#
#
# Elastic Compliance Matrix: (Units=1/GPa)
#
#
# Indices 1 2 3 4 5 6 
#
# 1 0.010576 -0.001337 -0.002019 -0.003482 -0.001832 0.000521
# 2 -0.001337 0.008993 -0.003030 0.000133 -0.000706 0.001700
# 3 -0.002019 -0.003030 0.008750 -0.001327 -0.001061 -0.002175
# 4 -0.003482 0.000133 -0.001327 0.028988 -0.000818 -0.001251
# 5 -0.001832 -0.000706 -0.001061 -0.000818 0.023122 -0.005170
# 6 0.000521 0.001700 -0.002175 -0.001251 -0.005170 0.032581
#
#
# Mechanical properties :
#
#
# Convention : Reuss Voigt Hill
#
# Bulk Modulus (GPa) = 64.31794 72.82755 68.57275
# Shear Modulus (GPa) = 38.17855 41.39300 39.78578
#
# Velocity S-wave (km/s) = 3.97532 4.13929 4.05813
# Velocity P-wave (km/s) = 6.90608 7.27945 7.09522
#
# Compressibility (1/GPa) = 0.01554776
#
# Stress axis : x y z
#
# Youngs Moduli (GPa) = 94.55278 111.19379 114.29024
#
# Poissons Ratio (x) = 0.14867 0.23074
# Poissons Ratio (y) = 0.12642 0.34627
# Poissons Ratio (z) = 0.19089 0.33689
#
# Static dielectric constant tensor:
#      x y z
#    x 4.494510 0.443090 -0.429520 
#    y 0.443090 5.443160 -0.188190 
#    z -0.429520 -0.188190 5.472620 
# 
# 
# High freq. dielectric constant tensor:
#      x y z
#    x 1.971100 -0.000310 0.000090 
#    y -0.000310 1.958500 0.000120 
#    z 0.000090 0.000120 1.974220 
# 
# From -- ./inp_files/245318.got.cif
#   From: 2010.06.25/outbox.cif.g09.slc.cpg/sg2_123_cif.got.tgz:245318.got - 2010.06.27 13:26:56.
