data_PCOD8034405
_publ_section_title
;
Structure prediction by ZEFSAII (Michael W. Deem and Ramdas Pophale) SiO2 
 PCOD8034405
Probable space group: P -1
;
_chemical_formula_sum "Si O2"
_cell_formula_units_Z 14
_cell_length_a 12.537346
_cell_length_b 15.474939
_cell_length_c 11.372179
_cell_angle_alpha 56.136241
_cell_angle_beta 39.532331
_cell_angle_gamma 27.605818
_cell_volume 588.150946
_symmetry_space_group_name_H-M "P -1"
_symmetry_group_IT_number 2
_symmetry_cell_setting 'triclinic'
loop_
_space_group_symop_operation_xyz
x,y,z
-x,-y,-z
loop_
_atom_site_type_symbol
_atom_site_label
_atom_site_fract_x
_atom_site_fract_y
_atom_site_fract_z
Si Si1 0.710904 0.281405 0.350445
Si Si2 0.102579 0.464007 0.270592
Si Si3 0.876028 0.358227 0.551238
Si Si4 0.869018 0.000740 0.003936
Si Si5 0.260920 0.355396 0.784714
Si Si6 0.763913 0.920791 0.761873
Si Si7 0.119285 0.201818 0.700862
O O1 0.495900 0.473618 0.303145
O O2 0.408708 0.386119 0.595507
O O3 0.922652 0.227687 0.307913
O O4 0.932824 0.090555 0.218778
O O5 0.906107 0.465428 0.476669
O O6 0.961648 0.576236 0.179458
O O7 0.018528 0.607814 0.312513
O O8 0.492796 0.230375 0.118938
O O9 0.144340 0.190982 0.348302
O O10 0.938178 0.257338 0.693228
O O11 0.926990 0.849998 0.110075
O O12 0.000000 0.000000 0.000000
O O13 0.595964 0.116637 0.715302
O O14 0.000000 0.500000 0.000000
O O15 0.500000 0.000000 0.000000
O O16 0.500000 0.000000 0.500000
#
# Coordination Sequence:
#
# PCOD8034405 Si02
#       7
#     2   2   2   2   2   2   2
#     4  11  26  47  71 107 152 191 245 308 370 441
#     4  11  25  47  73 107 148 189 253 305 369 437
#     4  11  24  44  74 105 144 193 250 308 360 436
#     4  12  28  47  73 111 154 191 245 308 370 440
#     4  11  25  47  75 105 145 198 247 305 377 440
#     4  12  25  45  74 108 148 191 249 304 372 444
#     4  12  26  46  78 106 145 202 249 299 374 439
#
# _framework density 23.803414
#
# number of rings (size 3 to 8) (size 9 to 14) (size 15 to 20)
#    0.000    0.571    1.429    6.429    8.000    2.286 
#    0.000    0.000    0.000    0.000    0.000    0.000 
#    0.000    0.000    0.000    0.000    0.000    0.000 
#
# Total GULP energy -173506.652639 kJ/mol
# GULP energy per Si atom -12393.332331 kJ/mol
# Density = 2.374924 g / cm^3
# Si number density = 23.803414 Si / 1000 Ang^3
#
#
#
# Elastic Constant Matrix: (Units=GPa)
#
#
# Indices 1 2 3 4 5 6 
#
# 1 130.2826 42.5384 46.3418 6.2260 3.6283 -25.2372
# 2 42.5384 124.8221 30.3082 26.2408 -1.9344 -21.7972
# 3 46.3418 30.3082 114.3919 13.1083 10.9343 -6.6802
# 4 6.2260 26.2408 13.1083 30.9142 -4.8271 -6.7903
# 5 3.6283 -1.9344 10.9343 -4.8271 43.1698 10.5684
# 6 -25.2372 -21.7972 -6.6802 -6.7903 10.5684 58.2234
#
#
#
# Elastic Compliance Matrix: (Units=1/GPa)
#
#
# Indices 1 2 3 4 5 6 
#
# 1 0.010345 -0.002538 -0.003499 0.002217 -0.000711 0.003520
# 2 -0.002538 0.011168 -0.000813 -0.008239 -0.000521 0.002121
# 3 -0.003499 -0.000813 0.011060 -0.003847 -0.002856 -0.000482
# 4 0.002217 -0.008239 -0.003847 0.041576 0.004718 0.001427
# 5 -0.000711 -0.000521 -0.002856 0.004718 0.025661 -0.004938
# 6 0.003520 0.002121 -0.000482 0.001427 -0.004938 0.020503
#
#
# Mechanical properties :
#
#
# Convention : Reuss Voigt Hill
#
# Bulk Modulus (GPa) = 52.98481 67.54149 60.26315
# Shear Modulus (GPa) = 35.63696 43.14869 39.39283
#
# Velocity S-wave (km/s) = 3.87348 4.26221 4.07249
# Velocity P-wave (km/s) = 6.50483 7.25660 6.89097
#
# Compressibility (1/GPa) = 0.01887333
#
# Stress axis : x y z
#
# Youngs Moduli (GPa) = 96.66908 89.53925 90.41324
#
# Poissons Ratio (x) = 0.22727 0.31634
# Poissons Ratio (y) = 0.24537 0.07350
# Poissons Ratio (z) = 0.33822 0.07279
#
# Static dielectric constant tensor:
#      x y z
#    x 4.988710 -0.875590 -0.047810 
#    y -0.875590 5.467180 0.164630 
#    z -0.047810 0.164630 4.249120 
# 
# 
# High freq. dielectric constant tensor:
#      x y z
#    x 1.956210 -0.026910 0.013630 
#    y -0.026910 1.958920 0.014390 
#    z 0.013630 0.014390 1.939530 
# 
# From -- ./inp_files/432665.got.cif
#   From: 2010.06.25/outbox.cif.g09.slc.cpg/sg2_217_cif.got.tgz:432665.got - 2010.06.27 13:26:56.
