data_PCOD8034144
_publ_section_title
;
Structure prediction by ZEFSAII (Michael W. Deem and Ramdas Pophale) SiO2 
 PCOD8034144
Probable space group: P -1
;
_chemical_formula_sum "Si O2"
_cell_formula_units_Z 16
_cell_length_a 19.355725
_cell_length_b 17.160916
_cell_length_c 11.013293
_cell_angle_alpha 47.139403
_cell_angle_beta 144.878343
_cell_angle_gamma 158.377709
_cell_volume 717.943320
_symmetry_space_group_name_H-M "P -1"
_symmetry_group_IT_number 2
_symmetry_cell_setting 'triclinic'
loop_
_space_group_symop_operation_xyz
x,y,z
-x,-y,-z
loop_
_atom_site_type_symbol
_atom_site_label
_atom_site_fract_x
_atom_site_fract_y
_atom_site_fract_z
Si Si1 0.437764 0.118494 0.013182
Si Si2 0.271409 0.289729 0.236835
Si Si3 0.024125 0.400660 0.091664
Si Si4 0.251086 0.189851 0.575968
Si Si5 0.017532 0.453018 0.758506
Si Si6 0.334250 0.626262 0.692677
Si Si7 0.940263 0.206967 0.734611
Si Si8 0.479893 0.272465 0.402202
O O1 0.367724 0.163452 0.780634
O O2 0.719378 0.297093 0.188494
O O3 0.450719 0.164968 0.123603
O O4 0.237526 0.867216 0.971517
O O5 0.186297 0.162229 0.372026
O O6 0.543517 0.562751 0.347456
O O7 0.299551 0.226992 0.235413
O O8 0.045137 0.194471 0.983030
O O9 0.258054 0.522639 0.361682
O O10 0.079626 0.442891 0.983830
O O11 0.000000 0.500000 0.000000
O O12 0.000000 0.000000 0.500000
O O13 0.826263 0.400339 0.562880
O O14 0.883003 0.265309 0.672072
O O15 0.468072 0.671493 0.725514
O O16 0.147039 0.393730 0.730475
O O17 0.671872 0.958354 0.552851
#
# Coordination Sequence:
#
# PCOD8034144 Si02
#       8
#     2   2   2   2   2   2   2   2
#     4  11  24  45  71 100 134 180 232 283 337 411
#     4  11  25  46  68 105 138 180 228 284 342 401
#     4  12  27  43  66 105 137 181 225 280 350 406
#     4  11  24  43  75 102 133 181 233 280 337 408
#     4  11  24  46  73  96 137 180 237 281 335 411
#     4  11  25  44  71 104 130 187 231 279 342 409
#     4  11  25  45  73  98 136 183 231 283 340 405
#     4  12  27  43  66 102 147 176 223 287 344 404
#
# _framework density 22.285881
#
# number of rings (size 3 to 8) (size 9 to 14) (size 15 to 20)
#    0.000    0.750    3.750    4.125    8.750    5.000 
#    0.000    0.000    0.000    0.000    0.000    0.000 
#    0.000    0.000    0.000    0.000    0.000    0.000 
#
# Total GULP energy -198502.773926 kJ/mol
# GULP energy per Si atom -12406.423370 kJ/mol
# Density = 2.223516 g / cm^3
# Si number density = 22.285881 Si / 1000 Ang^3
#
#
#
# Elastic Constant Matrix: (Units=GPa)
#
#
# Indices 1 2 3 4 5 6 
#
# 1 117.4930 52.9065 9.9363 -12.8908 -2.4898 11.0112
# 2 52.9065 141.8126 20.4394 2.7577 -17.2472 -7.3261
# 3 9.9363 20.4394 76.1675 -14.2923 -4.1267 2.8308
# 4 -12.8908 2.7577 -14.2923 32.3509 2.6641 -4.6390
# 5 -2.4898 -17.2472 -4.1267 2.6641 26.8629 0.0761
# 6 11.0112 -7.3261 2.8308 -4.6390 0.0761 26.6757
#
#
#
# Elastic Compliance Matrix: (Units=1/GPa)
#
#
# Indices 1 2 3 4 5 6 
#
# 1 0.011796 -0.005222 0.000855 0.004945 -0.002603 -0.005527
# 2 -0.005222 0.010461 -0.002716 -0.004024 0.006201 0.004599
# 3 0.000855 -0.002716 0.015121 0.007043 -0.000036 -0.001478
# 4 0.004945 -0.004024 0.007043 0.037094 -0.004729 0.002571
# 5 -0.002603 0.006201 -0.000036 -0.004729 0.041425 0.001841
# 6 -0.005527 0.004599 -0.001478 0.002571 0.001841 0.041630
#
#
# Mechanical properties :
#
#
# Convention : Reuss Voigt Hill
#
# Bulk Modulus (GPa) = 43.08250 55.78195 49.43223
# Shear Modulus (GPa) = 27.86592 33.99064 30.92828
#
# Velocity S-wave (km/s) = 3.53991 3.90963 3.72936
# Velocity P-wave (km/s) = 6.00680 6.74276 6.38539
#
# Compressibility (1/GPa) = 0.02321128
#
# Stress axis : x y z
#
# Youngs Moduli (GPa) = 84.77722 95.59046 66.13362
#
# Poissons Ratio (x) = 0.49918 -0.05653
# Poissons Ratio (y) = 0.44271 0.17962
# Poissons Ratio (z) = -0.07247 0.25962
#
# Static dielectric constant tensor:
#      x y z
#    x 3.997420 0.008620 -0.148020 
#    y 0.008620 4.166230 0.015450 
#    z -0.148020 0.015450 4.091050 
# 
# 
# High freq. dielectric constant tensor:
#      x y z
#    x 1.879830 0.003350 -0.002990 
#    y 0.003350 1.886810 0.000350 
#    z -0.002990 0.000350 1.881380 
# 
# From -- ./inp_files/472404.got.cif
#   From: 2010.06.25/outbox.cif.g09.slc.cpg/sg2_237_cif.got.tgz:472404.got - 2010.06.27 13:26:56.
