data_PCOD8034486
_publ_section_title
;
Structure prediction by ZEFSAII (Michael W. Deem and Ramdas Pophale) SiO2 
 PCOD8034486
Probable space group: P -1
;
_chemical_formula_sum "Si O2"
_cell_formula_units_Z 16
_cell_length_a 9.278605
_cell_length_b 12.108317
_cell_length_c 8.736924
_cell_angle_alpha 122.736335
_cell_angle_beta 104.624166
_cell_angle_gamma 61.065388
_cell_volume 722.549847
_symmetry_space_group_name_H-M "P -1"
_symmetry_group_IT_number 2
_symmetry_cell_setting 'triclinic'
loop_
_space_group_symop_operation_xyz
x,y,z
-x,-y,-z
loop_
_atom_site_type_symbol
_atom_site_label
_atom_site_fract_x
_atom_site_fract_y
_atom_site_fract_z
Si Si1 0.820610 0.127927 0.368013
Si Si2 0.349027 0.631578 0.980539
Si Si3 0.184095 0.333644 0.286266
Si Si4 0.530169 0.808828 0.233445
Si Si5 0.497757 0.884928 0.630866
Si Si6 0.857950 0.658497 0.069982
Si Si7 0.939369 0.177940 0.753606
Si Si8 0.160969 0.620197 0.638710
O O1 0.639336 0.131249 0.309327
O O2 0.839411 0.152282 0.569934
O O3 0.841806 0.248296 0.363562
O O4 0.964277 0.972283 0.239204
O O5 0.395947 0.767916 0.082139
O O6 0.180925 0.689766 0.075254
O O7 0.500000 0.500000 0.000000
O O8 0.311186 0.579588 0.768312
O O9 0.323990 0.204208 0.317240
O O10 0.196526 0.483616 0.437540
O O11 0.011201 0.334974 0.288288
O O12 0.211214 0.304256 0.092101
O O13 0.490346 0.828356 0.416367
O O14 0.709825 0.674785 0.156400
O O15 0.531151 0.948874 0.257249
O O16 0.923460 0.773193 0.235747
O O17 0.000000 0.500000 0.000000
#
# Coordination Sequence:
#
# PCOD8034486 Si02
#       8
#     2   2   2   2   2   2   2   2
#     4  11  25  45  71 102 139 179 224 281 337 406
#     4  12  25  46  69 100 138 180 229 281 334 403
#     4  11  27  46  68 102 137 178 226 281 342 405
#     4  11  26  44  72 101 133 185 225 280 338 399
#     4  11  25  46  70 101 141 176 227 279 340 405
#     4  12  25  45  71  98 136 180 228 280 337 403
#     4  11  24  45  69 101 137 177 231 277 333 404
#     4  11  27  45  70 100 138 180 223 282 344 400
#
# _framework density 22.143799999999999
#
# number of rings (size 3 to 8) (size 9 to 14) (size 15 to 20)
#    0.000    0.750    3.750    2.250    8.750    2.500 
#    0.000    0.000    0.000    0.000    0.000    0.000 
#    0.000    0.000    0.000    0.000    0.000    0.000 
#
# Total GULP energy -198465.181621 kJ/mol
# GULP energy per Si atom -12404.073851 kJ/mol
# Density = 2.209340 g / cm^3
# Si number density = 22.143800 Si / 1000 Ang^3
#
#
#
# Elastic Constant Matrix: (Units=GPa)
#
#
# Indices 1 2 3 4 5 6 
#
# 1 102.3623 36.9781 39.5911 -1.2589 14.1493 3.0290
# 2 36.9781 132.6855 27.2585 1.0267 6.0001 -5.0247
# 3 39.5911 27.2585 67.4236 9.7559 13.9605 -3.6421
# 4 -1.2589 1.0267 9.7559 24.2132 -5.0857 1.7848
# 5 14.1493 6.0001 13.9605 -5.0857 39.0137 1.4996
# 6 3.0290 -5.0247 -3.6421 1.7848 1.4996 37.4450
#
#
#
# Elastic Compliance Matrix: (Units=1/GPa)
#
#
# Indices 1 2 3 4 5 6 
#
# 1 0.013850 -0.002361 -0.007559 0.003745 -0.001379 -0.002296
# 2 -0.002361 0.008667 -0.002174 0.000368 0.000307 0.001113
# 3 -0.007559 -0.002174 0.023425 -0.011447 -0.006930 0.003421
# 4 0.003745 0.000368 -0.011447 0.048307 0.009134 -0.004035
# 5 -0.001379 0.000307 -0.006930 0.009134 0.029838 -0.002152
# 6 -0.002296 0.001113 0.003421 -0.004035 -0.002152 0.027652
#
#
# Mechanical properties :
#
#
# Convention : Reuss Voigt Hill
#
# Bulk Modulus (GPa) = 45.96750 56.68074 51.32412
# Shear Modulus (GPa) = 27.29577 33.37729 30.33653
#
# Velocity S-wave (km/s) = 3.51473 3.88660 3.70534
# Velocity P-wave (km/s) = 6.10531 6.76706 6.44469
#
# Compressibility (1/GPa) = 0.02175450
#
# Stress axis : x y z
#
# Youngs Moduli (GPa) = 72.20145 115.38554 42.68874
#
# Poissons Ratio (x) = 0.27238 0.32268
# Poissons Ratio (y) = 0.17044 0.09282
# Poissons Ratio (z) = 0.54576 0.25088
#
# Static dielectric constant tensor:
#      x y z
#    x 4.163760 -0.055850 0.128180 
#    y -0.055850 3.961770 0.168220 
#    z 0.128180 0.168220 4.148430 
# 
# 
# High freq. dielectric constant tensor:
#      x y z
#    x 1.886770 -0.003970 0.014780 
#    y -0.003970 1.874320 0.014060 
#    z 0.014780 0.014060 1.872840 
# 
# From -- ./inp_files/185130.got.cif
#   From: 2010.06.25/outbox.cif.g09.slc.cpg/sg2_93_cif.got.tgz:185130.got - 2010.06.27 13:26:56.
