data_PCOD8034265
_publ_section_title
;
Structure prediction by ZEFSAII (Michael W. Deem and Ramdas Pophale) SiO2 
 PCOD8034265
Probable space group: P -1
;
_chemical_formula_sum "Si O2"
_cell_formula_units_Z 16
_cell_length_a 16.455463
_cell_length_b 10.083387
_cell_length_c 9.471920
_cell_angle_alpha 64.471441
_cell_angle_beta 106.514290
_cell_angle_gamma 146.732193
_cell_volume 768.718154
_symmetry_space_group_name_H-M "P -1"
_symmetry_group_IT_number 2
_symmetry_cell_setting 'triclinic'
loop_
_space_group_symop_operation_xyz
x,y,z
-x,-y,-z
loop_
_atom_site_type_symbol
_atom_site_label
_atom_site_fract_x
_atom_site_fract_y
_atom_site_fract_z
Si Si1 0.548279 0.700591 0.333853
Si Si2 0.569068 0.467360 0.960184
Si Si3 0.589981 0.958062 0.718247
Si Si4 0.404099 0.691224 0.477258
Si Si5 0.922426 0.011044 0.863979
Si Si6 0.124728 0.835260 0.800104
Si Si7 0.108984 0.723064 0.156732
Si Si8 0.077533 0.101770 0.639691
O O1 0.500000 0.500000 0.500000
O O2 0.498186 0.611958 0.190344
O O3 0.470009 0.733027 0.341859
O O4 0.726802 0.960861 0.313255
O O5 0.746251 0.733392 0.916641
O O6 0.500000 0.500000 0.000000
O O7 0.522195 0.247405 0.114656
O O8 0.519723 0.808851 0.602982
O O9 0.617421 0.169127 0.624762
O O10 0.749511 0.108636 0.751263
O O11 0.248450 0.395909 0.579735
O O12 0.966844 0.237478 0.836562
O O13 0.983606 0.075449 0.706766
O O14 0.000000 0.000000 0.000000
O O15 0.005911 0.577267 0.763301
O O16 0.069930 0.921725 0.767827
O O17 0.159657 0.812050 0.978756
O O18 0.000000 0.000000 0.500000
#
# Coordination Sequence:
#
# PCOD8034265 Si02
#       8
#     2   2   2   2   2   2   2   2
#     4  12  24  43  72 102 135 180 232 279 346 419
#     4  12  24  44  74  99 135 185 233 282 346 415
#     4  11  24  46  70  98 141 181 232 292 347 406
#     4  11  26  44  69 102 139 182 232 293 344 414
#     4  12  25  42  72 105 134 182 234 283 344 422
#     4  11  24  44  70 101 142 182 226 293 351 411
#     4  11  24  45  70 103 139 181 233 290 352 413
#     4  12  25  45  67 100 144 180 228 288 353 412
#
# _framework density 20.813867999999999
#
# number of rings (size 3 to 8) (size 9 to 14) (size 15 to 20)
#    0.000    0.500    5.000    3.000    0.000    3.500 
#    0.000    1.875    0.000    0.000    0.000    0.000 
#    0.000    0.000    0.000    0.000    0.000    0.000 
#
# Total GULP energy -198433.013834 kJ/mol
# GULP energy per Si atom -12402.063365 kJ/mol
# Density = 2.076649 g / cm^3
# Si number density = 20.813868 Si / 1000 Ang^3
#
#
#
# Elastic Constant Matrix: (Units=GPa)
#
#
# Indices 1 2 3 4 5 6 
#
# 1 130.2506 69.4501 43.5877 1.8810 -16.5961 1.6495
# 2 69.4501 150.4906 54.3883 -4.9454 -3.0406 -0.2041
# 3 43.5877 54.3883 116.4321 7.0863 -4.1883 -4.4701
# 4 1.8810 -4.9454 7.0863 41.3924 1.2128 0.8174
# 5 -16.5961 -3.0406 -4.1883 1.2128 46.1071 -0.9994
# 6 1.6495 -0.2041 -4.4701 0.8174 -0.9994 38.4724
#
#
#
# Elastic Compliance Matrix: (Units=1/GPa)
#
#
# Indices 1 2 3 4 5 6 
#
# 1 0.011148 -0.004387 -0.001973 -0.000785 0.003552 -0.000622
# 2 -0.004387 0.009837 -0.003125 0.001951 -0.001270 -0.000197
# 3 -0.001973 -0.003125 0.010980 -0.002196 0.000169 0.001395
# 4 -0.000785 0.001951 -0.002196 0.024849 -0.001024 -0.000766
# 5 0.003552 -0.001270 0.000169 -0.001024 0.022936 0.000478
# 6 -0.000622 -0.000197 0.001395 -0.000766 0.000478 0.026209
#
#
# Mechanical properties :
#
#
# Convention : Reuss Voigt Hill
#
# Bulk Modulus (GPa) = 76.94138 81.33617 79.13878
# Shear Modulus (GPa) = 38.68168 40.51089 39.59628
#
# Velocity S-wave (km/s) = 4.31566 4.41652 4.36638
# Velocity P-wave (km/s) = 7.86638 8.07281 7.97026
#
# Compressibility (1/GPa) = 0.01299691
#
# Stress axis : x y z
#
# Youngs Moduli (GPa) = 89.69835 101.65780 91.07352
#
# Poissons Ratio (x) = 0.44596 0.17966
# Poissons Ratio (y) = 0.39349 0.28458
# Poissons Ratio (z) = 0.17695 0.31766
#
# Static dielectric constant tensor:
#      x y z
#    x 3.266560 -0.108050 0.030950 
#    y -0.108050 3.977510 -0.038320 
#    z 0.030950 -0.038320 3.998960 
# 
# 
# High freq. dielectric constant tensor:
#      x y z
#    x 1.819730 0.000390 0.004590 
#    y 0.000390 1.831250 0.000930 
#    z 0.004590 0.000930 1.826150 
# 
# From -- ./inp_files/297945.got.cif
#   From: 2010.06.25/outbox.cif.g09.slc.cpg/sg2_149_cif.got.tgz:297945.got - 2010.06.27 13:26:56.
