data_PCOD8034547
_publ_section_title
;
Structure prediction by ZEFSAII (Michael W. Deem and Ramdas Pophale) SiO2 
 PCOD8034547
Probable space group: P -1
;
_chemical_formula_sum "Si O2"
_cell_formula_units_Z 16
_cell_length_a 16.751581
_cell_length_b 19.838458
_cell_length_c 6.542717
_cell_angle_alpha 70.329348
_cell_angle_beta 108.625967
_cell_angle_gamma 159.851198
_cell_volume 705.216958
_symmetry_space_group_name_H-M "P -1"
_symmetry_group_IT_number 2
_symmetry_cell_setting 'triclinic'
loop_
_space_group_symop_operation_xyz
x,y,z
-x,-y,-z
loop_
_atom_site_type_symbol
_atom_site_label
_atom_site_fract_x
_atom_site_fract_y
_atom_site_fract_z
Si Si1 0.761169 0.181303 0.022979
Si Si2 0.402362 0.058659 0.160272
Si Si3 0.659501 0.424995 0.350420
Si Si4 0.126888 0.548761 0.710246
Si Si5 0.707833 0.920885 0.275526
Si Si6 0.926663 0.961158 0.256631
Si Si7 0.605276 0.660057 0.985833
Si Si8 0.102095 0.820575 0.540068
O O1 0.947594 0.389587 0.908524
O O2 0.769500 0.135431 0.880109
O O3 0.823365 0.195092 0.276569
O O4 0.500000 0.000000 0.000000
O O5 0.663324 0.238329 0.239600
O O6 0.286736 0.991532 0.345911
O O7 0.444809 0.154090 0.930404
O O8 0.760894 0.434289 0.314727
O O9 0.454763 0.245941 0.522910
O O10 0.574424 0.417031 0.123703
O O11 0.851397 0.615982 0.447898
O O12 0.000000 0.500000 0.500000
O O13 0.850677 0.983247 0.178239
O O14 0.898330 0.119018 0.348730
O O15 0.701079 0.736793 0.220655
O O16 0.000000 0.000000 0.500000
O O17 0.157749 0.132741 0.143882
O O18 0.500000 0.500000 0.000000
#
# Coordination Sequence:
#
# PCOD8034547 Si02
#       8
#     2   2   2   2   2   2   2   2
#     4  11  26  44  67 102 137 182 239 295 356 421
#     4  11  24  45  70  96 140 183 234 295 354 422
#     4  12  25  46  69 104 145 184 236 293 353 423
#     4  12  26  43  74 101 139 189 234 289 355 416
#     4  11  25  44  72 101 139 188 235 288 361 425
#     4  11  25  47  71 105 144 184 234 296 355 431
#     4  11  28  45  75 107 146 187 236 294 360 428
#     4  11  25  43  71 101 138 188 233 294 357 420
#
# _framework density 22.688054000000001
#
# number of rings (size 3 to 8) (size 9 to 14) (size 15 to 20)
#    0.000    0.750    3.750    2.250    7.000    3.000 
#    0.000    0.000    0.000    0.000    0.000    0.000 
#    0.000    0.000    0.000    0.000    0.000    0.000 
#
# Total GULP energy -198307.396799 kJ/mol
# GULP energy per Si atom -12394.212300 kJ/mol
# Density = 2.263642 g / cm^3
# Si number density = 22.688054 Si / 1000 Ang^3
#
#
#
# Elastic Constant Matrix: (Units=GPa)
#
#
# Indices 1 2 3 4 5 6 
#
# 1 83.3126 19.8916 23.3882 10.3096 11.9380 8.3837
# 2 19.8916 130.3870 47.9759 26.7858 14.3300 -2.5863
# 3 23.3882 47.9759 121.6128 27.8568 15.3145 -8.3269
# 4 10.3096 26.7858 27.8568 47.7064 4.6175 1.0078
# 5 11.9380 14.3300 15.3145 4.6175 33.8059 1.3545
# 6 8.3837 -2.5863 -8.3269 1.0078 1.3545 30.7754
#
#
#
# Elastic Compliance Matrix: (Units=1/GPa)
#
#
# Indices 1 2 3 4 5 6 
#
# 1 0.013776 -0.000917 -0.001948 -0.000917 -0.003301 -0.004182
# 2 -0.000917 0.009728 -0.002522 -0.003592 -0.002191 0.000599
# 3 -0.001948 -0.002522 0.011238 -0.004525 -0.002862 0.003634
# 4 -0.000917 -0.003592 -0.004525 0.025820 0.000455 -0.002142
# 5 -0.003301 -0.002191 -0.002862 0.000455 0.032970 -0.001525
# 6 -0.004182 0.000599 0.003634 -0.002142 -0.001525 0.034803
#
#
# Mechanical properties :
#
#
# Convention : Reuss Voigt Hill
#
# Bulk Modulus (GPa) = 41.72134 57.53599 49.62866
# Shear Modulus (GPa) = 33.99101 38.72800 36.35951
#
# Velocity S-wave (km/s) = 3.87484 4.13604 4.00757
# Velocity P-wave (km/s) = 6.20067 6.94433 6.58301
#
# Compressibility (1/GPa) = 0.02396855
#
# Stress axis : x y z
#
# Youngs Moduli (GPa) = 72.58980 102.79932 88.98423
#
# Poissons Ratio (x) = 0.09422 0.17338
# Poissons Ratio (y) = 0.06653 0.22438
# Poissons Ratio (z) = 0.14144 0.25922
#
# Static dielectric constant tensor:
#      x y z
#    x 3.952950 -0.032490 0.163930 
#    y -0.032490 4.383970 0.381560 
#    z 0.163930 0.381560 4.372250 
# 
# 
# High freq. dielectric constant tensor:
#      x y z
#    x 1.890520 0.000080 -0.002920 
#    y 0.000080 1.908060 0.017940 
#    z -0.002920 0.017940 1.906270 
# 
# From -- ./inp_files/112372.got.cif
#   From: 2010.06.25/outbox.cif.g09.slc.cpg/sg2_57_cif.got.tgz:112372.got - 2010.06.27 13:26:56.
