data_PCOD8034894
_publ_section_title
;
Structure prediction by ZEFSAII (Michael W. Deem and Ramdas Pophale) SiO2 
 PCOD8034894
Probable space group: P -1
;
_chemical_formula_sum "Si O2"
_cell_formula_units_Z 16
_cell_length_a 17.409479
_cell_length_b 9.121324
_cell_length_c 8.789195
_cell_angle_alpha 74.498440
_cell_angle_beta 125.490812
_cell_angle_gamma 139.537750
_cell_volume 696.103077
_symmetry_space_group_name_H-M "P -1"
_symmetry_group_IT_number 2
_symmetry_cell_setting 'triclinic'
loop_
_space_group_symop_operation_xyz
x,y,z
-x,-y,-z
loop_
_atom_site_type_symbol
_atom_site_label
_atom_site_fract_x
_atom_site_fract_y
_atom_site_fract_z
Si Si1 0.651193 0.691644 0.927918
Si Si2 0.852295 0.902818 0.395885
Si Si3 0.855377 0.469438 0.005945
Si Si4 0.938982 0.587979 0.406191
Si Si5 0.579429 0.330924 0.729512
Si Si6 0.163528 0.825811 0.122110
Si Si7 0.607873 0.436588 0.406561
Si Si8 0.687666 0.212756 0.454530
O O1 0.612093 0.480109 0.868240
O O2 0.503464 0.605946 0.819377
O O3 0.741777 0.903702 0.850317
O O4 0.746396 0.783358 0.162075
O O5 0.769974 0.710106 0.490053
O O6 0.000000 0.000000 0.500000
O O7 0.910822 0.135978 0.456982
O O8 0.882545 0.558541 0.182902
O O9 0.997870 0.678997 0.005437
O O10 0.716734 0.397105 0.814814
O O11 0.824730 0.249796 0.006009
O O12 0.798910 0.428750 0.401453
O O13 0.000000 0.500000 0.500000
O O14 0.550413 0.392286 0.525631
O O15 0.438127 0.051336 0.692165
O O16 0.217727 0.772099 0.325279
O O17 0.602319 0.248852 0.421588
#
# Coordination Sequence:
#
# PCOD8034894 Si02
#       8
#     2   2   2   2   2   2   2   2
#     4  12  28  47  71 109 143 191 235 297 360 422
#     4  12  28  50  72 104 146 189 237 292 365 420
#     4  11  25  44  71 107 140 189 239 291 351 425
#     4  12  26  45  73 106 143 188 239 296 354 420
#     4  12  27  45  73 109 140 188 243 293 357 421
#     4  11  24  46  74 105 146 185 245 289 356 423
#     4  12  26  49  73 102 149 190 235 296 358 427
#     4  12  25  49  72 105 146 191 236 295 356 426
#
# _framework density 22.985102999999999
#
# number of rings (size 3 to 8) (size 9 to 14) (size 15 to 20)
#    0.000    0.250    5.000    3.375    7.000    1.000 
#    2.250    0.000    0.000    0.000    0.000    0.000 
#    0.000    0.000    0.000    0.000    0.000    0.000 
#
# Total GULP energy -198356.827474 kJ/mol
# GULP energy per Si atom -12397.301717 kJ/mol
# Density = 2.293279 g / cm^3
# Si number density = 22.985103 Si / 1000 Ang^3
#
#
#
# Elastic Constant Matrix: (Units=GPa)
#
#
# Indices 1 2 3 4 5 6 
#
# 1 77.5005 28.2505 26.3053 13.7282 5.4878 -2.4787
# 2 28.2505 153.8277 35.2854 31.1605 -11.6592 -3.8215
# 3 26.3053 35.2854 115.2099 17.5348 -10.3377 -2.6748
# 4 13.7282 31.1605 17.5348 37.7149 -0.9575 -3.3139
# 5 5.4878 -11.6592 -10.3377 -0.9575 47.9592 6.7579
# 6 -2.4787 -3.8215 -2.6748 -3.3139 6.7579 36.2983
#
#
#
# Elastic Compliance Matrix: (Units=1/GPa)
#
#
# Indices 1 2 3 4 5 6 
#
# 1 0.015223 -0.001807 -0.002746 -0.002764 -0.002962 0.000946
# 2 -0.001807 0.008389 -0.001118 -0.005722 0.001919 -0.000202
# 3 -0.002746 -0.001118 0.010273 -0.002816 0.002232 -0.000221
# 4 -0.002764 -0.005722 -0.002816 0.033728 -0.001337 0.002329
# 5 -0.002962 0.001919 0.002232 -0.001337 0.022700 -0.004184
# 6 0.000946 -0.000202 -0.000221 0.002329 -0.004184 0.028568
#
#
# Mechanical properties :
#
#
# Convention : Reuss Voigt Hill
#
# Bulk Modulus (GPa) = 44.35920 58.46895 51.41407
# Shear Modulus (GPa) = 36.30085 41.50760 38.90422
#
# Velocity S-wave (km/s) = 3.97838 4.25414 4.11857
# Velocity P-wave (km/s) = 6.35959 7.04438 6.71072
#
# Compressibility (1/GPa) = 0.02254324
#
# Stress axis : x y z
#
# Youngs Moduli (GPa) = 65.68888 119.20741 97.34455
#
# Poissons Ratio (x) = 0.21542 0.26726
# Poissons Ratio (y) = 0.11871 0.10885
# Poissons Ratio (z) = 0.18035 0.13329
#
# Static dielectric constant tensor:
#      x y z
#    x 4.102630 -0.103520 0.196130 
#    y -0.103520 4.069940 0.141440 
#    z 0.196130 0.141440 3.893220 
# 
# 
# High freq. dielectric constant tensor:
#      x y z
#    x 1.914450 -0.000890 0.011910 
#    y -0.000890 1.915870 0.011640 
#    z 0.011910 0.011640 1.912540 
# 
# From -- ./inp_files/328918.got.cif
#   From: 2010.06.25/outbox.cif.g09.slc.cpg/sg2_165_cif.got.tgz:328918.got - 2010.06.27 13:26:56.
