data_PCOD8034685
_publ_section_title
;
Structure prediction by ZEFSAII (Michael W. Deem and Ramdas Pophale) SiO2 
 PCOD8034685
Probable space group: P -1
;
_chemical_formula_sum "Si O2"
_cell_formula_units_Z 16
_cell_length_a 14.269247
_cell_length_b 10.116675
_cell_length_c 9.883358
_cell_angle_alpha 118.871809
_cell_angle_beta 90.408233
_cell_angle_gamma 135.085418
_cell_volume 728.110680
_symmetry_space_group_name_H-M "P -1"
_symmetry_group_IT_number 2
_symmetry_cell_setting 'triclinic'
loop_
_space_group_symop_operation_xyz
x,y,z
-x,-y,-z
loop_
_atom_site_type_symbol
_atom_site_label
_atom_site_fract_x
_atom_site_fract_y
_atom_site_fract_z
Si Si1 0.748452 0.076070 0.495749
Si Si2 0.417054 0.091462 0.314909
Si Si3 0.241630 0.359021 0.364946
Si Si4 0.744812 0.426991 0.978031
Si Si5 0.090409 0.406128 0.215755
Si Si6 0.724123 0.887459 0.890719
Si Si7 0.536946 0.716036 0.067044
Si Si8 0.055682 0.934312 0.379390
O O1 0.872798 0.376117 0.629093
O O2 0.839433 0.040367 0.514653
O O3 0.619311 0.949134 0.546281
O O4 0.658200 0.948233 0.289509
O O5 0.608391 0.356476 0.427148
O O6 0.353997 0.854521 0.130240
O O7 0.327146 0.111562 0.253102
O O8 0.115521 0.319551 0.294295
O O9 0.299690 0.325513 0.225478
O O10 0.157813 0.136427 0.358259
O O11 0.794376 0.495625 0.855861
O O12 0.631482 0.418211 0.008272
O O13 0.903530 0.641185 0.177849
O O14 0.907834 0.167590 0.053138
O O15 0.615987 0.820302 0.971829
O O16 0.500000 0.500000 0.000000
O O17 0.000000 0.000000 0.500000
#
# Coordination Sequence:
#
# PCOD8034685 Si02
#       8
#     2   2   2   2   2   2   2   2
#     4  11  24  48  69  99 139 182 227 274 349 409
#     4  11  24  45  74  98 134 184 227 282 336 410
#     4  12  25  43  71 105 132 176 239 282 332 404
#     4  11  24  48  69  99 139 182 227 274 349 409
#     4  11  24  45  74  98 134 184 227 282 336 410
#     4  12  25  43  70 103 137 176 229 285 337 402
#     4  12  27  41  68 100 140 178 224 286 346 397
#     4  12  27  43  70 100 139 181 228 284 341 403
#
# _framework density 21.974682000000001
#
# number of rings (size 3 to 8) (size 9 to 14) (size 15 to 20)
#    0.000    0.500    2.500    5.250    7.000    5.000 
#    4.500    0.000    0.000    0.000    0.000    0.000 
#    0.000    0.000    0.000    0.000    0.000    0.000 
#
# Total GULP energy -198493.263201 kJ/mol
# GULP energy per Si atom -12405.828950 kJ/mol
# Density = 2.192467 g / cm^3
# Si number density = 21.974682 Si / 1000 Ang^3
#
#
#
# Elastic Constant Matrix: (Units=GPa)
#
#
# Indices 1 2 3 4 5 6 
#
# 1 78.2715 14.6878 -18.9356 4.0441 -4.0231 7.8657
# 2 14.6878 77.1606 15.6063 18.7074 -4.8217 4.6096
# 3 -18.9356 15.6063 98.8159 3.8689 -9.6604 16.7980
# 4 4.0441 18.7074 3.8689 57.4923 7.0779 0.1327
# 5 -4.0231 -4.8217 -9.6604 7.0779 46.9901 2.0413
# 6 7.8657 4.6096 16.7980 0.1327 2.0413 36.5146
#
#
#
# Elastic Compliance Matrix: (Units=1/GPa)
#
#
# Indices 1 2 3 4 5 6 
#
# 1 0.015115 -0.003208 0.004497 -0.000581 0.002196 -0.005041
# 2 -0.003208 0.015370 -0.002699 -0.004775 0.001470 -0.000072
# 3 0.004497 -0.002699 0.012887 -0.000678 0.003152 -0.006730
# 4 -0.000581 -0.004775 -0.000678 0.019482 -0.003665 0.001174
# 5 0.002196 0.001470 0.003152 -0.003665 0.022967 -0.003379
# 6 -0.005041 -0.000072 -0.006730 0.001174 -0.003379 0.031762
#
#
# Mechanical properties :
#
#
# Convention : Reuss Voigt Hill
#
# Bulk Modulus (GPa) = 24.65880 30.77390 27.71635
# Shear Modulus (GPa) = 37.33568 44.39205 40.86387
#
# Velocity S-wave (km/s) = 4.12640 4.49948 4.31697
# Velocity P-wave (km/s) = 5.82656 6.40534 6.12279
#
# Compressibility (1/GPa) = 0.04055348
#
# Stress axis : x y z
#
# Youngs Moduli (GPa) = 66.15750 65.06029 77.59953
#
# Poissons Ratio (x) = 0.20870 -0.34900
# Poissons Ratio (y) = 0.21222 0.20946
# Poissons Ratio (z) = -0.29754 0.17561
#
# Static dielectric constant tensor:
#      x y z
#    x 4.307940 0.404840 -0.449100 
#    y 0.404840 5.728740 -1.338510 
#    z -0.449100 -1.338510 5.356820 
# 
# 
# High freq. dielectric constant tensor:
#      x y z
#    x 1.874510 -0.006200 0.000990 
#    y -0.006200 1.865350 0.012770 
#    z 0.000990 0.012770 1.876070 
# 
# From -- ./inp_files/299262.got.cif
#   From: 2010.06.25/outbox.cif.g09.slc.cpg/sg2_150_cif.got.tgz:299262.got - 2010.06.27 13:26:56.
