data_PCOD8034403
_publ_section_title
;
Structure prediction by ZEFSAII (Michael W. Deem and Ramdas Pophale) SiO2 
 PCOD8034403
Probable space group: P -1
;
_chemical_formula_sum "Si O2"
_cell_formula_units_Z 14
_cell_length_a 8.988490
_cell_length_b 9.478926
_cell_length_c 8.991518
_cell_angle_alpha 124.439849
_cell_angle_beta 89.248930
_cell_angle_gamma 80.645747
_cell_volume 618.192673
_symmetry_space_group_name_H-M "P -1"
_symmetry_group_IT_number 2
_symmetry_cell_setting 'triclinic'
loop_
_space_group_symop_operation_xyz
x,y,z
-x,-y,-z
loop_
_atom_site_type_symbol
_atom_site_label
_atom_site_fract_x
_atom_site_fract_y
_atom_site_fract_z
Si Si1 0.889561 0.659566 0.525288
Si Si2 0.289171 0.187886 0.117475
Si Si3 0.380669 0.818564 0.010140
Si Si4 0.313468 0.454400 0.783045
Si Si5 0.585081 0.154627 0.622127
Si Si6 0.853927 0.528500 0.920104
Si Si7 0.102156 0.832296 0.469103
O O1 0.741456 0.729774 0.668834
O O2 0.824092 0.607761 0.338125
O O3 0.000000 0.500000 0.500000
O O4 0.999103 0.800759 0.592171
O O5 0.446156 0.216884 0.066504
O O6 0.156918 0.298214 0.079448
O O7 0.286936 0.983170 0.015101
O O8 0.311701 0.654759 0.861212
O O9 0.365893 0.848711 0.206575
O O10 0.478196 0.335177 0.678511
O O11 0.291913 0.437703 0.950142
O O12 0.730591 0.123682 0.489338
O O13 0.500000 0.000000 0.500000
O O14 0.860718 0.350562 0.726953
O O15 0.000000 0.500000 0.000000
O O16 0.000000 0.000000 0.500000
#
# Coordination Sequence:
#
# PCOD8034403 Si02
#       7
#     2   2   2   2   2   2   2
#     4  12  26  48  66 103 151 185 228 292 361 423
#     4  11  24  46  67  99 152 180 230 294 356 421
#     4  11  24  44  74 104 138 183 237 298 351 415
#     4  12  24  45  75 105 135 191 247 287 349 421
#     4  12  25  45  76 108 141 185 242 300 346 424
#     4  12  23  45  73  99 138 192 236 292 347 422
#     4  12  25  44  71 104 139 184 237 287 352 419
#
# _framework density 22.646660000000001
#
# number of rings (size 3 to 8) (size 9 to 14) (size 15 to 20)
#    0.000    0.286    5.714    3.857    0.000    0.571 
#    7.714    1.429    0.000    0.000    0.000    0.000 
#    0.000    0.000    0.000    0.000    0.000    0.000 
#
# Total GULP energy -173482.484678 kJ/mol
# GULP energy per Si atom -12391.606048 kJ/mol
# Density = 2.259511 g / cm^3
# Si number density = 22.646660 Si / 1000 Ang^3
#
#
#
# Elastic Constant Matrix: (Units=GPa)
#
#
# Indices 1 2 3 4 5 6 
#
# 1 104.8013 56.6472 19.3139 4.8336 -1.1418 3.2557
# 2 56.6472 193.5810 37.0408 15.9818 2.4694 -7.8594
# 3 19.3139 37.0408 58.8975 4.0555 -9.9968 -0.6297
# 4 4.8336 15.9818 4.0555 36.1187 4.5071 -5.4868
# 5 -1.1418 2.4694 -9.9968 4.5071 34.0362 3.1562
# 6 3.2557 -7.8594 -0.6297 -5.4868 3.1562 46.0966
#
#
#
# Elastic Compliance Matrix: (Units=1/GPa)
#
#
# Indices 1 2 3 4 5 6 
#
# 1 0.011604 -0.003089 -0.001822 -0.000226 0.000240 -0.001414
# 2 -0.003089 0.006961 -0.003473 -0.001903 -0.001491 0.001233
# 3 -0.001822 -0.003473 0.020982 -0.001526 0.006631 -0.000813
# 4 -0.000226 -0.001903 -0.001526 0.029841 -0.004597 0.003537
# 5 0.000240 -0.001491 0.006631 -0.004597 0.032326 -0.002941
# 6 -0.001414 0.001233 -0.000813 0.003537 -0.002941 0.022615
#
#
# Mechanical properties :
#
#
# Convention : Reuss Voigt Hill
#
# Bulk Modulus (GPa) = 43.89961 64.80929 54.35445
# Shear Modulus (GPa) = 33.62700 39.53549 36.58125
#
# Velocity S-wave (km/s) = 3.85756 4.18275 4.02344
# Velocity P-wave (km/s) = 6.26640 7.21159 6.75554
#
# Compressibility (1/GPa) = 0.02277925
#
# Stress axis : x y z
#
# Youngs Moduli (GPa) = 86.17569 143.66697 47.65922
#
# Poissons Ratio (x) = 0.44378 0.08681
# Poissons Ratio (y) = 0.26619 0.16554
# Poissons Ratio (z) = 0.15697 0.49902
#
# Static dielectric constant tensor:
#      x y z
#    x 4.381260 0.185850 -0.548800 
#    y 0.185850 4.447110 0.015870 
#    z -0.548800 0.015870 4.498810 
# 
# 
# High freq. dielectric constant tensor:
#      x y z
#    x 1.898930 0.001280 -0.030720 
#    y 0.001280 1.915340 0.011420 
#    z -0.030720 0.011420 1.879570 
# 
# From -- ./inp_files/156915.got.cif
#   From: 2010.06.25/outbox.cif.g09.slc.cpg/sg2_79_cif.got.tgz:156915.got - 2010.06.27 13:26:56.
