data_PCOD8034251
_publ_section_title
;
Structure prediction by ZEFSAII (Michael W. Deem and Ramdas Pophale) SiO2 
 PCOD8034251
Probable space group: P -1
;
_chemical_formula_sum "Si O2"
_cell_formula_units_Z 14
_cell_length_a 20.419650
_cell_length_b 20.481124
_cell_length_c 12.286772
_cell_angle_alpha 22.045793
_cell_angle_beta 146.677537
_cell_angle_gamma 159.474071
_cell_volume 655.400155
_symmetry_space_group_name_H-M "P -1"
_symmetry_group_IT_number 2
_symmetry_cell_setting 'triclinic'
loop_
_space_group_symop_operation_xyz
x,y,z
-x,-y,-z
loop_
_atom_site_type_symbol
_atom_site_label
_atom_site_fract_x
_atom_site_fract_y
_atom_site_fract_z
Si Si1 0.039142 0.492423 0.914770
Si Si2 0.058451 0.261734 0.705899
Si Si3 0.315055 0.880023 0.876265
Si Si4 0.903571 0.203280 0.801547
Si Si5 0.524104 0.324359 0.307088
Si Si6 0.512856 0.215699 0.207701
Si Si7 0.907080 0.728156 0.847167
O O1 0.169679 0.590949 0.049758
O O2 0.046078 0.705943 0.558852
O O3 0.115830 0.462422 0.970000
O O4 0.815521 0.189290 0.100818
O O5 0.287348 0.532141 0.592099
O O6 0.021144 0.245666 0.805244
O O7 0.000000 0.000000 0.000000
O O8 0.359591 0.073125 0.548298
O O9 0.500000 0.000000 0.000000
O O10 0.000000 0.500000 0.500000
O O11 0.678736 0.927829 0.889598
O O12 0.928475 0.121020 0.070785
O O13 0.507884 0.233781 0.302602
O O14 0.500000 0.500000 0.000000
O O15 0.500000 0.000000 0.500000
O O16 0.699766 0.518766 0.942190
O O17 0.000000 0.000000 0.500000
#
# Coordination Sequence:
#
# PCOD8034251 Si02
#       7
#     2   2   2   2   2   2   2
#     4  11  25  45  69 100 146 186 230 296 352 416
#     4  12  23  43  73 107 140 182 239 296 346 420
#     4  11  24  44  69  99 139 186 230 283 363 417
#     4  12  23  45  75 103 139 192 240 289 354 425
#     4  12  25  43  70 106 139 178 237 294 348 423
#     4  12  24  46  75 102 138 189 241 290 352 427
#     4  12  28  46  71 107 146 185 239 297 358 422
#
# _framework density 21.360994999999999
#
# number of rings (size 3 to 8) (size 9 to 14) (size 15 to 20)
#    0.000    0.286    5.714    3.429    2.000    4.000 
#    2.571    0.000    0.000    0.000    0.000    0.000 
#    0.000    0.000    0.000    0.000    0.000    0.000 
#
# Total GULP energy -173475.536657 kJ/mol
# GULP energy per Si atom -12391.109761 kJ/mol
# Density = 2.131238 g / cm^3
# Si number density = 21.360995 Si / 1000 Ang^3
#
#
#
# Elastic Constant Matrix: (Units=GPa)
#
#
# Indices 1 2 3 4 5 6 
#
# 1 117.6776 10.9433 49.6779 -4.6192 -0.3748 -10.9192
# 2 10.9433 135.4558 30.3356 12.2083 -6.9831 -3.2058
# 3 49.6779 30.3356 138.2500 -5.9819 -10.5795 -0.3988
# 4 -4.6192 12.2083 -5.9819 35.9399 1.1465 -6.8644
# 5 -0.3748 -6.9831 -10.5795 1.1465 41.7626 -4.5340
# 6 -10.9192 -3.2058 -0.3988 -6.8644 -4.5340 35.1229
#
#
#
# Elastic Compliance Matrix: (Units=1/GPa)
#
#
# Indices 1 2 3 4 5 6 
#
# 1 0.010438 -0.000090 -0.003700 0.001423 -0.000528 0.003405
# 2 -0.000090 0.008127 -0.001806 -0.003062 0.001009 0.000225
# 3 -0.003700 -0.001806 0.009164 0.001473 0.001872 -0.000682
# 4 0.001423 -0.003062 0.001473 0.030466 -0.000301 0.006095
# 5 -0.000528 0.001009 0.001872 -0.000301 0.024929 0.003109
# 6 0.003405 0.000225 -0.000682 0.006095 0.003109 0.031135
#
#
# Mechanical properties :
#
#
# Convention : Reuss Voigt Hill
#
# Bulk Modulus (GPa) = 60.46379 63.69965 62.08172
# Shear Modulus (GPa) = 38.17830 42.59350 40.38590
#
# Velocity S-wave (km/s) = 4.23222 4.47025 4.35286
# Velocity P-wave (km/s) = 7.22838 7.51861 7.37492
#
# Compressibility (1/GPa) = 0.01653883
#
# Stress axis : x y z
#
# Youngs Moduli (GPa) = 95.80106 123.03963 109.12095
#
# Poissons Ratio (x) = 0.01102 0.40377
# Poissons Ratio (y) = 0.00858 0.19705
# Poissons Ratio (z) = 0.35448 0.22218
#
# Static dielectric constant tensor:
#      x y z
#    x 3.868380 -0.169020 -0.134590 
#    y -0.169020 4.438030 0.204920 
#    z -0.134590 0.204920 3.688170 
# 
# 
# High freq. dielectric constant tensor:
#      x y z
#    x 1.852070 0.003630 -0.018230 
#    y 0.003630 1.862410 0.002380 
#    z -0.018230 0.002380 1.826010 
# 
# From -- ./inp_files/283416.got.cif
#   From: 2010.06.25/outbox.cif.g09.slc.cpg/sg2_142_cif.got.tgz:283416.got - 2010.06.27 13:26:56.
