data_PCOD8034448
_publ_section_title
;
Structure prediction by ZEFSAII (Michael W. Deem and Ramdas Pophale) SiO2 
 PCOD8034448
Probable space group: P -1
;
_chemical_formula_sum "Si O2"
_cell_formula_units_Z 12
_cell_length_a 9.823269
_cell_length_b 8.959375
_cell_length_c 12.531960
_cell_angle_alpha 108.578560
_cell_angle_beta 136.745123
_cell_angle_gamma 45.834992
_cell_volume 500.552883
_symmetry_space_group_name_H-M "P -1"
_symmetry_group_IT_number 2
_symmetry_cell_setting 'triclinic'
loop_
_space_group_symop_operation_xyz
x,y,z
-x,-y,-z
loop_
_atom_site_type_symbol
_atom_site_label
_atom_site_fract_x
_atom_site_fract_y
_atom_site_fract_z
Si Si1 0.373693 0.314375 0.988324
Si Si2 0.579193 0.133515 0.834319
Si Si3 0.221089 0.684680 0.113099
Si Si4 0.835481 0.434402 0.731816
Si Si5 0.014841 0.029220 0.638480
Si Si6 0.561377 0.059058 0.442239
O O1 0.242431 0.561170 0.993261
O O2 0.397038 0.283023 0.867572
O O3 0.667743 0.126524 0.175340
O O4 0.162023 0.301151 0.910343
O O5 0.574217 0.281013 0.780416
O O6 0.442295 0.056938 0.686602
O O7 0.902268 0.923190 0.006772
O O8 0.315448 0.532658 0.236455
O O9 0.830128 0.290879 0.614605
O O10 0.674335 0.673029 0.644331
O O11 0.870880 0.964601 0.604547
O O12 0.000000 0.000000 0.500000
O O13 0.500000 0.000000 0.500000
#
# Coordination Sequence:
#
# PCOD8034448 Si02
#       6
#     2   2   2   2   2   2
#     4  12  25  45  79 109 142 192 253 291 353 439
#     4  11  25  47  74 107 147 191 245 294 356 436
#     4  11  24  44  79 105 140 187 252 294 347 423
#     4  12  25  49  75 104 143 201 245 292 359 442
#     4  12  27  45  71 110 152 184 240 306 366 425
#     4  12  28  48  72 106 151 191 237 305 373 421
#
# _framework density 23.973490000000002
#
# number of rings (size 3 to 8) (size 9 to 14) (size 15 to 20)
#    0.000    0.333    3.333    5.000    4.667    2.667 
#    0.000    2.500    0.000    0.000    0.000    0.000 
#    0.000    0.000    0.000    0.000    0.000    0.000 
#
# Total GULP energy -148877.875522 kJ/mol
# GULP energy per Si atom -12406.489627 kJ/mol
# Density = 2.391893 g / cm^3
# Si number density = 23.973490 Si / 1000 Ang^3
#
#
#
# Elastic Constant Matrix: (Units=GPa)
#
#
# Indices 1 2 3 4 5 6 
#
# 1 144.9301 74.2305 51.8856 -2.3448 -12.3556 15.3761
# 2 74.2305 152.6445 32.3980 35.0502 -11.4946 2.7540
# 3 51.8856 32.3980 92.1427 15.1271 -3.8039 6.6536
# 4 -2.3448 35.0502 15.1271 39.3421 7.2913 -1.7029
# 5 -12.3556 -11.4946 -3.8039 7.2913 36.4456 5.9515
# 6 15.3761 2.7540 6.6536 -1.7029 5.9515 45.3973
#
#
#
# Elastic Compliance Matrix: (Units=1/GPa)
#
#
# Indices 1 2 3 4 5 6 
#
# 1 0.013367 -0.007301 -0.006327 0.009593 0.000109 -0.002812
# 2 -0.007301 0.013201 0.001900 -0.013766 0.004595 0.000275
# 3 -0.006327 0.001900 0.015241 -0.008301 0.001829 -0.000757
# 4 0.009593 -0.013766 -0.008301 0.043561 -0.010977 0.001876
# 5 0.000109 0.004595 0.001829 -0.010977 0.032162 -0.005212
# 6 -0.002812 0.000275 -0.000757 0.001876 -0.005212 0.023828
#
#
# Mechanical properties :
#
#
# Convention : Reuss Voigt Hill
#
# Bulk Modulus (GPa) = 54.49289 78.52728 66.51008
# Shear Modulus (GPa) = 29.25083 39.65055 34.45069
#
# Velocity S-wave (km/s) = 3.49683 4.07127 3.79493
# Velocity P-wave (km/s) = 6.25169 7.41130 6.85605
#
# Compressibility (1/GPa) = 0.01835102
#
# Stress axis : x y z
#
# Youngs Moduli (GPa) = 74.80862 75.75434 65.61374
#
# Poissons Ratio (x) = 0.55311 0.41516
# Poissons Ratio (y) = 0.54620 -0.12465
# Poissons Ratio (z) = 0.47334 -0.14392
#
# Static dielectric constant tensor:
#      x y z
#    x 4.650630 0.030320 0.344490 
#    y 0.030320 4.612640 0.302940 
#    z 0.344490 0.302940 4.249210 
# 
# 
# High freq. dielectric constant tensor:
#      x y z
#    x 1.966290 0.000320 0.010620 
#    y 0.000320 1.969520 0.019420 
#    z 0.010620 0.019420 1.938250 
# 
# From -- ./inp_files/157047.got.cif
#   From: 2010.06.25/outbox.cif.g09.slc.cpg/sg2_79_cif.got.tgz:157047.got - 2010.06.27 13:26:56.
