data_PCOD8034617
_publ_section_title
;
Structure prediction by ZEFSAII (Michael W. Deem and Ramdas Pophale) SiO2 
 PCOD8034617
Probable space group: P -1
;
_chemical_formula_sum "Si O2"
_cell_formula_units_Z 16
_cell_length_a 12.317885
_cell_length_b 20.938513
_cell_length_c 9.182431
_cell_angle_alpha 151.982171
_cell_angle_beta 131.073387
_cell_angle_gamma 39.496302
_cell_volume 705.261077
_symmetry_space_group_name_H-M "P -1"
_symmetry_group_IT_number 2
_symmetry_cell_setting 'triclinic'
loop_
_space_group_symop_operation_xyz
x,y,z
-x,-y,-z
loop_
_atom_site_type_symbol
_atom_site_label
_atom_site_fract_x
_atom_site_fract_y
_atom_site_fract_z
Si Si1 0.370911 0.063183 0.782529
Si Si2 0.808972 0.054338 0.811090
Si Si3 0.593821 0.467531 0.867147
Si Si4 0.836574 0.573784 0.195408
Si Si5 0.257478 0.121170 0.119057
Si Si6 0.781066 0.635043 0.944073
Si Si7 0.813966 0.100725 0.227460
Si Si8 0.654229 0.409094 0.341556
O O1 0.322390 0.953733 0.427806
O O2 0.562419 0.954469 0.791250
O O3 0.257038 0.136086 0.974129
O O4 0.345786 0.202962 0.932397
O O5 0.770995 0.038952 0.916276
O O6 0.791822 0.226209 0.139124
O O7 0.002811 0.917742 0.662298
O O8 0.671998 0.285989 0.512476
O O9 0.430841 0.596758 0.892331
O O10 0.500000 0.500000 0.000000
O O11 0.734231 0.514939 0.081497
O O12 0.860431 0.697201 0.560055
O O13 0.023992 0.415973 0.011444
O O14 0.740613 0.657654 0.127044
O O15 0.179385 0.013299 0.867343
O O16 0.756306 0.495913 0.584869
O O17 0.500000 0.500000 0.500000
#
# Coordination Sequence:
#
# PCOD8034617 Si02
#       8
#     2   2   2   2   2   2   2   2
#     4  11  26  42  66 100 134 176 222 275 333 401
#     4  11  24  45  72  99 132 175 233 280 334 396
#     4  12  27  43  69 100 140 177 219 277 345 405
#     4  11  24  46  70  99 134 179 224 282 335 403
#     4  11  26  42  64  98 141 174 220 270 339 401
#     4  11  24  45  72  99 132 175 233 280 334 396
#     4  11  24  46  70  99 134 179 224 282 335 403
#     4  12  23  43  69 104 130 172 233 279 331 399
#
# _framework density 22.686634000000002
#
# number of rings (size 3 to 8) (size 9 to 14) (size 15 to 20)
#    0.000    0.750    2.500    3.750    7.000    6.000 
#    4.500    0.000    0.000    0.000    0.000    0.000 
#    0.000    0.000    0.000    0.000    0.000    0.000 
#
# Total GULP energy -198396.977650 kJ/mol
# GULP energy per Si atom -12399.811103 kJ/mol
# Density = 2.263500 g / cm^3
# Si number density = 22.686634 Si / 1000 Ang^3
#
#
#
# Elastic Constant Matrix: (Units=GPa)
#
#
# Indices 1 2 3 4 5 6 
#
# 1 130.6067 25.8311 32.1457 -2.1887 -3.8068 7.5467
# 2 25.8311 68.1587 16.8593 -10.3430 -7.4700 7.4919
# 3 32.1457 16.8593 92.3990 4.5865 5.6381 3.6008
# 4 -2.1887 -10.3430 4.5865 28.4142 2.1088 0.6135
# 5 -3.8068 -7.4700 5.6381 2.1088 45.3452 1.8981
# 6 7.5467 7.4919 3.6008 0.6135 1.8981 30.3706
#
#
#
# Elastic Compliance Matrix: (Units=1/GPa)
#
#
# Indices 1 2 3 4 5 6 
#
# 1 0.008896 -0.002462 -0.002647 0.000192 0.000718 -0.001338
# 2 -0.002462 0.018061 -0.002803 0.006700 0.002966 -0.003832
# 3 -0.002647 -0.002803 0.012534 -0.003093 -0.002101 0.000057
# 4 0.000192 0.006700 -0.003093 0.038205 -0.000185 -0.002094
# 5 0.000718 0.002966 -0.002101 -0.000185 0.022959 -0.002092
# 6 -0.001338 -0.003832 0.000057 -0.002094 -0.002092 0.034371
#
#
# Mechanical properties :
#
#
# Convention : Reuss Voigt Hill
#
# Bulk Modulus (GPa) = 42.25172 48.98184 45.61678
# Shear Modulus (GPa) = 31.49788 35.24791 33.37289
#
# Velocity S-wave (km/s) = 3.73015 3.94596 3.83957
# Velocity P-wave (km/s) = 6.10054 6.51140 6.30931
#
# Compressibility (1/GPa) = 0.02366767
#
# Stress axis : x y z
#
# Youngs Moduli (GPa) = 112.40428 55.36784 79.77983
#
# Poissons Ratio (x) = 0.13632 0.21118
# Poissons Ratio (y) = 0.27674 0.22363
# Poissons Ratio (z) = 0.29754 0.15520
#
# Static dielectric constant tensor:
#      x y z
#    x 4.120240 0.088330 -0.085870 
#    y 0.088330 4.013430 -0.021880 
#    z -0.085870 -0.021880 4.017990 
# 
# 
# High freq. dielectric constant tensor:
#      x y z
#    x 1.903180 0.003910 -0.000620 
#    y 0.003910 1.894980 0.002170 
#    z -0.000620 0.002170 1.896100 
# 
# From -- ./inp_files/283513.got.cif
#   From: 2010.06.25/outbox.cif.g09.slc.cpg/sg2_142_cif.got.tgz:283513.got - 2010.06.27 13:26:56.
