data_PCOD8034824
_publ_section_title
;
Structure prediction by ZEFSAII (Michael W. Deem and Ramdas Pophale) SiO2 
 PCOD8034824
Probable space group: P -1
;
_chemical_formula_sum "Si O2"
_cell_formula_units_Z 14
_cell_length_a 8.873114
_cell_length_b 7.952109
_cell_length_c 13.971055
_cell_angle_alpha 129.397157
_cell_angle_beta 132.340052
_cell_angle_gamma 78.181084
_cell_volume 518.539563
_symmetry_space_group_name_H-M "P -1"
_symmetry_group_IT_number 2
_symmetry_cell_setting 'triclinic'
loop_
_space_group_symop_operation_xyz
x,y,z
-x,-y,-z
loop_
_atom_site_type_symbol
_atom_site_label
_atom_site_fract_x
_atom_site_fract_y
_atom_site_fract_z
Si Si1 0.591780 0.767573 0.350441
Si Si2 0.460914 0.146326 0.336053
Si Si3 0.033185 0.084328 0.736701
Si Si4 0.225531 0.480149 0.811526
Si Si5 0.146945 0.377197 0.065281
Si Si6 0.446204 0.024203 0.875477
Si Si7 0.855688 0.621463 0.720947
O O1 0.740889 0.693903 0.314003
O O2 0.409432 0.543689 0.242658
O O3 0.457226 0.905861 0.292553
O O4 0.770087 0.931675 0.562564
O O5 0.671740 0.358368 0.542923
O O6 0.242823 0.190717 0.291976
O O7 0.467649 0.127226 0.214997
O O8 0.096716 0.329201 0.793226
O O9 0.181968 0.941229 0.713542
O O10 0.108130 0.147107 0.901479
O O11 0.069299 0.615674 0.753413
O O12 0.457401 0.695776 0.013070
O O13 0.064240 0.298095 0.107720
O O14 0.000000 0.500000 0.000000
O O15 0.500000 0.000000 0.000000
#
# Coordination Sequence:
#
# PCOD8034824 Si02
#       7
#     2   2   2   2   2   2   2
#     4  12  25  47  80 109 144 198 251 295 367 436
#     4  11  24  46  71  99 152 189 241 296 373 432
#     4  12  23  46  77 109 146 192 249 301 361 438
#     4  12  23  48  74 105 142 192 249 297 358 444
#     4  12  25  45  72 109 151 190 248 305 356 439
#     4  12  26  46  74 111 146 192 249 310 370 429
#     4  11  26  47  69 105 149 192 241 298 372 435
#
# _framework density 26.998905000000001
#
# number of rings (size 3 to 8) (size 9 to 14) (size 15 to 20)
#    0.000    0.286    5.714    3.429    0.000    2.857 
#    7.714    1.429    0.000    0.000    0.000    0.000 
#    0.000    0.000    0.000    0.000    0.000    0.000 
#
# Total GULP energy -173602.696866 kJ/mol
# GULP energy per Si atom -12400.192633 kJ/mol
# Density = 2.693745 g / cm^3
# Si number density = 26.998905 Si / 1000 Ang^3
#
#
#
# Elastic Constant Matrix: (Units=GPa)
#
#
# Indices 1 2 3 4 5 6 
#
# 1 70.7922 38.8471 28.7699 0.0258 1.1251 -21.8181
# 2 38.8471 92.8353 21.2192 -3.5817 -7.7832 -29.7202
# 3 28.7699 21.2192 128.4468 -5.5471 2.1389 9.4596
# 4 0.0258 -3.5817 -5.5471 33.3726 -8.3845 -4.0400
# 5 1.1251 -7.7832 2.1389 -8.3845 51.7716 0.3963
# 6 -21.8181 -29.7202 9.4596 -4.0400 0.3963 51.5995
#
#
#
# Elastic Compliance Matrix: (Units=1/GPa)
#
#
# Indices 1 2 3 4 5 6 
#
# 1 0.021056 -0.006049 -0.004186 -0.000972 -0.001398 0.006121
# 2 -0.006049 0.016517 -0.001843 0.003172 0.003147 0.007518
# 3 -0.004186 -0.001843 0.009396 0.000717 -0.000424 -0.004495
# 4 -0.000972 0.003172 0.000717 0.032306 0.005672 0.003771
# 5 -0.001398 0.003147 -0.000424 0.005672 0.020743 0.001584
# 6 0.006121 0.007518 -0.004495 0.003771 0.001584 0.027405
#
#
# Mechanical properties :
#
#
# Convention : Reuss Voigt Hill
#
# Bulk Modulus (GPa) = 43.83471 52.19409 48.01440
# Shear Modulus (GPa) = 31.41006 40.89793 36.15400
#
# Velocity S-wave (km/s) = 3.41454 3.89627 3.66333
# Velocity P-wave (km/s) = 5.64061 6.29405 5.97627
#
# Compressibility (1/GPa) = 0.02281297
#
# Stress axis : x y z
#
# Youngs Moduli (GPa) = 47.49318 60.54315 106.42319
#
# Poissons Ratio (x) = 0.36623 0.44552
# Poissons Ratio (y) = 0.28729 0.19612
# Poissons Ratio (z) = 0.19882 0.11157
#
# Static dielectric constant tensor:
#      x y z
#    x 5.186900 -0.440510 -0.137100 
#    y -0.440510 4.747680 -0.014930 
#    z -0.137100 -0.014930 4.944860 
# 
# 
# High freq. dielectric constant tensor:
#      x y z
#    x 2.091260 -0.026200 0.001650 
#    y -0.026200 2.080750 -0.004080 
#    z 0.001650 -0.004080 2.088930 
# 
# From -- ./inp_files/494155.got.cif
#   From: 2010.06.25/outbox.cif.g09.slc.cpg/sg2_248_cif.got.tgz:494155.got - 2010.06.27 13:26:56.
