data_PCOD8034493
_publ_section_title
;
Structure prediction by ZEFSAII (Michael W. Deem and Ramdas Pophale) SiO2 
 PCOD8034493
Probable space group: P -1
;
_chemical_formula_sum "Si O2"
_cell_formula_units_Z 14
_cell_length_a 8.822648
_cell_length_b 10.658029
_cell_length_c 11.381981
_cell_angle_alpha 137.050332
_cell_angle_beta 61.741122
_cell_angle_gamma 123.907840
_cell_volume 601.190731
_symmetry_space_group_name_H-M "P -1"
_symmetry_group_IT_number 2
_symmetry_cell_setting 'triclinic'
loop_
_space_group_symop_operation_xyz
x,y,z
-x,-y,-z
loop_
_atom_site_type_symbol
_atom_site_label
_atom_site_fract_x
_atom_site_fract_y
_atom_site_fract_z
Si Si1 0.207234 0.881249 0.841843
Si Si2 0.328813 0.975121 0.466122
Si Si3 0.894425 0.159264 0.898255
Si Si4 0.244592 0.375267 0.774833
Si Si5 0.573811 0.211518 0.927952
Si Si6 0.004889 0.198695 0.376896
Si Si7 0.693363 0.474179 0.401373
O O1 0.077999 0.850785 0.756113
O O2 0.336319 0.749365 0.707791
O O3 0.354105 0.104308 0.948849
O O4 0.067661 0.823400 0.963497
O O5 0.310326 0.189673 0.608077
O O6 0.500000 0.000000 0.500000
O O7 0.350790 0.871716 0.267939
O O8 0.154678 0.817774 0.483860
O O9 0.693314 0.172145 0.963775
O O10 0.051885 0.321735 0.877845
O O11 0.894616 0.947505 0.714981
O O12 0.219112 0.456178 0.711177
O O13 0.389314 0.553089 0.920429
O O14 0.161838 0.411310 0.472533
O O15 0.500000 0.500000 0.500000
#
# Coordination Sequence:
#
# PCOD8034493 Si02
#       7
#     2   2   2   2   2   2   2
#     4  12  25  44  68 108 142 187 229 291 361 411
#     4  11  24  47  71 106 144 183 236 291 359 416
#     4  11  24  45  69 103 140 183 241 287 349 425
#     4  11  26  46  74 106 135 188 244 288 350 418
#     4  12  24  45  77 102 143 187 237 293 346 421
#     4  11  25  45  69 102 145 186 230 297 355 418
#     4  12  26  45  72 104 138 186 243 287 352 420
#
# _framework density 23.287118
#
# number of rings (size 3 to 8) (size 9 to 14) (size 15 to 20)
#    0.000    0.571    2.857    5.143    4.000    2.857 
#    0.000    0.000    0.000    0.000    0.000    0.000 
#    0.000    0.000    0.000    0.000    0.000    0.000 
#
# Total GULP energy -173555.359282 kJ/mol
# GULP energy per Si atom -12396.811377 kJ/mol
# Density = 2.323412 g / cm^3
# Si number density = 23.287118 Si / 1000 Ang^3
#
#
#
# Elastic Constant Matrix: (Units=GPa)
#
#
# Indices 1 2 3 4 5 6 
#
# 1 94.4984 28.5429 24.9271 5.6528 17.4203 13.6721
# 2 28.5429 97.9204 38.8874 -6.1072 25.0559 14.2671
# 3 24.9271 38.8874 114.9271 5.6411 21.8008 6.7943
# 4 5.6528 -6.1072 5.6411 41.5527 0.4301 4.3197
# 5 17.4203 25.0559 21.8008 0.4301 39.8091 2.5704
# 6 13.6721 14.2671 6.7943 4.3197 2.5704 33.8943
#
#
#
# Elastic Compliance Matrix: (Units=1/GPa)
#
#
# Indices 1 2 3 4 5 6 
#
# 1 0.012722 -0.001915 -0.001167 -0.001439 -0.003472 -0.003645
# 2 -0.001915 0.014544 -0.003201 0.003382 -0.006298 -0.004661
# 3 -0.001167 -0.003201 0.010751 -0.001751 -0.003352 0.000140
# 4 -0.001439 0.003382 -0.001751 0.025385 -0.000577 -0.003684
# 5 -0.003472 -0.006298 -0.003352 -0.000577 0.032294 0.002348
# 6 -0.003645 -0.004661 0.000140 -0.003684 0.002348 0.033199
#
#
# Mechanical properties :
#
#
# Convention : Reuss Voigt Hill
#
# Bulk Modulus (GPa) = 39.29288 54.67340 46.98314
# Shear Modulus (GPa) = 33.34566 37.38377 35.36472
#
# Velocity S-wave (km/s) = 3.78820 4.01102 3.90120
# Velocity P-wave (km/s) = 6.00365 6.70671 6.36489
#
# Compressibility (1/GPa) = 0.02544990
#
# Stress axis : x y z
#
# Youngs Moduli (GPa) = 78.60491 68.75829 93.01458
#
# Poissons Ratio (x) = 0.13170 0.10850
# Poissons Ratio (y) = 0.15056 0.29778
# Poissons Ratio (z) = 0.09170 0.22013
#
# Static dielectric constant tensor:
#      x y z
#    x 4.084070 -0.016010 0.022210 
#    y -0.016010 4.332580 0.179140 
#    z 0.022210 0.179140 4.597710 
# 
# 
# High freq. dielectric constant tensor:
#      x y z
#    x 1.917280 -0.000610 -0.000960 
#    y -0.000610 1.923730 -0.000380 
#    z -0.000960 -0.000380 1.939750 
# 
# From -- ./inp_files/185212.got.cif
#   From: 2010.06.25/outbox.cif.g09.slc.cpg/sg2_93_cif.got.tgz:185212.got - 2010.06.27 13:26:56.
