data_PCOD8034809
_publ_section_title
;
Structure prediction by ZEFSAII (Michael W. Deem and Ramdas Pophale) SiO2 
 PCOD8034809
Probable space group: P -1
;
_chemical_formula_sum "Si O2"
_cell_formula_units_Z 14
_cell_length_a 9.647782
_cell_length_b 12.551059
_cell_length_c 9.177156
_cell_angle_alpha 122.894097
_cell_angle_beta 135.813274
_cell_angle_gamma 53.950292
_cell_volume 611.596290
_symmetry_space_group_name_H-M "P -1"
_symmetry_group_IT_number 2
_symmetry_cell_setting 'triclinic'
loop_
_space_group_symop_operation_xyz
x,y,z
-x,-y,-z
loop_
_atom_site_type_symbol
_atom_site_label
_atom_site_fract_x
_atom_site_fract_y
_atom_site_fract_z
Si Si1 0.284031 0.974660 0.832855
Si Si2 0.149964 0.797287 0.382201
Si Si3 0.785382 0.984026 0.871186
Si Si4 0.159901 0.323807 0.345068
Si Si5 0.591173 0.215682 0.725763
Si Si6 0.301552 0.605680 0.849161
Si Si7 0.712781 0.458240 0.539473
O O1 0.087823 0.107021 0.744994
O O2 0.283279 0.854592 0.636859
O O3 0.274381 0.935282 0.963145
O O4 0.500000 0.000000 0.000000
O O5 0.278416 0.769697 0.307340
O O6 0.126447 0.662766 0.335373
O O7 0.801911 0.828660 0.792275
O O8 0.618691 0.060009 0.672658
O O9 0.000000 0.000000 0.000000
O O10 0.345186 0.309706 0.593967
O O11 0.196961 0.417576 0.312572
O O12 0.930457 0.402791 0.297635
O O13 0.698470 0.254530 0.978403
O O14 0.330701 0.595048 0.690577
O O15 0.500000 0.500000 0.000000
O O16 0.500000 0.500000 0.500000
#
# Coordination Sequence:
#
# PCOD8034809 Si02
#       7
#     2   2   2   2   2   2   2
#     4  11  25  45  72 107 141 184 243 292 359 422
#     4  11  24  46  71 105 147 183 230 303 355 416
#     4  12  24  47  76 105 143 188 243 301 353 422
#     4  12  26  46  77 106 141 193 241 293 365 426
#     4  12  24  47  77 104 141 189 244 296 354 425
#     4  12  25  47  73 104 145 186 245 290 349 440
#     4  12  26  48  74 104 152 189 231 299 362 428
#
# _framework density 22.890916000000001
#
# number of rings (size 3 to 8) (size 9 to 14) (size 15 to 20)
#    0.000    0.286    5.714    2.571    0.000    1.143 
#    2.571    3.571    0.000    0.000    0.000    0.000 
#    0.000    0.000    0.000    0.000    0.000    0.000 
#
# Total GULP energy -173491.240729 kJ/mol
# GULP energy per Si atom -12392.231481 kJ/mol
# Density = 2.283882 g / cm^3
# Si number density = 22.890916 Si / 1000 Ang^3
#
#
#
# Elastic Constant Matrix: (Units=GPa)
#
#
# Indices 1 2 3 4 5 6 
#
# 1 170.4387 66.2285 73.0779 -1.3970 -3.3417 0.6747
# 2 66.2285 160.0457 37.3096 -19.2608 5.5696 26.2764
# 3 73.0779 37.3096 101.9067 5.7217 2.0885 10.8557
# 4 -1.3970 -19.2608 5.7217 39.3168 -4.1703 4.0076
# 5 -3.3417 5.5696 2.0885 -4.1703 51.6442 -7.6790
# 6 0.6747 26.2764 10.8557 4.0076 -7.6790 44.0930
#
#
#
# Elastic Compliance Matrix: (Units=1/GPa)
#
#
# Indices 1 2 3 4 5 6 
#
# 1 0.009874 -0.003380 -0.006247 -0.000592 0.001768 0.003763
# 2 -0.003380 0.009484 -0.000636 0.005068 -0.001729 -0.006205
# 3 -0.006247 -0.000636 0.015053 -0.002564 -0.001640 -0.003284
# 4 -0.000592 0.005068 -0.002564 0.028880 0.001136 -0.004807
# 5 0.001768 -0.001729 -0.001640 0.001136 0.020548 0.004882
# 6 0.003763 -0.006205 -0.003284 -0.004807 0.004882 0.028415
#
#
# Mechanical properties :
#
#
# Convention : Reuss Voigt Hill
#
# Bulk Modulus (GPa) = 72.02568 87.29144 79.65856
# Shear Modulus (GPa) = 36.38745 44.06247 40.22496
#
# Velocity S-wave (km/s) = 3.99131 4.39212 4.19650
# Velocity P-wave (km/s) = 7.26455 7.99608 7.63908
#
# Compressibility (1/GPa) = 0.01388394
#
# Stress axis : x y z
#
# Youngs Moduli (GPa) = 101.27450 105.43824 66.43173
#
# Poissons Ratio (x) = 0.35641 0.41500
# Poissons Ratio (y) = 0.34234 0.04227
# Poissons Ratio (z) = 0.63267 0.06710
#
# Static dielectric constant tensor:
#      x y z
#    x 4.094370 -0.003350 -0.056410 
#    y -0.003350 5.812620 0.414590 
#    z -0.056410 0.414590 4.551310 
# 
# 
# High freq. dielectric constant tensor:
#      x y z
#    x 1.905260 -0.003770 -0.001210 
#    y -0.003770 1.930120 -0.003620 
#    z -0.001210 -0.003620 1.905450 
# 
# From -- ./inp_files/190441.got.cif
#   From: 2010.06.25/outbox.cif.g09.slc.cpg/sg2_96_cif.got.tgz:190441.got - 2010.06.27 13:26:56.
