data_PCOD8034178
_publ_section_title
;
Structure prediction by ZEFSAII (Michael W. Deem and Ramdas Pophale) SiO2 
 PCOD8034178
Probable space group: P -1
;
_chemical_formula_sum "Si O2"
_cell_formula_units_Z 14
_cell_length_a 10.990088
_cell_length_b 14.421888
_cell_length_c 8.746741
_cell_angle_alpha 68.369140
_cell_angle_beta 66.073220
_cell_angle_gamma 29.403407
_cell_volume 621.778964
_symmetry_space_group_name_H-M "P -1"
_symmetry_group_IT_number 2
_symmetry_cell_setting 'triclinic'
loop_
_space_group_symop_operation_xyz
x,y,z
-x,-y,-z
loop_
_atom_site_type_symbol
_atom_site_label
_atom_site_fract_x
_atom_site_fract_y
_atom_site_fract_z
Si Si1 0.983938 0.630662 0.608360
Si Si2 0.778224 0.200044 0.071227
Si Si3 0.373893 0.025947 0.194732
Si Si4 0.891982 0.015498 0.690904
Si Si5 0.261873 0.556057 0.011472
Si Si6 0.570947 0.554280 0.340658
Si Si7 0.882440 0.676275 0.296667
O O1 0.920193 0.708535 0.421177
O O2 0.262743 0.487333 0.601610
O O3 0.969389 0.521467 0.668962
O O4 0.785855 0.792798 0.737444
O O5 0.762540 0.325791 0.951638
O O6 0.496220 0.339912 0.090795
O O7 0.853682 0.144128 0.242493
O O8 0.000000 0.000000 0.000000
O O9 0.202189 0.038996 0.236129
O O10 0.589329 0.848642 0.306035
O O11 0.500000 0.000000 0.000000
O O12 0.664823 0.230930 0.731972
O O13 0.000000 0.000000 0.500000
O O14 0.276481 0.569005 0.815547
O O15 0.001138 0.665709 0.105997
O O16 0.500000 0.500000 0.500000
#
# Coordination Sequence:
#
# PCOD8034178 Si02
#       7
#     2   2   2   2   2   2   2
#     4  11  26  45  71 102 142 184 237 293 350 423
#     4  11  24  44  66 105 141 186 236 291 356 420
#     4  12  26  47  73 104 143 187 241 290 357 433
#     4  12  26  44  71 104 143 187 239 298 358 422
#     4  11  26  43  72 103 143 187 239 293 356 428
#     4  12  25  46  70 103 143 187 239 298 357 425
#     4  11  26  46  71 105 140 188 236 291 358 421
#
# _framework density 22.516041000000001
#
# number of rings (size 3 to 8) (size 9 to 14) (size 15 to 20)
#    0.000    0.571    2.857    4.714    8.000    3.429 
#    0.000    0.000    0.000    0.000    0.000    0.000 
#    0.000    0.000    0.000    0.000    0.000    0.000 
#
# Total GULP energy -173524.566084 kJ/mol
# GULP energy per Si atom -12394.611863 kJ/mol
# Density = 2.246479 g / cm^3
# Si number density = 22.516041 Si / 1000 Ang^3
#
#
#
# Elastic Constant Matrix: (Units=GPa)
#
#
# Indices 1 2 3 4 5 6 
#
# 1 91.4679 19.7476 49.9770 5.2377 5.0369 -2.4955
# 2 19.7476 121.7566 26.7210 0.9858 8.4154 9.7087
# 3 49.9770 26.7210 136.7452 11.1137 -4.5323 0.2255
# 4 5.2377 0.9858 11.1137 36.5521 -8.2768 9.8806
# 5 5.0369 8.4154 -4.5323 -8.2768 39.8223 -7.1609
# 6 -2.4955 9.7087 0.2255 9.8806 -7.1609 46.0315
#
#
#
# Elastic Compliance Matrix: (Units=1/GPa)
#
#
# Indices 1 2 3 4 5 6 
#
# 1 0.014067 -0.001122 -0.004895 -0.001250 -0.002188 0.000951
# 2 -0.001122 0.009065 -0.001474 0.000506 -0.002273 -0.002428
# 3 -0.004895 -0.001474 0.009607 -0.001973 0.001738 0.000692
# 4 -0.001250 0.000506 -0.001973 0.030916 0.005174 -0.005996
# 5 -0.002188 -0.002273 0.001738 0.005174 0.027783 0.003564
# 6 0.000951 -0.002428 0.000692 -0.005996 0.003564 0.024126
#
#
# Mechanical properties :
#
#
# Convention : Reuss Voigt Hill
#
# Bulk Modulus (GPa) = 56.31113 60.31788 58.31450
# Shear Modulus (GPa) = 36.63983 41.38281 39.01132
#
# Velocity S-wave (km/s) = 4.03833 4.29175 4.16697
# Velocity P-wave (km/s) = 6.84162 7.16979 7.00763
#
# Compressibility (1/GPa) = 0.01775848
#
# Stress axis : x y z
#
# Youngs Moduli (GPa) = 71.08666 110.31328 104.09568
#
# Poissons Ratio (x) = 0.12376 0.50950
# Poissons Ratio (y) = 0.07975 0.15342
# Poissons Ratio (z) = 0.34794 0.16258
#
# Static dielectric constant tensor:
#      x y z
#    x 5.910490 -3.223250 1.742760 
#    y -3.223250 10.212520 -2.751640 
#    z 1.742760 -2.751640 5.258990 
# 
# 
# High freq. dielectric constant tensor:
#      x y z
#    x 1.890640 -0.007980 0.013860 
#    y -0.007980 1.909950 -0.006720 
#    z 0.013860 -0.006720 1.885630 
# 
# From -- ./inp_files/269720.got.cif
#   From: 2010.06.25/outbox.cif.g09.slc.cpg/sg2_135_cif.got.tgz:269720.got - 2010.06.27 13:26:56.
