data_PCOD8034114
_publ_section_title
;
Structure prediction by ZEFSAII (Michael W. Deem and Ramdas Pophale) SiO2 
 PCOD8034114
Probable space group: P -1
;
_chemical_formula_sum "Si O2"
_cell_formula_units_Z 16
_cell_length_a 8.765907
_cell_length_b 25.742228
_cell_length_c 14.054097
_cell_angle_alpha 21.109386
_cell_angle_beta 128.186047
_cell_angle_gamma 139.613702
_cell_volume 679.615837
_symmetry_space_group_name_H-M "P -1"
_symmetry_group_IT_number 2
_symmetry_cell_setting 'triclinic'
loop_
_space_group_symop_operation_xyz
x,y,z
-x,-y,-z
loop_
_atom_site_type_symbol
_atom_site_label
_atom_site_fract_x
_atom_site_fract_y
_atom_site_fract_z
Si Si1 0.586648 0.693603 0.156321
Si Si2 0.627093 0.201356 0.249166
Si Si3 0.798242 0.567105 0.935453
Si Si4 0.669464 0.521326 0.166031
Si Si5 0.271675 0.063662 0.020939
Si Si6 0.000910 0.201667 0.007065
Si Si7 0.474023 0.849665 0.492974
Si Si8 0.629385 0.200081 0.760021
O O1 0.500000 0.500000 0.500000
O O2 0.625400 0.821104 0.039134
O O3 0.844205 0.812579 0.988585
O O4 0.376620 0.664652 0.054430
O O5 0.481568 0.165703 0.352269
O O6 0.500000 0.000000 0.500000
O O7 0.917318 0.306209 0.211495
O O8 0.796147 0.643098 0.908947
O O9 0.673394 0.350406 0.271880
O O10 0.630156 0.577829 0.777187
O O11 0.695541 0.361223 0.439381
O O12 0.813007 0.657676 0.078054
O O13 0.447751 0.189902 0.784196
O O14 0.293453 0.901532 0.317887
O O15 0.000000 0.000000 0.000000
O O16 0.894709 0.288254 0.762227
O O17 0.755583 0.997116 0.302523
O O18 0.500000 0.000000 0.000000
#
# Coordination Sequence:
#
# PCOD8034114 Si02
#       8
#     2   2   2   2   2   2   2   2
#     4  12  28  46  74 111 145 197 244 309 376 440
#     4  12  26  47  75 105 151 195 247 313 370 443
#     4  11  27  43  74 106 149 191 251 310 367 452
#     4  11  24  44  69 107 142 194 244 303 372 440
#     4  11  25  42  69 106 146 187 241 301 368 445
#     4  11  25  46  76 105 152 190 253 307 369 452
#     4  11  25  48  72 109 143 203 246 307 381 432
#     4  11  24  43  73 104 144 194 240 306 370 439
#
# _framework density 23.542711000000001
#
# number of rings (size 3 to 8) (size 9 to 14) (size 15 to 20)
#    0.000    0.750    1.250    5.250    7.000    5.000 
#    0.000    0.000    0.000    0.000    0.000    0.000 
#    0.000    0.000    0.000    0.000    0.000    0.000 
#
# Total GULP energy -198346.924238 kJ/mol
# GULP energy per Si atom -12396.682765 kJ/mol
# Density = 2.348913 g / cm^3
# Si number density = 23.542711 Si / 1000 Ang^3
#
#
#
# Elastic Constant Matrix: (Units=GPa)
#
#
# Indices 1 2 3 4 5 6 
#
# 1 133.7277 51.9170 18.6105 -6.9852 -11.1228 -3.1145
# 2 51.9170 144.6661 35.8521 10.9781 -6.7255 8.7759
# 3 18.6105 35.8521 99.1307 6.2210 1.4241 5.9042
# 4 -6.9852 10.9781 6.2210 37.8594 2.1719 -0.8581
# 5 -11.1228 -6.7255 1.4241 2.1719 31.7913 3.0925
# 6 -3.1145 8.7759 5.9042 -0.8581 3.0925 46.6024
#
#
#
# Elastic Compliance Matrix: (Units=1/GPa)
#
#
# Indices 1 2 3 4 5 6 
#
# 1 0.009223 -0.003280 -0.000820 0.002686 0.002266 0.001237
# 2 -0.003280 0.009072 -0.002393 -0.002954 0.001252 -0.001762
# 3 -0.000820 -0.002393 0.011261 -0.001266 -0.001116 -0.000980
# 4 0.002686 -0.002954 -0.001266 0.028106 -0.001697 0.001526
# 5 0.002266 0.001252 -0.001116 -0.001697 0.032889 -0.002157
# 6 0.001237 -0.001762 -0.000980 0.001526 -0.002157 0.022168
#
#
# Mechanical properties :
#
#
# Convention : Reuss Voigt Hill
#
# Bulk Modulus (GPa) = 60.35040 65.58708 62.96874
# Shear Modulus (GPa) = 38.10182 41.32694 39.71438
#
# Velocity S-wave (km/s) = 4.02731 4.19430 4.11165
# Velocity P-wave (km/s) = 6.87865 7.16766 7.02464
#
# Compressibility (1/GPa) = 0.01656990
#
# Stress axis : x y z
#
# Youngs Moduli (GPa) = 108.42427 110.22996 88.80298
#
# Poissons Ratio (x) = 0.36158 0.07281
# Poissons Ratio (y) = 0.35566 0.21249
# Poissons Ratio (z) = 0.08890 0.26376
#
# Static dielectric constant tensor:
#      x y z
#    x 2.588700 -0.006440 -0.674230 
#    y -0.006440 4.412630 0.301420 
#    z -0.674230 0.301420 3.940680 
# 
# 
# High freq. dielectric constant tensor:
#      x y z
#    x 1.947790 -0.008420 0.004710 
#    y -0.008420 1.947870 0.019490 
#    z 0.004710 0.019490 1.925630 
# 
# From -- ./inp_files/508985.got.cif
#   From: 2010.06.25/outbox.cif.g09.slc.cpg/sg2_255_cif.got.tgz:508985.got - 2010.06.27 13:26:56.
