data_PCOD8034068
_publ_section_title
;
Structure prediction by ZEFSAII (Michael W. Deem and Ramdas Pophale) SiO2 
 PCOD8034068
Probable space group: P -1
;
_chemical_formula_sum "Si O2"
_cell_formula_units_Z 14
_cell_length_a 9.411121
_cell_length_b 12.667972
_cell_length_c 15.290498
_cell_angle_alpha 151.749214
_cell_angle_beta 60.560450
_cell_angle_gamma 130.840439
_cell_volume 634.317393
_symmetry_space_group_name_H-M "P -1"
_symmetry_group_IT_number 2
_symmetry_cell_setting 'triclinic'
loop_
_space_group_symop_operation_xyz
x,y,z
-x,-y,-z
loop_
_atom_site_type_symbol
_atom_site_label
_atom_site_fract_x
_atom_site_fract_y
_atom_site_fract_z
Si Si1 0.838041 0.705839 0.859835
Si Si2 0.128338 0.892678 0.350873
Si Si3 0.324989 0.218362 0.868618
Si Si4 0.935638 0.049504 0.783228
Si Si5 0.581203 0.218026 0.459451
Si Si6 0.090472 0.611239 0.832549
Si Si7 0.323886 0.539114 0.574190
O O1 0.701566 0.506342 0.679196
O O2 0.941233 0.566675 0.769012
O O3 0.712491 0.760809 0.003639
O O4 0.000000 0.000000 0.000000
O O5 0.034837 0.611788 0.220242
O O6 0.112250 0.865579 0.231461
O O7 0.353303 0.089638 0.451812
O O8 0.000000 0.000000 0.500000
O O9 0.362628 0.984250 0.669075
O O10 0.500000 0.500000 0.000000
O O11 0.162882 0.194454 0.835251
O O12 0.865311 0.745571 0.592913
O O13 0.832182 0.115753 0.939717
O O14 0.634324 0.260881 0.371532
O O15 0.278406 0.631812 0.747449
O O16 0.500000 0.500000 0.500000
#
# Coordination Sequence:
#
# PCOD8034068 Si02
#       7
#     2   2   2   2   2   2   2
#     4  11  25  46  70 105 136 180 232 283 348 405
#     4  12  25  46  68 102 140 184 226 277 350 408
#     4  11  26  45  72 105 136 176 237 284 338 412
#     4  11  24  46  69  98 142 178 228 286 338 408
#     4  12  25  44  74 101 139 182 225 291 342 404
#     4  11  24  43  71  95 138 184 226 283 343 400
#     4  12  24  45  65 103 136 179 233 274 343 410
#
# _framework density 22.070972000000001
#
# number of rings (size 3 to 8) (size 9 to 14) (size 15 to 20)
#    0.000    0.571    2.857    5.571    2.000    3.429 
#    2.571    0.000    0.000    0.000    0.000    0.000 
#    0.000    0.000    0.000    0.000    0.000    0.000 
#
# Total GULP energy -173547.743916 kJ/mol
# GULP energy per Si atom -12396.267423 kJ/mol
# Density = 2.202074 g / cm^3
# Si number density = 22.070972 Si / 1000 Ang^3
#
#
#
# Elastic Constant Matrix: (Units=GPa)
#
#
# Indices 1 2 3 4 5 6 
#
# 1 117.2653 39.1763 51.1630 -10.1682 -3.7697 8.7060
# 2 39.1763 126.1153 42.4998 -0.9063 -2.5361 9.4369
# 3 51.1630 42.4998 122.3437 -9.6567 -5.0950 13.2128
# 4 -10.1682 -0.9063 -9.6567 44.0898 -2.3759 -9.1700
# 5 -3.7697 -2.5361 -5.0950 -2.3759 33.1925 -1.2100
# 6 8.7060 9.4369 13.2128 -9.1700 -1.2100 39.7885
#
#
#
# Elastic Compliance Matrix: (Units=1/GPa)
#
#
# Indices 1 2 3 4 5 6 
#
# 1 0.011036 -0.002141 -0.003683 0.001671 0.000634 -0.000280
# 2 -0.002141 0.009470 -0.002344 -0.001072 -0.000002 -0.001246
# 3 -0.003683 -0.002344 0.010874 0.001136 0.001082 -0.001954
# 4 0.001671 -0.001072 0.001136 0.024500 0.002226 0.005226
# 5 0.000634 -0.000002 0.001082 0.002226 0.030559 0.000945
# 6 -0.000280 -0.001246 -0.001954 0.005226 0.000945 0.027372
#
#
# Mechanical properties :
#
#
# Convention : Reuss Voigt Hill
#
# Bulk Modulus (GPa) = 66.47665 70.15583 68.31624
# Shear Modulus (GPa) = 36.99275 38.93981 37.96628
#
# Velocity S-wave (km/s) = 4.09844 4.20491 4.15202
# Velocity P-wave (km/s) = 7.25129 7.44517 7.34887
#
# Compressibility (1/GPa) = 0.01504288
#
# Stress axis : x y z
#
# Youngs Moduli (GPa) = 90.61361 105.59703 91.96307
#
# Poissons Ratio (x) = 0.22613 0.33868
# Poissons Ratio (y) = 0.19404 0.21558
# Poissons Ratio (z) = 0.33371 0.24755
#
# Static dielectric constant tensor:
#      x y z
#    x 0.890850 3.693970 1.544740 
#    y 3.693970 -0.118290 -1.714290 
#    z 1.544740 -1.714290 3.482070 
# 
# 
# High freq. dielectric constant tensor:
#      x y z
#    x 1.869590 0.000220 -0.006760 
#    y 0.000220 1.884140 0.001380 
#    z -0.006760 0.001380 1.878250 
# 
# From -- ./inp_files/446733.got.cif
#   From: 2010.06.25/outbox.cif.g09.slc.cpg/sg2_224_cif.got.tgz:446733.got - 2010.06.27 13:26:56.
