data_PCOD8034580
_publ_section_title
;
Structure prediction by ZEFSAII (Michael W. Deem and Ramdas Pophale) SiO2 
 PCOD8034580
Probable space group: P -1
;
_chemical_formula_sum "Si O2"
_cell_formula_units_Z 14
_cell_length_a 14.732937
_cell_length_b 9.039496
_cell_length_c 20.554255
_cell_angle_alpha 32.419905
_cell_angle_beta 151.768623
_cell_angle_gamma 149.253694
_cell_volume 617.731995
_symmetry_space_group_name_H-M "P -1"
_symmetry_group_IT_number 2
_symmetry_cell_setting 'triclinic'
loop_
_space_group_symop_operation_xyz
x,y,z
-x,-y,-z
loop_
_atom_site_type_symbol
_atom_site_label
_atom_site_fract_x
_atom_site_fract_y
_atom_site_fract_z
Si Si1 0.881206 0.172053 0.892621
Si Si2 0.750331 0.226353 0.141345
Si Si3 0.342511 0.277648 0.831472
Si Si4 0.754774 0.920689 0.382255
Si Si5 0.023269 0.833698 0.900566
Si Si6 0.398466 0.940761 0.631213
Si Si7 0.582125 0.785205 0.594062
O O1 0.015880 0.536902 0.826419
O O2 0.650644 0.082227 0.750559
O O3 0.865553 0.067759 0.995917
O O4 0.000000 0.000000 0.000000
O O5 0.698994 0.898020 0.198072
O O6 0.727709 0.165589 0.226769
O O7 0.589232 0.370767 0.970029
O O8 0.303940 0.577743 0.689851
O O9 0.184491 0.065050 0.865191
O O10 0.598683 0.569992 0.392071
O O11 0.715656 0.993761 0.403794
O O12 0.000000 0.000000 0.500000
O O13 0.788041 0.816878 0.753133
O O14 0.000000 0.500000 0.000000
O O15 0.349622 0.098988 0.479492
O O16 0.500000 0.000000 0.500000
#
# Coordination Sequence:
#
# PCOD8034580 Si02
#       7
#     2   2   2   2   2   2   2
#     4  12  24  43  73 106 146 183 239 298 366 425
#     4  11  24  45  71 107 143 187 235 301 354 436
#     4  11  25  43  75 102 145 183 246 289 361 431
#     4  12  29  46  71 104 148 188 244 302 358 421
#     4  12  26  46  74 106 141 192 240 294 355 438
#     4  12  27  47  74 108 145 194 238 302 363 429
#     4  12  28  50  76 104 149 194 241 293 373 440
#
# _framework density 22.663550000000001
#
# number of rings (size 3 to 8) (size 9 to 14) (size 15 to 20)
#    0.000    0.286    2.857    5.571    8.000    1.714 
#    0.000    0.000    0.000    0.000    0.000    0.000 
#    0.000    0.000    0.000    0.000    0.000    0.000 
#
# Total GULP energy -173628.516518 kJ/mol
# GULP energy per Si atom -12402.036894 kJ/mol
# Density = 2.261197 g / cm^3
# Si number density = 22.663550 Si / 1000 Ang^3
#
#
#
# Elastic Constant Matrix: (Units=GPa)
#
#
# Indices 1 2 3 4 5 6 
#
# 1 109.5112 3.5060 18.2365 -4.8950 -3.9875 4.5511
# 2 3.5060 73.9264 19.3732 -7.7138 3.8904 19.8770
# 3 18.2365 19.3732 72.7716 -19.2139 -7.8551 -0.4373
# 4 -4.8950 -7.7138 -19.2139 22.7487 -0.4860 -4.8186
# 5 -3.9875 3.8904 -7.8551 -0.4860 53.3785 -5.1526
# 6 4.5511 19.8770 -0.4373 -4.8186 -5.1526 40.6124
#
#
#
# Elastic Compliance Matrix: (Units=1/GPa)
#
#
# Indices 1 2 3 4 5 6 
#
# 1 0.009601 0.000571 -0.002613 -0.000239 0.000155 -0.001392
# 2 0.000571 0.017422 -0.005247 -0.000381 -0.002877 -0.009057
# 3 -0.002613 -0.005247 0.020537 0.016254 0.003889 0.005504
# 4 -0.000239 -0.000381 0.016254 0.059256 0.003703 0.007889
# 5 0.000155 -0.002877 0.003889 0.003703 0.019987 0.004408
# 6 -0.001392 -0.009057 0.005504 0.007889 0.004408 0.030766
#
#
# Mechanical properties :
#
#
# Convention : Reuss Voigt Hill
#
# Bulk Modulus (GPa) = 30.31872 37.60452 33.96162
# Shear Modulus (GPa) = 27.30133 37.68749 32.49441
#
# Velocity S-wave (km/s) = 3.47455 4.08231 3.79063
# Velocity P-wave (km/s) = 5.43171 6.23288 5.84604
#
# Compressibility (1/GPa) = 0.03298292
#
# Stress axis : x y z
#
# Youngs Moduli (GPa) = 104.15475 57.39946 48.69173
#
# Poissons Ratio (x) = -0.03275 0.12721
# Poissons Ratio (y) = -0.05943 0.25546
# Poissons Ratio (z) = 0.27212 0.30115
#
# Static dielectric constant tensor:
#      x y z
#    x 4.159880 0.061740 0.023430 
#    y 0.061740 4.434400 0.134980 
#    z 0.023430 0.134980 4.279960 
# 
# 
# High freq. dielectric constant tensor:
#      x y z
#    x 1.912090 0.003610 -0.004460 
#    y 0.003610 1.907120 -0.002680 
#    z -0.004460 -0.002680 1.903660 
# 
# From -- ./inp_files/159596.got.cif
#   From: 2010.06.25/outbox.cif.g09.slc.cpg/sg2_80_cif.got.tgz:159596.got - 2010.06.27 13:26:56.
