data_PCOD8034243
_publ_section_title
;
Structure prediction by ZEFSAII (Michael W. Deem and Ramdas Pophale) SiO2 
 PCOD8034243
Probable space group: P -1
;
_chemical_formula_sum "Si O2"
_cell_formula_units_Z 14
_cell_length_a 9.856987
_cell_length_b 18.493919
_cell_length_c 8.854422
_cell_angle_alpha 109.834520
_cell_angle_beta 120.367303
_cell_angle_gamma 29.160477
_cell_volume 658.241599
_symmetry_space_group_name_H-M "P -1"
_symmetry_group_IT_number 2
_symmetry_cell_setting 'triclinic'
loop_
_space_group_symop_operation_xyz
x,y,z
-x,-y,-z
loop_
_atom_site_type_symbol
_atom_site_label
_atom_site_fract_x
_atom_site_fract_y
_atom_site_fract_z
Si Si1 0.144257 0.355895 0.496415
Si Si2 0.416621 0.052899 0.663512
Si Si3 0.689899 0.797768 0.817223
Si Si4 0.618511 0.513803 0.965246
Si Si5 0.710061 0.059656 0.020333
Si Si6 0.231515 0.626146 0.557699
Si Si7 0.386374 0.769204 0.121236
O O1 0.279792 0.274256 0.353346
O O2 0.437230 0.240806 0.689729
O O3 0.000000 0.500000 0.500000
O O4 0.900342 0.396635 0.456241
O O5 0.039187 0.211824 0.565487
O O6 0.500000 0.000000 0.500000
O O7 0.580596 0.924976 0.778941
O O8 0.526527 0.088612 0.811094
O O9 0.431852 0.882038 0.851584
O O10 0.022584 0.659907 0.995234
O O11 0.389058 0.613058 0.763828
O O12 0.500000 0.500000 0.000000
O O13 0.605251 0.602620 0.100191
O O14 0.701240 0.152750 0.031029
O O15 0.067372 0.878663 0.103172
O O16 0.500000 0.500000 0.500000
#
# Coordination Sequence:
#
# PCOD8034243 Si02
#       7
#     2   2   2   2   2   2   2
#     4  12  24  46  69 101 139 182 228 293 350 407
#     4  12  22  45  71  99 142 179 225 286 348 409
#     4  12  25  42  72 100 138 178 235 289 341 412
#     4  12  23  44  70 101 133 182 230 281 344 414
#     4  11  25  42  67 105 133 181 230 284 350 411
#     4  12  26  44  71 103 138 182 234 281 349 418
#     4  11  24  44  69  95 143 177 227 284 352 415
#
# _framework density 21.268787
#
# number of rings (size 3 to 8) (size 9 to 14) (size 15 to 20)
#    0.000    0.286    5.714    3.000    0.000    5.714 
#    0.000    0.000    0.000    0.000    0.000    0.000 
#    0.000    0.000    0.000    0.000    0.000    0.000 
#
# Total GULP energy -173569.301631 kJ/mol
# GULP energy per Si atom -12397.807259 kJ/mol
# Density = 2.122038 g / cm^3
# Si number density = 21.268787 Si / 1000 Ang^3
#
#
#
# Elastic Constant Matrix: (Units=GPa)
#
#
# Indices 1 2 3 4 5 6 
#
# 1 106.9263 65.8485 40.2055 10.5369 -9.6711 -13.5382
# 2 65.8485 155.7683 46.9645 -12.7085 -4.3912 -9.7157
# 3 40.2055 46.9645 119.2951 -1.7207 12.6192 -14.6125
# 4 10.5369 -12.7085 -1.7207 49.1358 -5.1299 -4.0127
# 5 -9.6711 -4.3912 12.6192 -5.1299 26.6376 2.4733
# 6 -13.5382 -9.7157 -14.6125 -4.0127 2.4733 49.0951
#
#
#
# Elastic Compliance Matrix: (Units=1/GPa)
#
#
# Indices 1 2 3 4 5 6 
#
# 1 0.015019 -0.005431 -0.003355 -0.004077 0.005225 0.001472
# 2 -0.005431 0.009682 -0.002061 0.003738 0.001316 0.000044
# 3 -0.003355 -0.002061 0.011379 0.000034 -0.007167 0.002418
# 4 -0.004077 0.003738 0.000034 0.022652 0.003361 0.001308
# 5 0.005225 0.001316 -0.007167 0.003361 0.043917 -0.002369
# 6 0.001472 0.000044 0.002418 0.001308 -0.002369 0.021729
#
#
# Mechanical properties :
#
#
# Convention : Reuss Voigt Hill
#
# Bulk Modulus (GPa) = 69.51142 76.44743 72.97942
# Shear Modulus (GPa) = 33.14152 40.23843 36.68997
#
# Velocity S-wave (km/s) = 3.95172 4.35432 4.15789
# Velocity P-wave (km/s) = 7.31948 7.82953 7.57880
#
# Compressibility (1/GPa) = 0.01438613
#
# Stress axis : x y z
#
# Youngs Moduli (GPa) = 66.58198 103.28508 87.87775
#
# Poissons Ratio (x) = 0.56095 0.29482
# Poissons Ratio (y) = 0.36161 0.18113
# Poissons Ratio (z) = 0.22338 0.21289
#
# Static dielectric constant tensor:
#      x y z
#    x 3.286330 0.157580 0.911380 
#    y 0.157580 4.385240 -0.325500 
#    z 0.911380 -0.325500 2.091220 
# 
# 
# High freq. dielectric constant tensor:
#      x y z
#    x 1.826620 0.005790 -0.000430 
#    y 0.005790 1.850470 -0.011440 
#    z -0.000430 -0.011440 1.847410 
# 
# From -- ./inp_files/157245.got.cif
#   From: 2010.06.25/outbox.cif.g09.slc.cpg/sg2_79_cif.got.tgz:157245.got - 2010.06.27 13:26:56.
