data_PCOD8034789
_publ_section_title
;
Structure prediction by ZEFSAII (Michael W. Deem and Ramdas Pophale) SiO2 
 PCOD8034789
Probable space group: P -1
;
_chemical_formula_sum "Si O2"
_cell_formula_units_Z 14
_cell_length_a 20.932025
_cell_length_b 11.410299
_cell_length_c 14.613577
_cell_angle_alpha 45.764686
_cell_angle_beta 20.503175
_cell_angle_gamma 33.886069
_cell_volume 621.859992
_symmetry_space_group_name_H-M "P -1"
_symmetry_group_IT_number 2
_symmetry_cell_setting 'triclinic'
loop_
_space_group_symop_operation_xyz
x,y,z
-x,-y,-z
loop_
_atom_site_type_symbol
_atom_site_label
_atom_site_fract_x
_atom_site_fract_y
_atom_site_fract_z
Si Si1 0.463130 0.144195 0.285645
Si Si2 0.706141 0.742692 0.746782
Si Si3 0.633612 0.373836 0.228473
Si Si4 0.659252 0.125749 0.671957
Si Si5 0.246145 0.355983 0.812167
Si Si6 0.807281 0.123183 0.958454
Si Si7 0.010170 0.245784 0.936377
O O1 0.372743 0.269284 0.241006
O O2 0.230464 0.210108 0.613978
O O3 0.687065 0.869125 0.124057
O O4 0.566975 0.231035 0.157950
O O5 0.000000 0.500000 0.500000
O O6 0.662530 0.966183 0.688257
O O7 0.505430 0.793765 0.059722
O O8 0.460413 0.638839 0.344873
O O9 0.483068 0.296095 0.475989
O O10 0.734678 0.319907 0.016771
O O11 0.873763 0.214825 0.062070
O O12 0.959502 0.975064 0.368958
O O13 0.000000 0.500000 0.000000
O O14 0.194608 0.491910 0.898028
O O15 0.886102 0.920446 0.026369
#
# Coordination Sequence:
#
# PCOD8034789 Si02
#       7
#     2   2   2   2   2   2   2
#     4  12  25  43  67  99 140 179 217 273 340 393
#     4  11  26  49  72  94 128 175 232 286 325 391
#     4  12  24  40  67 102 137 175 221 272 330 405
#     4  11  24  46  70  96 129 171 230 279 329 390
#     4  12  23  40  64 100 143 174 213 269 336 401
#     4  12  24  40  65 100 139 175 215 272 334 402
#     4  12  23  38  64  99 139 178 217 263 332 400
#
# _framework density 22.513103999999998
#
# number of rings (size 3 to 8) (size 9 to 14) (size 15 to 20)
#    0.000    0.286    4.286    5.571    2.000    1.714 
#    0.000    2.857    0.000    0.000    0.000    0.000 
#    0.000    0.000    0.000    0.000    0.000    0.000 
#
# Total GULP energy -173593.762128 kJ/mol
# GULP energy per Si atom -12399.554438 kJ/mol
# Density = 2.246186 g / cm^3
# Si number density = 22.513104 Si / 1000 Ang^3
#
#
#
# Elastic Constant Matrix: (Units=GPa)
#
#
# Indices 1 2 3 4 5 6 
#
# 1 156.5002 31.1368 65.8808 10.3247 -17.5791 -6.1717
# 2 31.1368 57.9614 -13.3741 17.9498 0.3331 11.4389
# 3 65.8808 -13.3741 148.9855 12.1433 -10.0936 -5.9603
# 4 10.3247 17.9498 12.1433 28.0228 7.2562 0.5287
# 5 -17.5791 0.3331 -10.0936 7.2562 36.7727 10.3258
# 6 -6.1717 11.4389 -5.9603 0.5287 10.3258 33.6314
#
#
#
# Elastic Compliance Matrix: (Units=1/GPa)
#
#
# Indices 1 2 3 4 5 6 
#
# 1 0.010522 -0.008606 -0.005436 0.003402 0.002042 0.003214
# 2 -0.008606 0.033707 0.008653 -0.023547 0.006271 -0.013066
# 3 -0.005436 0.008653 0.010691 -0.008839 0.002777 -0.002759
# 4 0.003402 -0.023547 -0.008839 0.056986 -0.014844 0.010728
# 5 0.002042 0.006271 0.002777 -0.014844 0.035123 -0.011816
# 6 0.003214 -0.013066 -0.002759 0.010728 -0.011816 0.037738
#
#
# Mechanical properties :
#
#
# Convention : Reuss Voigt Hill
#
# Bulk Modulus (GPa) = 22.65425 58.97047 40.81236
# Shear Modulus (GPa) = 23.78014 38.33895 31.05954
#
# Velocity S-wave (km/s) = 3.25357 4.13117 3.71835
# Velocity P-wave (km/s) = 4.91923 7.00044 6.05000
#
# Compressibility (1/GPa) = 0.04414183
#
# Stress axis : x y z
#
# Youngs Moduli (GPa) = 95.03921 29.66705 93.53970
#
# Poissons Ratio (x) = 0.25532 0.50845
# Poissons Ratio (y) = 0.81794 -0.80939
# Poissons Ratio (z) = 0.51660 -0.25671
#
# Static dielectric constant tensor:
#      x y z
#    x 4.036340 0.290740 0.076000 
#    y 0.290740 4.237950 0.168790 
#    z 0.076000 0.168790 4.214560 
# 
# 
# High freq. dielectric constant tensor:
#      x y z
#    x 1.881980 0.020050 0.001260 
#    y 0.020050 1.884200 0.012080 
#    z 0.001260 0.012080 1.903520 
# 
# From -- ./inp_files/353232.got.cif
#   From: 2010.06.25/outbox.cif.g09.slc.cpg/sg2_177_cif.got.tgz:353232.got - 2010.06.27 13:26:56.
