data_PCOD8034107
_publ_section_title
;
Structure prediction by ZEFSAII (Michael W. Deem and Ramdas Pophale) SiO2 
 PCOD8034107
Probable space group: P -1
;
_chemical_formula_sum "Si O2"
_cell_formula_units_Z 16
_cell_length_a 11.995956
_cell_length_b 12.307491
_cell_length_c 23.523881
_cell_angle_alpha 21.894169
_cell_angle_beta 142.082262
_cell_angle_gamma 144.542959
_cell_volume 742.424559
_symmetry_space_group_name_H-M "P -1"
_symmetry_group_IT_number 2
_symmetry_cell_setting 'triclinic'
loop_
_space_group_symop_operation_xyz
x,y,z
-x,-y,-z
loop_
_atom_site_type_symbol
_atom_site_label
_atom_site_fract_x
_atom_site_fract_y
_atom_site_fract_z
Si Si1 0.322981 0.844702 0.961955
Si Si2 0.685914 0.841384 0.704916
Si Si3 0.274850 0.810204 0.561170
Si Si4 0.767596 0.188979 0.803164
Si Si5 0.053156 0.118674 0.780606
Si Si6 0.668327 0.066570 0.206864
Si Si7 0.917623 0.739299 0.019765
Si Si8 0.053733 0.190795 0.487317
O O1 0.361201 0.001396 0.839048
O O2 0.135037 0.894441 0.886970
O O3 0.284633 0.482480 0.116903
O O4 0.500000 0.000000 0.000000
O O5 0.487413 0.841471 0.653477
O O6 0.702046 0.919057 0.606801
O O7 0.851685 0.103741 0.679091
O O8 0.192066 0.476083 0.659416
O O9 0.148785 0.845679 0.546129
O O10 0.823906 0.446274 0.651294
O O11 0.910749 0.339864 0.840872
O O12 0.541724 0.096062 0.770893
O O13 0.800445 0.874181 0.950991
O O14 0.025070 0.005785 0.888636
O O15 0.759716 0.437247 0.074381
O O16 0.816284 0.920456 0.363634
O O17 0.000000 0.000000 0.500000
#
# Coordination Sequence:
#
# PCOD8034107 Si02
#       8
#     2   2   2   2   2   2   2   2
#     4  12  25  44  72 105 141 178 229 287 343 411
#     4  11  25  44  71 101 133 183 222 284 347 406
#     4  11  26  47  66  98 141 176 229 280 345 409
#     4  11  25  47  70 100 141 182 234 280 345 406
#     4  12  23  44  71  99 137 178 230 278 347 408
#     4  12  26  45  70 104 137 184 231 283 347 408
#     4  11  24  43  73 102 132 186 226 291 341 404
#     4  12  26  48  70 100 141 186 227 287 342 407
#
# _framework density 21.551010999999999
#
# number of rings (size 3 to 8) (size 9 to 14) (size 15 to 20)
#    0.000    0.500    5.000    3.000    1.750    2.000 
#    2.250    0.000    0.000    0.000    0.000    0.000 
#    0.000    0.000    0.000    0.000    0.000    0.000 
#
# Total GULP energy -198482.225524 kJ/mol
# GULP energy per Si atom -12405.139095 kJ/mol
# Density = 2.150196 g / cm^3
# Si number density = 21.551011 Si / 1000 Ang^3
#
#
#
# Elastic Constant Matrix: (Units=GPa)
#
#
# Indices 1 2 3 4 5 6 
#
# 1 154.0350 48.9908 46.3764 17.4675 8.6812 15.2620
# 2 48.9908 114.8613 37.7665 33.0208 -7.0038 10.1056
# 3 46.3764 37.7665 99.1950 18.4737 3.0723 5.3615
# 4 17.4675 33.0208 18.4737 18.0719 12.2825 -1.7808
# 5 8.6812 -7.0038 3.0723 12.2825 23.5847 3.4425
# 6 15.2620 10.1056 5.3615 -1.7808 3.4425 40.5350
#
#
#
# Elastic Compliance Matrix: (Units=1/GPa)
#
#
# Indices 1 2 3 4 5 6 
#
# 1 0.008084 0.002610 -0.001734 -0.016118 0.007117 -0.004778
# 2 0.002610 -0.047147 -0.013994 0.174428 -0.108281 0.029481
# 3 -0.001734 -0.013994 0.010538 0.032512 -0.022713 0.006105
# 4 -0.016118 0.174428 0.032512 -0.519821 0.337822 -0.093245
# 5 0.007117 -0.108281 -0.022713 0.337822 -0.173655 0.056909
# 6 -0.004778 0.029481 0.006105 -0.093245 0.056909 0.009382
#
#
# Mechanical properties :
#
#
# Convention : Reuss Voigt Hill
#
# Bulk Modulus (GPa) = -18.26123 70.48428 26.11153
# Shear Modulus (GPa) = -7.09585 32.10215 12.50315
#
# Velocity S-wave (km/s) = -1.81652 3.86371 2.41128
# Velocity P-wave (km/s) = 3.59048 7.25817 4.46036
#
# Compressibility (1/GPa) = -0.05476083
#
# Stress axis : x y z
#
# Youngs Moduli (GPa) = 123.70237 -21.21010 94.89172
#
# Poissons Ratio (x) = 0.05536 0.16450
# Poissons Ratio (y) = -0.32288 1.32795
# Poissons Ratio (z) = 0.21445 -0.29682
#
# Static dielectric constant tensor:
#      x y z
#    x 3.877950 0.053970 -0.012040 
#    y 0.053970 4.003000 0.057670 
#    z -0.012040 0.057670 4.038410 
# 
# 
# High freq. dielectric constant tensor:
#      x y z
#    x 1.850940 0.007090 -0.004130 
#    y 0.007090 1.855340 0.006000 
#    z -0.004130 0.006000 1.858040 
# 
# From -- ./inp_files/273112.got.cif
#   From: 2010.06.25/outbox.cif.g09.slc.cpg/sg2_137_cif.got.tgz:273112.got - 2010.06.27 13:26:56.
