data_PCOD8034768
_publ_section_title
;
Structure prediction by ZEFSAII (Michael W. Deem and Ramdas Pophale) SiO2 
 PCOD8034768
Probable space group: P -1
;
_chemical_formula_sum "Si O2"
_cell_formula_units_Z 14
_cell_length_a 17.698777
_cell_length_b 12.257188
_cell_length_c 9.194244
_cell_angle_alpha 129.451776
_cell_angle_beta 148.738478
_cell_angle_gamma 37.512091
_cell_volume 624.526052
_symmetry_space_group_name_H-M "P -1"
_symmetry_group_IT_number 2
_symmetry_cell_setting 'triclinic'
loop_
_space_group_symop_operation_xyz
x,y,z
-x,-y,-z
loop_
_atom_site_type_symbol
_atom_site_label
_atom_site_fract_x
_atom_site_fract_y
_atom_site_fract_z
Si Si1 0.362508 0.900102 0.222707
Si Si2 0.628786 0.282362 0.429256
Si Si3 0.368756 0.204790 0.910836
Si Si4 0.979255 0.368212 0.542544
Si Si5 0.320822 0.643672 0.117832
Si Si6 0.294620 0.239193 0.494113
Si Si7 0.856975 0.982952 0.321808
O O1 0.310427 0.784601 0.114345
O O2 0.585390 0.785789 0.472078
O O3 0.264205 0.087633 0.307895
O O4 0.302701 0.945370 0.995724
O O5 0.535042 0.456801 0.316347
O O6 0.731183 0.284063 0.740484
O O7 0.781977 0.097135 0.443148
O O8 0.453192 0.292412 0.202735
O O9 0.396111 0.210200 0.788781
O O10 0.152385 0.311999 0.680962
O O11 0.500000 0.000000 0.000000
O O12 0.897363 0.555781 0.648206
O O13 0.046126 0.223424 0.656033
O O14 0.823224 0.388034 0.201203
O O15 0.000000 0.000000 0.500000
#
# Coordination Sequence:
#
# PCOD8034768 Si02
#       7
#     2   2   2   2   2   2   2
#     4  11  24  46  70 100 141 183 229 284 356 405
#     4  11  25  46  69 103 142 180 234 284 351 411
#     4  12  22  44  69  98 143 184 224 282 349 412
#     4  12  25  43  74 103 139 184 235 285 345 409
#     4  11  25  45  74 104 132 185 234 291 341 411
#     4  11  25  43  70 101 138 184 231 284 346 417
#     4  12  25  43  67 104 139 179 227 292 342 407
#
# _framework density 22.417000000000002
#
# number of rings (size 3 to 8) (size 9 to 14) (size 15 to 20)
#    0.000    0.571    5.714    1.286    2.000    4.571 
#    2.571    0.000    0.000    0.000    0.000    0.000 
#    0.000    0.000    0.000    0.000    0.000    0.000 
#
# Total GULP energy -173566.366637 kJ/mol
# GULP energy per Si atom -12397.597617 kJ/mol
# Density = 2.236598 g / cm^3
# Si number density = 22.417000 Si / 1000 Ang^3
#
#
#
# Elastic Constant Matrix: (Units=GPa)
#
#
# Indices 1 2 3 4 5 6 
#
# 1 96.8390 55.8746 37.9618 0.2674 10.9558 -6.1029
# 2 55.8746 170.5276 27.7941 0.3954 -3.3724 -12.6563
# 3 37.9618 27.7941 64.2195 5.7644 5.4521 -5.8118
# 4 0.2674 0.3954 5.7644 37.9315 6.7881 -2.1088
# 5 10.9558 -3.3724 5.4521 6.7881 35.8532 -3.7204
# 6 -6.1029 -12.6563 -5.8118 -2.1088 -3.7204 35.9021
#
#
#
# Elastic Compliance Matrix: (Units=1/GPa)
#
#
# Indices 1 2 3 4 5 6 
#
# 1 0.016210 -0.004195 -0.007575 0.001884 -0.004585 -0.000314
# 2 -0.004195 0.007568 -0.000789 -0.000240 0.002373 0.002059
# 3 -0.007575 -0.000789 0.020820 -0.002978 -0.000195 0.001609
# 4 0.001884 -0.000240 -0.002978 0.027804 -0.005323 0.000835
# 5 -0.004585 0.002373 -0.000195 -0.005323 0.030855 0.002910
# 6 -0.000314 0.002059 0.001609 0.000835 0.002910 0.029137
#
#
# Mechanical properties :
#
#
# Convention : Reuss Voigt Hill
#
# Bulk Modulus (GPa) = 51.33453 63.87191 57.60322
# Shear Modulus (GPa) = 30.48681 35.93441 33.21061
#
# Velocity S-wave (km/s) = 3.69180 4.00809 3.85319
# Velocity P-wave (km/s) = 6.41265 7.06924 6.74893
#
# Compressibility (1/GPa) = 0.01948007
#
# Stress axis : x y z
#
# Youngs Moduli (GPa) = 61.69005 132.14262 48.03020
#
# Poissons Ratio (x) = 0.55435 0.36382
# Poissons Ratio (y) = 0.25880 0.03790
# Poissons Ratio (z) = 0.46729 0.10427
#
# Static dielectric constant tensor:
#      x y z
#    x 3.739080 0.047960 0.176640 
#    y 0.047960 4.326480 0.148030 
#    z 0.176640 0.148030 3.712100 
# 
# 
# High freq. dielectric constant tensor:
#      x y z
#    x 1.874540 0.007680 -0.000480 
#    y 0.007680 1.904720 0.002930 
#    z -0.000480 0.002930 1.880900 
# 
# From -- ./inp_files/296090.got.cif
#   From: 2010.06.25/outbox.cif.g09.slc.cpg/sg2_149_cif.got.tgz:296090.got - 2010.06.27 13:26:56.
