data_PCOD8034713
_publ_section_title
;
Structure prediction by ZEFSAII (Michael W. Deem and Ramdas Pophale) SiO2 
 PCOD8034713
Probable space group: P -1
;
_chemical_formula_sum "Si O2"
_cell_formula_units_Z 12
_cell_length_a 11.285204
_cell_length_b 11.284883
_cell_length_c 7.986108
_cell_angle_alpha 97.767074
_cell_angle_beta 61.842269
_cell_angle_gamma 141.081505
_cell_volume 511.504106
_symmetry_space_group_name_H-M "P -1"
_symmetry_group_IT_number 2
_symmetry_cell_setting 'triclinic'
loop_
_space_group_symop_operation_xyz
x,y,z
-x,-y,-z
loop_
_atom_site_type_symbol
_atom_site_label
_atom_site_fract_x
_atom_site_fract_y
_atom_site_fract_z
Si Si1 0.074599 0.590689 0.690629
Si Si2 0.216095 0.423461 0.288068
Si Si3 0.896240 0.254658 0.949312
Si Si4 0.226176 0.309093 0.607928
Si Si5 0.046458 0.952885 0.801884
Si Si6 0.461319 0.155550 0.748249
O O1 0.324779 0.742945 0.477007
O O2 0.942839 0.574327 0.637027
O O3 0.927923 0.363156 0.787483
O O4 0.097513 0.672297 0.866591
O O5 0.157428 0.319413 0.481769
O O6 0.476745 0.670147 0.172871
O O7 0.174461 0.291531 0.149818
O O8 0.100073 0.301334 0.829431
O O9 0.641823 0.004274 0.066030
O O10 0.500000 0.500000 0.500000
O O11 0.119577 0.097908 0.633979
O O12 0.263622 0.025157 0.712459
O O13 0.000000 0.000000 0.000000
#
# Coordination Sequence:
#
# PCOD8034713 Si02
#       6
#     2   2   2   2   2   2
#     4  11  24  48  72 109 150 187 247 296 365 431
#     4  12  26  45  75 105 144 196 240 304 362 430
#     4  11  24  45  76 108 144 195 240 299 361 434
#     4  12  24  48  72 106 151 190 243 302 363 426
#     4  12  25  48  71 105 147 187 251 296 358 439
#     4  12  24  46  77 104 149 191 234 308 360 423
#
# _framework density 23.460222000000002
#
# number of rings (size 3 to 8) (size 9 to 14) (size 15 to 20)
#    0.000    0.333    6.667    1.500    0.000    1.333 
#    3.000    0.000    0.000    0.000    0.000    0.000 
#    0.000    0.000    0.000    0.000    0.000    0.000 
#
# Total GULP energy -148707.928881 kJ/mol
# GULP energy per Si atom -12392.327407 kJ/mol
# Density = 2.340683 g / cm^3
# Si number density = 23.460222 Si / 1000 Ang^3
#
#
#
# Elastic Constant Matrix: (Units=GPa)
#
#
# Indices 1 2 3 4 5 6 
#
# 1 125.0612 32.7248 50.1311 -9.7880 24.6495 -19.9889
# 2 32.7248 153.9840 48.5060 -12.5769 8.3402 -16.1360
# 3 50.1311 48.5060 130.5964 -18.5930 -6.5625 -5.5952
# 4 -9.7880 -12.5769 -18.5930 41.6406 -14.4127 14.1387
# 5 24.6495 8.3402 -6.5625 -14.4127 32.8013 -1.1993
# 6 -19.9889 -16.1360 -5.5952 14.1387 -1.1993 38.0779
#
#
#
# Elastic Compliance Matrix: (Units=1/GPa)
#
#
# Indices 1 2 3 4 5 6 
#
# 1 0.014993 0.000371 -0.007531 -0.008636 -0.016312 0.009615
# 2 0.000371 0.007887 -0.003287 -0.001349 -0.003409 0.003447
# 3 -0.007531 -0.003287 0.013621 0.010274 0.013488 -0.006735
# 4 -0.008636 -0.001349 0.010274 0.041491 0.026455 -0.018168
# 5 -0.016312 -0.003409 0.013488 0.026455 0.057348 -0.016042
# 6 0.009615 0.003447 -0.006735 -0.018168 -0.016042 0.038021
#
#
# Mechanical properties :
#
#
# Convention : Reuss Voigt Hill
#
# Bulk Modulus (GPa) = 64.07177 74.70727 69.38952
# Shear Modulus (GPa) = 25.06815 41.05594 33.06205
#
# Velocity S-wave (km/s) = 3.27240 4.18787 3.75811
# Velocity P-wave (km/s) = 6.45354 7.43624 6.96225
#
# Compressibility (1/GPa) = 0.01560750
#
# Stress axis : x y z
#
# Youngs Moduli (GPa) = 66.69591 126.79873 73.41645
#
# Poissons Ratio (x) = -0.04709 0.55288
# Poissons Ratio (y) = -0.02477 0.24135
# Poissons Ratio (z) = 0.50227 0.41684
#
# Static dielectric constant tensor:
#      x y z
#    x 4.846340 -0.343140 0.241390 
#    y -0.343140 4.966350 -0.212030 
#    z 0.241390 -0.212030 4.173660 
# 
# 
# High freq. dielectric constant tensor:
#      x y z
#    x 1.941240 -0.026080 0.008910 
#    y -0.026080 1.939750 -0.006640 
#    z 0.008910 -0.006640 1.920860 
# 
# From -- ./inp_files/254043.got.cif
#   From: 2010.06.25/outbox.cif.g09.slc.cpg/sg2_128_cif.got.tgz:254043.got - 2010.06.27 13:26:56.
