data_PCOD8034625
_publ_section_title
;
Structure prediction by ZEFSAII (Michael W. Deem and Ramdas Pophale) SiO2 
 PCOD8034625
Probable space group: P -1
;
_chemical_formula_sum "Si O2"
_cell_formula_units_Z 16
_cell_length_a 18.321834
_cell_length_b 8.649269
_cell_length_c 6.580152
_cell_angle_alpha 101.758003
_cell_angle_beta 120.884595
_cell_angle_gamma 52.669552
_cell_volume 702.695899
_symmetry_space_group_name_H-M "P -1"
_symmetry_group_IT_number 2
_symmetry_cell_setting 'triclinic'
loop_
_space_group_symop_operation_xyz
x,y,z
-x,-y,-z
loop_
_atom_site_type_symbol
_atom_site_label
_atom_site_fract_x
_atom_site_fract_y
_atom_site_fract_z
Si Si1 0.115653 0.936122 0.664931
Si Si2 0.123234 0.188054 0.068580
Si Si3 0.536173 0.854864 0.327031
Si Si4 0.249018 0.952674 0.539325
Si Si5 0.236308 0.558858 0.965523
Si Si6 0.350580 0.137172 0.851857
Si Si7 0.947296 0.472169 0.218064
Si Si8 0.399927 0.539498 0.490921
O O1 0.148979 0.981475 0.513602
O O2 0.207939 0.704891 0.776686
O O3 0.000000 0.000000 0.500000
O O4 0.097943 0.064726 0.867773
O O5 0.038877 0.317055 0.157534
O O6 0.230083 0.026957 0.299142
O O7 0.132487 0.323108 0.962157
O O8 0.636342 0.830317 0.359007
O O9 0.558325 0.651415 0.366710
O O10 0.500000 0.000000 0.500000
O O11 0.452130 0.946053 0.049394
O O12 0.354335 0.726266 0.624536
O O13 0.263820 0.095746 0.729863
O O14 0.318255 0.330619 0.972604
O O15 0.122241 0.606948 0.864205
O O16 0.296866 0.595480 0.230971
O O17 0.000000 0.500000 0.500000
O O18 0.500000 0.500000 0.500000
#
# Coordination Sequence:
#
# PCOD8034625 Si02
#       8
#     2   2   2   2   2   2   2   2
#     4  12  27  45  72 106 148 189 243 297 366 444
#     4  11  24  45  73 102 146 184 240 300 368 429
#     4  11  24  47  72 100 140 186 243 307 353 421
#     4  12  27  46  73 105 145 193 239 301 369 430
#     4  12  25  46  72 105 146 189 243 291 371 428
#     4  11  26  44  75 103 134 190 248 295 361 429
#     4  11  25  46  73 109 142 190 241 307 360 440
#     4  12  28  46  73 106 150 193 240 300 367 430
#
# _framework density 22.769451
#
# number of rings (size 3 to 8) (size 9 to 14) (size 15 to 20)
#    0.000    0.500    2.500    5.250    7.000    4.500 
#    0.000    0.000    0.000    0.000    0.000    0.000 
#    0.000    0.000    0.000    0.000    0.000    0.000 
#
# Total GULP energy -198266.451687 kJ/mol
# GULP energy per Si atom -12391.653230 kJ/mol
# Density = 2.271763 g / cm^3
# Si number density = 22.769451 Si / 1000 Ang^3
#
#
#
# Elastic Constant Matrix: (Units=GPa)
#
#
# Indices 1 2 3 4 5 6 
#
# 1 121.0221 21.9870 34.8031 -0.1477 -1.8739 11.8846
# 2 21.9870 131.2806 38.2021 -12.1706 -12.3687 16.1146
# 3 34.8031 38.2021 97.2289 -5.2947 -6.3794 17.8342
# 4 -0.1477 -12.1706 -5.2947 46.5148 9.5307 -11.7350
# 5 -1.8739 -12.3687 -6.3794 9.5307 36.4601 2.6364
# 6 11.8846 16.1146 17.8342 -11.7350 2.6364 39.6509
#
#
#
# Elastic Compliance Matrix: (Units=1/GPa)
#
#
# Indices 1 2 3 4 5 6 
#
# 1 0.009349 -0.000615 -0.002865 -0.000864 0.000107 -0.001527
# 2 -0.000615 0.009110 -0.002749 0.001023 0.002466 -0.002143
# 3 -0.002865 -0.002749 0.013256 -0.000656 0.001721 -0.004295
# 4 -0.000864 0.001023 -0.000656 0.025146 -0.006967 0.008043
# 5 0.000107 0.002466 0.001721 -0.006967 0.030820 -0.005919
# 6 -0.001527 -0.002143 -0.004295 0.008043 -0.005919 0.031254
#
#
# Mechanical properties :
#
#
# Convention : Reuss Voigt Hill
#
# Bulk Modulus (GPa) = 51.92723 59.94624 55.93674
# Shear Modulus (GPa) = 36.28157 41.49444 38.88801
#
# Velocity S-wave (km/s) = 3.99611 4.27356 4.13716
# Velocity P-wave (km/s) = 6.64432 7.12290 6.88777
#
# Compressibility (1/GPa) = 0.01925772
#
# Stress axis : x y z
#
# Youngs Moduli (GPa) = 106.96256 109.76530 75.43985
#
# Poissons Ratio (x) = 0.06748 0.21613
# Poissons Ratio (y) = 0.06576 0.20738
# Poissons Ratio (z) = 0.30645 0.30174
#
# Static dielectric constant tensor:
#      x y z
#    x 4.155850 0.219780 -0.146820 
#    y 0.219780 4.454800 -0.186540 
#    z -0.146820 -0.186540 4.195450 
# 
# 
# High freq. dielectric constant tensor:
#      x y z
#    x 1.900690 0.008740 -0.005030 
#    y 0.008740 1.924960 -0.005530 
#    z -0.005030 -0.005530 1.900290 
# 
# From -- ./inp_files/106630.got.cif
#   From: 2010.06.25/outbox.cif.g09.slc.cpg/sg2_54_cif.got.tgz:106630.got - 2010.06.27 13:26:56.
