data_PCOD8034933
_publ_section_title
;
Structure prediction by ZEFSAII (Michael W. Deem and Ramdas Pophale) SiO2 
 PCOD8034933
Probable space group: P -1
;
_chemical_formula_sum "Si O2"
_cell_formula_units_Z 14
_cell_length_a 13.652713
_cell_length_b 14.054257
_cell_length_c 8.477822
_cell_angle_alpha 104.726333
_cell_angle_beta 55.170943
_cell_angle_gamma 149.585479
_cell_volume 553.775794
_symmetry_space_group_name_H-M "P -1"
_symmetry_group_IT_number 2
_symmetry_cell_setting 'triclinic'
loop_
_space_group_symop_operation_xyz
x,y,z
-x,-y,-z
loop_
_atom_site_type_symbol
_atom_site_label
_atom_site_fract_x
_atom_site_fract_y
_atom_site_fract_z
Si Si1 0.631487 0.490564 0.874170
Si Si2 0.715636 0.845030 0.679348
Si Si3 0.843011 0.165365 0.279486
Si Si4 0.258526 0.763742 0.339863
Si Si5 0.347179 0.661702 0.437517
Si Si6 0.217225 0.476476 0.786830
Si Si7 0.802464 0.117888 0.793028
O O1 0.620746 0.428809 0.687263
O O2 0.941597 0.732200 0.761727
O O3 0.500000 0.500000 0.000000
O O4 0.444660 0.279377 0.061822
O O5 0.517406 0.657115 0.641625
O O6 0.758167 0.992476 0.665986
O O7 0.000000 0.000000 0.500000
O O8 0.670870 0.115865 0.522546
O O9 0.641449 0.938923 0.280205
O O10 0.027876 0.364359 0.064752
O O11 0.157333 0.582418 0.444079
O O12 0.090238 0.708329 0.340734
O O13 0.532855 0.945194 0.066909
O O14 0.254998 0.596031 0.679913
O O15 0.046210 0.268412 0.754608
#
# Coordination Sequence:
#
# PCOD8034933 Si02
#       7
#     2   2   2   2   2   2   2
#     4  11  27  48  72 105 143 193 245 305 364 430
#     4  11  26  49  74 104 146 191 245 305 366 423
#     4  11  25  48  69 108 149 188 245 300 361 437
#     4  11  24  46  77 101 158 193 230 311 361 434
#     4  12  25  48  73 108 146 195 239 297 369 424
#     4  11  26  44  74 109 140 192 248 288 364 441
#     4  11  24  49  70 111 149 189 245 300 364 433
#
# _framework density 25.280989000000002
#
# number of rings (size 3 to 8) (size 9 to 14) (size 15 to 20)
#    0.000    0.857    2.857    2.143    6.000    4.000 
#    5.143    0.000    0.000    0.000    0.000    0.000 
#    0.000    0.000    0.000    0.000    0.000    0.000 
#
# Total GULP energy -173456.953015 kJ/mol
# GULP energy per Si atom -12389.782358 kJ/mol
# Density = 2.522345 g / cm^3
# Si number density = 25.280989 Si / 1000 Ang^3
#
#
#
# Elastic Constant Matrix: (Units=GPa)
#
#
# Indices 1 2 3 4 5 6 
#
# 1 147.0893 87.9833 83.9252 -5.0973 6.2788 1.5727
# 2 87.9833 139.3422 64.1073 4.3218 -15.4424 4.8395
# 3 83.9252 64.1073 140.3807 -2.8792 6.6718 -3.1996
# 4 -5.0973 4.3218 -2.8792 36.7440 -5.9713 3.7563
# 5 6.2788 -15.4424 6.6718 -5.9713 48.3225 -3.9814
# 6 1.5727 4.8395 -3.1996 3.7563 -3.9814 50.6951
#
#
#
# Elastic Compliance Matrix: (Units=1/GPa)
#
#
# Indices 1 2 3 4 5 6 
#
# 1 0.014024 -0.006925 -0.005044 0.001903 -0.003143 -0.000480
# 2 -0.006925 0.013203 -0.002185 -0.001782 0.005147 -0.000647
# 3 -0.005044 -0.002185 0.011232 0.000096 -0.001504 0.000949
# 4 0.001903 -0.001782 0.000096 0.028288 0.002519 -0.001781
# 5 -0.003143 0.005147 -0.001504 0.002519 0.023362 0.001159
# 6 -0.000480 -0.000647 0.000949 -0.001781 0.001159 0.020085
#
#
# Mechanical properties :
#
#
# Convention : Reuss Voigt Hill
#
# Bulk Modulus (GPa) = 98.52167 99.87153 99.19660
# Shear Modulus (GPa) = 35.23932 39.87211 37.55571
#
# Velocity S-wave (km/s) = 3.73756 3.97565 3.85844
# Velocity P-wave (km/s) = 7.59480 7.78876 7.69239
#
# Compressibility (1/GPa) = 0.01015005
#
# Stress axis : x y z
#
# Youngs Moduli (GPa) = 71.30404 75.74182 89.03072
#
# Poissons Ratio (x) = 0.52453 0.44910
# Poissons Ratio (y) = 0.49380 0.19453
# Poissons Ratio (z) = 0.35968 0.16550
#
# Static dielectric constant tensor:
#      x y z
#    x 4.980850 0.213100 0.355270 
#    y 0.213100 4.725290 -0.423570 
#    z 0.355270 -0.423570 4.799900 
# 
# 
# High freq. dielectric constant tensor:
#      x y z
#    x 2.018290 0.019800 0.030780 
#    y 0.019800 2.023210 -0.036400 
#    z 0.030780 -0.036400 2.026930 
# 
# From -- ./inp_files/315545.got.cif
#   From: 2010.06.25/outbox.cif.g09.slc.cpg/sg2_158_cif.got.tgz:315545.got - 2010.06.27 13:26:56.
