data_PCOD8034009
_publ_section_title
;
Structure prediction by ZEFSAII (Michael W. Deem and Ramdas Pophale) SiO2 
 PCOD8034009
Probable space group: P -1
;
_chemical_formula_sum "Si O2"
_cell_formula_units_Z 16
_cell_length_a 22.361590
_cell_length_b 8.928520
_cell_length_c 8.490297
_cell_angle_alpha 147.222670
_cell_angle_beta 54.253877
_cell_angle_gamma 129.152608
_cell_volume 705.884439
_symmetry_space_group_name_H-M "P -1"
_symmetry_group_IT_number 2
_symmetry_cell_setting 'triclinic'
loop_
_space_group_symop_operation_xyz
x,y,z
-x,-y,-z
loop_
_atom_site_type_symbol
_atom_site_label
_atom_site_fract_x
_atom_site_fract_y
_atom_site_fract_z
Si Si1 0.680634 0.203796 0.895041
Si Si2 0.448005 0.668053 0.298424
Si Si3 0.833327 0.236981 0.858861
Si Si4 0.582980 0.565477 0.510582
Si Si5 0.951315 0.253483 0.230560
Si Si6 0.084491 0.125366 0.771822
Si Si7 0.195613 0.860342 0.829204
Si Si8 0.288594 0.524016 0.243642
O O1 0.748709 0.123575 0.812221
O O2 0.711381 0.286938 0.745056
O O3 0.609281 0.912979 0.769031
O O4 0.648254 0.460375 0.229670
O O5 0.423135 0.569553 0.426252
O O6 0.375311 0.578287 0.214533
O O7 0.500000 0.000000 0.500000
O O8 0.500000 0.500000 0.000000
O O9 0.901629 0.138648 0.582707
O O10 0.851245 0.583633 0.126225
O O11 0.830367 0.119898 0.935415
O O12 0.500000 0.500000 0.500000
O O13 0.879223 0.320157 0.319628
O O14 0.000000 0.500000 0.500000
O O15 0.911041 0.950098 0.117457
O O16 0.000797 0.181607 0.944317
O O17 0.249787 0.656804 0.559516
O O18 0.241823 0.184989 0.984346
#
# Coordination Sequence:
#
# PCOD8034009 Si02
#       8
#     2   2   2   2   2   2   2   2
#     4  12  24  42  68  93 132 171 221 270 329 391
#     4  12  24  43  69  98 138 176 220 272 331 396
#     4  12  24  44  65 100 130 173 216 279 335 391
#     4  12  24  42  65  97 131 172 220 271 325 389
#     4  11  25  46  69  98 130 179 223 275 335 400
#     4  11  24  43  69  92 133 167 224 263 338 394
#     4  12  27  43  69  97 137 172 225 277 334 399
#     4  12  25  45  67 100 132 179 224 271 336 395
#
# _framework density 22.666601
#
# number of rings (size 3 to 8) (size 9 to 14) (size 15 to 20)
#    0.000    0.250    1.250    8.625    3.500    1.000 
#    0.000    0.000    0.000    0.000    0.000    0.000 
#    0.000    0.000    0.000    0.000    0.000    0.000 
#
# Total GULP energy -198309.542449 kJ/mol
# GULP energy per Si atom -12394.346403 kJ/mol
# Density = 2.261501 g / cm^3
# Si number density = 22.666601 Si / 1000 Ang^3
#
#
#
# Elastic Constant Matrix: (Units=GPa)
#
#
# Indices 1 2 3 4 5 6 
#
# 1 143.2200 46.2407 37.7020 4.7618 6.2893 13.4806
# 2 46.2407 118.7815 28.8031 7.6309 9.6732 -1.3841
# 3 37.7020 28.8031 121.9653 -5.6461 -17.1888 6.0999
# 4 4.7618 7.6309 -5.6461 46.9064 7.2686 -3.2258
# 5 6.2893 9.6732 -17.1888 7.2686 35.5587 -5.5814
# 6 13.4806 -1.3841 6.0999 -3.2258 -5.5814 22.6304
#
#
#
# Elastic Compliance Matrix: (Units=1/GPa)
#
#
# Indices 1 2 3 4 5 6 
#
# 1 0.009189 -0.002817 -0.002304 -0.000727 -0.002735 -0.005803
# 2 -0.002817 0.010351 -0.002121 -0.001079 -0.002802 0.002037
# 3 -0.002304 -0.002121 0.010266 0.000924 0.005762 0.000029
# 4 -0.000727 -0.001079 0.000924 0.022364 -0.003312 0.002489
# 5 -0.002735 -0.002802 0.005762 -0.003312 0.034061 0.007833
# 6 -0.005803 0.002037 0.000029 0.002489 0.007833 0.050049
#
#
# Mechanical properties :
#
#
# Convention : Reuss Voigt Hill
#
# Bulk Modulus (GPa) = 65.26352 67.71758 66.49055
# Shear Modulus (GPa) = 32.07840 39.10049 35.58944
#
# Velocity S-wave (km/s) = 3.76603 4.15785 3.96678
# Velocity P-wave (km/s) = 6.91129 7.27947 7.09777
#
# Compressibility (1/GPa) = 0.01532250
#
# Stress axis : x y z
#
# Youngs Moduli (GPa) = 108.82979 96.61150 97.41336
#
# Poissons Ratio (x) = 0.27211 0.22446
# Poissons Ratio (y) = 0.30652 0.20657
# Poissons Ratio (z) = 0.25076 0.20487
#
# Static dielectric constant tensor:
#      x y z
#    x 4.041620 0.107330 -0.140630 
#    y 0.107330 4.205640 0.006780 
#    z -0.140630 0.006780 4.064400 
# 
# 
# High freq. dielectric constant tensor:
#      x y z
#    x 1.891640 0.005660 -0.015610 
#    y 0.005660 1.916220 -0.000760 
#    z -0.015610 -0.000760 1.906200 
# 
# From -- ./inp_files/352503.got.cif
#   From: 2010.06.25/outbox.cif.g09.slc.cpg/sg2_177_cif.got.tgz:352503.got - 2010.06.27 13:26:56.
