data_PCOD8034676
_publ_section_title
;
Structure prediction by ZEFSAII (Michael W. Deem and Ramdas Pophale) SiO2 
 PCOD8034676
Probable space group: P -1
;
_chemical_formula_sum "Si O2"
_cell_formula_units_Z 16
_cell_length_a 8.404569
_cell_length_b 17.527921
_cell_length_c 12.813791
_cell_angle_alpha 30.687213
_cell_angle_beta 50.499330
_cell_angle_gamma 52.282206
_cell_volume 733.231422
_symmetry_space_group_name_H-M "P -1"
_symmetry_group_IT_number 2
_symmetry_cell_setting 'triclinic'
loop_
_space_group_symop_operation_xyz
x,y,z
-x,-y,-z
loop_
_atom_site_type_symbol
_atom_site_label
_atom_site_fract_x
_atom_site_fract_y
_atom_site_fract_z
Si Si1 0.008851 0.327514 0.910218
Si Si2 0.342962 0.404382 0.229518
Si Si3 0.018457 0.170617 0.310050
Si Si4 0.342816 0.956685 0.946770
Si Si5 0.071451 0.930124 0.891936
Si Si6 0.706413 0.874022 0.563684
Si Si7 0.576007 0.234196 0.516258
Si Si8 0.466384 0.337718 0.665322
O O1 0.882138 0.494790 0.781220
O O2 0.221718 0.342238 0.746567
O O3 0.056323 0.251418 0.091998
O O4 0.885989 0.228395 0.001845
O O5 0.337844 0.268235 0.313732
O O6 0.408025 0.340753 0.391084
O O7 0.500000 0.500000 0.000000
O O8 0.802260 0.247751 0.360967
O O9 0.220707 0.179673 0.287251
O O10 0.000000 0.000000 0.500000
O O11 0.247975 0.929923 0.905587
O O12 0.521490 0.063040 0.740022
O O13 0.441634 0.792341 0.139049
O O14 0.162582 0.038511 0.002711
O O15 0.097705 0.061899 0.644243
O O16 0.500000 0.000000 0.500000
O O17 0.577388 0.301888 0.550938
O O18 0.500000 0.500000 0.500000
#
# Coordination Sequence:
#
# PCOD8034676 Si02
#       8
#     2   2   2   2   2   2   2   2
#     4  12  27  46  72 110 147 189 240 308 363 433
#     4  12  27  49  71 108 151 187 240 300 370 425
#     4  12  25  44  77 107 143 185 249 297 362 426
#     4  11  25  47  74 104 145 190 249 296 359 435
#     4  11  24  45  74 107 136 193 248 299 353 430
#     4  12  26  45  75 105 142 194 245 294 357 437
#     4  12  25  50  76 105 144 202 235 303 360 438
#     4  12  30  46  71 109 150 193 239 301 373 432
#
# _framework density 21.821214999999999
#
# number of rings (size 3 to 8) (size 9 to 14) (size 15 to 20)
#    0.000    0.250    5.000    3.375    7.000    2.000 
#    0.000    0.000    0.000    0.000    0.000    0.000 
#    0.000    0.000    0.000    0.000    0.000    0.000 
#
# Total GULP energy -198499.034540 kJ/mol
# GULP energy per Si atom -12406.189659 kJ/mol
# Density = 2.177155 g / cm^3
# Si number density = 21.821215 Si / 1000 Ang^3
#
#
#
# Elastic Constant Matrix: (Units=GPa)
#
#
# Indices 1 2 3 4 5 6 
#
# 1 92.7860 38.3869 15.2504 -12.6055 5.5653 13.4787
# 2 38.3869 114.6562 24.3032 -15.5511 0.6149 12.3503
# 3 15.2504 24.3032 88.7717 -15.5997 3.3087 15.1928
# 4 -12.6055 -15.5511 -15.5997 46.9306 -3.7968 -3.2303
# 5 5.5653 0.6149 3.3087 -3.7968 44.6270 -4.7432
# 6 13.4787 12.3503 15.1928 -3.2303 -4.7432 39.5997
#
#
#
# Elastic Compliance Matrix: (Units=1/GPa)
#
#
# Indices 1 2 3 4 5 6 
#
# 1 0.013208 -0.003748 -0.000293 0.001840 -0.001765 -0.003276
# 2 -0.003748 0.010737 -0.001775 0.001920 0.000489 -0.001177
# 3 -0.000293 -0.001775 0.013154 0.003325 -0.001083 -0.004252
# 4 0.001840 0.001920 0.003325 0.023635 0.001466 -0.000397
# 5 -0.001765 0.000489 -0.001083 0.001466 0.023227 0.003766
# 6 -0.003276 -0.001177 -0.004252 -0.000397 0.003766 0.028784
#
#
# Mechanical properties :
#
#
# Convention : Reuss Voigt Hill
#
# Bulk Modulus (GPa) = 39.26805 50.23275 44.75040
# Shear Modulus (GPa) = 37.63181 40.78303 39.20742
#
# Velocity S-wave (km/s) = 4.15728 4.32784 4.24342
# Velocity P-wave (km/s) = 6.40924 6.93136 6.67541
#
# Compressibility (1/GPa) = 0.02546600
#
# Stress axis : x y z
#
# Youngs Moduli (GPa) = 75.71185 93.13276 76.02534
#
# Poissons Ratio (x) = 0.34906 0.02229
# Poissons Ratio (y) = 0.28377 0.13496
# Poissons Ratio (z) = 0.02220 0.16533
#
# Static dielectric constant tensor:
#      x y z
#    x 4.191060 -0.468750 0.031170 
#    y -0.468750 5.004910 -0.016810 
#    z 0.031170 -0.016810 4.152500 
# 
# 
# High freq. dielectric constant tensor:
#      x y z
#    x 1.868700 0.002270 0.003960 
#    y 0.002270 1.872470 0.007380 
#    z 0.003960 0.007380 1.864690 
# 
# From -- ./inp_files/184095.got.cif
#   From: 2010.06.25/outbox.cif.g09.slc.cpg/sg2_93_cif.got.tgz:184095.got - 2010.06.27 13:26:56.
