data_PCOD8034893
_publ_section_title
;
Structure prediction by ZEFSAII (Michael W. Deem and Ramdas Pophale) SiO2 
 PCOD8034893
Probable space group: P -1
;
_chemical_formula_sum "Si O2"
_cell_formula_units_Z 14
_cell_length_a 8.884761
_cell_length_b 12.764306
_cell_length_c 8.147929
_cell_angle_alpha 125.340937
_cell_angle_beta 70.542766
_cell_angle_gamma 75.674800
_cell_volume 582.863826
_symmetry_space_group_name_H-M "P -1"
_symmetry_group_IT_number 2
_symmetry_cell_setting 'triclinic'
loop_
_space_group_symop_operation_xyz
x,y,z
-x,-y,-z
loop_
_atom_site_type_symbol
_atom_site_label
_atom_site_fract_x
_atom_site_fract_y
_atom_site_fract_z
Si Si1 0.098130 0.304327 0.883158
Si Si2 0.523807 0.698451 0.832452
Si Si3 0.885409 0.101129 0.469753
Si Si4 0.158319 0.633334 0.454190
Si Si5 0.886281 0.190441 0.041553
Si Si6 0.161519 0.365549 0.584121
Si Si7 0.499242 0.141685 0.707750
O O1 0.164378 0.254545 0.623158
O O2 0.280532 0.292381 0.891573
O O3 0.041785 0.190675 0.865900
O O4 0.909355 0.477406 0.146198
O O5 0.643548 0.537127 0.747087
O O6 0.329149 0.713903 0.867781
O O7 0.631190 0.696751 0.626865
O O8 0.475724 0.847559 0.094535
O O9 0.848032 0.272396 0.620655
O O10 0.668278 0.145466 0.566040
O O11 0.000000 0.000000 0.500000
O O12 0.017451 0.996108 0.169261
O O13 0.117310 0.742559 0.721986
O O14 0.983350 0.610871 0.486834
O O15 0.500000 0.000000 0.500000
#
# Coordination Sequence:
#
# PCOD8034893 Si02
#       7
#     2   2   2   2   2   2   2
#     4  11  24  46  74 105 143 192 239 300 367 433
#     4  12  26  47  75 111 147 191 248 304 361 432
#     4  12  27  49  70 106 151 197 241 301 367 434
#     4  12  26  45  75 107 146 193 244 303 365 428
#     4  12  25  48  74 106 152 192 242 302 364 440
#     4  11  25  44  74 108 145 186 244 304 363 426
#     4  12  26  46  76 101 149 194 246 297 368 433
#
# _framework density 24.019331999999999
#
# number of rings (size 3 to 8) (size 9 to 14) (size 15 to 20)
#    0.000    0.286    5.714    3.000    2.000    1.714 
#    0.000    1.429    0.000    0.000    0.000    0.000 
#    0.000    0.000    0.000    0.000    0.000    0.000 
#
# Total GULP energy -173440.295095 kJ/mol
# GULP energy per Si atom -12388.592507 kJ/mol
# Density = 2.396466 g / cm^3
# Si number density = 24.019332 Si / 1000 Ang^3
#
#
#
# Elastic Constant Matrix: (Units=GPa)
#
#
# Indices 1 2 3 4 5 6 
#
# 1 146.1453 30.6647 29.1424 -12.3882 -18.4902 -0.0373
# 2 30.6647 97.1803 21.1061 -11.6209 -7.5620 12.3589
# 3 29.1424 21.1061 122.4763 -9.6726 6.3799 1.8014
# 4 -12.3882 -11.6209 -9.6726 20.1026 -2.0583 6.9926
# 5 -18.4902 -7.5620 6.3799 -2.0583 52.1573 -2.1048
# 6 -0.0373 12.3589 1.8014 6.9926 -2.1048 24.0320
#
#
#
# Elastic Compliance Matrix: (Units=1/GPa)
#
#
# Indices 1 2 3 4 5 6 
#
# 1 0.008172 -0.001597 -0.001542 0.003624 0.003004 0.000158
# 2 -0.001597 0.013552 -0.001119 0.009811 0.001535 -0.009608
# 3 -0.001542 -0.001119 0.009067 0.002979 -0.001746 -0.001126
# 4 0.003624 0.009811 0.002979 0.068095 0.004032 -0.024724
# 5 0.003004 0.001535 -0.001746 0.004032 0.020833 -0.000003
# 6 0.000158 -0.009608 -0.001126 -0.024724 -0.000003 0.053830
#
#
# Mechanical properties :
#
#
# Convention : Reuss Voigt Hill
#
# Bulk Modulus (GPa) = 44.89316 58.62536 51.75926
# Shear Modulus (GPa) = 26.38650 38.25097 32.31874
#
# Velocity S-wave (km/s) = 3.31804 3.99495 3.67213
# Velocity P-wave (km/s) = 5.78015 6.76314 6.29088
#
# Compressibility (1/GPa) = 0.02227511
#
# Stress axis : x y z
#
# Youngs Moduli (GPa) = 122.36512 73.79198 110.28569
#
# Poissons Ratio (x) = 0.11784 0.17006
# Poissons Ratio (y) = 0.19541 0.12343
# Poissons Ratio (z) = 0.18868 0.08259
#
# Static dielectric constant tensor:
#      x y z
#    x 4.562060 -0.002150 -0.055010 
#    y -0.002150 4.365940 0.097380 
#    z -0.055010 0.097380 4.502550 
# 
# 
# High freq. dielectric constant tensor:
#      x y z
#    x 1.971130 0.000960 0.005390 
#    y 0.000960 1.931760 0.002690 
#    z 0.005390 0.002690 1.968990 
# 
# From -- ./inp_files/208882.got.cif
#   From: 2010.06.25/outbox.cif.g09.slc.cpg/sg2_105_cif.got.tgz:208882.got - 2010.06.27 13:26:56.
