data_PCOD8034229
_publ_section_title
;
Structure prediction by ZEFSAII (Michael W. Deem and Ramdas Pophale) SiO2 
 PCOD8034229
Probable space group: P -1
;
_chemical_formula_sum "Si O2"
_cell_formula_units_Z 16
_cell_length_a 18.479687
_cell_length_b 12.188424
_cell_length_c 8.984283
_cell_angle_alpha 32.381469
_cell_angle_beta 43.254493
_cell_angle_gamma 46.461548
_cell_volume 727.466620
_symmetry_space_group_name_H-M "P -1"
_symmetry_group_IT_number 2
_symmetry_cell_setting 'triclinic'
loop_
_space_group_symop_operation_xyz
x,y,z
-x,-y,-z
loop_
_atom_site_type_symbol
_atom_site_label
_atom_site_fract_x
_atom_site_fract_y
_atom_site_fract_z
Si Si1 0.744804 0.238116 0.253327
Si Si2 0.438325 0.398327 0.327909
Si Si3 0.266525 0.201433 0.681840
Si Si4 0.976429 0.290657 0.346249
Si Si5 0.831120 0.067264 0.629574
Si Si6 0.389325 0.010078 0.434970
Si Si7 0.460137 0.419972 0.798041
Si Si8 0.907980 0.447413 0.592801
O O1 0.761966 0.192349 0.455752
O O2 0.648096 0.433450 0.146250
O O3 0.712214 0.038441 0.449993
O O4 0.847643 0.297109 0.950955
O O5 0.319023 0.379965 0.478141
O O6 0.436032 0.564030 0.274436
O O7 0.506164 0.170436 0.524006
O O8 0.500000 0.500000 0.000000
O O9 0.351999 0.066593 0.595282
O O10 0.163301 0.327324 0.604363
O O11 0.238807 0.049665 0.024545
O O12 0.875812 0.233234 0.474621
O O13 0.953880 0.321594 0.520088
O O14 0.076810 0.100777 0.395623
O O15 0.000000 0.500000 0.000000
O O16 0.433900 0.194073 0.077536
O O17 0.500000 0.500000 0.500000
O O18 0.000000 0.500000 0.500000
#
# Coordination Sequence:
#
# PCOD8034229 Si02
#       8
#     2   2   2   2   2   2   2   2
#     4  11  26  45  69 105 138 182 237 278 350 421
#     4  11  24  44  69 102 136 178 236 284 342 418
#     4  12  24  45  70 103 135 185 232 280 353 411
#     4  11  24  48  68  97 141 175 235 295 342 405
#     4  11  27  42  71 104 133 185 233 286 351 406
#     4  11  24  45  71 100 141 185 230 285 347 421
#     4  11  26  43  68 101 144 179 227 287 350 414
#     4  12  26  47  75  99 141 188 231 289 349 414
#
# _framework density 21.994133999999999
#
# number of rings (size 3 to 8) (size 9 to 14) (size 15 to 20)
#    0.000    0.750    3.750    2.625    7.000    3.500 
#    0.000    0.000    0.000    0.000    0.000    0.000 
#    0.000    0.000    0.000    0.000    0.000    0.000 
#
# Total GULP energy -198375.403335 kJ/mol
# GULP energy per Si atom -12398.462708 kJ/mol
# Density = 2.194407 g / cm^3
# Si number density = 21.994134 Si / 1000 Ang^3
#
#
#
# Elastic Constant Matrix: (Units=GPa)
#
#
# Indices 1 2 3 4 5 6 
#
# 1 154.9303 13.5055 64.0955 0.2538 -21.8619 21.3799
# 2 13.5055 49.4768 25.6956 4.8422 -9.6720 15.5183
# 3 64.0955 25.6956 192.1423 13.5136 -16.5311 19.0027
# 4 0.2538 4.8422 13.5136 41.6784 4.8571 4.8189
# 5 -21.8619 -9.6720 -16.5311 4.8571 46.5017 -2.1089
# 6 21.3799 15.5183 19.0027 4.8189 -2.1089 37.2070
#
#
#
# Elastic Compliance Matrix: (Units=1/GPa)
#
#
# Indices 1 2 3 4 5 6 
#
# 1 0.008277 0.000613 -0.002263 0.000703 0.002969 -0.003778
# 2 0.000613 0.025104 -0.002140 -0.001681 0.004504 -0.009256
# 3 -0.002263 -0.002140 0.006546 -0.001875 0.000975 -0.000852
# 4 0.000703 -0.001681 -0.001875 0.025452 -0.003446 -0.002237
# 5 0.002969 0.004504 0.000975 -0.003446 0.024442 -0.002251
# 6 -0.003778 -0.009256 -0.000852 -0.002237 -0.002251 0.033506
#
#
# Mechanical properties :
#
#
# Convention : Reuss Voigt Hill
#
# Bulk Modulus (GPa) = 30.91679 67.01585 48.96632
# Shear Modulus (GPa) = 35.28842 44.62760 39.95801
#
# Velocity S-wave (km/s) = 4.00990 4.50940 4.26697
# Velocity P-wave (km/s) = 5.96040 7.59269 6.82552
#
# Compressibility (1/GPa) = 0.03234489
#
# Stress axis : x y z
#
# Youngs Moduli (GPa) = 120.82199 39.83405 152.77248
#
# Poissons Ratio (x) = -0.02441 0.34576
# Poissons Ratio (y) = -0.07405 0.32700
# Poissons Ratio (z) = 0.27345 0.08526
#
# Static dielectric constant tensor:
#      x y z
#    x 4.157170 0.264970 -0.188840 
#    y 0.264970 3.671540 0.004630 
#    z -0.188840 0.004630 4.039280 
# 
# 
# High freq. dielectric constant tensor:
#      x y z
#    x 1.879960 0.010480 -0.005370 
#    y 0.010480 1.862400 0.002820 
#    z -0.005370 0.002820 1.884710 
# 
# From -- ./inp_files/47517.got.cif
#   From: 2010.06.25/outbox.cif.g09.slc.cpg/sg2_24_cif.got.tgz:47517.got - 2010.06.27 13:26:56.
