data_PCOD8034763
_publ_section_title
;
Structure prediction by ZEFSAII (Michael W. Deem and Ramdas Pophale) SiO2 
 PCOD8034763
Probable space group: P -1
;
_chemical_formula_sum "Si O2"
_cell_formula_units_Z 14
_cell_length_a 15.297588
_cell_length_b 9.676964
_cell_length_c 15.276832
_cell_angle_alpha 34.432814
_cell_angle_beta 30.678491
_cell_angle_gamma 41.630556
_cell_volume 646.726688
_symmetry_space_group_name_H-M "P -1"
_symmetry_group_IT_number 2
_symmetry_cell_setting 'triclinic'
loop_
_space_group_symop_operation_xyz
x,y,z
-x,-y,-z
loop_
_atom_site_type_symbol
_atom_site_label
_atom_site_fract_x
_atom_site_fract_y
_atom_site_fract_z
Si Si1 0.404025 0.273073 0.945389
Si Si2 0.984917 0.802438 0.690940
Si Si3 0.646671 0.569825 0.901284
Si Si4 0.520788 0.370529 0.455808
Si Si5 0.178789 0.027608 0.551551
Si Si6 0.013824 0.819753 0.199688
Si Si7 0.163187 0.275038 0.771611
O O1 0.484002 0.427322 0.721452
O O2 0.203454 0.273607 0.099819
O O3 0.431733 0.395267 0.952053
O O4 0.500000 0.000000 0.000000
O O5 0.116888 0.560151 0.685872
O O6 0.000000 0.000000 0.500000
O O7 0.032241 0.914467 0.683375
O O8 0.706514 0.827325 0.686621
O O9 0.810506 0.361471 0.869256
O O10 0.500000 0.500000 0.000000
O O11 0.500000 0.500000 0.500000
O O12 0.365561 0.209327 0.654398
O O13 0.698325 0.187830 0.392823
O O14 0.077190 0.214058 0.611564
O O15 0.873103 0.767198 0.276818
O O16 0.054397 0.100973 0.012639
#
# Coordination Sequence:
#
# PCOD8034763 Si02
#       7
#     2   2   2   2   2   2   2
#     4  12  27  45  73 102 138 189 229 286 352 407
#     4  12  23  46  72  99 140 180 234 286 338 412
#     4  12  27  48  68 103 147 179 232 285 349 419
#     4  12  26  44  70 105 139 175 234 292 345 403
#     4  12  26  44  74 104 134 184 234 285 346 407
#     4  11  26  45  70 100 138 186 228 279 349 415
#     4  11  24  46  69  97 143 180 230 283 346 411
#
# _framework density 21.647475
#
# number of rings (size 3 to 8) (size 9 to 14) (size 15 to 20)
#    0.000    0.286    4.286    3.857    8.000    1.714 
#    0.000    0.000    0.000    0.000    0.000    0.000 
#    0.000    0.000    0.000    0.000    0.000    0.000 
#
# Total GULP energy -173704.317460 kJ/mol
# GULP energy per Si atom -12407.451247 kJ/mol
# Density = 2.159820 g / cm^3
# Si number density = 21.647475 Si / 1000 Ang^3
#
#
#
# Elastic Constant Matrix: (Units=GPa)
#
#
# Indices 1 2 3 4 5 6 
#
# 1 171.5391 41.4681 53.8357 11.2230 -13.9636 19.2445
# 2 41.4681 111.1541 12.3230 7.0366 16.5560 3.6347
# 3 53.8357 12.3230 78.5396 2.5116 5.5415 18.5270
# 4 11.2230 7.0366 2.5116 37.9645 -1.0368 3.7044
# 5 -13.9636 16.5560 5.5415 -1.0368 52.7868 0.6745
# 6 19.2445 3.6347 18.5270 3.7044 0.6745 39.2293
#
#
#
# Elastic Compliance Matrix: (Units=1/GPa)
#
#
# Indices 1 2 3 4 5 6 
#
# 1 0.008885 -0.003150 -0.005494 -0.001436 0.003905 -0.001403
# 2 -0.003150 0.010805 0.000716 -0.001276 -0.004327 0.000401
# 3 -0.005494 0.000716 0.017994 0.000780 -0.003476 -0.005883
# 4 -0.001436 -0.001276 0.000780 0.027170 0.000499 -0.002120
# 5 0.003905 -0.004327 -0.003476 0.000499 0.021713 -0.000293
# 6 -0.001403 0.000401 -0.005883 -0.002120 -0.000293 0.029126
#
#
# Mechanical properties :
#
#
# Convention : Reuss Voigt Hill
#
# Bulk Modulus (GPa) = 45.81753 64.05403 54.93578
# Shear Modulus (GPa) = 36.01618 42.90317 39.45968
#
# Velocity S-wave (km/s) = 4.08335 4.45669 4.27409
# Velocity P-wave (km/s) = 6.59112 7.49243 7.05618
#
# Compressibility (1/GPa) = 0.02182571
#
# Stress axis : x y z
#
# Youngs Moduli (GPa) = 112.55293 92.55250 55.57262
#
# Poissons Ratio (x) = 0.29157 0.30534
# Poissons Ratio (y) = 0.35458 -0.03977
# Poissons Ratio (z) = 0.61841 -0.06623
#
# Static dielectric constant tensor:
#      x y z
#    x 4.199230 -0.123140 -0.223580 
#    y -0.123140 3.877050 -0.009940 
#    z -0.223580 -0.009940 4.282550 
# 
# 
# High freq. dielectric constant tensor:
#      x y z
#    x 1.870190 -0.002470 -0.003950 
#    y -0.002470 1.859760 -0.003370 
#    z -0.003950 -0.003370 1.854820 
# 
# From -- ./inp_files/154305.got.cif
#   From: 2010.06.25/outbox.cif.g09.slc.cpg/sg2_78_cif.got.tgz:154305.got - 2010.06.27 13:26:56.
