data_PCOD8034721
_publ_section_title
;
Structure prediction by ZEFSAII (Michael W. Deem and Ramdas Pophale) SiO2 
 PCOD8034721
Probable space group: P -1
;
_chemical_formula_sum "Si O2"
_cell_formula_units_Z 16
_cell_length_a 8.629496
_cell_length_b 9.353102
_cell_length_c 14.539990
_cell_angle_alpha 109.822685
_cell_angle_beta 142.922031
_cell_angle_gamma 77.464640
_cell_volume 662.648048
_symmetry_space_group_name_H-M "P -1"
_symmetry_group_IT_number 2
_symmetry_cell_setting 'triclinic'
loop_
_space_group_symop_operation_xyz
x,y,z
-x,-y,-z
loop_
_atom_site_type_symbol
_atom_site_label
_atom_site_fract_x
_atom_site_fract_y
_atom_site_fract_z
Si Si1 0.791021 0.203232 0.689202
Si Si2 0.963923 0.332821 0.986732
Si Si3 0.435076 0.669257 0.037101
Si Si4 0.248351 0.576206 0.429780
Si Si5 0.254188 0.110972 0.474007
Si Si6 0.711513 0.935562 0.321336
Si Si7 0.483727 0.757420 0.741403
Si Si8 0.150869 0.675390 0.727825
O O1 0.882001 0.355704 0.707526
O O2 0.477913 0.175286 0.524077
O O3 0.891646 0.053067 0.659018
O O4 0.884380 0.218029 0.840855
O O5 0.221474 0.275816 0.139562
O O6 0.000000 0.500000 0.000000
O O7 0.754067 0.332756 0.966737
O O8 0.686365 0.784183 0.210317
O O9 0.500000 0.500000 0.000000
O O10 0.298479 0.745560 0.903008
O O11 0.500000 0.500000 0.500000
O O12 0.334289 0.714449 0.567709
O O13 0.027667 0.473135 0.356917
O O14 0.400895 0.113740 0.642404
O O15 0.021933 0.214965 0.384276
O O16 0.550244 0.062380 0.223549
O O17 0.000000 0.000000 0.500000
O O18 0.369137 0.650157 0.748875
#
# Coordination Sequence:
#
# PCOD8034721 Si02
#       8
#     2   2   2   2   2   2   2   2
#     4  11  24  45  77 108 152 197 257 323 391 458
#     4  12  27  49  75 114 157 204 258 327 392 468
#     4  12  30  51  79 115 159 208 263 326 397 470
#     4  12  24  45  75 112 151 201 265 321 389 463
#     4  11  24  46  75 111 147 199 259 323 389 463
#     4  12  27  51  79 113 158 207 264 327 393 470
#     4  12  28  47  76 114 158 207 263 323 394 468
#     4  12  27  46  76 111 155 203 260 321 389 464
#
# _framework density 24.145548000000002
#
# number of rings (size 3 to 8) (size 9 to 14) (size 15 to 20)
#    0.000    0.250    5.000    3.375    3.500    4.000 
#    0.000    0.000    0.000    0.000    0.000    0.000 
#    0.000    0.000    0.000    0.000    0.000    0.000 
#
# Total GULP energy -198334.151920 kJ/mol
# GULP energy per Si atom -12395.884495 kJ/mol
# Density = 2.409059 g / cm^3
# Si number density = 24.145548 Si / 1000 Ang^3
#
#
#
# Elastic Constant Matrix: (Units=GPa)
#
#
# Indices 1 2 3 4 5 6 
#
# 1 89.6843 38.5770 34.4178 3.8649 -9.7446 14.8417
# 2 38.5770 119.2607 45.2401 3.3449 1.3965 -1.0387
# 3 34.4178 45.2401 140.2830 9.8294 -13.8318 -4.4194
# 4 3.8649 3.3449 9.8294 40.8394 -1.6785 -10.4608
# 5 -9.7446 1.3965 -13.8318 -1.6785 47.7191 0.1752
# 6 14.8417 -1.0387 -4.4194 -10.4608 0.1752 35.9511
#
#
#
# Elastic Compliance Matrix: (Units=1/GPa)
#
#
# Indices 1 2 3 4 5 6 
#
# 1 0.015424 -0.004161 -0.002258 -0.002384 0.002560 -0.007471
# 2 -0.004161 0.010745 -0.002612 0.000544 -0.001909 0.001875
# 3 -0.002258 -0.002612 0.008870 -0.001214 0.002138 0.001584
# 4 -0.002384 0.000544 -0.001214 0.027208 0.000070 0.008767
# 5 0.002560 -0.001909 0.002138 0.000070 0.022160 -0.000937
# 6 -0.007471 0.001875 0.001584 0.008767 -0.000937 0.033704
#
#
# Mechanical properties :
#
#
# Convention : Reuss Voigt Hill
#
# Bulk Modulus (GPa) = 58.89918 65.07753 61.98835
# Shear Modulus (GPa) = 35.25288 40.30147 37.77718
#
# Velocity S-wave (km/s) = 3.82516 4.08990 3.95974
# Velocity P-wave (km/s) = 6.62989 7.02238 6.82895
#
# Compressibility (1/GPa) = 0.01697817
#
# Stress axis : x y z
#
# Youngs Moduli (GPa) = 64.83442 93.06700 112.73351
#
# Poissons Ratio (x) = 0.38722 0.25458
# Poissons Ratio (y) = 0.26976 0.29442
# Poissons Ratio (z) = 0.14641 0.24306
#
# Static dielectric constant tensor:
#      x y z
#    x 4.832360 0.235600 -0.182620 
#    y 0.235600 4.845990 0.218320 
#    z -0.182620 0.218320 4.649720 
# 
# 
# High freq. dielectric constant tensor:
#      x y z
#    x 1.980230 0.008380 -0.003320 
#    y 0.008380 1.954970 0.001250 
#    z -0.003320 0.001250 1.961640 
# 
# From -- ./inp_files/495546.got.cif
#   From: 2010.06.25/outbox.cif.g09.slc.cpg/sg2_248_cif.got.tgz:495546.got - 2010.06.27 13:26:56.
