data_PCOD8034294
_publ_section_title
;
Structure prediction by ZEFSAII (Michael W. Deem and Ramdas Pophale) SiO2 
 PCOD8034294
Probable space group: P -1
;
_chemical_formula_sum "Si O2"
_cell_formula_units_Z 16
_cell_length_a 9.386024
_cell_length_b 11.479005
_cell_length_c 17.643512
_cell_angle_alpha 149.022840
_cell_angle_beta 60.865591
_cell_angle_gamma 129.824710
_cell_volume 742.056105
_symmetry_space_group_name_H-M "P -1"
_symmetry_group_IT_number 2
_symmetry_cell_setting 'triclinic'
loop_
_space_group_symop_operation_xyz
x,y,z
-x,-y,-z
loop_
_atom_site_type_symbol
_atom_site_label
_atom_site_fract_x
_atom_site_fract_y
_atom_site_fract_z
Si Si1 0.887855 0.078626 0.179600
Si Si2 0.461654 0.644896 0.873770
Si Si3 0.230819 0.902799 0.370103
Si Si4 0.103655 0.154214 0.667694
Si Si5 0.795131 0.604118 0.839307
Si Si6 0.118081 0.185229 0.328904
Si Si7 0.400246 0.745265 0.624283
Si Si8 0.456958 0.147808 0.195757
O O1 0.694372 0.078143 0.237802
O O2 0.023578 0.296916 0.206163
O O3 0.978211 0.140702 0.273031
O O4 0.843726 0.795300 0.004956
O O5 0.256670 0.407120 0.815306
O O6 0.624655 0.587187 0.824693
O O7 0.458913 0.674194 0.800264
O O8 0.494857 0.906253 0.051900
O O9 0.261893 0.677478 0.271233
O O10 0.041393 0.779100 0.300025
O O11 0.216910 0.074655 0.536289
O O12 0.407881 0.086706 0.376115
O O13 0.996294 0.918756 0.622314
O O14 0.263644 0.491221 0.470520
O O15 0.233156 0.036830 0.195960
O O16 0.446122 0.672462 0.655079
#
# Coordination Sequence:
#
# PCOD8034294 Si02
#       8
#     2   2   2   2   2   2   2   2
#     4  11  26  45  70 101 134 180 228 271 338 401
#     4  11  25  44  72 100 139 177 223 277 338 400
#     4  11  27  44  70 100 137 178 222 281 341 397
#     4  11  27  45  68 103 133 178 226 280 338 398
#     4  11  25  47  69 100 140 179 219 280 338 401
#     4  12  25  45  70  99 136 180 229 277 331 402
#     4  12  25  46  70  99 138 179 225 281 334 399
#     4  11  24  44  71 101 132 182 227 274 332 399
#
# _framework density 21.561712
#
# number of rings (size 3 to 8) (size 9 to 14) (size 15 to 20)
#    0.000    0.750    3.750    2.250    8.750    2.500 
#    0.000    0.000    0.000    0.000    0.000    0.000 
#    0.000    0.000    0.000    0.000    0.000    0.000 
#
# Total GULP energy -198496.835432 kJ/mol
# GULP energy per Si atom -12406.052215 kJ/mol
# Density = 2.151264 g / cm^3
# Si number density = 21.561712 Si / 1000 Ang^3
#
#
#
# Elastic Constant Matrix: (Units=GPa)
#
#
# Indices 1 2 3 4 5 6 
#
# 1 93.9335 44.5055 38.6964 4.4137 -0.6175 0.3952
# 2 44.5055 98.7498 46.2033 -5.6790 -11.2705 8.1810
# 3 38.6964 46.2033 70.7672 4.7112 -3.9490 -5.7070
# 4 4.4137 -5.6790 4.7112 37.1590 3.5179 -2.5329
# 5 -0.6175 -11.2705 -3.9490 3.5179 34.5058 -2.8740
# 6 0.3952 8.1810 -5.7070 -2.5329 -2.8740 38.9115
#
#
#
# Elastic Compliance Matrix: (Units=1/GPa)
#
#
# Indices 1 2 3 4 5 6 
#
# 1 0.015049 -0.004619 -0.005209 -0.001686 -0.001679 -0.000180
# 2 -0.004619 0.017626 -0.009382 0.003761 0.003842 -0.004506
# 3 -0.005209 -0.009382 0.023787 -0.003503 0.000364 0.005313
# 4 -0.001686 0.003761 -0.003503 0.028353 -0.002060 0.000406
# 5 -0.001679 0.003842 0.000364 -0.002060 0.030573 0.001387
# 6 -0.000180 -0.004506 0.005313 0.000406 0.001387 0.027557
#
#
# Mechanical properties :
#
#
# Convention : Reuss Voigt Hill
#
# Bulk Modulus (GPa) = 55.42593 58.02902 56.72747
# Shear Modulus (GPa) = 26.68408 31.05161 28.86785
#
# Velocity S-wave (km/s) = 3.52172 3.79902 3.66300
# Velocity P-wave (km/s) = 6.50371 6.79815 6.65256
#
# Compressibility (1/GPa) = 0.01804210
#
# Stress axis : x y z
#
# Youngs Moduli (GPa) = 66.44866 56.73502 42.04058
#
# Poissons Ratio (x) = 0.26205 0.21901
# Poissons Ratio (y) = 0.30691 0.39440
# Poissons Ratio (z) = 0.34616 0.53226
#
# Static dielectric constant tensor:
#      x y z
#    x 4.045160 0.084010 -0.052220 
#    y 0.084010 3.872950 -0.196060 
#    z -0.052220 -0.196060 3.872640 
# 
# 
# High freq. dielectric constant tensor:
#      x y z
#    x 1.863270 0.005000 0.000160 
#    y 0.005000 1.847860 -0.011790 
#    z 0.000160 -0.011790 1.850530 
# 
# From -- ./inp_files/283142.got.cif
#   From: 2010.06.25/outbox.cif.g09.slc.cpg/sg2_142_cif.got.tgz:283142.got - 2010.06.27 13:26:56.
