data_PCOD8034576
_publ_section_title
;
Structure prediction by ZEFSAII (Michael W. Deem and Ramdas Pophale) SiO2 
 PCOD8034576
Probable space group: P -1
;
_chemical_formula_sum "Si O2"
_cell_formula_units_Z 16
_cell_length_a 8.644447
_cell_length_b 21.861112
_cell_length_c 9.358971
_cell_angle_alpha 151.864445
_cell_angle_beta 62.809949
_cell_angle_gamma 116.276623
_cell_volume 738.512769
_symmetry_space_group_name_H-M "P -1"
_symmetry_group_IT_number 2
_symmetry_cell_setting 'triclinic'
loop_
_space_group_symop_operation_xyz
x,y,z
-x,-y,-z
loop_
_atom_site_type_symbol
_atom_site_label
_atom_site_fract_x
_atom_site_fract_y
_atom_site_fract_z
Si Si1 0.108174 0.709336 0.545200
Si Si2 0.218765 0.743976 0.263713
Si Si3 0.847589 0.773448 0.389846
Si Si4 0.157938 0.494401 0.314846
Si Si5 0.447991 0.994304 0.671866
Si Si6 0.413571 0.604052 0.660519
Si Si7 0.678635 0.026342 0.893994
Si Si8 0.264799 0.230225 0.262829
O O1 0.175867 0.668733 0.276371
O O2 0.132752 0.586597 0.380681
O O3 0.904227 0.733133 0.676136
O O4 0.212537 0.841582 0.830098
O O5 0.382205 0.847623 0.441345
O O6 0.048525 0.811744 0.426955
O O7 0.264036 0.651785 0.924614
O O8 0.738503 0.726708 0.481493
O O9 0.787896 0.902212 0.606929
O O10 0.825781 0.653449 0.042998
O O11 0.334303 0.542776 0.422205
O O12 0.000000 0.500000 0.500000
O O13 0.500000 0.000000 0.500000
O O14 0.622668 0.042856 0.786911
O O15 0.281964 0.075655 0.939603
O O16 0.500000 0.500000 0.500000
O O17 0.560939 0.715284 0.781100
O O18 0.500000 0.000000 0.000000
#
# Coordination Sequence:
#
# PCOD8034576 Si02
#       8
#     2   2   2   2   2   2   2   2
#     4  11  26  46  77 103 144 189 238 297 351 432
#     4  11  24  46  71 101 143 189 234 286 364 420
#     4  11  26  45  75 104 143 190 239 297 351 428
#     4  12  27  48  72 107 147 184 243 297 356 421
#     4  12  24  42  70 103 142 181 233 296 355 418
#     4  12  27  44  69 100 148 185 238 292 355 424
#     4  12  24  45  73 108 142 180 246 294 351 421
#     4  11  24  45  71 106 140 189 237 287 364 420
#
# _framework density 21.665164999999998
#
# number of rings (size 3 to 8) (size 9 to 14) (size 15 to 20)
#    0.000    0.500    5.000    2.250    3.500    4.500 
#    0.000    1.875    0.000    0.000    0.000    0.000 
#    0.000    0.000    0.000    0.000    0.000    0.000 
#
# Total GULP energy -198421.361828 kJ/mol
# GULP energy per Si atom -12401.335114 kJ/mol
# Density = 2.161585 g / cm^3
# Si number density = 21.665165 Si / 1000 Ang^3
#
#
#
# Elastic Constant Matrix: (Units=GPa)
#
#
# Indices 1 2 3 4 5 6 
#
# 1 101.6495 28.7708 18.5902 -14.0980 7.4356 -9.3986
# 2 28.7708 102.9907 27.9778 -19.6459 -1.0866 -1.8105
# 3 18.5902 27.9778 107.8265 -14.7584 2.3484 0.1135
# 4 -14.0980 -19.6459 -14.7584 40.5546 -1.5391 1.4338
# 5 7.4356 -1.0866 2.3484 -1.5391 41.7915 1.9294
# 6 -9.3986 -1.8105 0.1135 1.4338 1.9294 35.3415
#
#
#
# Elastic Compliance Matrix: (Units=1/GPa)
#
#
# Indices 1 2 3 4 5 6 
#
# 1 0.011455 -0.002476 -0.000983 0.002241 -0.002101 0.002946
# 2 -0.002476 0.011760 -0.002082 0.004127 0.001028 -0.000273
# 3 -0.000983 -0.002082 0.010322 0.002410 -0.000348 -0.000480
# 4 0.002241 0.004127 0.002410 0.028351 0.000635 -0.000385
# 5 -0.002101 0.001028 -0.000348 0.000635 0.024458 -0.001866
# 6 0.002946 -0.000273 -0.000480 -0.000385 -0.001866 0.029184
#
#
# Mechanical properties :
#
#
# Convention : Reuss Voigt Hill
#
# Bulk Modulus (GPa) = 44.53233 51.46048 47.99640
# Shear Modulus (GPa) = 37.28647 39.34605 38.31626
#
# Velocity S-wave (km/s) = 4.15303 4.26619 4.20999
# Velocity P-wave (km/s) = 6.60275 6.93335 6.77007
#
# Compressibility (1/GPa) = 0.02245560
#
# Stress axis : x y z
#
# Youngs Moduli (GPa) = 87.29641 85.03309 96.88304
#
# Poissons Ratio (x) = 0.21053 0.09525
# Poissons Ratio (y) = 0.21613 0.20168
# Poissons Ratio (z) = 0.08583 0.17702
#
# Static dielectric constant tensor:
#      x y z
#    x 4.181480 0.350460 0.352680 
#    y 0.350460 3.798770 -0.363580 
#    z 0.352680 -0.363580 4.157310 
# 
# 
# High freq. dielectric constant tensor:
#      x y z
#    x 1.863300 -0.004500 0.002060 
#    y -0.004500 1.857730 -0.006800 
#    z 0.002060 -0.006800 1.859280 
# 
# From -- ./inp_files/224342.got.cif
#   From: 2010.06.25/outbox.cif.g09.slc.cpg/sg2_113_cif.got.tgz:224342.got - 2010.06.27 13:26:56.
