data_PCOD8034840
_publ_section_title
;
Structure prediction by ZEFSAII (Michael W. Deem and Ramdas Pophale) SiO2 
 PCOD8034840
Probable space group: P -1
;
_chemical_formula_sum "Si O2"
_cell_formula_units_Z 14
_cell_length_a 11.595698
_cell_length_b 16.696457
_cell_length_c 16.934196
_cell_angle_alpha 33.125560
_cell_angle_beta 35.244162
_cell_angle_gamma 20.830182
_cell_volume 627.308045
_symmetry_space_group_name_H-M "P -1"
_symmetry_group_IT_number 2
_symmetry_cell_setting 'triclinic'
loop_
_space_group_symop_operation_xyz
x,y,z
-x,-y,-z
loop_
_atom_site_type_symbol
_atom_site_label
_atom_site_fract_x
_atom_site_fract_y
_atom_site_fract_z
Si Si1 0.121886 0.696311 0.067368
Si Si2 0.725437 0.227725 0.861062
Si Si3 0.240549 0.013582 0.409440
Si Si4 0.081151 0.298203 0.661333
Si Si5 0.674359 0.561145 0.249127
Si Si6 0.183383 0.973842 0.302807
Si Si7 0.074421 0.612315 0.995130
O O1 0.082621 0.613491 0.233142
O O2 0.500000 0.500000 0.000000
O O3 0.975334 0.702199 0.066956
O O4 0.938978 0.956203 0.971799
O O5 0.527502 0.353669 0.787048
O O6 0.469151 0.380579 0.951649
O O7 0.964020 0.229837 0.730413
O O8 0.889284 0.296887 0.370188
O O9 0.165373 0.906024 0.586663
O O10 0.521871 0.942724 0.354278
O O11 0.360379 0.910932 0.338153
O O12 0.000000 0.500000 0.500000
O O13 0.427870 0.729962 0.318859
O O14 0.926165 0.545780 0.105407
O O15 0.105980 0.164210 0.141661
#
# Coordination Sequence:
#
# PCOD8034840 Si02
#       7
#     2   2   2   2   2   2   2
#     4  12  27  47  75 103 145 192 240 294 357 424
#     4  12  26  47  74 105 148 188 235 301 360 423
#     4  11  26  45  73 101 145 188 235 292 363 418
#     4  12  28  50  74 104 150 196 235 292 364 428
#     4  12  25  43  75 106 137 185 240 296 357 419
#     4  11  24  46  72 104 141 183 238 302 351 422
#     4  12  24  45  74 104 142 182 243 297 353 421
#
# _framework density 22.317585000000001
#
# number of rings (size 3 to 8) (size 9 to 14) (size 15 to 20)
#    0.000    0.286    4.286    4.286    6.000    0.000 
#    2.571    1.429    0.000    0.000    0.000    0.000 
#    0.000    0.000    0.000    0.000    0.000    0.000 
#
# Total GULP energy -173671.836338 kJ/mol
# GULP energy per Si atom -12405.131167 kJ/mol
# Density = 2.226679 g / cm^3
# Si number density = 22.317585 Si / 1000 Ang^3
#
#
#
# Elastic Constant Matrix: (Units=GPa)
#
#
# Indices 1 2 3 4 5 6 
#
# 1 116.8950 34.1710 58.2061 4.0919 -22.0261 -0.2612
# 2 34.1710 100.4267 28.3907 4.3994 3.0164 6.4660
# 3 58.2061 28.3907 108.8048 -5.5033 4.3470 -8.8712
# 4 4.0919 4.3994 -5.5033 25.5914 -3.6413 -4.7907
# 5 -22.0261 3.0164 4.3470 -3.6413 37.6551 9.1277
# 6 -0.2612 6.4660 -8.8712 -4.7907 9.1277 44.8127
#
#
#
# Elastic Compliance Matrix: (Units=1/GPa)
#
#
# Indices 1 2 3 4 5 6 
#
# 1 0.015932 -0.002929 -0.008669 -0.003029 0.011184 -0.003802
# 2 -0.002929 0.011731 -0.001686 -0.002580 -0.002257 -0.001860
# 3 -0.008669 -0.001686 0.015243 0.004871 -0.007499 0.005259
# 4 -0.003029 -0.002580 0.004871 0.042202 0.000568 0.005715
# 5 0.011184 -0.002257 -0.007499 0.000568 0.036240 -0.008414
# 6 -0.003802 -0.001860 0.005259 0.005715 -0.008414 0.025927
#
#
# Mechanical properties :
#
#
# Convention : Reuss Voigt Hill
#
# Bulk Modulus (GPa) = 61.20457 63.07360 62.13908
# Shear Modulus (GPa) = 27.88788 35.30243 31.59515
#
# Velocity S-wave (km/s) = 3.53879 3.98153 3.76667
# Velocity P-wave (km/s) = 6.64690 7.03278 6.84256
#
# Compressibility (1/GPa) = 0.01633865
#
# Stress axis : x y z
#
# Youngs Moduli (GPa) = 62.76602 85.24186 65.60383
#
# Poissons Ratio (x) = 0.24965 0.56871
# Poissons Ratio (y) = 0.18383 0.11063
# Poissons Ratio (z) = 0.54411 0.14374
#
# Static dielectric constant tensor:
#      x y z
#    x 4.373980 0.163960 -0.001300 
#    y 0.163960 4.196520 0.053000 
#    z -0.001300 0.053000 4.094750 
# 
# 
# High freq. dielectric constant tensor:
#      x y z
#    x 1.890720 -0.002470 -0.001760 
#    y -0.002470 1.884350 0.003370 
#    z -0.001760 0.003370 1.890750 
# 
# From -- ./inp_files/349742.got.cif
#   From: 2010.06.25/outbox.cif.g09.slc.cpg/sg2_175_cif.got.tgz:349742.got - 2010.06.27 13:26:56.
