data_PCOD8034199
_publ_section_title
;
Structure prediction by ZEFSAII (Michael W. Deem and Ramdas Pophale) SiO2 
 PCOD8034199
Probable space group: P -1
;
_chemical_formula_sum "Si O2"
_cell_formula_units_Z 16
_cell_length_a 9.315342
_cell_length_b 23.836937
_cell_length_c 9.180653
_cell_angle_alpha 29.512234
_cell_angle_beta 46.374111
_cell_angle_gamma 49.032556
_cell_volume 718.145378
_symmetry_space_group_name_H-M "P -1"
_symmetry_group_IT_number 2
_symmetry_cell_setting 'triclinic'
loop_
_space_group_symop_operation_xyz
x,y,z
-x,-y,-z
loop_
_atom_site_type_symbol
_atom_site_label
_atom_site_fract_x
_atom_site_fract_y
_atom_site_fract_z
Si Si1 0.482514 0.281198 0.128193
Si Si2 0.117004 0.630077 0.301831
Si Si3 0.798901 0.627397 0.120751
Si Si4 0.354829 0.910883 0.768661
Si Si5 0.497601 0.746908 0.287135
Si Si6 0.139917 0.733085 0.747919
Si Si7 0.734532 0.799582 0.269894
Si Si8 0.943428 0.006523 0.693589
O O1 0.546891 0.161489 0.272158
O O2 0.420501 0.252449 0.399789
O O3 0.665543 0.352258 0.835282
O O4 0.300295 0.360402 0.996319
O O5 0.082297 0.500870 0.653148
O O6 0.947878 0.716747 0.307831
O O7 0.106270 0.650808 0.090761
O O8 0.632146 0.652401 0.307868
O O9 0.950403 0.721682 0.803587
O O10 0.500000 0.000000 0.500000
O O11 0.352826 0.836107 0.085760
O O12 0.130913 0.969300 0.753285
O O13 0.347288 0.684297 0.631305
O O14 0.642599 0.809672 0.148079
O O15 0.151324 0.863497 0.494920
O O16 0.774368 0.924004 0.019848
O O17 0.000000 0.000000 0.500000
#
# Coordination Sequence:
#
# PCOD8034199 Si02
#       8
#     2   2   2   2   2   2   2   2
#     4  11  25  45  68 105 135 177 229 277 345 406
#     4  12  24  47  71  99 137 181 228 287 335 400
#     4  11  26  46  71  98 140 175 230 289 337 396
#     4  11  24  44  67  98 142 179 222 278 335 403
#     4  11  26  44  67 101 138 178 231 274 340 403
#     4  12  25  43  68 103 134 179 229 276 340 404
#     4  12  25  43  71 102 138 183 226 273 343 408
#     4  12  23  43  69  98 143 177 220 281 339 406
#
# _framework density 22.279613000000001
#
# number of rings (size 3 to 8) (size 9 to 14) (size 15 to 20)
#    0.000    0.500    5.000    3.000    3.500    3.000 
#    0.000    0.000    0.000    0.000    0.000    0.000 
#    0.000    0.000    0.000    0.000    0.000    0.000 
#
# Total GULP energy -198468.811301 kJ/mol
# GULP energy per Si atom -12404.300706 kJ/mol
# Density = 2.222890 g / cm^3
# Si number density = 22.279613 Si / 1000 Ang^3
#
#
#
# Elastic Constant Matrix: (Units=GPa)
#
#
# Indices 1 2 3 4 5 6 
#
# 1 131.0552 14.5921 15.2512 -2.0307 2.5014 2.4296
# 2 14.5921 57.4442 28.0369 4.8914 -7.0776 1.1883
# 3 15.2512 28.0369 72.6185 -3.4152 -2.9141 5.7533
# 4 -2.0307 4.8914 -3.4152 32.5932 -3.3423 0.2526
# 5 2.5014 -7.0776 -2.9141 -3.3423 37.7960 0.6943
# 6 2.4296 1.1883 5.7533 0.2526 0.6943 29.1024
#
#
#
# Elastic Compliance Matrix: (Units=1/GPa)
#
#
# Indices 1 2 3 4 5 6 
#
# 1 0.007966 -0.001680 -0.001002 0.000558 -0.000863 -0.000383
# 2 -0.001680 0.022752 -0.008558 -0.004081 0.003335 0.000859
# 3 -0.001002 -0.008558 0.017683 0.003115 0.000160 -0.003094
# 4 0.000558 -0.004081 0.003115 0.031894 0.002275 -0.000827
# 5 -0.000863 0.003335 0.000160 0.002275 0.027367 -0.000768
# 6 -0.000383 0.000859 -0.003094 -0.000827 -0.000768 0.034995
#
#
# Mechanical properties :
#
#
# Convention : Reuss Voigt Hill
#
# Bulk Modulus (GPa) = 38.57843 41.87537 40.22690
# Shear Modulus (GPa) = 28.77210 33.44751 31.10980
#
# Velocity S-wave (km/s) = 3.59752 3.87881 3.74081
# Velocity P-wave (km/s) = 5.88297 6.23670 6.06242
#
# Compressibility (1/GPa) = 0.02592122
#
# Stress axis : x y z
#
# Youngs Moduli (GPa) = 125.52850 43.95150 56.55134
#
# Poissons Ratio (x) = 0.07385 0.05669
# Poissons Ratio (y) = 0.21092 0.48394
# Poissons Ratio (z) = 0.12583 0.37612
#
# Static dielectric constant tensor:
#      x y z
#    x 3.287870 -0.576440 0.045880 
#    y -0.576440 3.562690 0.005060 
#    z 0.045880 0.005060 4.036120 
# 
# 
# High freq. dielectric constant tensor:
#      x y z
#    x 1.902830 -0.001170 -0.002220 
#    y -0.001170 1.867910 0.003160 
#    z -0.002220 0.003160 1.870190 
# 
# From -- ./inp_files/188887.got.cif
#   From: 2010.06.25/outbox.cif.g09.slc.cpg/sg2_95_cif.got.tgz:188887.got - 2010.06.27 13:26:56.
