data_PCOD8034250
_publ_section_title
;
Structure prediction by ZEFSAII (Michael W. Deem and Ramdas Pophale) SiO2 
 PCOD8034250
Probable space group: P -1
;
_chemical_formula_sum "Si O2"
_cell_formula_units_Z 14
_cell_length_a 20.239782
_cell_length_b 19.592979
_cell_length_c 9.004181
_cell_angle_alpha 148.911747
_cell_angle_beta 32.914657
_cell_angle_gamma 158.932779
_cell_volume 646.909999
_symmetry_space_group_name_H-M "P -1"
_symmetry_group_IT_number 2
_symmetry_cell_setting 'triclinic'
loop_
_space_group_symop_operation_xyz
x,y,z
-x,-y,-z
loop_
_atom_site_type_symbol
_atom_site_label
_atom_site_fract_x
_atom_site_fract_y
_atom_site_fract_z
Si Si1 0.992390 0.845913 0.665590
Si Si2 0.601017 0.206487 0.373289
Si Si3 0.063177 0.579258 0.693188
Si Si4 0.031130 0.856431 0.279219
Si Si5 0.702773 0.687580 0.393099
Si Si6 0.221797 0.788428 0.222800
Si Si7 0.375597 0.486327 0.105933
O O1 0.959304 0.844506 0.551885
O O2 0.163572 0.887017 0.456700
O O3 0.813201 0.626546 0.664915
O O4 0.000000 0.000000 0.000000
O O5 0.725774 0.301089 0.463168
O O6 0.518050 0.286255 0.683856
O O7 0.418882 0.962335 0.263508
O O8 0.742627 0.282424 0.112823
O O9 0.000000 0.500000 0.500000
O O10 0.923837 0.397283 0.735444
O O11 0.088633 0.754434 0.997950
O O12 0.861217 0.724696 0.235593
O O13 0.216437 0.096532 0.333298
O O14 0.500000 0.500000 0.500000
O O15 0.676311 0.632296 0.167841
O O16 0.500000 0.500000 0.000000
#
# Coordination Sequence:
#
# PCOD8034250 Si02
#       7
#     2   2   2   2   2   2   2
#     4  12  22  42  72  99 138 177 234 289 345 404
#     4  11  24  44  69  99 138 179 237 283 343 410
#     4  12  25  43  70  99 140 186 226 280 350 414
#     4  11  25  44  69  99 135 187 227 284 351 406
#     4  11  26  46  66 100 144 178 228 289 351 417
#     4  11  25  44  69 101 140 182 230 293 338 410
#     4  12  24  41  71 104 134 182 238 287 344 412
#
# _framework density 21.641341000000001
#
# number of rings (size 3 to 8) (size 9 to 14) (size 15 to 20)
#    0.000    0.571    4.286    3.857    0.000    2.857 
#    0.000    0.000    0.000    0.000    0.000    0.000 
#    0.000    0.000    0.000    0.000    0.000    0.000 
#
# Total GULP energy -173539.592338 kJ/mol
# GULP energy per Si atom -12395.685167 kJ/mol
# Density = 2.159208 g / cm^3
# Si number density = 21.641341 Si / 1000 Ang^3
#
#
#
# Elastic Constant Matrix: (Units=GPa)
#
#
# Indices 1 2 3 4 5 6 
#
# 1 151.8446 57.8817 53.6624 8.7512 -0.2992 23.3105
# 2 57.8817 127.9121 29.4613 3.9648 1.5033 11.8081
# 3 53.6624 29.4613 106.5012 20.0594 -15.3971 11.7675
# 4 8.7512 3.9648 20.0594 31.9861 -2.5878 -1.8315
# 5 -0.2992 1.5033 -15.3971 -2.5878 41.8047 9.3606
# 6 23.3105 11.8081 11.7675 -1.8315 9.3606 37.8018
#
#
#
# Elastic Compliance Matrix: (Units=1/GPa)
#
#
# Indices 1 2 3 4 5 6 
#
# 1 0.009654 -0.003188 -0.003558 -0.000255 -0.000294 -0.003789
# 2 -0.003188 0.009566 -0.001142 0.000321 -0.000658 -0.000488
# 3 -0.003558 -0.001142 0.014106 -0.007487 0.005548 -0.003577
# 4 -0.000255 0.000321 -0.007487 0.036123 -0.001547 0.004521
# 5 -0.000294 -0.000658 0.005548 -0.001547 0.027745 -0.008286
# 6 -0.003789 -0.000488 -0.003577 0.004521 -0.008286 0.032327
#
#
# Mechanical properties :
#
#
# Convention : Reuss Voigt Hill
#
# Bulk Modulus (GPa) = 56.97836 74.25207 65.61521
# Shear Modulus (GPa) = 33.08026 38.66869 35.87447
#
# Velocity S-wave (km/s) = 3.91393 4.23164 4.07588
# Velocity P-wave (km/s) = 6.84184 7.63285 7.24815
#
# Compressibility (1/GPa) = 0.01755052
#
# Stress axis : x y z
#
# Youngs Moduli (GPa) = 103.58106 104.53397 70.89277
#
# Poissons Ratio (x) = 0.33325 0.25226
# Poissons Ratio (y) = 0.33021 0.08094
# Poissons Ratio (z) = 0.36857 0.11934
#
# Static dielectric constant tensor:
#      x y z
#    x 4.069320 0.028970 -0.009780 
#    y 0.028970 4.065000 0.102690 
#    z -0.009780 0.102690 3.789880 
# 
# 
# High freq. dielectric constant tensor:
#      x y z
#    x 1.860720 0.009450 -0.003360 
#    y 0.009450 1.858070 0.016150 
#    z -0.003360 0.016150 1.855610 
# 
# From -- ./inp_files/270424.got.cif
#   From: 2010.06.25/outbox.cif.g09.slc.cpg/sg2_136_cif.got.tgz:270424.got - 2010.06.27 13:26:56.
