data_PCOD8034161
_publ_section_title
;
Structure prediction by ZEFSAII (Michael W. Deem and Ramdas Pophale) SiO2 
 PCOD8034161
Probable space group: P -1
;
_chemical_formula_sum "Si O2"
_cell_formula_units_Z 16
_cell_length_a 11.289061
_cell_length_b 8.914732
_cell_length_c 20.922952
_cell_angle_alpha 29.681222
_cell_angle_beta 137.098438
_cell_angle_gamma 125.453298
_cell_volume 699.791763
_symmetry_space_group_name_H-M "P -1"
_symmetry_group_IT_number 2
_symmetry_cell_setting 'triclinic'
loop_
_space_group_symop_operation_xyz
x,y,z
-x,-y,-z
loop_
_atom_site_type_symbol
_atom_site_label
_atom_site_fract_x
_atom_site_fract_y
_atom_site_fract_z
Si Si1 0.326856 0.493630 0.704219
Si Si2 0.636466 0.749445 0.378944
Si Si3 0.506287 0.923315 0.916168
Si Si4 0.911193 0.886804 0.070182
Si Si5 0.536287 0.712492 0.808624
Si Si6 0.990117 0.353249 0.380930
Si Si7 0.360871 0.828675 0.472645
Si Si8 0.882159 0.801705 0.863425
O O1 0.474199 0.676377 0.724731
O O2 0.171941 0.503069 0.690837
O O3 0.259861 0.663175 0.549126
O O4 0.422154 0.140526 0.860948
O O5 0.544932 0.455366 0.430545
O O6 0.835051 0.598352 0.530714
O O7 0.622929 0.996580 0.224757
O O8 0.548589 0.941939 0.332780
O O9 0.699954 0.991802 0.946857
O O10 0.517089 0.563805 0.068444
O O11 0.963060 0.519885 0.238836
O O12 0.991446 0.000886 0.124619
O O13 0.000000 0.000000 0.000000
O O14 0.744562 0.707523 0.895448
O O15 0.000000 0.000000 0.500000
O O16 0.500000 0.000000 0.500000
O O17 0.214773 0.045928 0.294262
O O18 0.000000 0.500000 0.000000
#
# Coordination Sequence:
#
# PCOD8034161 Si02
#       8
#     2   2   2   2   2   2   2   2
#     4  11  24  43  78 104 147 195 247 307 369 445
#     4  11  25  45  74 105 142 194 249 306 373 445
#     4  11  25  46  77 107 150 198 253 298 382 457
#     4  12  27  50  74 112 153 195 249 320 379 443
#     4  12  23  45  74 108 146 198 246 307 372 459
#     4  12  25  48  75 114 149 194 256 316 375 452
#     4  11  25  48  70 104 145 194 250 303 371 447
#     4  12  28  46  72 110 150 193 249 311 379 444
#
# _framework density 22.863945000000001
#
# number of rings (size 3 to 8) (size 9 to 14) (size 15 to 20)
#    0.000    0.500    5.000    2.250    3.500    5.500 
#    6.750    0.000    0.000    0.000    0.000    0.000 
#    0.000    0.000    0.000    0.000    0.000    0.000 
#
# Total GULP energy -198302.918941 kJ/mol
# GULP energy per Si atom -12393.932434 kJ/mol
# Density = 2.281191 g / cm^3
# Si number density = 22.863945 Si / 1000 Ang^3
#
#
#
# Elastic Constant Matrix: (Units=GPa)
#
#
# Indices 1 2 3 4 5 6 
#
# 1 114.1708 9.1690 54.2334 -12.9302 3.1449 9.3395
# 2 9.1690 81.7135 30.8935 -17.9712 2.2459 -8.9664
# 3 54.2334 30.8935 158.4073 -4.4445 -12.0839 -7.0186
# 4 -12.9302 -17.9712 -4.4445 42.1054 -7.5412 5.9228
# 5 3.1449 2.2459 -12.0839 -7.5412 44.1775 0.1815
# 6 9.3395 -8.9664 -7.0186 5.9228 0.1815 35.8852
#
#
#
# Elastic Compliance Matrix: (Units=1/GPa)
#
#
# Indices 1 2 3 4 5 6 
#
# 1 0.011549 0.000718 -0.004283 0.003757 -0.001371 -0.004277
# 2 0.000718 0.014779 -0.002924 0.005832 -0.000615 0.001975
# 3 -0.004283 -0.002924 0.008602 -0.001525 0.002537 0.002305
# 4 0.003757 0.005832 -0.001525 0.028574 0.003915 -0.004555
# 5 -0.001371 -0.000615 0.002537 0.003915 0.024127 -0.000069
# 6 -0.004277 0.001975 0.002305 -0.004555 -0.000069 0.030676
#
#
# Mechanical properties :
#
#
# Convention : Reuss Voigt Hill
#
# Bulk Modulus (GPa) = 45.55270 60.32038 52.93654
# Shear Modulus (GPa) = 36.07471 41.76666 38.92068
#
# Velocity S-wave (km/s) = 3.97646 4.27868 4.13034
# Velocity P-wave (km/s) = 6.40700 7.13086 6.77860
#
# Compressibility (1/GPa) = 0.02195260
#
# Stress axis : x y z
#
# Youngs Moduli (GPa) = 86.59088 67.66397 116.25035
#
# Poissons Ratio (x) = -0.04857 0.49785
# Poissons Ratio (y) = -0.06216 0.33990
# Poissons Ratio (z) = 0.37083 0.19784
#
# Static dielectric constant tensor:
#      x y z
#    x 3.815400 -0.114900 0.142490 
#    y -0.114900 4.517340 0.223240 
#    z 0.142490 0.223240 4.245570 
# 
# 
# High freq. dielectric constant tensor:
#      x y z
#    x 1.886730 -0.007710 -0.005390 
#    y -0.007710 1.918270 -0.001180 
#    z -0.005390 -0.001180 1.923370 
# 
# From -- ./inp_files/593927.got.cif
#   From: 2010.06.25/outbox.cif.g09.slc.cpg/sg2_297_cif.got.tgz:593927.got - 2010.06.27 13:26:56.
