data_PCOD8034474
_publ_section_title
;
Structure prediction by ZEFSAII (Michael W. Deem and Ramdas Pophale) SiO2 
 PCOD8034474
Probable space group: P -1
;
_chemical_formula_sum "Si O2"
_cell_formula_units_Z 16
_cell_length_a 13.657431
_cell_length_b 7.959978
_cell_length_c 9.876065
_cell_angle_alpha 86.377406
_cell_angle_beta 96.286412
_cell_angle_gamma 45.884674
_cell_volume 751.423450
_symmetry_space_group_name_H-M "P -1"
_symmetry_group_IT_number 2
_symmetry_cell_setting 'triclinic'
loop_
_space_group_symop_operation_xyz
x,y,z
-x,-y,-z
loop_
_atom_site_type_symbol
_atom_site_label
_atom_site_fract_x
_atom_site_fract_y
_atom_site_fract_z
Si Si1 0.532640 0.344174 0.887506
Si Si2 0.791805 0.480380 0.559860
Si Si3 0.034817 0.641664 0.855924
Si Si4 0.822363 0.860838 0.031545
Si Si5 0.112837 0.091061 0.664335
Si Si6 0.627415 0.356195 0.626986
Si Si7 0.754795 0.412263 0.270238
Si Si8 0.180038 0.183133 0.402447
O O1 0.570247 0.422267 0.766604
O O2 0.398239 0.393870 0.828650
O O3 0.500000 0.500000 0.000000
O O4 0.661283 0.065787 0.954212
O O5 0.703144 0.442836 0.619826
O O6 0.759153 0.532306 0.392165
O O7 0.753739 0.709892 0.604821
O O8 0.951423 0.237687 0.624368
O O9 0.137339 0.383607 0.955203
O O10 0.129183 0.683534 0.820356
O O11 0.962589 0.642884 0.714415
O O12 0.919826 0.842341 0.938214
O O13 0.842916 0.910771 0.179688
O O14 0.145021 0.195987 0.554101
O O15 0.207843 0.816307 0.652637
O O16 0.500000 0.500000 0.500000
O O17 0.722202 0.077899 0.631234
#
# Coordination Sequence:
#
# PCOD8034474 Si02
#       8
#     2   2   2   2   2   2   2   2
#     4  12  26  48  68 100 146 191 226 289 357 422
#     4  12  24  41  74 108 132 184 241 290 353 404
#     4  11  24  45  68 104 140 182 238 296 344 415
#     4  11  25  44  69  97 145 183 227 297 349 408
#     4  12  22  41  71 106 138 176 234 297 348 413
#     4  12  26  48  69 100 143 184 237 291 340 425
#     4  12  24  43  71 103 142 187 234 287 359 417
#     4  12  23  44  74 102 140 181 236 300 345 408
#
# _framework density 21.292919999999999
#
# number of rings (size 3 to 8) (size 9 to 14) (size 15 to 20)
#    0.000    0.250    7.500    2.250    0.000    2.500 
#    0.000    0.000    0.000    0.000    0.000    0.000 
#    0.000    0.000    0.000    0.000    0.000    0.000 
#
# Total GULP energy -198463.106647 kJ/mol
# GULP energy per Si atom -12403.944165 kJ/mol
# Density = 2.124446 g / cm^3
# Si number density = 21.292920 Si / 1000 Ang^3
#
#
#
# Elastic Constant Matrix: (Units=GPa)
#
#
# Indices 1 2 3 4 5 6 
#
# 1 133.6059 62.8330 53.9647 -2.0235 4.8145 -3.9314
# 2 62.8330 101.5306 38.3184 -18.0057 -4.4882 0.8722
# 3 53.9647 38.3184 143.7445 -1.6336 -2.1705 -11.2582
# 4 -2.0235 -18.0057 -1.6336 39.2753 -14.0035 5.5585
# 5 4.8145 -4.4882 -2.1705 -14.0035 31.2654 -2.1648
# 6 -3.9314 0.8722 -11.2582 5.5585 -2.1648 29.8981
#
#
#
# Elastic Compliance Matrix: (Units=1/GPa)
#
#
# Indices 1 2 3 4 5 6 
#
# 1 0.012392 -0.007878 -0.002579 -0.005235 -0.005461 0.001466
# 2 -0.007878 0.017803 -0.001825 0.011202 0.008402 -0.003717
# 3 -0.002579 -0.001825 0.008659 -0.000854 0.000573 0.003175
# 4 -0.005235 0.011202 -0.000854 0.038026 0.018899 -0.007038
# 5 -0.005461 0.008402 0.000573 0.018899 0.042454 -0.001187
# 6 0.001466 -0.003717 0.003175 -0.007038 -0.001187 0.036166
#
#
# Mechanical properties :
#
#
# Convention : Reuss Voigt Hill
#
# Bulk Modulus (GPa) = 69.98080 76.56812 73.27446
# Shear Modulus (GPa) = 27.05207 35.00543 31.02875
#
# Velocity S-wave (km/s) = 3.56824 4.05902 3.82151
# Velocity P-wave (km/s) = 7.06495 7.61610 7.34570
#
# Compressibility (1/GPa) = 0.01428963
#
# Stress axis : x y z
#
# Youngs Moduli (GPa) = 80.69712 56.16941 115.48231
#
# Poissons Ratio (x) = 0.44249 0.29787
# Poissons Ratio (y) = 0.63572 0.21079
# Poissons Ratio (z) = 0.20815 0.10253
#
# Static dielectric constant tensor:
#      x y z
#    x 3.719110 -0.180100 0.101900 
#    y -0.180100 4.001860 -0.110330 
#    z 0.101900 -0.110330 4.114140 
# 
# 
# High freq. dielectric constant tensor:
#      x y z
#    x 1.825620 -0.008400 -0.003610 
#    y -0.008400 1.836760 -0.005410 
#    z -0.003610 -0.005410 1.855390 
# 
# From -- ./inp_files/186766.got.cif
#   From: 2010.06.25/outbox.cif.g09.slc.cpg/sg2_94_cif.got.tgz:186766.got - 2010.06.27 13:26:56.
