data_PCOD8034709
_publ_section_title
;
Structure prediction by ZEFSAII (Michael W. Deem and Ramdas Pophale) SiO2 
 PCOD8034709
Probable space group: P -1
;
_chemical_formula_sum "Si O2"
_cell_formula_units_Z 12
_cell_length_a 8.399250
_cell_length_b 8.769187
_cell_length_c 11.836831
_cell_angle_alpha 129.107719
_cell_angle_beta 50.387907
_cell_angle_gamma 97.711740
_cell_volume 465.864846
_symmetry_space_group_name_H-M "P -1"
_symmetry_group_IT_number 2
_symmetry_cell_setting 'triclinic'
loop_
_space_group_symop_operation_xyz
x,y,z
-x,-y,-z
loop_
_atom_site_type_symbol
_atom_site_label
_atom_site_fract_x
_atom_site_fract_y
_atom_site_fract_z
Si Si1 0.180170 0.347535 0.438167
Si Si2 0.393579 0.841293 0.515599
Si Si3 0.931535 0.701467 0.891811
Si Si4 0.678312 0.175458 0.190903
Si Si5 0.228911 0.490522 0.946146
Si Si6 0.067815 0.969211 0.325160
O O1 0.062938 0.467233 0.662906
O O2 0.439976 0.325681 0.303244
O O3 0.000000 0.500000 0.500000
O O4 0.221228 0.097471 0.297599
O O5 0.370497 0.822576 0.651529
O O6 0.558841 0.601047 0.279328
O O7 0.500000 0.000000 0.500000
O O8 0.146296 0.919729 0.609317
O O9 0.135739 0.734193 0.881836
O O10 0.736277 0.682663 0.049235
O O11 0.794104 0.918779 0.978076
O O12 0.213942 0.716249 0.107377
O O13 0.000000 0.500000 0.000000
O O14 0.000000 0.000000 0.500000
#
# Coordination Sequence:
#
# PCOD8034709 Si02
#       6
#     2   2   2   2   2   2
#     4  12  27  47  71 106 154 196 244 312 381 434
#     4  12  23  44  77 108 143 195 249 298 363 441
#     4  11  24  45  76 106 144 196 251 302 369 445
#     4  11  25  48  76 108 147 194 255 306 365 452
#     4  12  24  43  77 110 143 192 249 300 363 443
#     4  12  26  45  72 111 154 190 243 310 374 432
#
# _framework density 25.758545000000002
#
# number of rings (size 3 to 8) (size 9 to 14) (size 15 to 20)
#    0.000    0.333    5.000    3.500    0.000    5.333 
#    0.000    0.000    0.000    0.000    0.000    0.000 
#    0.000    0.000    0.000    0.000    0.000    0.000 
#
# Total GULP energy -148733.796006 kJ/mol
# GULP energy per Si atom -12394.483001 kJ/mol
# Density = 2.569992 g / cm^3
# Si number density = 25.758545 Si / 1000 Ang^3
#
#
#
# Elastic Constant Matrix: (Units=GPa)
#
#
# Indices 1 2 3 4 5 6 
#
# 1 112.4499 29.4265 22.7618 9.6683 -15.2249 -6.0146
# 2 29.4265 112.5506 40.9581 19.4584 7.7905 25.0470
# 3 22.7618 40.9581 136.0041 27.4130 -0.4912 17.0087
# 4 9.6683 19.4584 27.4130 35.7210 10.8975 -1.2823
# 5 -15.2249 7.7905 -0.4912 10.8975 42.7496 13.2782
# 6 -6.0146 25.0470 17.0087 -1.2823 13.2782 35.3810
#
#
#
# Elastic Compliance Matrix: (Units=1/GPa)
#
#
# Indices 1 2 3 4 5 6 
#
# 1 0.010708 -0.003127 -0.000886 -0.001586 0.003860 0.002954
# 2 -0.003127 0.013349 -0.000898 -0.006498 0.001289 -0.010269
# 3 -0.000886 -0.000898 0.010335 -0.008700 0.004160 -0.006360
# 4 -0.001586 -0.006498 -0.008700 0.043991 -0.015659 0.015984
# 5 0.003860 0.001289 0.004160 -0.015659 0.033334 -0.015334
# 6 0.002954 -0.010269 -0.006360 0.015984 -0.015334 0.045427
#
#
# Mechanical properties :
#
#
# Convention : Reuss Voigt Hill
#
# Bulk Modulus (GPa) = 40.70176 60.81083 50.75630
# Shear Modulus (GPa) = 28.54586 40.62754 34.58670
#
# Velocity S-wave (km/s) = 3.33259 3.97576 3.66830
# Velocity P-wave (km/s) = 5.53568 6.68841 6.13916
#
# Compressibility (1/GPa) = 0.02456896
#
# Stress axis : x y z
#
# Youngs Moduli (GPa) = 93.39179 74.91298 96.75467
#
# Poissons Ratio (x) = 0.23429 0.08572
# Poissons Ratio (y) = 0.29208 0.08688
# Poissons Ratio (z) = 0.08274 0.06727
#
# Static dielectric constant tensor:
#      x y z
#    x 4.519130 0.080980 0.082740 
#    y 0.080980 5.140620 0.030310 
#    z 0.082740 0.030310 5.169100 
# 
# 
# High freq. dielectric constant tensor:
#      x y z
#    x 2.015250 0.005580 0.001950 
#    y 0.005580 2.050230 0.010400 
#    z 0.001950 0.010400 2.044490 
# 
# From -- ./inp_files/149794.got.cif
#   From: 2010.06.25/outbox.cif.g09.slc.cpg/sg2_75_cif.got.tgz:149794.got - 2010.06.27 13:26:56.
