data_PCOD8034609
_publ_section_title
;
Structure prediction by ZEFSAII (Michael W. Deem and Ramdas Pophale) SiO2 
 PCOD8034609
Probable space group: P -1
;
_chemical_formula_sum "Si O2"
_cell_formula_units_Z 16
_cell_length_a 9.215146
_cell_length_b 14.391880
_cell_length_c 9.177101
_cell_angle_alpha 140.845549
_cell_angle_beta 79.862367
_cell_angle_gamma 112.251292
_cell_volume 696.706615
_symmetry_space_group_name_H-M "P -1"
_symmetry_group_IT_number 2
_symmetry_cell_setting 'triclinic'
loop_
_space_group_symop_operation_xyz
x,y,z
-x,-y,-z
loop_
_atom_site_type_symbol
_atom_site_label
_atom_site_fract_x
_atom_site_fract_y
_atom_site_fract_z
Si Si1 0.642386 0.160854 0.727898
Si Si2 0.841230 0.978387 0.418399
Si Si3 0.638604 0.849454 0.698599
Si Si4 0.108383 0.627468 0.523239
Si Si5 0.165007 0.529748 0.086674
Si Si6 0.391958 0.820996 0.924694
Si Si7 0.990274 0.887203 0.733985
Si Si8 0.639107 0.662697 0.213335
O O1 0.687611 0.304293 0.778812
O O2 0.500000 0.000000 0.500000
O O3 0.795090 0.115404 0.665113
O O4 0.621319 0.240793 0.982465
O O5 0.695180 0.804841 0.254862
O O6 0.000000 0.000000 0.500000
O O7 0.872244 0.015062 0.286294
O O8 0.557601 0.811370 0.826114
O O9 0.816261 0.851823 0.656962
O O10 0.559431 0.713720 0.427643
O O11 0.610962 0.005149 0.841712
O O12 0.149117 0.533465 0.269270
O O13 0.261946 0.732257 0.717659
O O14 0.000000 0.500000 0.500000
O O15 0.017168 0.732468 0.598643
O O16 0.204643 0.379855 0.843909
O O17 0.000000 0.500000 0.000000
O O18 0.000000 0.000000 0.000000
O O19 0.500000 0.500000 0.000000
#
# Coordination Sequence:
#
# PCOD8034609 Si02
#       8
#     2   2   2   2   2   2   2   2
#     4  12  26  45  73 108 141 194 251 299 366 440
#     4  12  24  46  76 105 143 193 250 300 357 443
#     4  11  24  45  72 104 148 193 245 303 367 443
#     4  12  27  48  74 111 151 196 244 310 384 435
#     4  12  26  46  72 104 150 188 240 305 365 436
#     4  11  25  46  73 104 150 196 246 305 375 442
#     4  12  25  45  75 109 142 192 254 301 362 446
#     4  12  25  45  71 108 146 187 241 302 371 427
#
# _framework density 22.965191000000001
#
# number of rings (size 3 to 8) (size 9 to 14) (size 15 to 20)
#    0.000    0.250    5.000    3.750    7.000    0.000 
#    0.000    1.250    0.000    0.000    0.000    0.000 
#    0.000    0.000    0.000    0.000    0.000    0.000 
#
# Total GULP energy -198261.574852 kJ/mol
# GULP energy per Si atom -12391.348428 kJ/mol
# Density = 2.291292 g / cm^3
# Si number density = 22.965191 Si / 1000 Ang^3
#
#
#
# Elastic Constant Matrix: (Units=GPa)
#
#
# Indices 1 2 3 4 5 6 
#
# 1 54.7500 23.5020 27.5043 -13.7239 -18.5963 3.3055
# 2 23.5020 174.7501 58.4779 -18.3821 -15.1152 17.1968
# 3 27.5043 58.4779 152.5849 -24.4294 -12.5234 8.7321
# 4 -13.7239 -18.3821 -24.4294 45.8328 1.3093 -6.9616
# 5 -18.5963 -15.1152 -12.5234 1.3093 45.3611 1.8332
# 6 3.3055 17.1968 8.7321 -6.9616 1.8332 34.9506
#
#
#
# Elastic Compliance Matrix: (Units=1/GPa)
#
#
# Indices 1 2 3 4 5 6 
#
# 1 0.024256 -0.001106 -0.002357 0.005224 0.008798 -0.000582
# 2 -0.001106 0.007058 -0.002084 0.000933 0.001407 -0.002735
# 3 -0.002357 -0.002084 0.008291 0.002817 0.000559 -0.000291
# 4 0.005224 0.000933 0.002817 0.025698 0.002354 0.003338
# 5 0.008798 0.001407 0.000559 0.002354 0.026311 -0.002575
# 6 -0.000582 -0.002735 -0.000291 0.003338 -0.002575 0.030885
#
#
# Mechanical properties :
#
#
# Convention : Reuss Voigt Hill
#
# Bulk Modulus (GPa) = 35.07390 66.78371 50.92880
# Shear Modulus (GPa) = 34.94140 43.40227 39.17184
#
# Velocity S-wave (km/s) = 3.90486 4.35203 4.13450
# Velocity P-wave (km/s) = 5.96962 7.37544 6.70945
#
# Compressibility (1/GPa) = 0.02851123
#
# Stress axis : x y z
#
# Youngs Moduli (GPa) = 41.22654 141.69176 120.61427
#
# Poissons Ratio (x) = 0.15668 0.28427
# Poissons Ratio (y) = 0.04559 0.25138
# Poissons Ratio (z) = 0.09716 0.29530
#
# Static dielectric constant tensor:
#      x y z
#    x 4.580720 0.210650 -0.568690 
#    y 0.210650 4.429070 -0.133350 
#    z -0.568690 -0.133350 3.834240 
# 
# 
# High freq. dielectric constant tensor:
#      x y z
#    x 1.921720 0.007970 -0.010710 
#    y 0.007970 1.906980 -0.009470 
#    z -0.010710 -0.009470 1.921760 
# 
# From -- ./inp_files/209295.got.cif
#   From: 2010.06.25/outbox.cif.g09.slc.cpg/sg2_105_cif.got.tgz:209295.got - 2010.06.27 13:26:56.
