data_PCOD8034591
_publ_section_title
;
Structure prediction by ZEFSAII (Michael W. Deem and Ramdas Pophale) SiO2 
 PCOD8034591
Probable space group: P -1
;
_chemical_formula_sum "Si O2"
_cell_formula_units_Z 12
_cell_length_a 18.022679
_cell_length_b 12.679731
_cell_length_c 21.305710
_cell_angle_alpha 19.479113
_cell_angle_beta 161.368341
_cell_angle_gamma 153.022836
_cell_volume 518.598323
_symmetry_space_group_name_H-M "P -1"
_symmetry_group_IT_number 2
_symmetry_cell_setting 'triclinic'
loop_
_space_group_symop_operation_xyz
x,y,z
-x,-y,-z
loop_
_atom_site_type_symbol
_atom_site_label
_atom_site_fract_x
_atom_site_fract_y
_atom_site_fract_z
Si Si1 0.640922 0.634633 0.645976
Si Si2 0.358241 0.087336 0.775872
Si Si3 0.925327 0.350194 0.930394
Si Si4 0.647226 0.738571 0.914312
Si Si5 0.074394 0.539850 0.807300
Si Si6 0.214196 0.340238 0.796567
O O1 0.517714 0.299799 0.740491
O O2 0.816157 0.683912 0.816118
O O3 0.452189 0.917317 0.339101
O O4 0.780502 0.628543 0.694808
O O5 0.117878 0.277689 0.491956
O O6 0.289588 0.766044 0.866656
O O7 0.500000 0.000000 0.000000
O O8 0.785590 0.031863 0.008366
O O9 0.947568 0.422004 0.834455
O O10 0.447137 0.497265 0.870069
O O11 0.819341 0.753007 0.983998
O O12 0.795538 0.600073 0.169606
O O13 0.000000 0.500000 0.500000
#
# Coordination Sequence:
#
# PCOD8034591 Si02
#       6
#     2   2   2   2   2   2
#     4  11  24  45  71  99 136 185 232 277 340 413
#     4  11  24  46  69 102 137 184 225 283 341 411
#     4  11  24  45  71  99 136 185 232 277 340 413
#     4  11  26  45  71 105 138 177 230 288 343 401
#     4  11  26  45  71 105 138 177 230 288 343 401
#     4  11  24  46  69 102 137 184 225 283 341 411
#
# _framework density 23.139295000000001
#
# number of rings (size 3 to 8) (size 9 to 14) (size 15 to 20)
#    0.000    1.000    3.333    2.000    0.000   14.000 
#    0.000    0.000    0.000    0.000    0.000    0.000 
#    0.000    0.000    0.000    0.000    0.000    0.000 
#
# Total GULP energy -148768.032147 kJ/mol
# GULP energy per Si atom -12397.336012 kJ/mol
# Density = 2.308663 g / cm^3
# Si number density = 23.139295 Si / 1000 Ang^3
#
#
#
# Elastic Constant Matrix: (Units=GPa)
#
#
# Indices 1 2 3 4 5 6 
#
# 1 156.0410 24.3961 89.0144 -0.6689 14.8004 -9.5381
# 2 24.3961 122.6642 42.8979 8.2407 -10.8156 9.7568
# 3 89.0144 42.8979 145.9347 11.0919 -2.3534 -26.7236
# 4 -0.6689 8.2407 11.0919 46.7067 -12.2946 -17.1209
# 5 14.8004 -10.8156 -2.3534 -12.2946 35.2446 -5.6981
# 6 -9.5381 9.7568 -26.7236 -17.1209 -5.6981 25.6257
#
#
#
# Elastic Compliance Matrix: (Units=1/GPa)
#
#
# Indices 1 2 3 4 5 6 
#
# 1 0.011479 0.001154 -0.008956 -0.003481 -0.007826 -0.009572
# 2 0.001154 0.011809 -0.006657 -0.007088 -0.002410 -0.016280
# 3 -0.008956 -0.006657 0.018757 0.009491 0.010725 0.027487
# 4 -0.003481 -0.007088 0.009491 0.042459 0.021934 0.044545
# 5 -0.007826 -0.002410 0.010725 0.021934 0.044751 0.033794
# 6 -0.009572 -0.016280 0.027487 0.044545 0.033794 0.107600
#
#
# Mechanical properties :
#
#
# Convention : Reuss Voigt Hill
#
# Bulk Modulus (GPa) = 76.16757 81.91740 79.04249
# Shear Modulus (GPa) = 18.50837 39.40416 28.95627
#
# Velocity S-wave (km/s) = 2.83126 4.13111 3.54134
# Velocity P-wave (km/s) = 6.60882 7.63109 7.13828
#
# Compressibility (1/GPa) = 0.01312895
#
# Stress axis : x y z
#
# Youngs Moduli (GPa) = 87.11421 84.67791 53.31413
#
# Poissons Ratio (x) = -0.09772 0.47746
# Poissons Ratio (y) = -0.10054 0.35490
# Poissons Ratio (z) = 0.78016 0.56368
#
# Static dielectric constant tensor:
#      x y z
#    x 3.981840 0.037830 -0.113210 
#    y 0.037830 4.530430 0.120730 
#    z -0.113210 0.120730 4.128980 
# 
# 
# High freq. dielectric constant tensor:
#      x y z
#    x 1.902860 -0.000810 -0.002910 
#    y -0.000810 1.941340 0.013110 
#    z -0.002910 0.013110 1.909890 
# 
# From -- ./inp_files/390889.got.cif
#   From: 2010.06.25/outbox.cif.g09.slc.cpg/sg2_196_cif.got.tgz:390889.got - 2010.06.27 13:26:56.
