data_PCOD8034118
_publ_section_title
;
Structure prediction by ZEFSAII (Michael W. Deem and Ramdas Pophale) SiO2 
 PCOD8034118
Probable space group: P -1
;
_chemical_formula_sum "Si O2"
_cell_formula_units_Z 16
_cell_length_a 11.232302
_cell_length_b 9.154187
_cell_length_c 15.013154
_cell_angle_alpha 141.079637
_cell_angle_beta 69.700737
_cell_angle_gamma 129.479968
_cell_volume 712.950164
_symmetry_space_group_name_H-M "P -1"
_symmetry_group_IT_number 2
_symmetry_cell_setting 'triclinic'
loop_
_space_group_symop_operation_xyz
x,y,z
-x,-y,-z
loop_
_atom_site_type_symbol
_atom_site_label
_atom_site_fract_x
_atom_site_fract_y
_atom_site_fract_z
Si Si1 0.038195 0.701498 0.001012
Si Si2 0.452250 0.618442 0.271230
Si Si3 0.984619 0.789163 0.728605
Si Si4 0.609228 0.968000 0.017330
Si Si5 0.243253 0.768843 0.580652
Si Si6 0.390135 0.208588 0.500273
Si Si7 0.618308 0.306685 0.336204
Si Si8 0.844004 0.452508 0.760436
O O1 0.889452 0.505167 0.877481
O O2 0.208164 0.827533 0.971579
O O3 0.000000 0.500000 0.000000
O O4 0.041233 0.968164 0.161488
O O5 0.477625 0.668073 0.395847
O O6 0.281702 0.491606 0.211593
O O7 0.577887 0.935172 0.342772
O O8 0.475577 0.379278 0.123229
O O9 0.817049 0.466242 0.593609
O O10 0.007317 0.720413 0.791831
O O11 0.129916 0.867503 0.666055
O O12 0.594031 0.056158 0.161481
O O13 0.500000 0.000000 0.000000
O O14 0.237680 0.602205 0.591446
O O15 0.459335 0.185613 0.378722
O O16 0.336482 0.415821 0.602145
O O17 0.225959 0.879451 0.407588
#
# Coordination Sequence:
#
# PCOD8034118 Si02
#       8
#     2   2   2   2   2   2   2   2
#     4  12  31  47  71 105 148 194 237 289 374 428
#     4  12  24  46  78 107 141 187 248 297 349 429
#     4  11  25  47  70 102 152 185 240 297 363 425
#     4  12  28  48  73 105 149 186 239 302 355 427
#     4  11  25  43  73 109 139 188 243 304 351 423
#     4  11  24  43  73 107 141 186 242 294 360 419
#     4  11  25  42  69 107 144 181 241 296 358 417
#     4  12  24  46  74 100 141 195 237 293 356 429
#
# _framework density 22.441960999999999
#
# number of rings (size 3 to 8) (size 9 to 14) (size 15 to 20)
#    0.000    0.500    5.000    2.250    7.000    0.500 
#    0.000    1.250    0.000    0.000    0.000    0.000 
#    0.000    0.000    0.000    0.000    0.000    0.000 
#
# Total GULP energy -198343.381078 kJ/mol
# GULP energy per Si atom -12396.461317 kJ/mol
# Density = 2.239088 g / cm^3
# Si number density = 22.441961 Si / 1000 Ang^3
#
#
#
# Elastic Constant Matrix: (Units=GPa)
#
#
# Indices 1 2 3 4 5 6 
#
# 1 118.8713 34.9117 48.4401 -2.2141 -0.5873 -22.4359
# 2 34.9117 90.4860 47.1098 2.3359 -3.8925 -25.6040
# 3 48.4401 47.1098 144.1621 -3.9897 -16.8835 -13.8861
# 4 -2.2141 2.3359 -3.9897 37.3224 -9.7295 -2.2649
# 5 -0.5873 -3.8925 -16.8835 -9.7295 34.9802 0.8769
# 6 -22.4359 -25.6040 -13.8861 -2.2649 0.8769 42.7569
#
#
#
# Elastic Compliance Matrix: (Units=1/GPa)
#
#
# Indices 1 2 3 4 5 6 
#
# 1 0.010782 -0.001666 -0.002871 0.000301 -0.001401 0.003772
# 2 -0.001666 0.015854 -0.004046 -0.001280 -0.000755 0.007253
# 3 -0.002871 -0.004046 0.009794 0.002364 0.004904 -0.000724
# 4 0.000301 -0.001280 0.002364 0.029638 0.009209 0.001540
# 5 -0.001401 -0.000755 0.004904 0.009209 0.033403 0.000208
# 6 0.003772 0.007253 -0.000724 0.001540 0.000208 0.029553
#
#
# Mechanical properties :
#
#
# Convention : Reuss Voigt Hill
#
# Bulk Modulus (GPa) = 51.91154 68.27138 60.09146
# Shear Modulus (GPa) = 32.76293 37.88243 35.32268
#
# Velocity S-wave (km/s) = 3.82500 4.11301 3.97162
# Velocity P-wave (km/s) = 6.53370 7.28307 6.91854
#
# Compressibility (1/GPa) = 0.01926354
#
# Stress axis : x y z
#
# Youngs Moduli (GPa) = 92.74413 63.07700 102.10792
#
# Poissons Ratio (x) = 0.10508 0.29315
# Poissons Ratio (y) = 0.15451 0.41314
# Poissons Ratio (z) = 0.26626 0.25522
#
# Static dielectric constant tensor:
#      x y z
#    x 4.112600 -0.213570 -0.030660 
#    y -0.213570 3.677340 0.548290 
#    z -0.030660 0.548290 3.259780 
# 
# 
# High freq. dielectric constant tensor:
#      x y z
#    x 1.892940 -0.016420 -0.005030 
#    y -0.016420 1.882830 -0.003610 
#    z -0.005030 -0.003610 1.894000 
# 
# From -- ./inp_files/298228.got.cif
#   From: 2010.06.25/outbox.cif.g09.slc.cpg/sg2_150_cif.got.tgz:298228.got - 2010.06.27 13:26:56.
