data_PCOD8034095
_publ_section_title
;
Structure prediction by ZEFSAII (Michael W. Deem and Ramdas Pophale) SiO2 
 PCOD8034095
Probable space group: P -1
;
_chemical_formula_sum "Si O2"
_cell_formula_units_Z 14
_cell_length_a 9.268335
_cell_length_b 23.850027
_cell_length_c 8.904866
_cell_angle_alpha 40.738102
_cell_angle_beta 133.268241
_cell_angle_gamma 152.446329
_cell_volume 593.619511
_symmetry_space_group_name_H-M "P -1"
_symmetry_group_IT_number 2
_symmetry_cell_setting 'triclinic'
loop_
_space_group_symop_operation_xyz
x,y,z
-x,-y,-z
loop_
_atom_site_type_symbol
_atom_site_label
_atom_site_fract_x
_atom_site_fract_y
_atom_site_fract_z
Si Si1 0.182351 0.310521 0.939691
Si Si2 0.782592 0.039443 0.685286
Si Si3 0.791021 0.013945 0.305741
Si Si4 0.898818 0.226524 0.582105
Si Si5 0.912227 0.381326 0.747426
Si Si6 0.710648 0.901891 0.183531
Si Si7 0.093710 0.452047 0.065024
O O1 0.546376 0.412532 0.994840
O O2 0.073092 0.291382 0.731650
O O3 0.146075 0.382790 0.868534
O O4 0.982685 0.165562 0.165571
O O5 0.997470 0.173089 0.671329
O O6 0.989311 0.062218 0.656199
O O7 0.500000 0.000000 0.500000
O O8 0.666132 0.922284 0.942377
O O9 0.479232 0.901831 0.410737
O O10 0.704293 0.980888 0.132623
O O11 0.000000 0.000000 0.500000
O O12 0.019461 0.343322 0.328130
O O13 0.589351 0.256447 0.684258
O O14 0.000000 0.500000 0.500000
O O15 0.890789 0.380986 0.912632
O O16 0.000000 0.500000 0.000000
#
# Coordination Sequence:
#
# PCOD8034095 Si02
#       7
#     2   2   2   2   2   2   2
#     4  12  26  49  76 107 149 196 248 305 380 445
#     4  11  24  43  72 110 148 191 242 313 377 434
#     4  12  25  45  78 107 146 194 247 307 373 450
#     4  12  24  46  73 105 146 190 244 303 373 440
#     4  12  28  49  75 104 149 197 250 302 370 451
#     4  11  25  46  73 109 151 191 250 308 370 450
#     4  12  29  47  74 110 147 194 248 307 376 450
#
# _framework density 23.584128
#
# number of rings (size 3 to 8) (size 9 to 14) (size 15 to 20)
#    0.000    0.286    2.857    5.571    6.000    2.286 
#    0.000    0.000    0.000    0.000    0.000    0.000 
#    0.000    0.000    0.000    0.000    0.000    0.000 
#
# Total GULP energy -173617.391185 kJ/mol
# GULP energy per Si atom -12401.242228 kJ/mol
# Density = 2.353045 g / cm^3
# Si number density = 23.584128 Si / 1000 Ang^3
#
#
#
# Elastic Constant Matrix: (Units=GPa)
#
#
# Indices 1 2 3 4 5 6 
#
# 1 144.2026 27.1522 4.5771 -13.0215 19.2585 -15.9525
# 2 27.1522 97.1230 15.6257 -17.1628 9.1933 9.7857
# 3 4.5771 15.6257 102.4056 -18.5865 13.5348 -6.4057
# 4 -13.0215 -17.1628 -18.5865 46.3751 -3.2111 2.2195
# 5 19.2585 9.1933 13.5348 -3.2111 36.5446 1.4974
# 6 -15.9525 9.7857 -6.4057 2.2195 1.4974 47.8080
#
#
#
# Elastic Compliance Matrix: (Units=1/GPa)
#
#
# Indices 1 2 3 4 5 6 
#
# 1 0.008401 -0.002192 0.001009 0.001492 -0.004260 0.003451
# 2 -0.002192 0.012172 -0.001210 0.003503 -0.001007 -0.003516
# 3 0.001009 -0.001210 0.011303 0.003980 -0.004147 0.002044
# 4 0.001492 0.003503 0.003980 0.024849 -0.000925 -0.000811
# 5 -0.004260 -0.001007 -0.004147 -0.000925 0.031428 -0.002712
# 6 0.003451 -0.003516 0.002044 -0.000811 -0.002712 0.023185
#
#
# Mechanical properties :
#
#
# Convention : Reuss Voigt Hill
#
# Bulk Modulus (GPa) = 36.91551 48.71568 42.81560
# Shear Modulus (GPa) = 39.95080 45.90395 42.92737
#
# Velocity S-wave (km/s) = 4.12025 4.41658 4.27099
# Velocity P-wave (km/s) = 6.19047 6.83441 6.52040
#
# Compressibility (1/GPa) = 0.02708888
#
# Stress axis : x y z
#
# Youngs Moduli (GPa) = 119.03752 82.15399 88.47108
#
# Poissons Ratio (x) = 0.18006 -0.08923
# Poissons Ratio (y) = 0.26090 0.10709
# Poissons Ratio (z) = -0.12006 0.09944
#
# Static dielectric constant tensor:
#      x y z
#    x 4.894710 -0.313440 -0.076760 
#    y -0.313440 4.400860 0.161920 
#    z -0.076760 0.161920 4.308820 
# 
# 
# High freq. dielectric constant tensor:
#      x y z
#    x 1.955190 -0.011430 0.000430 
#    y -0.011430 1.937680 0.000360 
#    z 0.000430 0.000360 1.945120 
# 
# From -- ./inp_files/226009.got.cif
#   From: 2010.06.25/outbox.cif.g09.slc.cpg/sg2_114_cif.got.tgz:226009.got - 2010.06.27 13:26:56.
