data_PCOD8034099
_publ_section_title
;
Structure prediction by ZEFSAII (Michael W. Deem and Ramdas Pophale) SiO2 
 PCOD8034099
Probable space group: P -1
;
_chemical_formula_sum "Si O2"
_cell_formula_units_Z 14
_cell_length_a 11.750327
_cell_length_b 9.271376
_cell_length_c 9.228201
_cell_angle_alpha 47.573189
_cell_angle_beta 64.210841
_cell_angle_gamma 83.677617
_cell_volume 642.228063
_symmetry_space_group_name_H-M "P -1"
_symmetry_group_IT_number 2
_symmetry_cell_setting 'triclinic'
loop_
_space_group_symop_operation_xyz
x,y,z
-x,-y,-z
loop_
_atom_site_type_symbol
_atom_site_label
_atom_site_fract_x
_atom_site_fract_y
_atom_site_fract_z
Si Si1 0.140768 0.777299 0.279798
Si Si2 0.632540 0.500168 0.348305
Si Si3 0.382342 0.928948 0.227577
Si Si4 0.442199 0.923866 0.734267
Si Si5 0.767614 0.867629 0.201007
Si Si6 0.635939 0.507493 0.997382
Si Si7 0.154100 0.363070 0.427921
O O1 0.246341 0.927769 0.226143
O O2 0.194517 0.588382 0.325985
O O3 0.999761 0.694185 0.490928
O O4 0.128769 0.924579 0.052855
O O5 0.500000 0.500000 0.500000
O O6 0.654458 0.287527 0.524211
O O7 0.749752 0.684449 0.220382
O O8 0.627851 0.538711 0.152340
O O9 0.434950 0.091721 0.217995
O O10 0.500000 0.000000 0.000000
O O11 0.338598 0.708966 0.909240
O O12 0.500000 0.000000 0.500000
O O13 0.373537 0.085420 0.731289
O O14 0.820451 0.803434 0.364291
O O15 0.500000 0.500000 0.000000
O O16 0.762748 0.657930 0.747718
#
# Coordination Sequence:
#
# PCOD8034099 Si02
#       7
#     2   2   2   2   2   2   2
#     4  11  24  43  72  98 137 177 228 269 334 406
#     4  12  23  40  64 102 136 174 220 278 338 394
#     4  12  22  39  67  96 133 171 223 272 325 398
#     4  12  23  40  65 101 135 169 218 280 332 383
#     4  12  23  43  69  98 135 175 227 271 332 405
#     4  12  26  42  68 101 139 171 225 282 331 394
#     4  11  24  46  70  99 133 181 224 276 333 396
#
# _framework density 21.799109000000001
#
# number of rings (size 3 to 8) (size 9 to 14) (size 15 to 20)
#    0.000    0.286    7.143    2.143    4.000    0.000 
#    0.000    1.429    3.143    0.000    0.000    0.000 
#    0.000    0.000    0.000    0.000    0.000    0.000 
#
# Total GULP energy -173473.894141 kJ/mol
# GULP energy per Si atom -12390.992439 kJ/mol
# Density = 2.174949 g / cm^3
# Si number density = 21.799109 Si / 1000 Ang^3
#
#
#
# Elastic Constant Matrix: (Units=GPa)
#
#
# Indices 1 2 3 4 5 6 
#
# 1 91.0102 17.8588 43.1330 25.7868 -3.9921 11.5709
# 2 17.8588 58.0617 27.5828 20.4713 -2.2148 15.1869
# 3 43.1330 27.5828 144.6576 26.8003 6.5974 1.3955
# 4 25.7868 20.4713 26.8003 42.3243 -1.0932 4.2825
# 5 -3.9921 -2.2148 6.5974 -1.0932 41.9165 0.4961
# 6 11.5709 15.1869 1.3955 4.2825 0.4961 32.3740
#
#
#
# Elastic Compliance Matrix: (Units=1/GPa)
#
#
# Indices 1 2 3 4 5 6 
#
# 1 0.015083 0.000689 -0.003401 -0.006846 0.001885 -0.004691
# 2 0.000689 0.024551 -0.003163 -0.009191 0.001745 -0.010438
# 3 -0.003401 -0.003163 0.009050 -0.002450 -0.002011 0.002664
# 4 -0.006846 -0.009191 -0.002450 0.033552 0.000094 0.002424
# 5 0.001885 0.001745 -0.002011 0.000094 0.024469 -0.001793
# 6 -0.004691 -0.010438 0.002664 0.002424 -0.001793 0.037054
#
#
# Mechanical properties :
#
#
# Convention : Reuss Voigt Hill
#
# Bulk Modulus (GPa) = 27.07524 52.31986 39.69755
# Shear Modulus (GPa) = 29.79372 36.99995 33.39683
#
# Velocity S-wave (km/s) = 3.70096 4.12432 3.91836
# Velocity P-wave (km/s) = 5.54167 6.83615 6.22266
#
# Compressibility (1/GPa) = 0.03693412
#
# Stress axis : x y z
#
# Youngs Moduli (GPa) = 66.29811 40.73191 110.49677
#
# Poissons Ratio (x) = -0.02807 0.37582
# Poissons Ratio (y) = -0.04568 0.34949
# Poissons Ratio (z) = 0.22550 0.12883
#
# Static dielectric constant tensor:
#      x y z
#    x 3.787200 0.067410 0.278980 
#    y 0.067410 3.964630 -0.137470 
#    z 0.278980 -0.137470 4.271670 
# 
# 
# High freq. dielectric constant tensor:
#      x y z
#    x 1.839450 0.007990 0.014370 
#    y 0.007990 1.845380 -0.015860 
#    z 0.014370 -0.015860 1.881790 
# 
# From -- ./inp_files/226759.got.cif
#   From: 2010.06.25/outbox.cif.g09.slc.cpg/sg2_114_cif.got.tgz:226759.got - 2010.06.27 13:26:56.
