data_PCOD8034286
_publ_section_title
;
Structure prediction by ZEFSAII (Michael W. Deem and Ramdas Pophale) SiO2 
 PCOD8034286
Probable space group: P -1
;
_chemical_formula_sum "Si O2"
_cell_formula_units_Z 14
_cell_length_a 14.685564
_cell_length_b 14.271204
_cell_length_c 23.315565
_cell_angle_alpha 160.044241
_cell_angle_beta 21.344802
_cell_angle_gamma 149.726291
_cell_volume 604.250274
_symmetry_space_group_name_H-M "P -1"
_symmetry_group_IT_number 2
_symmetry_cell_setting 'triclinic'
loop_
_space_group_symop_operation_xyz
x,y,z
-x,-y,-z
loop_
_atom_site_type_symbol
_atom_site_label
_atom_site_fract_x
_atom_site_fract_y
_atom_site_fract_z
Si Si1 0.267223 0.554992 0.537763
Si Si2 0.465267 0.108865 0.249377
Si Si3 0.752522 0.378957 0.751203
Si Si4 0.207675 0.664309 0.501921
Si Si5 0.457623 0.480590 0.877114
Si Si6 0.988559 0.233562 0.991175
Si Si7 0.702951 0.783800 0.467497
O O1 0.405454 0.268666 0.316716
O O2 0.263359 0.568036 0.478962
O O3 0.425020 0.798698 0.609655
O O4 0.981029 0.566470 0.736278
O O5 0.322894 0.258671 0.473159
O O6 0.766048 0.106266 0.083804
O O7 0.384977 0.804050 0.114898
O O8 0.698295 0.376089 0.713725
O O9 0.830694 0.064101 0.542968
O O10 0.500000 0.500000 0.000000
O O11 0.470037 0.595818 0.274871
O O12 0.000000 0.500000 0.500000
O O13 0.111800 0.988123 0.737269
O O14 0.216069 0.327527 0.950835
O O15 0.876949 0.517393 0.187550
#
# Coordination Sequence:
#
# PCOD8034286 Si02
#       7
#     2   2   2   2   2   2   2
#     4  11  25  45  69  99 138 183 228 277 341 405
#     4  11  24  45  69 103 143 179 219 287 341 412
#     4  12  25  40  69 104 136 178 226 277 341 406
#     4  12  24  49  70  96 141 181 236 279 335 406
#     4  12  25  45  72 102 139 181 227 284 341 399
#     4  11  24  44  70  97 136 183 224 283 335 398
#     4  11  26  45  68 106 142 177 227 277 348 411
#
# _framework density 23.169207
#
# number of rings (size 3 to 8) (size 9 to 14) (size 15 to 20)
#    0.000    0.571    4.286    3.857    4.000    2.286 
#    0.000    3.571    0.000    0.000    0.000    0.000 
#    0.000    0.000    0.000    0.000    0.000    0.000 
#
# Total GULP energy -173493.898190 kJ/mol
# GULP energy per Si atom -12392.421299 kJ/mol
# Density = 2.311647 g / cm^3
# Si number density = 23.169207 Si / 1000 Ang^3
#
#
#
# Elastic Constant Matrix: (Units=GPa)
#
#
# Indices 1 2 3 4 5 6 
#
# 1 112.2829 22.0015 50.2230 -1.4530 4.2931 -15.0330
# 2 22.0015 81.3703 40.2241 1.9776 1.7010 12.1118
# 3 50.2230 40.2241 100.8358 8.7637 1.0147 5.4558
# 4 -1.4530 1.9776 8.7637 45.9423 0.5805 -5.6138
# 5 4.2931 1.7010 1.0147 0.5805 28.5345 -1.6431
# 6 -15.0330 12.1118 5.4558 -5.6138 -1.6431 37.6791
#
#
#
# Elastic Compliance Matrix: (Units=1/GPa)
#
#
# Indices 1 2 3 4 5 6 
#
# 1 0.013137 -0.001368 -0.006586 0.002598 -0.001312 0.006965
# 2 -0.001368 0.016123 -0.005444 -0.000302 -0.000845 -0.005022
# 3 -0.006586 -0.005444 0.015861 -0.003455 0.000611 -0.003663
# 4 0.002598 -0.000302 -0.003455 0.023145 -0.000429 0.005064
# 5 -0.001312 -0.000845 0.000611 -0.000429 0.035346 0.001137
# 6 0.006965 -0.005022 -0.003663 0.005064 0.001137 0.032267
#
#
# Mechanical properties :
#
#
# Convention : Reuss Voigt Hill
#
# Bulk Modulus (GPa) = 54.57302 57.70959 56.14131
# Shear Modulus (GPa) = 29.62375 34.56720 32.09547
#
# Velocity S-wave (km/s) = 3.57961 3.86676 3.72595
# Velocity P-wave (km/s) = 6.37887 6.70058 6.54170
#
# Compressibility (1/GPa) = 0.01832407
#
# Stress axis : x y z
#
# Youngs Moduli (GPa) = 76.12363 62.02326 63.04627
#
# Poissons Ratio (x) = 0.08487 0.41525
# Poissons Ratio (y) = 0.10417 0.34319
# Poissons Ratio (z) = 0.50138 0.33763
#
# Static dielectric constant tensor:
#      x y z
#    x 4.226270 0.155320 -0.073050 
#    y 0.155320 4.546390 -0.090700 
#    z -0.073050 -0.090700 4.172620 
# 
# 
# High freq. dielectric constant tensor:
#      x y z
#    x 1.897620 0.016910 -0.012460 
#    y 0.016910 1.941870 0.001130 
#    z -0.012460 0.001130 1.907670 
# 
# From -- ./inp_files/332702.got.cif
#   From: 2010.06.25/outbox.cif.g09.slc.cpg/sg2_167_cif.got.tgz:332702.got - 2010.06.27 13:26:56.
