data_PCOD8034899
_publ_section_title
;
Structure prediction by ZEFSAII (Michael W. Deem and Ramdas Pophale) SiO2 
 PCOD8034899
Probable space group: P -1
;
_chemical_formula_sum "Si O2"
_cell_formula_units_Z 10
_cell_length_a 20.846683
_cell_length_b 14.918459
_cell_length_c 11.156804
_cell_angle_alpha 150.316830
_cell_angle_beta 22.229730
_cell_angle_gamma 161.358836
_cell_volume 418.589619
_symmetry_space_group_name_H-M "P -1"
_symmetry_group_IT_number 2
_symmetry_cell_setting 'triclinic'
loop_
_space_group_symop_operation_xyz
x,y,z
-x,-y,-z
loop_
_atom_site_type_symbol
_atom_site_label
_atom_site_fract_x
_atom_site_fract_y
_atom_site_fract_z
Si Si1 0.707903 0.961805 0.708686
Si Si2 0.284053 0.143150 0.688148
Si Si3 0.898065 0.398330 0.242817
Si Si4 0.584966 0.073471 0.634987
Si Si5 0.190978 0.265745 0.564521
O O1 0.946623 0.294728 0.701462
O O2 0.626841 0.885718 0.621890
O O3 0.795861 0.833470 0.448901
O O4 0.461571 0.825863 0.057858
O O5 0.515077 0.478543 0.704733
O O6 0.271258 0.988783 0.638295
O O7 0.000000 0.000000 0.000000
O O8 0.763870 0.317379 0.510170
O O9 0.691775 0.206544 0.270207
O O10 0.086443 0.379892 0.902808
O O11 0.000000 0.000000 0.500000
#
# Coordination Sequence:
#
# PCOD8034899 Si02
#       5
#     2   2   2   2   2
#     4  12  25  46  75 106 147 190 239 304 362 429
#     4  12  28  47  72 112 150 192 238 302 371 429
#     4  11  25  47  75 108 142 192 249 296 360 430
#     4  11  24  46  74 107 145 192 243 297 360 436
#     4  12  25  48  77 104 146 192 245 298 358 433
#
# _framework density 23.889748000000001
#
# number of rings (size 3 to 8) (size 9 to 14) (size 15 to 20)
#    0.000    0.400    4.000    4.200    2.800    0.800 
#    0.000    5.000    0.000    0.000    0.000    0.000 
#    0.000    0.000    0.000    0.000    0.000    0.000 
#
# Total GULP energy -124050.392981 kJ/mol
# GULP energy per Si atom -12405.039298 kJ/mol
# Density = 2.383537 g / cm^3
# Si number density = 23.889748 Si / 1000 Ang^3
#
#
#
# Elastic Constant Matrix: (Units=GPa)
#
#
# Indices 1 2 3 4 5 6 
#
# 1 102.0213 16.0608 37.9305 2.8568 -9.4876 -9.6657
# 2 16.0608 65.3919 49.3059 -12.0126 -7.1511 4.9594
# 3 37.9305 49.3059 125.2868 -11.7111 -15.2097 0.6453
# 4 2.8568 -12.0126 -11.7111 31.7614 -5.5570 -10.4343
# 5 -9.4876 -7.1511 -15.2097 -5.5570 55.4012 9.4301
# 6 -9.6657 4.9594 0.6453 -10.4343 9.4301 29.7285
#
#
#
# Elastic Compliance Matrix: (Units=1/GPa)
#
#
# Indices 1 2 3 4 5 6 
#
# 1 0.011538 -0.000852 -0.003277 -0.001411 0.000248 0.003391
# 2 -0.000852 0.022906 -0.008069 0.005184 0.001557 -0.002598
# 3 -0.003277 -0.008069 0.012615 0.002309 0.002064 0.000162
# 4 -0.001411 0.005184 0.002309 0.038642 0.003026 0.011229
# 5 0.000248 0.001557 0.002064 0.003026 0.020107 -0.005540
# 6 0.003391 -0.002598 0.000162 0.011229 -0.005540 0.040869
#
#
# Mechanical properties :
#
#
# Convention : Reuss Voigt Hill
#
# Bulk Modulus (GPa) = 44.12776 55.47715 49.80245
# Shear Modulus (GPa) = 27.99112 36.00508 31.99810
#
# Velocity S-wave (km/s) = 3.42669 3.88640 3.66376
# Velocity P-wave (km/s) = 5.84532 6.58873 6.22813
#
# Compressibility (1/GPa) = 0.02266147
#
# Stress axis : x y z
#
# Youngs Moduli (GPa) = 86.66834 43.65728 79.27012
#
# Poissons Ratio (x) = 0.03721 0.25978
# Poissons Ratio (y) = 0.07386 0.63966
# Poissons Ratio (z) = 0.28402 0.35229
#
# Static dielectric constant tensor:
#      x y z
#    x 4.575340 -0.125940 -0.016280 
#    y -0.125940 4.398200 -0.048090 
#    z -0.016280 -0.048090 4.317650 
# 
# 
# High freq. dielectric constant tensor:
#      x y z
#    x 1.964050 -0.008300 -0.009930 
#    y -0.008300 1.955510 -0.004910 
#    z -0.009930 -0.004910 1.943880 
# 
# From -- ./inp_files/160396.got.cif
#   From: 2010.06.25/outbox.cif.g09.slc.cpg/sg2_81_cif.got.tgz:160396.got - 2010.06.27 13:26:56.
