data_PCOD8034260
_publ_section_title
;
Structure prediction by ZEFSAII (Michael W. Deem and Ramdas Pophale) SiO2 
 PCOD8034260
Probable space group: P -1
;
_chemical_formula_sum "Si O2"
_cell_formula_units_Z 16
_cell_length_a 10.548484
_cell_length_b 8.448636
_cell_length_c 15.914586
_cell_angle_alpha 48.638099
_cell_angle_beta 72.785515
_cell_angle_gamma 44.350885
_cell_volume 700.740304
_symmetry_space_group_name_H-M "P -1"
_symmetry_group_IT_number 2
_symmetry_cell_setting 'triclinic'
loop_
_space_group_symop_operation_xyz
x,y,z
-x,-y,-z
loop_
_atom_site_type_symbol
_atom_site_label
_atom_site_fract_x
_atom_site_fract_y
_atom_site_fract_z
Si Si1 0.311973 0.462512 0.753362
Si Si2 0.053192 0.356008 0.258323
Si Si3 0.525707 0.207113 0.233091
Si Si4 0.164956 0.611249 0.261589
Si Si5 0.216361 0.719815 0.861467
Si Si6 0.284835 0.687634 0.502440
Si Si7 0.199645 0.393302 0.507735
Si Si8 0.335037 0.183991 0.132633
O O1 0.249702 0.667676 0.774085
O O2 0.286162 0.645516 0.615782
O O3 0.173558 0.417961 0.789861
O O4 0.533968 0.130237 0.835397
O O5 0.070917 0.528922 0.257471
O O6 0.147040 0.289568 0.171586
O O7 0.145893 0.043372 0.390537
O O8 0.333693 0.522787 0.203980
O O9 0.643433 0.253480 0.145694
O O10 0.469118 0.100017 0.212975
O O11 0.645474 0.955054 0.370761
O O12 0.257111 0.420395 0.396620
O O13 0.005025 0.972170 0.183927
O O14 0.268687 0.447525 0.993944
O O15 0.500000 0.500000 0.500000
O O16 0.195994 0.589347 0.505888
O O17 0.000000 0.500000 0.500000
#
# Coordination Sequence:
#
# PCOD8034260 Si02
#       8
#     2   2   2   2   2   2   2   2
#     4  12  25  44  69 103 138 182 238 290 362 419
#     4  11  25  43  73 103 142 185 229 296 358 432
#     4  11  24  44  70 101 138 187 232 297 352 419
#     4  11  25  43  68 107 143 183 237 292 359 427
#     4  12  27  43  72 101 142 190 237 291 348 428
#     4  12  24  45  74 105 147 186 233 300 371 428
#     4  12  23  43  74 105 146 181 239 303 356 429
#     4  11  25  50  68 101 140 189 243 287 351 422
#
# _framework density 22.832995
#
# number of rings (size 3 to 8) (size 9 to 14) (size 15 to 20)
#    0.000    0.500    3.750    4.500    3.500    4.500 
#    0.000    0.000    0.000    0.000    0.000    0.000 
#    0.000    0.000    0.000    0.000    0.000    0.000 
#
# Total GULP energy -198478.076079 kJ/mol
# GULP energy per Si atom -12404.879755 kJ/mol
# Density = 2.278103 g / cm^3
# Si number density = 22.832995 Si / 1000 Ang^3
#
#
#
# Elastic Constant Matrix: (Units=GPa)
#
#
# Indices 1 2 3 4 5 6 
#
# 1 59.3455 12.3858 20.8641 5.4075 1.7344 -8.2233
# 2 12.3858 122.4387 21.8339 -0.4721 0.9479 -3.3163
# 3 20.8641 21.8339 79.9861 4.4583 -17.1304 -6.7833
# 4 5.4075 -0.4721 4.4583 24.2175 2.2526 -8.0391
# 5 1.7344 0.9479 -17.1304 2.2526 30.7572 4.0150
# 6 -8.2233 -3.3163 -6.7833 -8.0391 4.0150 32.2509
#
#
#
# Elastic Compliance Matrix: (Units=1/GPa)
#
#
# Indices 1 2 3 4 5 6 
#
# 1 0.019789 -0.000894 -0.005456 -0.001702 -0.004517 0.003944
# 2 -0.000894 0.008751 -0.002558 0.001232 -0.001821 0.000668
# 3 -0.005456 -0.002558 0.016929 -0.002904 0.010037 -0.000067
# 4 -0.001702 0.001232 -0.002904 0.046658 -0.006480 0.011519
# 5 -0.004517 -0.001821 0.010037 -0.006480 0.039643 -0.005779
# 6 0.003944 0.000668 -0.000067 0.011519 -0.005779 0.035658
#
#
# Mechanical properties :
#
#
# Convention : Reuss Voigt Hill
#
# Bulk Modulus (GPa) = 36.16084 41.32643 38.74364
# Shear Modulus (GPa) = 25.71227 31.22421 28.46824
#
# Velocity S-wave (km/s) = 3.35938 3.70199 3.53484
# Velocity P-wave (km/s) = 5.56046 6.03421 5.80217
#
# Compressibility (1/GPa) = 0.02765422
#
# Stress axis : x y z
#
# Youngs Moduli (GPa) = 50.53366 114.27541 59.06939
#
# Poissons Ratio (x) = 0.10212 0.32228
# Poissons Ratio (y) = 0.04516 0.15108
# Poissons Ratio (z) = 0.27571 0.29228
#
# Static dielectric constant tensor:
#      x y z
#    x 4.376520 -0.175780 0.031850 
#    y -0.175780 4.280650 0.144290 
#    z 0.031850 0.144290 4.041520 
# 
# 
# High freq. dielectric constant tensor:
#      x y z
#    x 1.906160 -0.008990 -0.002160 
#    y -0.008990 1.916180 0.004700 
#    z -0.002160 0.004700 1.898840 
# 
# From -- ./inp_files/515053.got.cif
#   From: 2010.06.25/outbox.cif.g09.slc.cpg/sg2_258_cif.got.tgz:515053.got - 2010.06.27 13:26:56.
