data_PCOD8034544
_publ_section_title
;
Structure prediction by ZEFSAII (Michael W. Deem and Ramdas Pophale) SiO2 
 PCOD8034544
Probable space group: P -1
;
_chemical_formula_sum "Si O2"
_cell_formula_units_Z 14
_cell_length_a 12.365640
_cell_length_b 9.223884
_cell_length_c 11.742417
_cell_angle_alpha 128.104965
_cell_angle_beta 119.904805
_cell_angle_gamma 33.609477
_cell_volume 582.997808
_symmetry_space_group_name_H-M "P -1"
_symmetry_group_IT_number 2
_symmetry_cell_setting 'triclinic'
loop_
_space_group_symop_operation_xyz
x,y,z
-x,-y,-z
loop_
_atom_site_type_symbol
_atom_site_label
_atom_site_fract_x
_atom_site_fract_y
_atom_site_fract_z
Si Si1 0.436634 0.715102 0.169407
Si Si2 0.469440 0.701786 0.430073
Si Si3 0.995641 0.228441 0.854622
Si Si4 0.665262 0.795563 0.297676
Si Si5 0.204051 0.705237 0.414835
Si Si6 0.996431 0.881056 0.829494
Si Si7 0.701058 0.830052 0.083729
O O1 0.542974 0.561326 0.273426
O O2 0.483255 0.864510 0.220386
O O3 0.500000 0.500000 0.000000
O O4 0.213657 0.970478 0.212506
O O5 0.317010 0.727522 0.410054
O O6 0.660682 0.511202 0.515627
O O7 0.363466 0.023193 0.528852
O O8 0.859598 0.389766 0.747987
O O9 0.204944 0.092802 0.884884
O O10 0.862370 0.483911 0.001411
O O11 0.036404 0.971970 0.788411
O O12 0.852811 0.457318 0.258064
O O13 0.668808 0.910003 0.238369
O O14 0.000000 0.000000 0.500000
O O15 0.000000 0.000000 0.000000
O O16 0.500000 0.000000 0.000000
#
# Coordination Sequence:
#
# PCOD8034544 Si02
#       7
#     2   2   2   2   2   2   2
#     4  12  26  46  78 107 152 199 251 311 377 457
#     4  11  27  49  72 117 148 198 258 312 380 452
#     4  11  24  45  70 109 142 198 252 308 369 456
#     4  12  27  47  72 110 152 197 250 320 379 449
#     4  11  25  47  78 103 154 199 251 311 386 454
#     4  12  25  46  74 109 150 196 257 306 384 446
#     4  11  25  43  74 105 150 192 252 312 376 437
#
# _framework density 24.013809999999999
#
# number of rings (size 3 to 8) (size 9 to 14) (size 15 to 20)
#    0.000    0.571    4.286    2.143    4.000    5.143 
#    0.000    0.000    0.000    0.000    0.000    0.000 
#    0.000    0.000    0.000    0.000    0.000    0.000 
#
# Total GULP energy -173545.351551 kJ/mol
# GULP energy per Si atom -12396.096539 kJ/mol
# Density = 2.395915 g / cm^3
# Si number density = 24.013810 Si / 1000 Ang^3
#
#
#
# Elastic Constant Matrix: (Units=GPa)
#
#
# Indices 1 2 3 4 5 6 
#
# 1 142.1205 59.9370 33.1354 -2.9763 4.2284 -22.6032
# 2 59.9370 122.8180 46.3826 -3.4774 3.8115 -7.4234
# 3 33.1354 46.3826 145.4059 -10.7048 -7.1697 2.8989
# 4 -2.9763 -3.4774 -10.7048 41.1934 1.1452 6.5418
# 5 4.2284 3.8115 -7.1697 1.1452 41.5875 -10.9777
# 6 -22.6032 -7.4234 2.8989 6.5418 -10.9777 35.6326
#
#
#
# Elastic Compliance Matrix: (Units=1/GPa)
#
#
# Indices 1 2 3 4 5 6 
#
# 1 0.009932 -0.004125 -0.001092 -0.000877 0.000769 0.005928
# 2 -0.004125 0.011175 -0.002670 0.000055 -0.001184 -0.000446
# 3 -0.001092 -0.002670 0.008231 0.002108 0.001206 -0.001934
# 4 -0.000877 0.000055 0.002108 0.025772 -0.001851 -0.006018
# 5 0.000769 -0.001184 0.001206 -0.001851 0.026628 0.008686
# 6 0.005928 -0.000446 -0.001934 -0.006018 0.008686 0.035670
#
#
# Mechanical properties :
#
#
# Convention : Reuss Voigt Hill
#
# Bulk Modulus (GPa) = 73.72771 76.58381 75.15576
# Shear Modulus (GPa) = 36.30993 41.74202 39.02597
#
# Velocity S-wave (km/s) = 3.89272 4.17376 4.03568
# Velocity P-wave (km/s) = 7.13955 7.42885 7.28564
#
# Compressibility (1/GPa) = 0.01356342
#
# Stress axis : x y z
#
# Youngs Moduli (GPa) = 100.68368 89.48686 121.48869
#
# Poissons Ratio (x) = 0.36912 0.13272
# Poissons Ratio (y) = 0.41531 0.32438
# Poissons Ratio (z) = 0.10999 0.23894
#
# Static dielectric constant tensor:
#      x y z
#    x 4.502020 -0.038120 -0.053010 
#    y -0.038120 4.350870 -0.209360 
#    z -0.053010 -0.209360 5.073680 
# 
# 
# High freq. dielectric constant tensor:
#      x y z
#    x 1.969020 -0.013850 -0.004700 
#    y -0.013850 1.945330 -0.006210 
#    z -0.004700 -0.006210 1.964940 
# 
# From -- ./inp_files/420077.got.cif
#   From: 2010.06.25/outbox.cif.g09.slc.cpg/sg2_211_cif.got.tgz:420077.got - 2010.06.27 13:26:56.
