data_PCOD8034961
_publ_section_title
;
Structure prediction by ZEFSAII (Michael W. Deem and Ramdas Pophale) SiO2 
 PCOD8034961
Probable space group: P -1
;
_chemical_formula_sum "Si O2"
_cell_formula_units_Z 16
_cell_length_a 18.137410
_cell_length_b 13.250984
_cell_length_c 9.405080
_cell_angle_alpha 134.461296
_cell_angle_beta 125.177265
_cell_angle_gamma 27.070746
_cell_volume 726.277365
_symmetry_space_group_name_H-M "P -1"
_symmetry_group_IT_number 2
_symmetry_cell_setting 'triclinic'
loop_
_space_group_symop_operation_xyz
x,y,z
-x,-y,-z
loop_
_atom_site_type_symbol
_atom_site_label
_atom_site_fract_x
_atom_site_fract_y
_atom_site_fract_z
Si Si1 0.825940 0.281282 0.038656
Si Si2 0.872542 0.287133 0.610005
Si Si3 0.850899 0.744889 0.672346
Si Si4 0.895346 0.425597 0.040058
Si Si5 0.269817 0.396730 0.493963
Si Si6 0.619983 0.281712 0.805026
Si Si7 0.471944 0.405090 0.472850
Si Si8 0.566354 0.999387 0.207254
O O1 0.858693 0.328885 0.983245
O O2 0.726311 0.503904 0.266524
O O3 0.734159 0.261401 0.865245
O O4 0.000000 0.000000 0.000000
O O5 0.876523 0.349621 0.517752
O O6 0.702389 0.433493 0.594319
O O7 0.905550 0.377607 0.837677
O O8 0.000000 0.000000 0.500000
O O9 0.760600 0.724896 0.612686
O O10 0.000000 0.500000 0.500000
O O11 0.933452 0.727520 0.873942
O O12 0.723374 0.010508 0.706837
O O13 0.738385 0.728066 0.195629
O O14 0.437435 0.175632 0.369973
O O15 0.494858 0.410595 0.667963
O O16 0.500000 0.500000 0.000000
O O17 0.500000 0.500000 0.500000
O O18 0.600694 0.111254 0.292865
O O19 0.500000 0.000000 0.000000
#
# Coordination Sequence:
#
# PCOD8034961 Si02
#       8
#     2   2   2   2   2   2   2   2
#     4  12  24  45  73 102 141 186 234 291 364 424
#     4  11  25  46  70 104 141 186 239 290 362 424
#     4  12  26  47  70 110 143 185 240 299 357 426
#     4  12  24  44  75  99 143 185 237 297 353 426
#     4  11  25  46  73 104 142 192 236 290 361 426
#     4  12  27  44  69 108 141 179 240 295 352 427
#     4  11  25  46  71 100 138 183 230 291 353 418
#     4  11  24  47  68 103 143 185 237 287 358 421
#
# _framework density 22.030149000000002
#
# number of rings (size 3 to 8) (size 9 to 14) (size 15 to 20)
#    0.000    0.500    5.000    3.750    3.500    3.000 
#    0.000    0.000    0.000    0.000    0.000    0.000 
#    0.000    0.000    0.000    0.000    0.000    0.000 
#
# Total GULP energy -198284.134325 kJ/mol
# GULP energy per Si atom -12392.758395 kJ/mol
# Density = 2.198001 g / cm^3
# Si number density = 22.030149 Si / 1000 Ang^3
#
#
#
# Elastic Constant Matrix: (Units=GPa)
#
#
# Indices 1 2 3 4 5 6 
#
# 1 89.3055 11.1779 12.5898 13.8021 25.7049 30.8214
# 2 11.1779 108.6828 11.7033 18.5304 6.4583 21.7205
# 3 12.5898 11.7033 101.6567 -1.2358 8.2169 5.8202
# 4 13.8021 18.5304 -1.2358 48.3772 2.0339 5.6877
# 5 25.7049 6.4583 8.2169 2.0339 38.0885 8.7535
# 6 30.8214 21.7205 5.8202 5.6877 8.7535 41.2677
#
#
#
# Elastic Compliance Matrix: (Units=1/GPa)
#
#
# Indices 1 2 3 4 5 6 
#
# 1 0.018806 0.001945 -0.001117 -0.004289 -0.009735 -0.012256
# 2 0.001945 0.011155 -0.001107 -0.004057 -0.001293 -0.006334
# 3 -0.001117 -0.001107 0.010218 0.001047 -0.001346 0.000117
# 4 -0.004289 -0.004057 0.001047 0.023211 0.001744 0.001622
# 5 -0.009735 -0.001293 -0.001346 0.001744 0.033036 0.000893
# 6 -0.012256 -0.006334 0.000117 0.001622 0.000893 0.036290
#
#
# Mechanical properties :
#
#
# Convention : Reuss Voigt Hill
#
# Bulk Modulus (GPa) = 25.23908 41.17633 33.20770
# Shear Modulus (GPa) = 34.13441 43.15827 38.64634
#
# Velocity S-wave (km/s) = 3.94056 4.43092 4.19292
# Velocity P-wave (km/s) = 5.67323 6.70141 6.20864
#
# Compressibility (1/GPa) = 0.03962110
#
# Stress axis : x y z
#
# Youngs Moduli (GPa) = 53.17410 89.64818 97.87046
#
# Poissons Ratio (x) = -0.17438 0.10928
# Poissons Ratio (y) = -0.10343 0.10837
# Poissons Ratio (z) = 0.05937 0.09926
#
# Static dielectric constant tensor:
#      x y z
#    x 2.631480 0.744340 -0.841000 
#    y 0.744340 3.863380 0.554310 
#    z -0.841000 0.554310 3.491000 
# 
# 
# High freq. dielectric constant tensor:
#      x y z
#    x 1.860570 0.012250 0.016510 
#    y 0.012250 1.886940 -0.000500 
#    z 0.016510 -0.000500 1.884740 
# 
# From -- ./inp_files/333801.got.cif
#   From: 2010.06.25/outbox.cif.g09.slc.cpg/sg2_167_cif.got.tgz:333801.got - 2010.06.27 13:26:56.
