data_PCOD8034723
_publ_section_title
;
Structure prediction by ZEFSAII (Michael W. Deem and Ramdas Pophale) SiO2 
 PCOD8034723
Probable space group: P -1
;
_chemical_formula_sum "Si O2"
_cell_formula_units_Z 12
_cell_length_a 9.790691
_cell_length_b 5.319514
_cell_length_c 21.722817
_cell_angle_alpha 106.347050
_cell_angle_beta 25.259036
_cell_angle_gamma 107.727624
_cell_volume 459.789304
_symmetry_space_group_name_H-M "P -1"
_symmetry_group_IT_number 2
_symmetry_cell_setting 'triclinic'
loop_
_space_group_symop_operation_xyz
x,y,z
-x,-y,-z
loop_
_atom_site_type_symbol
_atom_site_label
_atom_site_fract_x
_atom_site_fract_y
_atom_site_fract_z
Si Si1 0.791588 0.900106 0.411845
Si Si2 0.680245 0.628871 0.756924
Si Si3 0.046298 0.011808 0.054358
Si Si4 0.870655 0.738415 0.498342
Si Si5 0.300543 0.527876 0.794495
Si Si6 0.629235 0.354698 0.879849
O O1 0.674511 0.766508 0.515384
O O2 0.995983 0.706989 0.274125
O O3 0.500000 0.000000 0.500000
O O4 0.029379 0.146910 0.354175
O O5 0.361783 0.663372 0.848002
O O6 0.576462 0.570008 0.864631
O O7 0.796528 0.366814 0.662214
O O8 0.903688 0.285193 0.149597
O O9 0.420353 0.069129 0.928857
O O10 0.868897 0.770183 0.149631
O O11 0.000000 0.000000 0.000000
O O12 0.643785 0.535248 0.620082
O O13 0.000000 0.000000 0.500000
O O14 0.500000 0.500000 0.000000
#
# Coordination Sequence:
#
# PCOD8034723 Si02
#       6
#     2   2   2   2   2   2
#     4  11  27  50  82 110 161 212 270 334 409 487
#     4  11  24  46  77 111 162 201 268 341 401 476
#     4  12  26  46  79 113 159 207 270 332 404 485
#     4  11  24  45  77 120 155 206 269 339 407 476
#     4  12  25  44  80 119 154 205 267 336 406 478
#     4  11  28  52  76 114 162 216 266 333 409 491
#
# _framework density 26.09891
#
# number of rings (size 3 to 8) (size 9 to 14) (size 15 to 20)
#    0.000    0.667    3.333    3.000    4.667    6.000 
#    0.000    0.000    0.000    0.000    0.000    0.000 
#    0.000    0.000    0.000    0.000    0.000    0.000 
#
# Total GULP energy -148754.852962 kJ/mol
# GULP energy per Si atom -12396.237747 kJ/mol
# Density = 2.603951 g / cm^3
# Si number density = 26.098910 Si / 1000 Ang^3
#
#
#
# Elastic Constant Matrix: (Units=GPa)
#
#
# Indices 1 2 3 4 5 6 
#
# 1 135.6332 33.7125 63.3603 15.2112 2.3616 -22.6262
# 2 33.7125 111.6209 45.7787 -12.8276 5.8781 -20.0695
# 3 63.3603 45.7787 130.8631 -4.9291 11.6887 -15.1096
# 4 15.2112 -12.8276 -4.9291 56.7870 -4.0732 9.2114
# 5 2.3616 5.8781 11.6887 -4.0732 57.9153 2.3628
# 6 -22.6262 -20.0695 -15.1096 9.2114 2.3628 44.0941
#
#
#
# Elastic Compliance Matrix: (Units=1/GPa)
#
#
# Indices 1 2 3 4 5 6 
#
# 1 0.011035 -0.001148 -0.004599 -0.004330 0.000108 0.004463
# 2 -0.001148 0.011337 -0.002923 0.002066 -0.000498 0.003165
# 3 -0.004599 -0.002923 0.011079 0.001432 -0.001647 -0.000104
# 4 -0.004330 0.002066 0.001432 0.020282 0.001312 -0.005098
# 5 0.000108 -0.000498 -0.001647 0.001312 0.017818 -0.001964
# 6 0.004463 0.003165 -0.000104 -0.005098 -0.001964 0.027544
#
#
# Mechanical properties :
#
#
# Convention : Reuss Voigt Hill
#
# Bulk Modulus (GPa) = 62.06070 73.75779 67.90924
# Shear Modulus (GPa) = 41.05009 47.44367 44.24688
#
# Velocity S-wave (km/s) = 3.97024 4.26824 4.12193
# Velocity P-wave (km/s) = 6.69685 7.25346 6.98070
#
# Compressibility (1/GPa) = 0.01611326
#
# Stress axis : x y z
#
# Youngs Moduli (GPa) = 90.62442 88.20894 90.25703
#
# Poissons Ratio (x) = 0.10123 0.41506
# Poissons Ratio (y) = 0.10400 0.26378
# Poissons Ratio (z) = 0.41675 0.25779
#
# Static dielectric constant tensor:
#      x y z
#    x 4.958120 -0.597300 -0.250820 
#    y -0.597300 5.297050 0.373050 
#    z -0.250820 0.373050 5.120690 
# 
# 
# High freq. dielectric constant tensor:
#      x y z
#    x 2.038720 -0.019080 0.000940 
#    y -0.019080 2.059230 0.011460 
#    z 0.000940 0.011460 2.057830 
# 
# From -- ./inp_files/372700.got.cif
#   From: 2010.06.25/outbox.cif.g09.slc.cpg/sg2_187_cif.got.tgz:372700.got - 2010.06.27 13:26:56.
