data_PCOD8034798
_publ_section_title
;
Structure prediction by ZEFSAII (Michael W. Deem and Ramdas Pophale) SiO2 
 PCOD8034798
Probable space group: P -1
;
_chemical_formula_sum "Si O2"
_cell_formula_units_Z 16
_cell_length_a 9.097389
_cell_length_b 27.712409
_cell_length_c 12.234038
_cell_angle_alpha 148.727010
_cell_angle_beta 142.532679
_cell_angle_gamma 27.646633
_cell_volume 734.332402
_symmetry_space_group_name_H-M "P -1"
_symmetry_group_IT_number 2
_symmetry_cell_setting 'triclinic'
loop_
_space_group_symop_operation_xyz
x,y,z
-x,-y,-z
loop_
_atom_site_type_symbol
_atom_site_label
_atom_site_fract_x
_atom_site_fract_y
_atom_site_fract_z
Si Si1 0.146721 0.601656 0.272466
Si Si2 0.104336 0.914970 0.677746
Si Si3 0.199004 0.440485 0.168780
Si Si4 0.177585 0.204126 0.119579
Si Si5 0.899518 0.929114 0.358315
Si Si6 0.831234 0.485421 0.464466
Si Si7 0.169506 0.135163 0.385583
Si Si8 0.129634 0.828502 0.944947
O O1 0.211865 0.536220 0.300944
O O2 0.462960 0.581002 0.395437
O O3 0.852544 0.747741 0.389709
O O4 0.085065 0.545582 0.029336
O O5 0.457681 0.859525 0.813172
O O6 0.114808 0.860454 0.461195
O O7 0.953308 0.883598 0.614518
O O8 0.870530 0.063057 0.812288
O O9 0.112638 0.478012 0.316151
O O10 0.529670 0.302348 0.079524
O O11 0.954966 0.349635 0.277683
O O12 0.151066 0.154953 0.122996
O O13 0.035385 0.173811 0.882368
O O14 0.530843 0.018165 0.347289
O O15 0.000000 0.000000 0.500000
O O16 0.000000 0.500000 0.500000
O O17 0.938573 0.159338 0.199765
#
# Coordination Sequence:
#
# PCOD8034798 Si02
#       8
#     2   2   2   2   2   2   2   2
#     4  11  24  46  71 101 132 181 238 275 342 401
#     4  12  26  45  68 106 140 178 229 282 352 409
#     4  11  25  45  74  97 131 184 233 287 329 409
#     4  12  26  44  70 100 136 186 225 284 343 407
#     4  12  26  45  70 103 141 181 229 282 343 412
#     4  12  26  44  69 102 140 178 227 284 345 403
#     4  12  25  43  73 101 141 182 224 287 346 413
#     4  12  22  45  73  95 136 179 233 279 343 409
#
# _framework density 21.788498000000001
#
# number of rings (size 3 to 8) (size 9 to 14) (size 15 to 20)
#    0.000    0.250    5.000    4.500    0.000    2.500 
#    0.000    0.000    0.000    0.000    0.000    0.000 
#    0.000    0.000    0.000    0.000    0.000    0.000 
#
# Total GULP energy -198495.191524 kJ/mol
# GULP energy per Si atom -12405.949470 kJ/mol
# Density = 2.173891 g / cm^3
# Si number density = 21.788498 Si / 1000 Ang^3
#
#
#
# Elastic Constant Matrix: (Units=GPa)
#
#
# Indices 1 2 3 4 5 6 
#
# 1 117.7139 21.2749 27.6156 -21.8693 -18.3716 12.1775
# 2 21.2749 58.0417 27.4329 -1.2659 -4.1618 6.6562
# 3 27.6156 27.4329 111.8294 -5.7595 -21.4223 6.6721
# 4 -21.8693 -1.2659 -5.7595 44.3541 -0.9952 -0.0819
# 5 -18.3716 -4.1618 -21.4223 -0.9952 24.2624 1.4452
# 6 12.1775 6.6562 6.6721 -0.0819 1.4452 25.9151
#
#
#
# Elastic Compliance Matrix: (Units=1/GPa)
#
#
# Indices 1 2 3 4 5 6 
#
# 1 0.012201 -0.003130 0.000214 0.006156 0.009470 -0.005493
# 2 -0.003130 0.020680 -0.004813 -0.001650 -0.002995 -0.002440
# 3 0.000214 -0.004813 0.012319 0.001797 0.010443 -0.002612
# 4 0.006156 -0.001650 0.001797 0.025924 0.007223 -0.003253
# 5 0.009470 -0.002995 0.010443 0.007223 0.057960 -0.009579
# 6 -0.005493 -0.002440 -0.002612 -0.003253 -0.009579 0.042992
#
#
# Mechanical properties :
#
#
# Convention : Reuss Voigt Hill
#
# Bulk Modulus (GPa) = 33.62342 48.91464 41.26903
# Shear Modulus (GPa) = 25.32315 32.99042 29.15679
#
# Velocity S-wave (km/s) = 3.41284 3.89539 3.66207
# Velocity P-wave (km/s) = 5.56733 6.53686 6.07148
#
# Compressibility (1/GPa) = 0.02974117
#
# Stress axis : x y z
#
# Youngs Moduli (GPa) = 81.96269 48.35524 81.17569
#
# Poissons Ratio (x) = 0.15135 -0.01736
# Poissons Ratio (y) = 0.25654 0.39072
# Poissons Ratio (z) = -0.01752 0.23275
#
# Static dielectric constant tensor:
#      x y z
#    x 3.853390 -0.038330 -0.178150 
#    y -0.038330 3.863500 -0.092440 
#    z -0.178150 -0.092440 4.057270 
# 
# 
# High freq. dielectric constant tensor:
#      x y z
#    x 1.860800 0.003450 -0.002290 
#    y 0.003450 1.859020 -0.001660 
#    z -0.002290 -0.001660 1.871390 
# 
# From -- ./inp_files/273638.got.cif
#   From: 2010.06.25/outbox.cif.g09.slc.cpg/sg2_137_cif.got.tgz:273638.got - 2010.06.27 13:26:56.
