data_PCOD8034428
_publ_section_title
;
Structure prediction by ZEFSAII (Michael W. Deem and Ramdas Pophale) SiO2 
 PCOD8034428
Probable space group: P -1
;
_chemical_formula_sum "Si O2"
_cell_formula_units_Z 14
_cell_length_a 10.924312
_cell_length_b 10.651888
_cell_length_c 10.025462
_cell_angle_alpha 54.845817
_cell_angle_beta 50.141255
_cell_angle_gamma 40.585818
_cell_volume 573.273770
_symmetry_space_group_name_H-M "P -1"
_symmetry_group_IT_number 2
_symmetry_cell_setting 'triclinic'
loop_
_space_group_symop_operation_xyz
x,y,z
-x,-y,-z
loop_
_atom_site_type_symbol
_atom_site_label
_atom_site_fract_x
_atom_site_fract_y
_atom_site_fract_z
Si Si1 0.327297 0.603797 0.248773
Si Si2 0.092494 0.063481 0.582725
Si Si3 0.137734 0.285725 0.199609
Si Si4 0.230370 0.266666 0.853004
Si Si5 0.592177 0.644593 0.884394
Si Si6 0.475475 0.670572 0.492489
Si Si7 0.822055 0.980257 0.159153
O O1 0.267438 0.552423 0.183551
O O2 0.382080 0.434068 0.414402
O O3 0.146493 0.825038 0.289866
O O4 0.524141 0.593415 0.096231
O O5 0.091900 0.159511 0.388458
O O6 0.174354 0.089008 0.649137
O O7 0.234312 0.830368 0.598068
O O8 0.288692 0.279680 0.198668
O O9 0.932137 0.501033 0.187676
O O10 0.240553 0.192367 0.041322
O O11 0.448885 0.216531 0.700043
O O12 0.165189 0.169250 0.860063
O O13 0.392811 0.807041 0.839794
O O14 0.500000 0.500000 0.500000
O O15 0.000000 0.000000 0.000000
#
# Coordination Sequence:
#
# PCOD8034428 Si02
#       7
#     2   2   2   2   2   2   2
#     4  11  24  45  70 114 147 198 249 313 370 452
#     4  12  26  47  78 109 147 197 255 311 371 447
#     4  11  26  47  76 109 152 204 245 318 379 450
#     4  11  27  49  73 110 157 195 256 310 384 450
#     4  11  24  44  75 108 158 194 252 309 386 444
#     4  12  27  47  76 111 152 198 256 309 380 453
#     4  12  26  46  76 113 149 199 254 311 375 455
#
# _framework density 24.421139
#
# number of rings (size 3 to 8) (size 9 to 14) (size 15 to 20)
#    0.000    0.571    4.286    2.571    4.000    8.571 
#    0.000    0.000    0.000    0.000    0.000    0.000 
#    0.000    0.000    0.000    0.000    0.000    0.000 
#
# Total GULP energy -173521.906283 kJ/mol
# GULP energy per Si atom -12394.421877 kJ/mol
# Density = 2.436556 g / cm^3
# Si number density = 24.421139 Si / 1000 Ang^3
#
#
#
# Elastic Constant Matrix: (Units=GPa)
#
#
# Indices 1 2 3 4 5 6 
#
# 1 61.6194 18.1208 22.8503 10.6394 -3.0839 5.1678
# 2 18.1208 125.5660 39.6887 27.8771 6.5005 -1.3126
# 3 22.8503 39.6887 137.3245 7.6261 20.7647 -1.9544
# 4 10.6394 27.8771 7.6261 42.4266 -6.7884 2.5860
# 5 -3.0839 6.5005 20.7647 -6.7884 32.4364 -3.4284
# 6 5.1678 -1.3126 -1.9544 2.5860 -3.4284 40.1992
#
#
#
# Elastic Compliance Matrix: (Units=1/GPa)
#
#
# Indices 1 2 3 4 5 6 
#
# 1 0.018546 -0.001319 -0.003081 -0.002583 0.003233 -0.002135
# 2 -0.001319 0.010373 -0.002081 -0.006496 -0.002164 0.000640
# 3 -0.003081 -0.002081 0.009323 -0.000501 -0.005916 0.000309
# 4 -0.002583 -0.006496 -0.000501 0.029848 0.007499 -0.001185
# 5 0.003233 -0.002164 -0.005916 0.007499 0.037129 0.001910
# 6 -0.002135 0.000640 0.000309 -0.001185 0.001910 0.025426
#
#
# Mechanical properties :
#
#
# Convention : Reuss Voigt Hill
#
# Bulk Modulus (GPa) = 39.55735 53.98107 46.76921
# Shear Modulus (GPa) = 32.88740 39.26909 36.07824
#
# Velocity S-wave (km/s) = 3.67369 4.01433 3.84778
# Velocity P-wave (km/s) = 5.85046 6.60596 6.23965
#
# Compressibility (1/GPa) = 0.02527975
#
# Stress axis : x y z
#
# Youngs Moduli (GPa) = 53.92062 96.40298 107.26149
#
# Poissons Ratio (x) = 0.12715 0.33043
# Poissons Ratio (y) = 0.07112 0.22326
# Poissons Ratio (z) = 0.16611 0.20066
#
# Static dielectric constant tensor:
#      x y z
#    x 4.137350 -0.212400 0.267800 
#    y -0.212400 4.545390 0.102950 
#    z 0.267800 0.102950 4.905650 
# 
# 
# High freq. dielectric constant tensor:
#      x y z
#    x 1.953360 -0.011590 0.017750 
#    y -0.011590 1.983680 0.007470 
#    z 0.017750 0.007470 1.984480 
# 
# From -- ./inp_files/261929.got.cif
#   From: 2010.06.25/outbox.cif.g09.slc.cpg/sg2_131_cif.got.tgz:261929.got - 2010.06.27 13:26:56.
