data_PCOD8034882
_publ_section_title
;
Structure prediction by ZEFSAII (Michael W. Deem and Ramdas Pophale) SiO2 
 PCOD8034882
Probable space group: P -1
;
_chemical_formula_sum "Si O2"
_cell_formula_units_Z 16
_cell_length_a 21.361728
_cell_length_b 12.611007
_cell_length_c 9.090867
_cell_angle_alpha 133.794522
_cell_angle_beta 29.214517
_cell_angle_gamma 142.841607
_cell_volume 721.944731
_symmetry_space_group_name_H-M "P -1"
_symmetry_group_IT_number 2
_symmetry_cell_setting 'triclinic'
loop_
_space_group_symop_operation_xyz
x,y,z
-x,-y,-z
loop_
_atom_site_type_symbol
_atom_site_label
_atom_site_fract_x
_atom_site_fract_y
_atom_site_fract_z
Si Si1 0.094352 0.669748 0.569375
Si Si2 0.042950 0.877764 0.366793
Si Si3 0.910907 0.048532 0.336621
Si Si4 0.084076 0.435317 0.865381
Si Si5 0.401389 0.628963 0.545529
Si Si6 0.599381 0.719041 0.742185
Si Si7 0.402016 0.087519 0.795481
Si Si8 0.585184 0.209806 0.023510
O O1 0.137605 0.840151 0.548825
O O2 0.000000 0.500000 0.500000
O O3 0.258674 0.705229 0.309336
O O4 0.003701 0.651144 0.884834
O O5 0.998914 0.843530 0.597638
O O6 0.920153 0.705469 0.366395
O O7 0.000000 0.000000 0.500000
O O8 0.220192 0.939980 0.035015
O O9 0.776838 0.863633 0.496975
O O10 0.000000 0.000000 0.000000
O O11 0.261130 0.579499 0.675827
O O12 0.000000 0.500000 0.000000
O O13 0.421698 0.468207 0.376031
O O14 0.559931 0.789490 0.306865
O O15 0.367851 0.703692 0.829659
O O16 0.513954 0.721487 0.775056
O O17 0.539800 0.778129 0.057729
O O18 0.500000 0.000000 0.500000
O O19 0.500000 0.000000 0.000000
#
# Coordination Sequence:
#
# PCOD8034882 Si02
#       8
#     2   2   2   2   2   2   2   2
#     4  12  25  46  69 104 141 189 246 301 361 432
#     4  11  25  45  71 107 143 189 244 293 362 440
#     4  11  24  46  74 102 147 192 236 303 367 431
#     4  12  26  45  70 104 143 186 240 299 362 437
#     4  12  26  47  70 104 147 190 240 306 366 436
#     4  11  25  47  69 106 144 188 243 298 366 439
#     4  11  25  45  74 102 146 192 241 298 363 435
#     4  12  26  45  73 103 141 188 246 298 367 443
#
# _framework density 22.162362999999999
#
# number of rings (size 3 to 8) (size 9 to 14) (size 15 to 20)
#    0.000    0.500    2.500    6.000    7.000    1.000 
#    2.250    0.000    0.000    0.000    0.000    0.000 
#    0.000    0.000    0.000    0.000    0.000    0.000 
#
# Total GULP energy -198349.576624 kJ/mol
# GULP energy per Si atom -12396.848539 kJ/mol
# Density = 2.211192 g / cm^3
# Si number density = 22.162363 Si / 1000 Ang^3
#
#
#
# Elastic Constant Matrix: (Units=GPa)
#
#
# Indices 1 2 3 4 5 6 
#
# 1 121.9490 28.1098 30.1227 16.2717 3.2758 2.4074
# 2 28.1098 111.8073 27.0117 27.3829 2.3227 -6.2619
# 3 30.1227 27.0117 111.5433 16.0796 12.8289 5.4668
# 4 16.2717 27.3829 16.0796 40.6543 -3.8461 1.2286
# 5 3.2758 2.3227 12.8289 -3.8461 46.8883 3.8906
# 6 2.4074 -6.2619 5.4668 1.2286 3.8906 50.1814
#
#
#
# Elastic Compliance Matrix: (Units=1/GPa)
#
#
# Indices 1 2 3 4 5 6 
#
# 1 0.009260 -0.001400 -0.001823 -0.002052 -0.000218 -0.000353
# 2 -0.001400 0.011397 -0.001420 -0.006685 -0.000782 0.001868
# 3 -0.001823 -0.001420 0.010569 -0.002734 -0.002839 -0.000954
# 4 -0.002052 -0.006685 -0.002734 0.031420 0.003925 -0.001512
# 5 -0.000218 -0.000782 -0.002839 0.003925 0.022615 -0.001627
# 6 -0.000353 0.001868 -0.000954 -0.001512 -0.001627 0.020445
#
#
# Mechanical properties :
#
#
# Convention : Reuss Voigt Hill
#
# Bulk Modulus (GPa) = 45.58153 57.30978 51.44566
# Shear Modulus (GPa) = 40.88122 44.88183 42.88152
#
# Velocity S-wave (km/s) = 4.29957 4.50503 4.40350
# Velocity P-wave (km/s) = 6.72756 7.27844 7.00841
#
# Compressibility (1/GPa) = 0.02193871
#
# Stress axis : x y z
#
# Youngs Moduli (GPa) = 107.99224 87.74136 94.61857
#
# Poissons Ratio (x) = 0.12286 0.17253
# Poissons Ratio (y) = 0.15122 0.13434
# Poissons Ratio (z) = 0.19692 0.12458
#
# Static dielectric constant tensor:
#      x y z
#    x 4.759150 0.233520 0.825320 
#    y 0.233520 3.621630 -0.011490 
#    z 0.825320 -0.011490 4.495520 
# 
# 
# High freq. dielectric constant tensor:
#      x y z
#    x 1.883210 -0.000130 0.005380 
#    y -0.000130 1.884560 0.009870 
#    z 0.005380 0.009870 1.881160 
# 
# From -- ./inp_files/283524.got.cif
#   From: 2010.06.25/outbox.cif.g09.slc.cpg/sg2_142_cif.got.tgz:283524.got - 2010.06.27 13:26:56.
