data_PCOD8034528
_publ_section_title
;
Structure prediction by ZEFSAII (Michael W. Deem and Ramdas Pophale) SiO2 
 PCOD8034528
Probable space group: P -1
;
_chemical_formula_sum "Si O2"
_cell_formula_units_Z 12
_cell_length_a 11.381460
_cell_length_b 23.365309
_cell_length_c 9.531158
_cell_angle_alpha 153.584321
_cell_angle_beta 141.966887
_cell_angle_gamma 25.857128
_cell_volume 489.596521
_symmetry_space_group_name_H-M "P -1"
_symmetry_group_IT_number 2
_symmetry_cell_setting 'triclinic'
loop_
_space_group_symop_operation_xyz
x,y,z
-x,-y,-z
loop_
_atom_site_type_symbol
_atom_site_label
_atom_site_fract_x
_atom_site_fract_y
_atom_site_fract_z
Si Si1 0.833976 0.348829 0.231627
Si Si2 0.681861 0.817280 0.860282
Si Si3 0.110091 0.268430 0.834307
Si Si4 0.444352 0.399394 0.819154
Si Si5 0.543019 0.253316 0.160595
Si Si6 0.013013 0.134106 0.193163
O O1 0.569647 0.563383 0.474180
O O2 0.006723 0.241736 0.299931
O O3 0.019539 0.330555 0.251380
O O4 0.708542 0.272927 0.892570
O O5 0.559740 0.731257 0.559224
O O6 0.714086 0.852792 0.127809
O O7 0.500000 0.000000 0.000000
O O8 0.072093 0.166161 0.472464
O O9 0.285130 0.289068 0.956201
O O10 0.826835 0.464473 0.044399
O O11 0.500000 0.500000 0.000000
O O12 0.719208 0.205583 0.083509
O O13 0.747144 0.082424 0.086053
#
# Coordination Sequence:
#
# PCOD8034528 Si02
#       6
#     2   2   2   2   2   2
#     4  12  25  48  73 107 145 190 244 300 369 432
#     4  12  28  47  75 110 144 189 249 307 362 434
#     4  12  24  46  73 102 145 191 240 298 365 431
#     4  12  25  46  76 105 145 196 240 298 370 436
#     4  11  24  45  70 103 148 188 240 296 361 430
#     4  11  27  44  72 108 142 192 243 297 361 439
#
# _framework density 24.509978
#
# number of rings (size 3 to 8) (size 9 to 14) (size 15 to 20)
#    0.000    0.333    5.000    3.500    0.000    5.333 
#    0.000    0.000    0.000    0.000    0.000    0.000 
#    0.000    0.000    0.000    0.000    0.000    0.000 
#
# Total GULP energy -148759.192520 kJ/mol
# GULP energy per Si atom -12396.599377 kJ/mol
# Density = 2.445419 g / cm^3
# Si number density = 24.509978 Si / 1000 Ang^3
#
#
#
# Elastic Constant Matrix: (Units=GPa)
#
#
# Indices 1 2 3 4 5 6 
#
# 1 112.9810 35.9023 41.1078 -13.7897 13.9894 -6.4790
# 2 35.9023 98.8852 53.6617 -10.3722 3.5706 5.0323
# 3 41.1078 53.6617 95.2660 -3.4351 13.1294 20.1671
# 4 -13.7897 -10.3722 -3.4351 36.4364 -2.4452 -2.5893
# 5 13.9894 3.5706 13.1294 -2.4452 34.5312 -7.8988
# 6 -6.4790 5.0323 20.1671 -2.5893 -7.8988 60.1281
#
#
#
# Elastic Compliance Matrix: (Units=1/GPa)
#
#
# Indices 1 2 3 4 5 6 
#
# 1 0.011807 -0.001604 -0.004356 0.003658 -0.002072 0.002753
# 2 -0.001604 0.015637 -0.008854 0.003363 0.003105 0.002041
# 3 -0.004356 -0.008854 0.019736 -0.003285 -0.006743 -0.007375
# 4 0.003658 0.003363 -0.003285 0.029820 0.002168 0.002783
# 5 -0.002072 0.003105 -0.006743 0.002168 0.033634 0.006290
# 6 0.002753 0.002041 -0.007375 0.002783 0.006290 0.020177
#
#
# Mechanical properties :
#
#
# Convention : Reuss Voigt Hill
#
# Bulk Modulus (GPa) = 56.97959 63.16397 60.07178
# Shear Modulus (GPa) = 30.06768 37.98318 34.02543
#
# Velocity S-wave (km/s) = 3.50630 3.94090 3.72993
# Velocity P-wave (km/s) = 6.30001 6.82160 6.56599
#
# Compressibility (1/GPa) = 0.01755014
#
# Stress axis : x y z
#
# Youngs Moduli (GPa) = 84.69751 63.95094 50.66763
#
# Poissons Ratio (x) = 0.10260 0.22072
# Poissons Ratio (y) = 0.13588 0.44863
# Poissons Ratio (z) = 0.36897 0.56625
#
# Static dielectric constant tensor:
#      x y z
#    x 4.573460 -0.355210 0.044270 
#    y -0.355210 4.679750 -0.258850 
#    z 0.044270 -0.258850 4.333320 
# 
# 
# High freq. dielectric constant tensor:
#      x y z
#    x 1.986270 -0.025200 0.002390 
#    y -0.025200 1.981750 -0.005240 
#    z 0.002390 -0.005240 1.960550 
# 
# From -- ./inp_files/393843.got.cif
#   From: 2010.06.25/outbox.cif.g09.slc.cpg/sg2_197_cif.got.tgz:393843.got - 2010.06.27 13:26:56.
