data_PCOD8034536
_publ_section_title
;
Structure prediction by ZEFSAII (Michael W. Deem and Ramdas Pophale) SiO2 
 PCOD8034536
Probable space group: P -1
;
_chemical_formula_sum "Si O2"
_cell_formula_units_Z 12
_cell_length_a 9.433874
_cell_length_b 15.172305
_cell_length_c 16.474856
_cell_angle_alpha 152.770783
_cell_angle_beta 29.038080
_cell_angle_gamma 145.220682
_cell_volume 513.360110
_symmetry_space_group_name_H-M "P -1"
_symmetry_group_IT_number 2
_symmetry_cell_setting 'triclinic'
loop_
_space_group_symop_operation_xyz
x,y,z
-x,-y,-z
loop_
_atom_site_type_symbol
_atom_site_label
_atom_site_fract_x
_atom_site_fract_y
_atom_site_fract_z
Si Si1 0.382129 0.621110 0.532360
Si Si2 0.211768 0.417154 0.027115
Si Si3 0.664557 0.495933 0.140818
Si Si4 0.203647 0.291145 0.469214
Si Si5 0.074708 0.195983 0.174667
Si Si6 0.830709 0.016778 0.314561
O O1 0.562367 0.640881 0.375062
O O2 0.366671 0.407169 0.405058
O O3 0.564978 0.769402 0.630104
O O4 0.056762 0.653898 0.695877
O O5 0.326550 0.405981 0.869869
O O6 0.087058 0.188817 0.925278
O O7 0.500000 0.500000 0.000000
O O8 0.978843 0.559293 0.272912
O O9 0.427665 0.284592 0.083960
O O10 0.000000 0.500000 0.000000
O O11 0.018008 0.091307 0.362764
O O12 0.909351 0.164889 0.319712
O O13 0.000000 0.000000 0.000000
O O14 0.500000 0.000000 0.500000
#
# Coordination Sequence:
#
# PCOD8034536 Si02
#       6
#     2   2   2   2   2   2
#     4  11  24  47  72  99 147 188 236 301 357 430
#     4  12  24  44  71 104 146 187 238 296 362 429
#     4  12  25  47  72 107 142 189 241 296 363 426
#     4  11  24  45  70 105 142 190 239 293 365 420
#     4  12  27  47  73 107 144 190 243 297 361 431
#     4  12  25  43  73 108 143 190 243 296 360 434
#
# _framework density 23.375402000000001
#
# number of rings (size 3 to 8) (size 9 to 14) (size 15 to 20)
#    0.000    0.333    5.000    4.500    0.000    1.333 
#    0.000    5.833    0.000    0.000    0.000    0.000 
#    0.000    0.000    0.000    0.000    0.000    0.000 
#
# Total GULP energy -148660.310258 kJ/mol
# GULP energy per Si atom -12388.359188 kJ/mol
# Density = 2.332220 g / cm^3
# Si number density = 23.375402 Si / 1000 Ang^3
#
#
#
# Elastic Constant Matrix: (Units=GPa)
#
#
# Indices 1 2 3 4 5 6 
#
# 1 189.1975 70.2632 38.9497 -6.0712 12.1631 27.0375
# 2 70.2632 99.4830 19.1531 -4.2819 -6.1822 30.3359
# 3 38.9497 19.1531 70.3096 -3.7799 2.2371 12.2220
# 4 -6.0712 -4.2819 -3.7799 42.4500 6.5967 6.3168
# 5 12.1631 -6.1822 2.2371 6.5967 32.9468 -2.9297
# 6 27.0375 30.3359 12.2220 6.3168 -2.9297 57.0989
#
#
#
# Elastic Compliance Matrix: (Units=1/GPa)
#
#
# Indices 1 2 3 4 5 6 
#
# 1 0.008223 -0.005212 -0.002790 0.001174 -0.004137 -0.000870
# 2 -0.005212 0.015897 -0.000522 0.001012 0.004228 -0.005761
# 3 -0.002790 -0.000522 0.016372 0.001419 -0.000650 -0.002097
# 4 0.001174 0.001012 0.001419 0.025536 -0.005855 -0.004523
# 5 -0.004137 0.004228 -0.000650 -0.005855 0.034089 0.002249
# 6 -0.000870 -0.005761 -0.002097 -0.004523 0.002249 0.022051
#
#
# Mechanical properties :
#
#
# Convention : Reuss Voigt Hill
#
# Bulk Modulus (GPa) = 42.65374 68.41359 55.53366
# Shear Modulus (GPa) = 34.00660 41.87408 37.94034
#
# Velocity S-wave (km/s) = 3.81833 4.23705 4.03313
# Velocity P-wave (km/s) = 6.14218 7.29847 6.74515
#
# Compressibility (1/GPa) = 0.02344460
#
# Stress axis : x y z
#
# Youngs Moduli (GPa) = 121.60341 62.90589 61.08068
#
# Poissons Ratio (x) = 0.32788 0.17040
# Poissons Ratio (y) = 0.63383 0.03186
# Poissons Ratio (z) = 0.33924 0.03282
#
# Static dielectric constant tensor:
#      x y z
#    x 4.812410 0.152940 0.100660 
#    y 0.152940 4.256290 -0.473160 
#    z 0.100660 -0.473160 3.387820 
# 
# 
# High freq. dielectric constant tensor:
#      x y z
#    x 1.956860 0.011460 0.020450 
#    y 0.011460 1.918790 -0.018580 
#    z 0.020450 -0.018580 1.912550 
# 
# From -- ./inp_files/147244.got.cif
#   From: 2010.06.25/outbox.cif.g09.slc.cpg/sg2_74_cif.got.tgz:147244.got - 2010.06.27 13:26:56.
