data_PCOD8034388
_publ_section_title
;
Structure prediction by ZEFSAII (Michael W. Deem and Ramdas Pophale) SiO2 
 PCOD8034388
Probable space group: P -1
;
_chemical_formula_sum "Si O2"
_cell_formula_units_Z 16
_cell_length_a 18.888243
_cell_length_b 10.860900
_cell_length_c 16.347918
_cell_angle_alpha 32.975231
_cell_angle_beta 22.282709
_cell_angle_gamma 43.252367
_cell_volume 673.205566
_symmetry_space_group_name_H-M "P -1"
_symmetry_group_IT_number 2
_symmetry_cell_setting 'triclinic'
loop_
_space_group_symop_operation_xyz
x,y,z
-x,-y,-z
loop_
_atom_site_type_symbol
_atom_site_label
_atom_site_fract_x
_atom_site_fract_y
_atom_site_fract_z
Si Si1 0.749970 0.541502 0.316419
Si Si2 0.905095 0.729472 0.754444
Si Si3 0.168201 0.639082 0.833090
Si Si4 0.506899 0.738988 0.112337
Si Si5 0.918253 0.631497 0.315619
Si Si6 0.436112 0.084104 0.717191
Si Si7 0.387813 0.622096 0.117908
Si Si8 0.713549 0.989737 0.255292
O O1 0.786362 0.351156 0.318170
O O2 0.636130 0.429674 0.579788
O O3 0.627765 0.686224 0.311757
O O4 0.959074 0.695888 0.037316
O O5 0.065079 0.600689 0.621095
O O6 0.843435 0.617651 0.972264
O O7 0.716764 0.691961 0.921996
O O8 0.000000 0.000000 0.500000
O O9 0.332017 0.842438 0.588045
O O10 0.464445 0.662867 0.106147
O O11 0.500000 0.000000 0.000000
O O12 0.824212 0.548342 0.551323
O O13 0.772599 0.764402 0.353604
O O14 0.133807 0.781230 0.007884
O O15 0.295249 0.021180 0.826134
O O16 0.379198 0.875663 0.956677
O O17 0.500000 0.500000 0.000000
O O18 0.500000 0.000000 0.500000
#
# Coordination Sequence:
#
# PCOD8034388 Si02
#       8
#     2   2   2   2   2   2   2   2
#     4  11  25  45  74 107 150 197 252 322 382 465
#     4  12  26  44  77 112 159 203 255 326 398 468
#     4  11  24  44  73 113 148 192 263 315 384 467
#     4  12  26  49  77 110 153 207 260 320 393 462
#     4  11  27  50  76 113 156 197 271 317 396 479
#     4  12  25  43  73 102 148 197 251 312 386 450
#     4  12  29  49  75 111 159 202 261 326 392 465
#     4  11  25  48  81 107 142 204 255 325 390 470
#
# _framework density 23.766887000000001
#
# number of rings (size 3 to 8) (size 9 to 14) (size 15 to 20)
#    0.000    0.500    1.250    6.375    7.000    4.500 
#    0.000    0.000    0.000    0.000    0.000    0.000 
#    0.000    0.000    0.000    0.000    0.000    0.000 
#
# Total GULP energy -198243.246158 kJ/mol
# GULP energy per Si atom -12390.202885 kJ/mol
# Density = 2.371279 g / cm^3
# Si number density = 23.766887 Si / 1000 Ang^3
#
#
#
# Elastic Constant Matrix: (Units=GPa)
#
#
# Indices 1 2 3 4 5 6 
#
# 1 119.3460 56.0088 89.6407 1.0589 11.9506 -9.6465
# 2 56.0088 147.8168 81.0648 5.8314 6.9848 -10.4212
# 3 89.6407 81.0648 163.4133 0.5328 19.0692 -22.5787
# 4 1.0589 5.8314 0.5328 43.9788 -4.7826 1.5953
# 5 11.9506 6.9848 19.0692 -4.7826 43.9708 5.1602
# 6 -9.6465 -10.4212 -22.5787 1.5953 5.1602 43.5499
#
#
#
# Elastic Compliance Matrix: (Units=1/GPa)
#
#
# Indices 1 2 3 4 5 6 
#
# 1 0.014551 -0.001561 -0.007273 -0.000074 -0.000459 -0.000864
# 2 -0.001561 0.009532 -0.003947 -0.001118 0.000516 -0.000131
# 3 -0.007273 -0.003947 0.013141 -0.000028 -0.003649 0.004691
# 4 -0.000074 -0.001118 -0.000028 0.023260 0.002915 -0.001496
# 5 -0.000459 0.000516 -0.003649 0.002915 0.025268 -0.004971
# 6 -0.000864 -0.000131 0.004691 -0.001496 -0.004971 0.025815
#
#
# Mechanical properties :
#
#
# Convention : Reuss Voigt Hill
#
# Bulk Modulus (GPa) = 85.74986 98.22274 91.98630
# Shear Modulus (GPa) = 35.45685 39.89072 37.67378
#
# Velocity S-wave (km/s) = 3.86665 4.10129 3.98570
# Velocity P-wave (km/s) = 7.48949 7.99029 7.74394
#
# Compressibility (1/GPa) = 0.01166183
#
# Stress axis : x y z
#
# Youngs Moduli (GPa) = 68.72172 104.91523 76.09720
#
# Poissons Ratio (x) = 0.16379 0.55348
# Poissons Ratio (y) = 0.10728 0.30033
# Poissons Ratio (z) = 0.49984 0.41406
#
# Static dielectric constant tensor:
#      x y z
#    x 4.366160 -0.519300 -0.176540 
#    y -0.519300 3.683980 -0.054190 
#    z -0.176540 -0.054190 4.690760 
# 
# 
# High freq. dielectric constant tensor:
#      x y z
#    x 1.949410 -0.008250 -0.004860 
#    y -0.008250 1.944850 0.009980 
#    z -0.004860 0.009980 1.959730 
# 
# From -- ./inp_files/577905.got.cif
#   From: 2010.06.25/outbox.cif.g09.slc.cpg/sg2_289_cif.got.tgz:577905.got - 2010.06.27 13:26:56.
