data_PCOD8034443
_publ_section_title
;
Structure prediction by ZEFSAII (Michael W. Deem and Ramdas Pophale) SiO2 
 PCOD8034443
Probable space group: P -1
;
_chemical_formula_sum "Si O2"
_cell_formula_units_Z 14
_cell_length_a 9.758001
_cell_length_b 19.585986
_cell_length_c 12.820561
_cell_angle_alpha 154.363331
_cell_angle_beta 43.166672
_cell_angle_gamma 144.525506
_cell_volume 615.127561
_symmetry_space_group_name_H-M "P -1"
_symmetry_group_IT_number 2
_symmetry_cell_setting 'triclinic'
loop_
_space_group_symop_operation_xyz
x,y,z
-x,-y,-z
loop_
_atom_site_type_symbol
_atom_site_label
_atom_site_fract_x
_atom_site_fract_y
_atom_site_fract_z
Si Si1 0.686003 0.278662 0.646179
Si Si2 0.896297 0.541735 0.714077
Si Si3 0.337599 0.849859 0.967804
Si Si4 0.585323 0.629081 0.532882
Si Si5 0.450637 0.372592 0.062229
Si Si6 0.788622 0.006355 0.569454
Si Si7 0.120923 0.933130 0.631821
O O1 0.882014 0.408053 0.631480
O O2 0.732355 0.126635 0.459779
O O3 0.431383 0.194656 0.616212
O O4 0.677389 0.398795 0.911548
O O5 0.647762 0.518209 0.795764
O O6 0.000000 0.500000 0.500000
O O7 0.069963 0.755280 0.946020
O O8 0.402413 0.694246 0.712750
O O9 0.335199 0.918597 0.180724
O O10 0.500000 0.000000 0.000000
O O11 0.500000 0.500000 0.500000
O O12 0.564007 0.488341 0.262520
O O13 0.847398 0.812953 0.652377
O O14 0.243066 0.153750 0.891641
O O15 0.875601 0.114181 0.558525
O O16 0.000000 0.000000 0.500000
#
# Coordination Sequence:
#
# PCOD8034443 Si02
#       7
#     2   2   2   2   2   2   2
#     4  11  26  47  73 104 143 188 237 299 359 422
#     4  12  24  44  69 105 142 183 236 297 360 421
#     4  12  25  45  71 104 142 185 237 294 356 428
#     4  12  28  45  70 106 145 188 238 295 360 424
#     4  11  25  47  72 102 144 185 244 292 357 432
#     4  11  24  44  77 104 137 187 238 294 355 428
#     4  11  27  49  73 105 144 191 239 296 362 422
#
# _framework density 22.759505999999998
#
# number of rings (size 3 to 8) (size 9 to 14) (size 15 to 20)
#    0.000    0.571    1.429    7.286    8.000    1.143 
#    0.000    0.000    0.000    0.000    0.000    0.000 
#    0.000    0.000    0.000    0.000    0.000    0.000 
#
# Total GULP energy -173504.564807 kJ/mol
# GULP energy per Si atom -12393.183201 kJ/mol
# Density = 2.270770 g / cm^3
# Si number density = 22.759506 Si / 1000 Ang^3
#
#
#
# Elastic Constant Matrix: (Units=GPa)
#
#
# Indices 1 2 3 4 5 6 
#
# 1 112.4417 36.3971 30.1071 6.0280 -3.1079 -10.2627
# 2 36.3971 141.1154 28.7969 2.3914 3.8653 -22.7296
# 3 30.1071 28.7969 114.8560 -15.2762 3.1063 -15.5907
# 4 6.0280 2.3914 -15.2762 35.3516 -0.9246 -1.6785
# 5 -3.1079 3.8653 3.1063 -0.9246 37.2121 3.2769
# 6 -10.2627 -22.7296 -15.5907 -1.6785 3.2769 42.7435
#
#
#
# Elastic Compliance Matrix: (Units=1/GPa)
#
#
# Indices 1 2 3 4 5 6 
#
# 1 0.010471 -0.002124 -0.002572 -0.002710 0.001221 0.000247
# 2 -0.002124 0.008499 -0.001113 -0.000553 -0.001305 0.003682
# 3 -0.002572 -0.001113 0.010806 0.005297 -0.001136 0.003027
# 4 -0.002710 -0.000553 0.005297 0.031180 -0.000031 0.002214
# 5 0.001221 -0.001305 -0.001136 -0.000031 0.027462 -0.002922
# 6 0.000247 0.003682 0.003027 0.002214 -0.002922 0.026828
#
#
# Mechanical properties :
#
#
# Convention : Reuss Voigt Hill
#
# Bulk Modulus (GPa) = 55.06815 62.11281 58.59048
# Shear Modulus (GPa) = 37.61741 41.26891 39.44316
#
# Velocity S-wave (km/s) = 4.06990 4.26286 4.16750
# Velocity P-wave (km/s) = 6.80688 7.18188 6.99690
#
# Compressibility (1/GPa) = 0.01815932
#
# Stress axis : x y z
#
# Youngs Moduli (GPa) = 95.50005 117.65464 92.54067
#
# Poissons Ratio (x) = 0.24986 0.23804
# Poissons Ratio (y) = 0.20281 0.10297
# Poissons Ratio (z) = 0.24566 0.13092
#
# Static dielectric constant tensor:
#      x y z
#    x 4.365790 -0.185820 0.352480 
#    y -0.185820 4.451000 -0.359780 
#    z 0.352480 -0.359780 4.654520 
# 
# 
# High freq. dielectric constant tensor:
#      x y z
#    x 1.906550 -0.001780 0.005480 
#    y -0.001780 1.911950 -0.006460 
#    z 0.005480 -0.006460 1.900250 
# 
# From -- ./inp_files/181725.got.cif
#   From: 2010.06.25/outbox.cif.g09.slc.cpg/sg2_91_cif.got.tgz:181725.got - 2010.06.27 13:26:56.
