data_PCOD8034225
_publ_section_title
;
Structure prediction by ZEFSAII (Michael W. Deem and Ramdas Pophale) SiO2 
 PCOD8034225
Probable space group: P -1
;
_chemical_formula_sum "Si O2"
_cell_formula_units_Z 16
_cell_length_a 9.044408
_cell_length_b 7.895281
_cell_length_c 14.475148
_cell_angle_alpha 113.204309
_cell_angle_beta 110.521461
_cell_angle_gamma 47.891889
_cell_volume 699.131477
_symmetry_space_group_name_H-M "P -1"
_symmetry_group_IT_number 2
_symmetry_cell_setting 'triclinic'
loop_
_space_group_symop_operation_xyz
x,y,z
-x,-y,-z
loop_
_atom_site_type_symbol
_atom_site_label
_atom_site_fract_x
_atom_site_fract_y
_atom_site_fract_z
Si Si1 0.626000 0.227698 0.310127
Si Si2 0.386989 0.304307 0.449046
Si Si3 0.668639 0.060370 0.621782
Si Si4 0.641398 0.601033 0.035561
Si Si5 0.851956 0.826115 0.152164
Si Si6 0.285525 0.610058 0.189484
Si Si7 0.050335 0.795906 0.534252
Si Si8 0.206970 0.851884 0.956759
O O1 0.521442 0.309184 0.403983
O O2 0.474062 0.380469 0.228502
O O3 0.806276 0.243606 0.359121
O O4 0.728071 0.958517 0.247051
O O5 0.484891 0.268711 0.563919
O O6 0.161833 0.550573 0.450729
O O7 0.389148 0.088525 0.373377
O O8 0.730938 0.163901 0.734791
O O9 0.845856 0.872690 0.550560
O O10 0.766848 0.695917 0.066522
O O11 0.402017 0.812294 0.038931
O O12 0.684582 0.432875 0.922258
O O13 0.726757 0.413100 0.098855
O O14 0.087987 0.640322 0.185895
O O15 0.828901 0.015705 0.118000
O O16 0.000000 0.000000 0.500000
O O17 0.000000 0.000000 0.000000
#
# Coordination Sequence:
#
# PCOD8034225 Si02
#       8
#     2   2   2   2   2   2   2   2
#     4  12  25  42  67 102 137 180 235 281 346 420
#     4  11  25  43  67 102 137 180 224 288 352 419
#     4  11  24  44  69 100 141 174 230 289 347 416
#     4  11  26  46  73 102 139 188 236 285 353 423
#     4  12  26  47  69 103 143 191 236 287 352 421
#     4  12  24  44  70 101 136 182 235 287 343 416
#     4  12  22  43  71  96 135 184 226 278 353 421
#     4  11  24  44  72 100 135 181 234 293 350 404
#
# _framework density 22.885539000000001
#
# number of rings (size 3 to 8) (size 9 to 14) (size 15 to 20)
#    0.000    0.500    6.250    2.250    0.000    2.000 
#    2.250    0.000    0.000    0.000    0.000    0.000 
#    0.000    0.000    0.000    0.000    0.000    0.000 
#
# Total GULP energy -198333.434181 kJ/mol
# GULP energy per Si atom -12395.839636 kJ/mol
# Density = 2.283345 g / cm^3
# Si number density = 22.885539 Si / 1000 Ang^3
#
#
#
# Elastic Constant Matrix: (Units=GPa)
#
#
# Indices 1 2 3 4 5 6 
#
# 1 96.0074 33.3021 23.6538 3.5156 19.9510 -10.0721
# 2 33.3021 102.5011 19.4550 -2.1521 4.6511 -13.6451
# 3 23.6538 19.4550 72.6645 16.1674 14.4845 5.0612
# 4 3.5156 -2.1521 16.1674 33.5594 -4.7484 -2.1944
# 5 19.9510 4.6511 14.4845 -4.7484 34.5907 -2.2811
# 6 -10.0721 -13.6451 5.0612 -2.1944 -2.2811 45.0516
#
#
#
# Elastic Compliance Matrix: (Units=1/GPa)
#
#
# Indices 1 2 3 4 5 6 
#
# 1 0.013795 -0.003598 -0.001957 -0.001571 -0.006750 0.001796
# 2 -0.003598 0.012035 -0.003613 0.003501 0.002685 0.003553
# 3 -0.001957 -0.003613 0.019874 -0.011120 -0.008546 -0.004739
# 4 -0.001571 0.003501 -0.011120 0.037311 0.010497 0.004308
# 5 -0.006750 0.002685 -0.008546 0.010497 0.037638 0.002681
# 6 0.001796 0.003553 -0.004739 0.004308 0.002681 0.024552
#
#
# Mechanical properties :
#
#
# Convention : Reuss Voigt Hill
#
# Bulk Modulus (GPa) = 36.53864 47.11053 41.82458
# Shear Modulus (GPa) = 28.95778 35.62449 32.29114
#
# Velocity S-wave (km/s) = 3.56101 3.94970 3.76038
# Velocity P-wave (km/s) = 5.73657 6.43663 6.09665
#
# Compressibility (1/GPa) = 0.02736829
#
# Stress axis : x y z
#
# Youngs Moduli (GPa) = 72.49109 83.08842 50.31668
#
# Poissons Ratio (x) = 0.29895 0.09848
# Poissons Ratio (y) = 0.26082 0.18178
# Poissons Ratio (z) = 0.14188 0.30018
#
# Static dielectric constant tensor:
#      x y z
#    x 4.282450 -0.261730 0.015180 
#    y -0.261730 4.459500 -0.071040 
#    z 0.015180 -0.071040 3.895200 
# 
# 
# High freq. dielectric constant tensor:
#      x y z
#    x 1.911620 -0.018500 0.001480 
#    y -0.018500 1.920140 -0.001130 
#    z 0.001480 -0.001130 1.878490 
# 
# From -- ./inp_files/493454.got.cif
#   From: 2010.06.25/outbox.cif.g09.slc.cpg/sg2_247_cif.got.tgz:493454.got - 2010.06.27 13:26:56.
