data_PCOD8034862
_publ_section_title
;
Structure prediction by ZEFSAII (Michael W. Deem and Ramdas Pophale) SiO2 
 PCOD8034862
Probable space group: P -1
;
_chemical_formula_sum "Si O2"
_cell_formula_units_Z 16
_cell_length_a 18.893098
_cell_length_b 6.579867
_cell_length_c 8.499990
_cell_angle_alpha 81.137862
_cell_angle_beta 101.035364
_cell_angle_gamma 137.706880
_cell_volume 697.784872
_symmetry_space_group_name_H-M "P -1"
_symmetry_group_IT_number 2
_symmetry_cell_setting 'triclinic'
loop_
_space_group_symop_operation_xyz
x,y,z
-x,-y,-z
loop_
_atom_site_type_symbol
_atom_site_label
_atom_site_fract_x
_atom_site_fract_y
_atom_site_fract_z
Si Si1 0.952601 0.608036 0.895358
Si Si2 0.623184 0.824177 0.846814
Si Si3 0.108152 0.684293 0.428496
Si Si4 0.752361 0.765377 0.768692
Si Si5 0.611944 0.181118 0.593443
Si Si6 0.450964 0.115692 0.905487
Si Si7 0.265930 0.705192 0.646460
Si Si8 0.858084 0.702773 0.068232
O O1 0.914206 0.500505 0.713175
O O2 0.864200 0.500906 0.996405
O O3 0.030503 0.964932 0.879628
O O4 0.000000 0.500000 0.000000
O O5 0.730442 0.945043 0.813613
O O6 0.544047 0.471411 0.883442
O O7 0.587021 0.908157 0.689792
O O8 0.635004 0.980594 0.992589
O O9 0.197112 0.764056 0.567755
O O10 0.000000 0.500000 0.500000
O O11 0.157652 0.006141 0.353309
O O12 0.646985 0.434030 0.698219
O O13 0.792616 0.720534 0.934496
O O14 0.710282 0.374111 0.491219
O O15 0.500000 0.000000 0.500000
O O16 0.385060 0.983580 0.731719
O O17 0.500000 0.000000 0.000000
O O18 0.200401 0.438016 0.774426
#
# Coordination Sequence:
#
# PCOD8034862 Si02
#       8
#     2   2   2   2   2   2   2   2
#     4  11  24  49  72 102 143 195 250 309 369 433
#     4  11  24  46  73 102 147 194 237 308 367 450
#     4  12  28  46  73 109 152 193 246 314 371 439
#     4  12  26  47  72 104 147 199 245 299 381 451
#     4  12  27  45  71 107 151 190 244 311 381 449
#     4  11  25  47  76 110 146 191 253 305 371 454
#     4  12  26  45  71 110 146 190 244 309 373 440
#     4  11  26  44  77 101 139 196 253 302 364 449
#
# _framework density 22.929701999999999
#
# number of rings (size 3 to 8) (size 9 to 14) (size 15 to 20)
#    0.000    0.500    2.500    5.250    7.000    3.500 
#    0.000    0.000    0.000    0.000    0.000    0.000 
#    0.000    0.000    0.000    0.000    0.000    0.000 
#
# Total GULP energy -198300.259417 kJ/mol
# GULP energy per Si atom -12393.766214 kJ/mol
# Density = 2.287751 g / cm^3
# Si number density = 22.929702 Si / 1000 Ang^3
#
#
#
# Elastic Constant Matrix: (Units=GPa)
#
#
# Indices 1 2 3 4 5 6 
#
# 1 124.3915 19.3755 53.3926 1.7707 -9.0748 -21.2235
# 2 19.3755 82.7134 40.8984 -1.9375 -9.1220 -17.1500
# 3 53.3926 40.8984 125.6755 -15.3473 10.5368 -10.1473
# 4 1.7707 -1.9375 -15.3473 42.7176 14.1281 5.2291
# 5 -9.0748 -9.1220 10.5368 14.1281 40.1765 -7.4147
# 6 -21.2235 -17.1500 -10.1473 5.2291 -7.4147 33.3053
#
#
#
# Elastic Compliance Matrix: (Units=1/GPa)
#
#
# Indices 1 2 3 4 5 6 
#
# 1 0.014296 0.004822 -0.008732 -0.009168 0.012256 0.013100
# 2 0.004822 0.020330 -0.009792 -0.009425 0.014401 0.015244
# 3 -0.008732 -0.009792 0.016713 0.012138 -0.014826 -0.010721
# 4 -0.009168 -0.009425 0.012138 0.037943 -0.024119 -0.018324
# 5 0.012256 0.014401 -0.014826 -0.024119 0.047943 0.025168
# 6 0.013100 0.015244 -0.010721 -0.018324 0.025168 0.051437
#
#
# Mechanical properties :
#
#
# Convention : Reuss Voigt Hill
#
# Bulk Modulus (GPa) = 41.78015 62.23481 52.00748
# Shear Modulus (GPa) = 22.31697 37.84746 30.08221
#
# Velocity S-wave (km/s) = 3.12312 4.06715 3.62599
# Velocity P-wave (km/s) = 5.59158 7.01827 6.34515
#
# Compressibility (1/GPa) = 0.02393481
#
# Stress axis : x y z
#
# Youngs Moduli (GPa) = 69.94987 49.18757 59.83300
#
# Poissons Ratio (x) = -0.23718 0.52247
# Poissons Ratio (y) = -0.33730 0.58590
# Poissons Ratio (z) = 0.61082 0.48165
#
# Static dielectric constant tensor:
#      x y z
#    x 3.745890 1.411380 -0.255950 
#    y 1.411380 1.058910 -0.034720 
#    z -0.255950 -0.034720 4.527210 
# 
# 
# High freq. dielectric constant tensor:
#      x y z
#    x 1.918810 0.005060 -0.007510 
#    y 0.005060 1.910810 -0.007600 
#    z -0.007510 -0.007600 1.920940 
# 
# From -- ./inp_files/288662.got.cif
#   From: 2010.06.25/outbox.cif.g09.slc.cpg/sg2_145_cif.got.tgz:288662.got - 2010.06.27 13:26:56.
