data_PCOD8034969
_publ_section_title
;
Structure prediction by ZEFSAII (Michael W. Deem and Ramdas Pophale) SiO2 
 PCOD8034969
Probable space group: P -1
;
_chemical_formula_sum "Si O2"
_cell_formula_units_Z 16
_cell_length_a 16.498229
_cell_length_b 9.300416
_cell_length_c 8.773148
_cell_angle_alpha 110.962687
_cell_angle_beta 53.415497
_cell_angle_gamma 73.835076
_cell_volume 762.151973
_symmetry_space_group_name_H-M "P -1"
_symmetry_group_IT_number 2
_symmetry_cell_setting 'triclinic'
loop_
_space_group_symop_operation_xyz
x,y,z
-x,-y,-z
loop_
_atom_site_type_symbol
_atom_site_label
_atom_site_fract_x
_atom_site_fract_y
_atom_site_fract_z
Si Si1 0.233758 0.965137 0.123856
Si Si2 0.500046 0.180818 0.073117
Si Si3 0.233611 0.614210 0.047243
Si Si4 0.021185 0.598004 0.381729
Si Si5 0.766229 0.432677 0.325172
Si Si6 0.021187 0.359597 0.054669
Si Si7 0.500050 0.349153 0.838130
Si Si8 0.233532 0.918577 0.752039
O O1 0.193783 0.832320 0.164291
O O2 0.374391 0.871529 0.001611
O O3 0.236411 0.985054 0.945266
O O4 0.121909 0.183038 0.410404
O O5 0.374343 0.379839 0.375027
O O6 0.500249 0.210888 0.904298
O O7 0.500000 0.000000 0.000000
O O8 0.129917 0.627267 0.279292
O O9 0.236617 0.541908 0.845179
O O10 0.376276 0.459391 0.906273
O O11 0.000000 0.500000 0.500000
O O12 0.078731 0.421230 0.131887
O O13 0.806379 0.219754 0.245335
O O14 0.878084 0.426888 0.276075
O O15 0.129942 0.112841 0.830822
O O16 0.000000 0.500000 0.000000
O O17 0.623698 0.212228 0.535010
O O18 0.500000 0.500000 0.000000
#
# Coordination Sequence:
#
# PCOD8034969 Si02
#       8
#     2   2   2   2   2   2   2   2
#     4  11  24  47  69 100 138 185 229 272 342 415
#     4  12  27  43  71 103 137 178 225 288 343 403
#     4  11  25  45  72  98 137 184 226 280 341 408
#     4  12  26  45  68 102 143 179 229 284 340 400
#     4  11  24  47  69 100 138 185 229 272 342 415
#     4  12  26  45  68 102 143 179 229 284 340 400
#     4  12  25  45  69 105 134 170 228 287 340 407
#     4  11  25  45  72  98 137 184 226 280 341 408
#
# _framework density 20.993189999999998
#
# number of rings (size 3 to 8) (size 9 to 14) (size 15 to 20)
#    0.000    0.500    5.000    2.250    7.000    2.000 
#    4.500    1.875    0.000    0.000    0.000    0.000 
#    0.000    0.000    0.000    0.000    0.000    0.000 
#
# Total GULP energy -198240.222991 kJ/mol
# GULP energy per Si atom -12390.013937 kJ/mol
# Density = 2.094541 g / cm^3
# Si number density = 20.993190 Si / 1000 Ang^3
#
#
#
# Elastic Constant Matrix: (Units=GPa)
#
#
# Indices 1 2 3 4 5 6 
#
# 1 77.3666 56.8034 41.2477 12.6617 -15.4498 4.6148
# 2 56.8034 171.7998 58.1129 -11.9381 -9.3576 0.0955
# 3 41.2477 58.1129 109.9185 -1.9180 -29.7458 7.4197
# 4 12.6617 -11.9381 -1.9180 35.1035 -6.9148 2.9474
# 5 -15.4498 -9.3576 -29.7458 -6.9148 37.8248 4.4051
# 6 4.6148 0.0955 7.4197 2.9474 4.4051 35.1728
#
#
#
# Elastic Compliance Matrix: (Units=1/GPa)
#
#
# Indices 1 2 3 4 5 6 
#
# 1 0.022095 -0.006387 -0.004333 -0.009780 0.002418 -0.001451
# 2 -0.006387 0.009165 -0.002986 0.004761 -0.001969 0.001291
# 3 -0.004333 -0.002986 0.015660 0.003952 0.011047 -0.004442
# 4 -0.009780 0.004761 0.003952 0.035556 0.007192 -0.003444
# 5 0.002418 -0.001969 0.011047 0.007192 0.037871 -0.007988
# 6 -0.001451 0.001291 -0.004442 -0.003444 -0.007988 0.030844
#
#
# Mechanical properties :
#
#
# Convention : Reuss Voigt Hill
#
# Bulk Modulus (GPa) = 51.25720 74.60144 62.92932
# Shear Modulus (GPa) = 27.01166 35.14828 31.07997
#
# Velocity S-wave (km/s) = 3.59093 4.09622 3.85187
# Velocity P-wave (km/s) = 6.45462 7.61480 7.05859
#
# Compressibility (1/GPa) = 0.01950946
#
# Stress axis : x y z
#
# Youngs Moduli (GPa) = 45.25931 109.10684 63.85527
#
# Poissons Ratio (x) = 0.69685 0.27668
# Poissons Ratio (y) = 0.28906 0.19066
# Poissons Ratio (z) = 0.19610 0.32578
#
# Static dielectric constant tensor:
#      x y z
#    x 2.263300 1.264620 -1.470000 
#    y 1.264620 3.336500 1.040890 
#    z -1.470000 1.040890 2.573460 
# 
# 
# High freq. dielectric constant tensor:
#      x y z
#    x 1.826200 0.003010 -0.003610 
#    y 0.003010 1.850270 -0.002710 
#    z -0.003610 -0.002710 1.828350 
# 
# From -- ./inp_files/299094.got.cif
#   From: 2010.06.25/outbox.cif.g09.slc.cpg/sg2_150_cif.got.tgz:299094.got - 2010.06.27 13:26:56.
