data_PCOD8034942
_publ_section_title
;
Structure prediction by ZEFSAII (Michael W. Deem and Ramdas Pophale) SiO2 
 PCOD8034942
Probable space group: P -1
;
_chemical_formula_sum "Si O2"
_cell_formula_units_Z 14
_cell_length_a 15.264530
_cell_length_b 9.441587
_cell_length_c 5.140327
_cell_angle_alpha 68.401233
_cell_angle_beta 95.167477
_cell_angle_gamma 127.970306
_cell_volume 533.525466
_symmetry_space_group_name_H-M "P -1"
_symmetry_group_IT_number 2
_symmetry_cell_setting 'triclinic'
loop_
_space_group_symop_operation_xyz
x,y,z
-x,-y,-z
loop_
_atom_site_type_symbol
_atom_site_label
_atom_site_fract_x
_atom_site_fract_y
_atom_site_fract_z
Si Si1 0.100541 0.118512 0.651744
Si Si2 0.645775 0.599594 0.546361
Si Si3 0.840838 0.115686 0.891997
Si Si4 0.563125 0.214989 0.975404
Si Si5 0.923907 0.580456 0.432546
Si Si6 0.613636 0.755873 0.914560
Si Si7 0.799565 0.343013 0.064955
O O1 0.221681 0.259239 0.447387
O O2 0.086441 0.250493 0.742346
O O3 0.000000 0.000000 0.500000
O O4 0.098722 0.970488 0.935602
O O5 0.598800 0.375934 0.651153
O O6 0.613633 0.669496 0.249342
O O7 0.585707 0.605392 0.782322
O O8 0.790795 0.157859 0.093047
O O9 0.942052 0.320762 0.633425
O O10 0.738228 0.967382 0.767664
O O11 0.477703 0.207816 0.152930
O O12 0.676734 0.284842 0.099801
O O13 0.500000 0.000000 0.000000
O O14 0.881442 0.514593 0.762008
O O15 0.849199 0.407131 0.322743
#
# Coordination Sequence:
#
# PCOD8034942 Si02
#       7
#     2   2   2   2   2   2   2
#     4  11  24  46  78 113 149 192 245 302 364 442
#     4  11  26  47  77 105 150 187 250 299 372 425
#     4  11  25  46  73 110 151 189 245 297 375 436
#     4  12  26  52  76 108 150 192 257 301 365 435
#     4  12  26  47  76 106 151 192 248 297 372 437
#     4  11  26  49  75 110 143 197 239 310 359 440
#     4  12  28  48  72 109 149 199 237 309 368 435
#
# _framework density 26.240546999999999
#
# number of rings (size 3 to 8) (size 9 to 14) (size 15 to 20)
#    0.000    0.571    2.857    3.857    4.000    5.714 
#    0.000    5.000    0.000    0.000    0.000    0.000 
#    0.000    0.000    0.000    0.000    0.000    0.000 
#
# Total GULP energy -173622.004516 kJ/mol
# GULP energy per Si atom -12401.571751 kJ/mol
# Density = 2.618082 g / cm^3
# Si number density = 26.240547 Si / 1000 Ang^3
#
#
#
# Elastic Constant Matrix: (Units=GPa)
#
#
# Indices 1 2 3 4 5 6 
#
# 1 183.8233 51.2488 30.3076 8.1638 3.6798 11.6912
# 2 51.2488 154.0125 31.7270 -7.2127 6.1257 -4.2236
# 3 30.3076 31.7270 74.6351 1.0157 -12.5455 8.5090
# 4 8.1638 -7.2127 1.0157 39.3673 -1.1780 -9.3584
# 5 3.6798 6.1257 -12.5455 -1.1780 30.3655 0.2530
# 6 11.6912 -4.2236 8.5090 -9.3584 0.2530 47.3339
#
#
#
# Elastic Compliance Matrix: (Units=1/GPa)
#
#
# Indices 1 2 3 4 5 6 
#
# 1 0.006503 -0.001896 -0.001797 -0.002130 -0.001215 -0.001867
# 2 -0.001896 0.008120 -0.003441 0.002436 -0.002755 0.002308
# 3 -0.001797 -0.003441 0.017334 -0.001241 0.008052 -0.003268
# 4 -0.002130 0.002436 -0.001241 0.027869 0.000281 0.006475
# 5 -0.001215 -0.002755 0.008052 0.000281 0.036986 -0.001535
# 6 -0.001867 0.002308 -0.003268 0.006475 -0.001535 0.023669
#
#
# Mechanical properties :
#
#
# Convention : Reuss Voigt Hill
#
# Bulk Modulus (GPa) = 56.53502 71.00419 63.76960
# Shear Modulus (GPa) = 35.55066 43.35919 39.45493
#
# Velocity S-wave (km/s) = 3.68475 4.06935 3.88182
# Velocity P-wave (km/s) = 6.30039 7.01407 6.66679
#
# Compressibility (1/GPa) = 0.01768815
#
# Stress axis : x y z
#
# Youngs Moduli (GPa) = 153.78581 123.15701 57.69057
#
# Poissons Ratio (x) = 0.23353 0.10366
# Poissons Ratio (y) = 0.29161 0.19851
# Poissons Ratio (z) = 0.27633 0.42377
#
# Static dielectric constant tensor:
#      x y z
#    x 5.458660 -0.056180 -0.112590 
#    y -0.056180 5.067730 -0.452100 
#    z -0.112590 -0.452100 4.338680 
# 
# 
# High freq. dielectric constant tensor:
#      x y z
#    x 2.090700 -0.000430 -0.003170 
#    y -0.000430 2.069340 -0.029000 
#    z -0.003170 -0.029000 2.031100 
# 
# From -- ./inp_files/89897.got.cif
#   From: 2010.06.25/outbox.cif.g09.slc.cpg/sg2_45_cif.got.tgz:89897.got - 2010.06.27 13:26:56.
