data_PCOD8034284
_publ_section_title
;
Structure prediction by ZEFSAII (Michael W. Deem and Ramdas Pophale) SiO2 
 PCOD8034284
Probable space group: P -1
;
_chemical_formula_sum "Si O2"
_cell_formula_units_Z 12
_cell_length_a 9.506114
_cell_length_b 9.438430
_cell_length_c 11.009421
_cell_angle_alpha 104.062198
_cell_angle_beta 92.188845
_cell_angle_gamma 30.908427
_cell_volume 462.561710
_symmetry_space_group_name_H-M "P -1"
_symmetry_group_IT_number 2
_symmetry_cell_setting 'triclinic'
loop_
_space_group_symop_operation_xyz
x,y,z
-x,-y,-z
loop_
_atom_site_type_symbol
_atom_site_label
_atom_site_fract_x
_atom_site_fract_y
_atom_site_fract_z
Si Si1 0.847654 0.098389 0.390334
Si Si2 0.191199 0.515615 0.184733
Si Si3 0.193429 0.286843 0.625576
Si Si4 0.935038 0.271040 0.250942
Si Si5 0.436898 0.395977 0.927641
Si Si6 0.635511 0.675492 0.601858
O O1 0.800190 0.279380 0.340704
O O2 0.524213 0.324338 0.454340
O O3 0.000000 0.000000 0.500000
O O4 0.055007 0.798612 0.263867
O O5 0.936854 0.624916 0.223116
O O6 0.443539 0.252559 0.240246
O O7 0.322483 0.393078 0.029527
O O8 0.991307 0.366689 0.546186
O O9 0.169398 0.481222 0.639982
O O10 0.525893 0.919733 0.571988
O O11 0.808820 0.365324 0.132442
O O12 0.282878 0.939113 0.188478
O O13 0.500000 0.500000 0.000000
#
# Coordination Sequence:
#
# PCOD8034284 Si02
#       6
#     2   2   2   2   2   2
#     4  11  24  44  70  94 125 170 221 269 315 379
#     4   9  22  41  66  90 134 170 207 252 333 366
#     4   9  21  41  64  91 135 166 209 260 314 384
#     4  12  26  41  66 102 127 165 223 260 312 384
#     4  12  24  39  66  97 137 166 205 267 317 382
#     4   9  20  43  63  89 132 171 205 255 322 378
#
# _framework density 25.942485999999999
#
# number of rings (size 3 to 8) (size 9 to 14) (size 15 to 20)
#    1.000    0.667    1.667    2.500    4.667    2.000 
#    0.000    4.167    0.000    0.000    0.000    0.000 
#    0.000    0.000    0.000    0.000    0.000    0.000 
#
# Total GULP energy -148705.091971 kJ/mol
# GULP energy per Si atom -12392.090998 kJ/mol
# Density = 2.588344 g / cm^3
# Si number density = 25.942486 Si / 1000 Ang^3
#
#
#
# Elastic Constant Matrix: (Units=GPa)
#
#
# Indices 1 2 3 4 5 6 
#
# 1 128.4993 63.2593 24.5071 -14.0579 -0.0698 9.9324
# 2 63.2593 152.9884 47.7760 -11.9702 -19.1206 6.3837
# 3 24.5071 47.7760 112.2956 -29.1159 -13.0103 4.7632
# 4 -14.0579 -11.9702 -29.1159 65.2163 2.3541 -2.1482
# 5 -0.0698 -19.1206 -13.0103 2.3541 38.0285 -12.8966
# 6 9.9324 6.3837 4.7632 -2.1482 -12.8966 58.3554
#
#
#
# Elastic Compliance Matrix: (Units=1/GPa)
#
#
# Indices 1 2 3 4 5 6 
#
# 1 0.010264 -0.004336 -0.000320 0.001320 -0.002982 -0.001857
# 2 -0.004336 0.009668 -0.002863 -0.000562 0.004186 0.000819
# 3 -0.000320 -0.002863 0.011625 0.004516 0.002288 0.000091
# 4 0.001320 -0.000562 0.004516 0.017528 0.000236 0.000166
# 5 -0.002982 0.004186 0.002288 0.000236 0.031480 0.006829
# 6 -0.001857 0.000819 0.000091 0.000166 0.006829 0.018871
#
#
# Mechanical properties :
#
#
# Convention : Reuss Voigt Hill
#
# Bulk Modulus (GPa) = 60.53005 73.87422 67.20213
# Shear Modulus (GPa) = 41.67372 49.53608 45.60490
#
# Velocity S-wave (km/s) = 4.01233 4.37447 4.19731
# Velocity P-wave (km/s) = 6.69687 7.35205 7.03210
#
# Compressibility (1/GPa) = 0.01652072
#
# Stress axis : x y z
#
# Youngs Moduli (GPa) = 97.42615 103.42911 86.02236
#
# Poissons Ratio (x) = 0.44850 0.02749
# Poissons Ratio (y) = 0.42247 0.24624
# Poissons Ratio (z) = 0.03113 0.29607
#
# Static dielectric constant tensor:
#      x y z
#    x 4.830190 0.108890 -0.382150 
#    y 0.108890 5.007250 -0.280650 
#    z -0.382150 -0.280650 4.765160 
# 
# 
# High freq. dielectric constant tensor:
#      x y z
#    x 2.044110 0.001480 -0.027480 
#    y 0.001480 2.055580 -0.026060 
#    z -0.027480 -0.026060 2.047380 
# 
# From -- ./inp_files/229613.got.cif
#   From: 2010.06.25/outbox.cif.g09.slc.cpg/sg2_115_cif.got.tgz:229613.got - 2010.06.27 13:26:56.
