data_PCOD8034354
_publ_section_title
;
Structure prediction by ZEFSAII (Michael W. Deem and Ramdas Pophale) SiO2 
 PCOD8034354
Probable space group: P -1
;
_chemical_formula_sum "Si O2"
_cell_formula_units_Z 14
_cell_length_a 12.693288
_cell_length_b 7.884849
_cell_length_c 12.779881
_cell_angle_alpha 128.794623
_cell_angle_beta 36.094743
_cell_angle_gamma 121.976456
_cell_volume 586.540675
_symmetry_space_group_name_H-M "P -1"
_symmetry_group_IT_number 2
_symmetry_cell_setting 'triclinic'
loop_
_space_group_symop_operation_xyz
x,y,z
-x,-y,-z
loop_
_atom_site_type_symbol
_atom_site_label
_atom_site_fract_x
_atom_site_fract_y
_atom_site_fract_z
Si Si1 0.634913 0.363260 0.108765
Si Si2 0.474704 0.740119 0.071268
Si Si3 0.100029 0.566838 0.597527
Si Si4 0.142518 0.204454 0.269533
Si Si5 0.611874 0.845095 0.601423
Si Si6 0.991927 0.238258 0.726837
Si Si7 0.542076 0.240982 0.524640
O O1 0.628405 0.272477 0.960551
O O2 0.473775 0.245539 0.257640
O O3 0.598462 0.618127 0.244742
O O4 0.841349 0.323591 0.962414
O O5 0.667290 0.869957 0.953306
O O6 0.500000 0.500000 0.000000
O O7 0.370957 0.889721 0.296500
O O8 0.185444 0.432361 0.382910
O O9 0.252933 0.684945 0.590168
O O10 0.981739 0.753696 0.715497
O O11 0.979252 0.390263 0.692990
O O12 0.058404 0.021500 0.346253
O O13 0.485614 0.751349 0.574479
O O14 0.805008 0.746769 0.387930
O O15 0.500000 0.000000 0.500000
#
# Coordination Sequence:
#
# PCOD8034354 Si02
#       7
#     2   2   2   2   2   2   2
#     4  12  26  47  73 109 144 191 248 300 363 438
#     4  12  25  45  73 110 149 189 245 308 361 433
#     4  11  25  44  72 108 147 191 243 304 363 438
#     4  11  24  44  72 112 145 186 246 305 368 429
#     4  12  27  47  75 104 151 194 240 300 371 433
#     4  12  26  45  76 109 145 188 244 305 365 433
#     4  12  26  51  73 104 151 198 240 302 368 440
#
# _framework density 23.868763999999999
#
# number of rings (size 3 to 8) (size 9 to 14) (size 15 to 20)
#    0.000    0.286    4.286    3.857    8.000    0.571 
#    0.000    1.429    0.000    0.000    0.000    0.000 
#    0.000    0.000    0.000    0.000    0.000    0.000 
#
# Total GULP energy -173568.641192 kJ/mol
# GULP energy per Si atom -12397.760085 kJ/mol
# Density = 2.381444 g / cm^3
# Si number density = 23.868764 Si / 1000 Ang^3
#
#
#
# Elastic Constant Matrix: (Units=GPa)
#
#
# Indices 1 2 3 4 5 6 
#
# 1 127.5960 51.6509 55.1323 4.9108 -3.1255 9.5300
# 2 51.6509 141.3153 39.0081 -1.8685 -18.7397 -7.7413
# 3 55.1323 39.0081 114.1039 5.0186 -30.2998 16.1061
# 4 4.9108 -1.8685 5.0186 42.2233 3.1149 -0.2039
# 5 -3.1255 -18.7397 -30.2998 3.1149 37.7779 5.0949
# 6 9.5300 -7.7413 16.1061 -0.2039 5.0949 37.0682
#
#
#
# Elastic Compliance Matrix: (Units=1/GPa)
#
#
# Indices 1 2 3 4 5 6 
#
# 1 0.011621 -0.003383 -0.005765 -0.000432 -0.005241 -0.000471
# 2 -0.003383 0.009191 -0.001190 0.000744 0.002871 0.002916
# 3 -0.005765 -0.001190 0.016828 -0.002432 0.013706 -0.007976
# 4 -0.000432 0.000744 -0.002432 0.024353 -0.003894 0.001992
# 5 -0.005241 0.002871 0.013706 -0.003894 0.040061 -0.009536
# 6 -0.000471 0.002916 -0.007976 0.001992 -0.009536 0.032494
#
#
# Mechanical properties :
#
#
# Convention : Reuss Voigt Hill
#
# Bulk Modulus (GPa) = 58.93977 74.95531 66.94754
# Shear Modulus (GPa) = 31.07927 39.22881 35.15404
#
# Velocity S-wave (km/s) = 3.61236 4.05843 3.84188
# Velocity P-wave (km/s) = 6.49198 7.30975 6.91297
#
# Compressibility (1/GPa) = 0.01696647
#
# Stress axis : x y z
#
# Youngs Moduli (GPa) = 86.05231 108.79732 59.42311
#
# Poissons Ratio (x) = 0.36803 0.34256
# Poissons Ratio (y) = 0.29109 0.07070
# Poissons Ratio (z) = 0.49607 0.12944
#
# Static dielectric constant tensor:
#      x y z
#    x 3.777490 -0.399260 -0.653420 
#    y -0.399260 4.304260 -0.040670 
#    z -0.653420 -0.040670 4.261320 
# 
# 
# High freq. dielectric constant tensor:
#      x y z
#    x 1.939240 -0.012020 -0.026690 
#    y -0.012020 1.960770 0.000350 
#    z -0.026690 0.000350 1.941010 
# 
# From -- ./inp_files/419879.got.cif
#   From: 2010.06.25/outbox.cif.g09.slc.cpg/sg2_210_cif.got.tgz:419879.got - 2010.06.27 13:26:56.
