data_PCOD8034156
_publ_section_title
;
Structure prediction by ZEFSAII (Michael W. Deem and Ramdas Pophale) SiO2 
 PCOD8034156
Probable space group: P -1
;
_chemical_formula_sum "Si O2"
_cell_formula_units_Z 14
_cell_length_a 6.750703
_cell_length_b 29.563236
_cell_length_c 5.690111
_cell_angle_alpha 56.848697
_cell_angle_beta 133.249417
_cell_angle_gamma 131.993562
_cell_volume 606.487511
_symmetry_space_group_name_H-M "P -1"
_symmetry_group_IT_number 2
_symmetry_cell_setting 'triclinic'
loop_
_space_group_symop_operation_xyz
x,y,z
-x,-y,-z
loop_
_atom_site_type_symbol
_atom_site_label
_atom_site_fract_x
_atom_site_fract_y
_atom_site_fract_z
Si Si1 0.036842 0.317943 0.719914
Si Si2 0.752886 0.396022 0.117431
Si Si3 0.164673 0.165267 0.836700
Si Si4 0.809406 0.935700 0.155815
Si Si5 0.750814 0.064034 0.131118
Si Si6 0.810864 0.508361 0.122475
Si Si7 0.142165 0.753429 0.722373
O O1 0.915423 0.368068 0.500314
O O2 0.912289 0.282902 0.467250
O O3 0.405366 0.344980 0.917048
O O4 0.920630 0.282090 0.976387
O O5 0.725056 0.454251 0.020690
O O6 0.985434 0.422415 0.009220
O O7 0.168498 0.122375 0.755562
O O8 0.081006 0.216225 0.528599
O O9 0.496513 0.197102 0.142648
O O10 0.889121 0.121121 0.907675
O O11 0.969733 0.945283 0.513608
O O12 0.449598 0.918726 0.900812
O O13 0.000000 0.000000 0.000000
O O14 0.500000 0.000000 0.000000
O O15 0.000000 0.500000 0.500000
O O16 0.500000 0.500000 0.000000
#
# Coordination Sequence:
#
# PCOD8034156 Si02
#       7
#     2   2   2   2   2   2   2
#     4  12  28  51  77 106 150 198 267 302 364 428
#     4  11  26  46  76 112 147 202 243 314 362 446
#     4  12  28  48  73 102 146 189 241 312 376 444
#     4  12  26  44  72 104 141 181 233 296 379 460
#     4  12  26  44  72 104 141 181 233 296 379 460
#     4  11  24  43  76 113 157 190 242 297 390 433
#     4  12  30  50  76 107 145 204 255 314 364 428
#
# _framework density 23.083741
#
# number of rings (size 3 to 8) (size 9 to 14) (size 15 to 20)
#    0.000    0.286    1.429    6.000   14.000    2.286 
#    0.000    0.000    0.000    0.000    0.000    0.000 
#    0.000    0.000    0.000    0.000    0.000    0.000 
#
# Total GULP energy -173481.516254 kJ/mol
# GULP energy per Si atom -12391.536875 kJ/mol
# Density = 2.303120 g / cm^3
# Si number density = 23.083741 Si / 1000 Ang^3
#
#
#
# Elastic Constant Matrix: (Units=GPa)
#
#
# Indices 1 2 3 4 5 6 
#
# 1 128.5765 39.6971 30.6392 -1.4934 4.4681 19.6626
# 2 39.6971 89.0067 26.9673 3.1060 -8.2778 19.4905
# 3 30.6392 26.9673 122.6797 -4.0606 3.4110 10.0334
# 4 -1.4934 3.1060 -4.0606 44.6398 3.1167 10.0897
# 5 4.4681 -8.2778 3.4110 3.1167 55.0060 -0.2394
# 6 19.6626 19.4905 10.0334 10.0897 -0.2394 44.2842
#
#
#
# Elastic Compliance Matrix: (Units=1/GPa)
#
#
# Indices 1 2 3 4 5 6 
#
# 1 0.009641 -0.003455 -0.001352 0.001146 -0.001296 -0.002722
# 2 -0.003455 0.014610 -0.002089 -0.000536 0.002620 -0.004287
# 3 -0.001352 -0.002089 0.009076 0.001167 -0.000837 -0.000807
# 4 0.001146 -0.000536 0.001167 0.024060 -0.001636 -0.006028
# 5 -0.001296 0.002620 -0.000837 -0.001636 0.018824 0.000086
# 6 -0.002722 -0.004287 -0.000807 -0.006028 0.000086 0.027233
#
#
# Mechanical properties :
#
#
# Convention : Reuss Voigt Hill
#
# Bulk Modulus (GPa) = 51.18731 59.43001 55.30866
# Shear Modulus (GPa) = 40.40513 44.98330 42.69422
#
# Velocity S-wave (km/s) = 4.18828 4.41920 4.30529
# Velocity P-wave (km/s) = 6.75364 7.20003 6.98040
#
# Compressibility (1/GPa) = 0.01953609
#
# Stress axis : x y z
#
# Youngs Moduli (GPa) = 103.72581 68.44692 110.18120
#
# Poissons Ratio (x) = 0.23646 0.14894
# Poissons Ratio (y) = 0.35834 0.23014
# Poissons Ratio (z) = 0.14022 0.14297
#
# Static dielectric constant tensor:
#      x y z
#    x 4.773620 0.182790 0.339940 
#    y 0.182790 4.241320 0.081380 
#    z 0.339940 0.081380 4.652090 
# 
# 
# High freq. dielectric constant tensor:
#      x y z
#    x 1.925270 0.006130 0.013530 
#    y 0.006130 1.924810 -0.002600 
#    z 0.013530 -0.002600 1.929450 
# 
# From -- ./inp_files/14965.got.cif
#   From: 2010.06.25/outbox.cif.g09.slc.cpg/sg2_8_cif.got.tgz:14965.got - 2010.06.27 13:26:56.
