data_PCOD8034139
_publ_section_title
;
Structure prediction by ZEFSAII (Michael W. Deem and Ramdas Pophale) SiO2 
 PCOD8034139
Probable space group: P -1
;
_chemical_formula_sum "Si O2"
_cell_formula_units_Z 16
_cell_length_a 14.005381
_cell_length_b 22.904504
_cell_length_c 8.866870
_cell_angle_alpha 121.298611
_cell_angle_beta 69.703756
_cell_angle_gamma 157.219824
_cell_volume 862.786123
_symmetry_space_group_name_H-M "P -1"
_symmetry_group_IT_number 2
_symmetry_cell_setting 'triclinic'
loop_
_space_group_symop_operation_xyz
x,y,z
-x,-y,-z
loop_
_atom_site_type_symbol
_atom_site_label
_atom_site_fract_x
_atom_site_fract_y
_atom_site_fract_z
Si Si1 0.085952 0.246923 0.789581
Si Si2 0.372524 0.473302 0.223981
Si Si3 0.969217 0.646161 0.177815
Si Si4 0.284909 0.814462 0.799582
Si Si5 0.487395 0.913079 0.342905
Si Si6 0.466618 0.145653 0.468720
Si Si7 0.267124 0.545285 0.228227
Si Si8 0.995034 0.273400 0.416692
O O1 0.339435 0.384348 0.730612
O O2 0.947933 0.230757 0.782728
O O3 0.177713 0.311553 0.999156
O O4 0.855401 0.046474 0.632424
O O5 0.417067 0.577929 0.279333
O O6 0.238890 0.388662 0.349047
O O7 0.886028 0.612083 0.349764
O O8 0.214369 0.742952 0.164979
O O9 0.719875 0.459728 0.967804
O O10 0.428344 0.833283 0.701167
O O11 0.051745 0.652695 0.829179
O O12 0.147890 0.759763 0.653231
O O13 0.500000 0.000000 0.000000
O O14 0.455112 0.838991 0.394259
O O15 0.500000 0.000000 0.500000
O O16 0.769682 0.075771 0.318576
O O17 0.593144 0.298559 0.591689
#
# Coordination Sequence:
#
# PCOD8034139 Si02
#       8
#     2   2   2   2   2   2   2   2
#     4  10  19  36  59  78 102 142 186 225 269 308
#     4   9  21  37  55  82 102 138 190 228 261 317
#     4  10  18  35  53  78 108 140 177 218 263 322
#     4  11  20  35  57  80 109 142 179 220 261 321
#     4  10  17  31  53  80 105 137 176 215 264 321
#     4  12  20  34  55  81 111 142 175 220 278 322
#     4  10  23  34  53  81 112 142 176 220 275 318
#     4  10  17  32  57  76 106 131 181 225 260 304
#
# _framework density 18.544573
#
# number of rings (size 3 to 8) (size 9 to 14) (size 15 to 20)
#    0.000    1.750    5.000    3.375    0.000    1.500 
#    0.000    0.000    2.750    0.750    0.000    0.000 
#    0.000    0.000    0.000    0.000    0.000    0.000 
#
# Total GULP energy -198306.587066 kJ/mol
# GULP energy per Si atom -12394.161692 kJ/mol
# Density = 1.850236 g / cm^3
# Si number density = 18.544573 Si / 1000 Ang^3
#
#
#
# Elastic Constant Matrix: (Units=GPa)
#
#
# Indices 1 2 3 4 5 6 
#
# 1 57.3308 30.8590 27.8641 10.8245 -3.1455 1.2878
# 2 30.8590 97.5843 46.6596 -1.1830 -6.2692 11.9901
# 3 27.8641 46.6596 103.7538 2.5782 -10.3578 -2.3334
# 4 10.8245 -1.1830 2.5782 34.5440 -5.2592 -3.2534
# 5 -3.1455 -6.2692 -10.3578 -5.2592 26.9405 2.7308
# 6 1.2878 11.9901 -2.3334 -3.2534 2.7308 25.6763
#
#
#
# Elastic Compliance Matrix: (Units=1/GPa)
#
#
# Indices 1 2 3 4 5 6 
#
# 1 0.023793 -0.006043 -0.003628 -0.007581 -0.001554 0.000504
# 2 -0.006043 0.015904 -0.005550 0.002463 0.002107 -0.007540
# 3 -0.003628 -0.005550 0.013497 0.000787 0.003247 0.003754
# 4 -0.007581 0.002463 0.000787 0.032534 0.006060 0.002779
# 5 -0.001554 0.002107 0.003247 0.006060 0.040278 -0.004126
# 6 0.000504 -0.007540 0.003754 0.002779 -0.004126 0.043574
#
#
# Mechanical properties :
#
#
# Convention : Reuss Voigt Hill
#
# Bulk Modulus (GPa) = 43.94952 52.15936 48.05444
# Shear Modulus (GPa) = 24.08411 27.65124 25.86768
#
# Velocity S-wave (km/s) = 3.60768 3.86563 3.73888
# Velocity P-wave (km/s) = 6.41129 6.93625 6.67893
#
# Compressibility (1/GPa) = 0.02275338
#
# Stress axis : x y z
#
# Youngs Moduli (GPa) = 42.02843 62.87831 74.08917
#
# Poissons Ratio (x) = 0.37999 0.26877
# Poissons Ratio (y) = 0.25399 0.41117
# Poissons Ratio (z) = 0.15246 0.34895
#
# Static dielectric constant tensor:
#      x y z
#    x 3.284100 0.223460 0.190420 
#    y 0.223460 3.682100 -0.099910 
#    z 0.190420 -0.099910 3.482700 
# 
# 
# High freq. dielectric constant tensor:
#      x y z
#    x 1.695730 0.009880 0.018520 
#    y 0.009880 1.710270 -0.010850 
#    z 0.018520 -0.010850 1.715680 
# 
# From -- ./inp_files/170490.got.cif
#   From: 2010.06.25/outbox.cif.g09.slc.cpg/sg2_86_cif.got.tgz:170490.got - 2010.06.27 13:26:56.
