data_PCOD8034943
_publ_section_title
;
Structure prediction by ZEFSAII (Michael W. Deem and Ramdas Pophale) SiO2 
 PCOD8034943
Probable space group: P -1
;
_chemical_formula_sum "Si O2"
_cell_formula_units_Z 14
_cell_length_a 11.492444
_cell_length_b 9.058851
_cell_length_c 11.792213
_cell_angle_alpha 36.881215
_cell_angle_beta 130.846468
_cell_angle_gamma 121.494166
_cell_volume 557.358493
_symmetry_space_group_name_H-M "P -1"
_symmetry_group_IT_number 2
_symmetry_cell_setting 'triclinic'
loop_
_space_group_symop_operation_xyz
x,y,z
-x,-y,-z
loop_
_atom_site_type_symbol
_atom_site_label
_atom_site_fract_x
_atom_site_fract_y
_atom_site_fract_z
Si Si1 0.154229 0.090647 0.416590
Si Si2 0.898781 0.361532 0.192314
Si Si3 0.589505 0.741997 0.371505
Si Si4 0.661794 0.492548 0.353742
Si Si5 0.652364 0.731740 0.767026
Si Si6 0.355375 0.109273 0.077582
Si Si7 0.894200 0.228447 0.819701
O O1 0.245839 0.258570 0.462002
O O2 0.243126 0.086853 0.355411
O O3 0.983817 0.216690 0.231861
O O4 0.135476 0.811143 0.615961
O O5 0.002267 0.585708 0.160434
O O6 0.735567 0.465615 0.980932
O O7 0.500000 0.500000 0.500000
O O8 0.618628 0.718450 0.270924
O O9 0.515688 0.004868 0.196110
O O10 0.519853 0.298750 0.373878
O O11 0.813848 0.351663 0.581609
O O12 0.691346 0.629578 0.168844
O O13 0.638740 0.845640 0.812324
O O14 0.237719 0.886762 0.113088
O O15 0.000000 0.000000 0.000000
#
# Coordination Sequence:
#
# PCOD8034943 Si02
#       7
#     2   2   2   2   2   2   2
#     4  11  24  46  79 104 153 197 246 307 371 442
#     4  11  25  48  72 112 147 196 252 302 373 445
#     4  12  22  49  76 110 147 199 258 303 369 440
#     4  12  27  48  83 104 151 199 251 311 374 443
#     4  12  26  48  74 114 150 193 246 309 376 442
#     4  12  27  46  75 112 153 194 253 305 376 444
#     4  12  26  52  74 109 147 195 254 310 374 449
#
# _framework density 25.118483999999999
#
# number of rings (size 3 to 8) (size 9 to 14) (size 15 to 20)
#    0.000    0.286    5.714    2.143    0.000    5.143 
#    0.000    0.000    0.000    0.000    0.000    0.000 
#    0.000    0.000    0.000    0.000    0.000    0.000 
#
# Total GULP energy -173581.935401 kJ/mol
# GULP energy per Si atom -12398.709671 kJ/mol
# Density = 2.506131 g / cm^3
# Si number density = 25.118484 Si / 1000 Ang^3
#
#
#
# Elastic Constant Matrix: (Units=GPa)
#
#
# Indices 1 2 3 4 5 6 
#
# 1 99.6574 36.4632 50.8287 -2.4093 -9.6804 -19.4092
# 2 36.4632 74.5378 8.0690 2.5165 -8.6673 4.5196
# 3 50.8287 8.0690 123.1527 -4.5387 6.4607 0.0202
# 4 -2.4093 2.5165 -4.5387 34.7117 5.1232 -9.6912
# 5 -9.6804 -8.6673 6.4607 5.1232 47.3581 0.6343
# 6 -19.4092 4.5196 0.0202 -9.6912 0.6343 32.3968
#
#
#
# Elastic Compliance Matrix: (Units=1/GPa)
#
#
# Indices 1 2 3 4 5 6 
#
# 1 0.021492 -0.010439 -0.008146 0.005188 0.002820 0.015834
# 2 -0.010439 0.019215 0.002782 -0.004916 0.001675 -0.010440
# 3 -0.008146 0.002782 0.011423 -0.000380 -0.002602 -0.005338
# 4 0.005188 -0.004916 -0.000380 0.033926 -0.003645 0.014014
# 5 0.002820 0.001675 -0.002602 -0.003645 0.022749 -0.000078
# 6 0.015834 -0.010440 -0.005338 0.014014 -0.000078 0.046007
#
#
# Mechanical properties :
#
#
# Convention : Reuss Voigt Hill
#
# Bulk Modulus (GPa) = 48.72113 54.22996 51.47554
# Shear Modulus (GPa) = 25.87209 36.35912 31.11560
#
# Velocity S-wave (km/s) = 3.21285 3.80874 3.52341
# Velocity P-wave (km/s) = 5.76210 6.40144 6.09017
#
# Compressibility (1/GPa) = 0.02052498
#
# Stress axis : x y z
#
# Youngs Moduli (GPa) = 46.52987 52.04211 87.54270
#
# Poissons Ratio (x) = 0.54326 0.71309
# Poissons Ratio (y) = 0.48572 -0.24356
# Poissons Ratio (z) = 0.37901 -0.14479
#
# Static dielectric constant tensor:
#      x y z
#    x 4.850060 -0.097610 0.387220 
#    y -0.097610 4.088080 0.037430 
#    z 0.387220 0.037430 4.727450 
# 
# 
# High freq. dielectric constant tensor:
#      x y z
#    x 2.007070 0.007380 0.012270 
#    y 0.007380 1.997490 -0.011910 
#    z 0.012270 -0.011910 2.012420 
# 
# From -- ./inp_files/418791.got.cif
#   From: 2010.06.25/outbox.cif.g09.slc.cpg/sg2_210_cif.got.tgz:418791.got - 2010.06.27 13:26:56.
