data_PCOD8034021
_publ_section_title
;
Structure prediction by ZEFSAII (Michael W. Deem and Ramdas Pophale) SiO2 
 PCOD8034021
Probable space group: P -1
;
_chemical_formula_sum "Si O2"
_cell_formula_units_Z 16
_cell_length_a 11.791607
_cell_length_b 15.308564
_cell_length_c 9.642470
_cell_angle_alpha 60.531925
_cell_angle_beta 64.205662
_cell_angle_gamma 116.225433
_cell_volume 746.989316
_symmetry_space_group_name_H-M "P -1"
_symmetry_group_IT_number 2
_symmetry_cell_setting 'triclinic'
loop_
_space_group_symop_operation_xyz
x,y,z
-x,-y,-z
loop_
_atom_site_type_symbol
_atom_site_label
_atom_site_fract_x
_atom_site_fract_y
_atom_site_fract_z
Si Si1 0.101452 0.458998 0.504080
Si Si2 0.439870 0.192328 0.882603
Si Si3 0.346193 0.292880 0.388461
Si Si4 0.701966 0.709090 0.264620
Si Si5 0.348733 0.968534 0.872482
Si Si6 0.182743 0.969776 0.709364
Si Si7 0.808308 0.612645 0.735392
Si Si8 0.739266 0.063322 0.598351
O O1 0.291390 0.595992 0.417828
O O2 0.230658 0.502181 0.264978
O O3 0.000000 0.500000 0.500000
O O4 0.902123 0.248991 0.815734
O O5 0.294705 0.192057 0.914044
O O6 0.399512 0.073647 0.892812
O O7 0.357278 0.101906 0.149143
O O8 0.323757 0.269545 0.582920
O O9 0.186454 0.276385 0.431233
O O10 0.259248 0.131381 0.496871
O O11 0.610507 0.484434 0.056231
O O12 0.500000 0.500000 0.500000
O O13 0.937390 0.806666 0.042759
O O14 0.363607 0.041243 0.665048
O O15 0.540152 0.011703 0.737095
O O16 0.169647 0.896451 0.635002
O O17 0.049748 0.751698 0.571234
#
# Coordination Sequence:
#
# PCOD8034021 Si02
#       8
#     2   2   2   2   2   2   2   2
#     4  12  24  43  71 104 140 182 230 283 340 410
#     4  12  24  44  75 103 135 186 232 281 348 410
#     4  11  24  44  68  99 140 178 224 290 351 408
#     4  12  25  44  71 101 136 178 231 284 349 421
#     4  12  25  48  70 100 144 184 232 286 339 414
#     4  12  26  44  70  98 143 181 224 290 353 403
#     4  11  24  43  70 102 141 178 229 291 342 408
#     4  12  25  44  69 103 136 185 235 280 341 413
#
# _framework density 21.419314
#
# number of rings (size 3 to 8) (size 9 to 14) (size 15 to 20)
#    0.000    0.250    3.750    6.375    0.000    4.000 
#    0.000    0.625    0.000    0.000    0.000    0.000 
#    0.000    0.000    0.000    0.000    0.000    0.000 
#
# Total GULP energy -198502.585017 kJ/mol
# GULP energy per Si atom -12406.411564 kJ/mol
# Density = 2.137056 g / cm^3
# Si number density = 21.419314 Si / 1000 Ang^3
#
#
#
# Elastic Constant Matrix: (Units=GPa)
#
#
# Indices 1 2 3 4 5 6 
#
# 1 121.5654 37.7940 48.8191 18.6239 0.8177 9.5680
# 2 37.7940 109.4066 39.0423 -7.4597 4.6905 1.5313
# 3 48.8191 39.0423 88.0706 -3.6549 -0.9833 -0.5803
# 4 18.6239 -7.4597 -3.6549 37.2485 6.7391 -7.8796
# 5 0.8177 4.6905 -0.9833 6.7391 29.1424 -2.9086
# 6 9.5680 1.5313 -0.5803 -7.8796 -2.9086 31.1844
#
#
#
# Elastic Compliance Matrix: (Units=1/GPa)
#
#
# Indices 1 2 3 4 5 6 
#
# 1 0.013937 -0.003028 -0.006822 -0.009915 0.001498 -0.006620
# 2 -0.003028 0.011795 -0.003397 0.004285 -0.002809 0.001107
# 3 -0.006822 -0.003397 0.016886 0.005123 0.000514 0.003916
# 4 -0.009915 0.004285 0.005123 0.036993 -0.007639 0.011562
# 5 0.001498 -0.002809 0.000514 -0.007639 0.036625 0.001174
# 6 -0.006620 0.001107 0.003916 0.011562 0.001174 0.037148
#
#
# Mechanical properties :
#
#
# Convention : Reuss Voigt Hill
#
# Bulk Modulus (GPa) = 62.01296 63.37260 62.69278
# Shear Modulus (GPa) = 26.99028 32.40754 29.69891
#
# Velocity S-wave (km/s) = 3.55363 3.89396 3.72768
# Velocity P-wave (km/s) = 6.77144 7.06173 6.91811
#
# Compressibility (1/GPa) = 0.01612566
#
# Stress axis : x y z
#
# Youngs Moduli (GPa) = 71.75253 84.77875 59.22127
#
# Poissons Ratio (x) = 0.25669 0.40398
# Poissons Ratio (y) = 0.21725 0.20117
# Poissons Ratio (z) = 0.48946 0.28798
#
# Static dielectric constant tensor:
#      x y z
#    x 4.076490 -0.119770 -0.043460 
#    y -0.119770 3.610340 -0.315610 
#    z -0.043460 -0.315610 3.781400 
# 
# 
# High freq. dielectric constant tensor:
#      x y z
#    x 1.856870 0.000150 -0.001660 
#    y 0.000150 1.849480 -0.005160 
#    z -0.001660 -0.005160 1.842320 
# 
# From -- ./inp_files/271379.got.cif
#   From: 2010.06.25/outbox.cif.g09.slc.cpg/sg2_136_cif.got.tgz:271379.got - 2010.06.27 13:26:56.
