data_PCOD8034762
_publ_section_title
;
Structure prediction by ZEFSAII (Michael W. Deem and Ramdas Pophale) SiO2 
 PCOD8034762
Probable space group: P -1
;
_chemical_formula_sum "Si O2"
_cell_formula_units_Z 16
_cell_length_a 12.461395
_cell_length_b 28.886627
_cell_length_c 8.715169
_cell_angle_alpha 152.271113
_cell_angle_beta 38.312119
_cell_angle_gamma 152.120775
_cell_volume 682.530466
_symmetry_space_group_name_H-M "P -1"
_symmetry_group_IT_number 2
_symmetry_cell_setting 'triclinic'
loop_
_space_group_symop_operation_xyz
x,y,z
-x,-y,-z
loop_
_atom_site_type_symbol
_atom_site_label
_atom_site_fract_x
_atom_site_fract_y
_atom_site_fract_z
Si Si1 0.656936 0.061493 0.654673
Si Si2 0.100280 0.145769 0.286771
Si Si3 0.352219 0.798617 0.376313
Si Si4 0.888011 0.704803 0.538820
Si Si5 0.596585 0.368923 0.372034
Si Si6 0.284136 0.395917 0.237009
Si Si7 0.291945 0.545949 0.176167
Si Si8 0.216577 0.725736 0.649098
O O1 0.924486 0.156938 0.591853
O O2 0.500000 0.000000 0.500000
O O3 0.590650 0.942339 0.486140
O O4 0.629576 0.154228 0.050135
O O5 0.137719 0.193955 0.207646
O O6 0.354622 0.249294 0.373909
O O7 0.000000 0.000000 0.000000
O O8 0.359973 0.771492 0.465389
O O9 0.149793 0.800511 0.581947
O O10 0.300588 0.684874 0.992830
O O11 0.720163 0.622809 0.630339
O O12 0.843606 0.602446 0.162362
O O13 0.573175 0.449994 0.513557
O O14 0.753922 0.460262 0.607732
O O15 0.027683 0.311269 0.209461
O O16 0.433139 0.362202 0.897883
O O17 0.183168 0.600787 0.376344
#
# Coordination Sequence:
#
# PCOD8034762 Si02
#       8
#     2   2   2   2   2   2   2   2
#     4  12  24  45  69  94 138 184 228 283 336 402
#     4  12  26  43  71 102 134 180 233 285 339 410
#     4  11  24  46  69  96 140 185 229 281 342 411
#     4  11  25  44  71 101 137 184 230 279 353 408
#     4  12  25  43  71 104 137 179 231 283 350 405
#     4  11  25  46  69 103 145 178 225 289 346 413
#     4  12  25  41  71 106 139 180 227 284 348 411
#     4  11  27  44  69 106 139 180 233 280 345 414
#
# _framework density 23.442176
#
# number of rings (size 3 to 8) (size 9 to 14) (size 15 to 20)
#    0.000    0.500    3.750    4.125    3.500    3.000 
#    0.000    0.000    0.000    6.000    0.000    0.000 
#    0.000    0.000    0.000    0.000    0.000    0.000 
#
# Total GULP energy -198385.872469 kJ/mol
# GULP energy per Si atom -12399.117029 kJ/mol
# Density = 2.338882 g / cm^3
# Si number density = 23.442176 Si / 1000 Ang^3
#
#
#
# Elastic Constant Matrix: (Units=GPa)
#
#
# Indices 1 2 3 4 5 6 
#
# 1 97.7280 38.5290 45.0968 7.8726 -5.5649 -26.4070
# 2 38.5290 118.4500 24.8672 6.2125 7.1727 -23.0447
# 3 45.0968 24.8672 105.3623 6.9535 11.7976 -21.1109
# 4 7.8726 6.2125 6.9535 42.9482 -4.1546 -11.1894
# 5 -5.5649 7.1727 11.7976 -4.1546 36.6935 1.5561
# 6 -26.4070 -23.0447 -21.1109 -11.1894 1.5561 44.5774
#
#
#
# Elastic Compliance Matrix: (Units=1/GPa)
#
#
# Indices 1 2 3 4 5 6 
#
# 1 0.015596 -0.003271 -0.005456 0.000205 0.004576 0.004856
# 2 -0.003271 0.010357 -0.000041 -0.000259 -0.002682 0.003426
# 3 -0.005456 -0.000041 0.013060 -0.000860 -0.005239 0.002899
# 4 0.000205 -0.000259 -0.000860 0.025223 0.002968 0.005808
# 5 0.004576 -0.002682 -0.005239 0.002968 0.030554 -0.001478
# 6 0.004856 0.003426 0.002899 0.005808 -0.001478 0.029963
#
#
# Mechanical properties :
#
#
# Convention : Reuss Voigt Hill
#
# Bulk Modulus (GPa) = 46.55927 59.83627 53.19777
# Shear Modulus (GPa) = 33.45627 39.04698 36.25162
#
# Velocity S-wave (km/s) = 3.78191 4.08569 3.93673
# Velocity P-wave (km/s) = 6.24298 6.91648 6.58834
#
# Compressibility (1/GPa) = 0.02147800
#
# Stress axis : x y z
#
# Youngs Moduli (GPa) = 64.11939 96.54953 76.56810
#
# Poissons Ratio (x) = 0.31578 0.41779
# Poissons Ratio (y) = 0.20971 0.00312
# Poissons Ratio (z) = 0.34986 0.00393
#
# Static dielectric constant tensor:
#      x y z
#    x 4.254790 -0.096500 -0.120860 
#    y -0.096500 4.525260 -0.169860 
#    z -0.120860 -0.169860 4.008070 
# 
# 
# High freq. dielectric constant tensor:
#      x y z
#    x 1.931440 -0.004330 -0.006020 
#    y -0.004330 1.947000 -0.006400 
#    z -0.006020 -0.006400 1.909400 
# 
# From -- ./inp_files/179067.got.cif
#   From: 2010.06.25/outbox.cif.g09.slc.cpg/sg2_90_cif.got.tgz:179067.got - 2010.06.27 13:26:56.
