data_PCOD8034964
_publ_section_title
;
Structure prediction by ZEFSAII (Michael W. Deem and Ramdas Pophale) SiO2 
 PCOD8034964
Probable space group: P -1
;
_chemical_formula_sum "Si O2"
_cell_formula_units_Z 14
_cell_length_a 8.782822
_cell_length_b 14.131362
_cell_length_c 15.032074
_cell_angle_alpha 39.795606
_cell_angle_beta 30.978935
_cell_angle_gamma 42.877045
_cell_volume 598.905108
_symmetry_space_group_name_H-M "P -1"
_symmetry_group_IT_number 2
_symmetry_cell_setting 'triclinic'
loop_
_space_group_symop_operation_xyz
x,y,z
-x,-y,-z
loop_
_atom_site_type_symbol
_atom_site_label
_atom_site_fract_x
_atom_site_fract_y
_atom_site_fract_z
Si Si1 0.792822 0.796540 0.606302
Si Si2 0.256534 0.989148 0.246406
Si Si3 0.219093 0.486714 0.091289
Si Si4 0.551802 0.433715 0.785692
Si Si5 0.736234 0.748188 0.073135
Si Si6 0.226488 0.270217 0.542136
Si Si7 0.341579 0.989076 0.805273
O O1 0.946426 0.629969 0.689498
O O2 0.782271 0.792365 0.508194
O O3 0.967199 0.922343 0.464213
O O4 0.453441 0.849645 0.780537
O O5 0.476902 0.851411 0.185960
O O6 0.433001 0.039465 0.203792
O O7 0.139956 0.139840 0.136477
O O8 0.002023 0.653816 0.070274
O O9 0.500000 0.500000 0.000000
O O10 0.338438 0.415695 0.987968
O O11 0.402081 0.379609 0.813354
O O12 0.564378 0.608949 0.643844
O O13 0.889186 0.334536 0.701700
O O14 0.376938 0.139077 0.628198
O O15 0.000000 0.000000 0.000000
#
# Coordination Sequence:
#
# PCOD8034964 Si02
#       7
#     2   2   2   2   2   2   2
#     4  12  26  48  73 111 147 190 256 297 371 437
#     4  11  27  48  75 110 144 200 246 303 365 438
#     4  12  27  44  74 111 146 192 243 307 366 439
#     4  11  24  47  68 108 149 192 244 295 378 430
#     4  11  26  47  77 101 153 192 249 297 372 434
#     4  11  25  44  75 105 148 192 245 304 361 441
#     4  12  28  45  76 107 152 195 247 304 371 434
#
# _framework density 23.375990999999999
#
# number of rings (size 3 to 8) (size 9 to 14) (size 15 to 20)
#    0.000    0.571    2.857    3.857   10.000    0.571 
#    0.000    0.000    0.000    0.000    0.000    0.000 
#    0.000    0.000    0.000    0.000    0.000    0.000 
#
# Total GULP energy -173636.865624 kJ/mol
# GULP energy per Si atom -12402.633259 kJ/mol
# Density = 2.332279 g / cm^3
# Si number density = 23.375991 Si / 1000 Ang^3
#
#
#
# Elastic Constant Matrix: (Units=GPa)
#
#
# Indices 1 2 3 4 5 6 
#
# 1 78.7384 41.0202 19.1698 -17.2422 -1.4573 -9.8321
# 2 41.0202 116.2734 32.7389 -13.0880 4.3947 -15.1908
# 3 19.1698 32.7389 99.5393 -15.4534 1.0530 -9.6903
# 4 -17.2422 -13.0880 -15.4534 40.2617 5.1514 9.9169
# 5 -1.4573 4.3947 1.0530 5.1514 39.2586 -5.4163
# 6 -9.8321 -15.1908 -9.6903 9.9169 -5.4163 45.2244
#
#
#
# Elastic Compliance Matrix: (Units=1/GPa)
#
#
# Indices 1 2 3 4 5 6 
#
# 1 0.016704 -0.005058 -0.000715 0.004960 0.000661 0.000771
# 2 -0.005058 0.011432 -0.002543 0.000227 -0.001152 0.002008
# 3 -0.000715 -0.002543 0.011590 0.003182 -0.000369 0.000731
# 4 0.004960 0.000227 0.003182 0.030161 -0.004620 -0.005330
# 5 0.000661 -0.001152 -0.000369 -0.004620 0.026779 0.003898
# 6 0.000771 0.002008 0.000731 -0.005330 0.003898 0.024746
#
#
# Mechanical properties :
#
#
# Convention : Reuss Voigt Hill
#
# Bulk Modulus (GPa) = 43.30165 53.37877 48.34021
# Shear Modulus (GPa) = 34.30700 38.39043 36.34872
#
# Velocity S-wave (km/s) = 3.83510 4.05693 3.94758
# Velocity P-wave (km/s) = 6.17858 6.69547 6.44221
#
# Compressibility (1/GPa) = 0.02309381
#
# Stress axis : x y z
#
# Youngs Moduli (GPa) = 59.86594 87.47257 86.28359
#
# Poissons Ratio (x) = 0.44239 0.06172
# Poissons Ratio (y) = 0.30277 0.21943
# Poissons Ratio (z) = 0.04282 0.22246
#
# Static dielectric constant tensor:
#      x y z
#    x 4.745570 -0.501500 0.867230 
#    y -0.501500 4.971030 -0.636900 
#    z 0.867230 -0.636900 5.285410 
# 
# 
# High freq. dielectric constant tensor:
#      x y z
#    x 1.920520 0.006280 0.007170 
#    y 0.006280 1.942310 -0.005010 
#    z 0.007170 -0.005010 1.934050 
# 
# From -- ./inp_files/207955.got.cif
#   From: 2010.06.25/outbox.cif.g09.slc.cpg/sg2_104_cif.got.tgz:207955.got - 2010.06.27 13:26:56.
