data_PCOD8034123
_publ_section_title
;
Structure prediction by ZEFSAII (Michael W. Deem and Ramdas Pophale) SiO2 
 PCOD8034123
Probable space group: P -1
;
_chemical_formula_sum "Si O2"
_cell_formula_units_Z 16
_cell_length_a 24.287502
_cell_length_b 8.365265
_cell_length_c 20.069991
_cell_angle_alpha 147.154659
_cell_angle_beta 159.898626
_cell_angle_gamma 33.811758
_cell_volume 740.630620
_symmetry_space_group_name_H-M "P -1"
_symmetry_group_IT_number 2
_symmetry_cell_setting 'triclinic'
loop_
_space_group_symop_operation_xyz
x,y,z
-x,-y,-z
loop_
_atom_site_type_symbol
_atom_site_label
_atom_site_fract_x
_atom_site_fract_y
_atom_site_fract_z
Si Si1 0.161002 0.183020 0.168469
Si Si2 0.980914 0.303970 0.346362
Si Si3 0.287082 0.771563 0.514236
Si Si4 0.554598 0.789200 0.926834
Si Si5 0.143394 0.590832 0.013923
Si Si6 0.685598 0.146350 0.900825
Si Si7 0.922179 0.717410 0.297367
Si Si8 0.529714 0.746899 0.669002
O O1 0.273143 0.426927 0.393255
O O2 0.970214 0.336869 0.023455
O O3 0.193639 0.078045 0.092008
O O4 0.204572 0.887957 0.162213
O O5 0.000000 0.500000 0.500000
O O6 0.991961 0.474415 0.348833
O O7 0.108568 0.987047 0.387115
O O8 0.800503 0.236165 0.120244
O O9 0.405847 0.883938 0.740180
O O10 0.363565 0.825854 0.549542
O O11 0.580850 0.433262 0.844142
O O12 0.726969 0.850724 0.120308
O O13 0.500000 0.000000 0.000000
O O14 0.039968 0.452785 0.791024
O O15 0.309547 0.352328 0.136986
O O16 0.547916 0.019753 0.737904
O O17 0.000000 0.000000 0.500000
O O18 0.500000 0.500000 0.500000
#
# Coordination Sequence:
#
# PCOD8034123 Si02
#       8
#     2   2   2   2   2   2   2   2
#     4  11  24  43  73  97 137 182 226 277 350 419
#     4  11  26  46  71  99 135 184 236 283 337 405
#     4  12  25  43  72 104 136 177 228 288 350 405
#     4  11  25  47  69  98 136 182 230 282 348 406
#     4  11  25  46  67 105 138 186 230 279 346 423
#     4  11  24  47  68  98 141 179 224 286 342 419
#     4  11  25  47  71  98 139 184 235 279 335 415
#     4  12  26  40  68 105 142 175 225 284 349 405
#
# _framework density 21.603211999999999
#
# number of rings (size 3 to 8) (size 9 to 14) (size 15 to 20)
#    0.000    0.750    5.000    2.250    8.750    3.000 
#    0.000    1.875    0.000    0.000    0.000    0.000 
#    0.000    0.000    0.000    0.000    0.000    0.000 
#
# Total GULP energy -198308.098008 kJ/mol
# GULP energy per Si atom -12394.256126 kJ/mol
# Density = 2.155404 g / cm^3
# Si number density = 21.603212 Si / 1000 Ang^3
#
#
#
# Elastic Constant Matrix: (Units=GPa)
#
#
# Indices 1 2 3 4 5 6 
#
# 1 103.1712 21.0091 33.7854 17.5025 4.1326 -12.1863
# 2 21.0091 75.9654 22.5650 11.6615 0.4463 -3.9886
# 3 33.7854 22.5650 98.9659 25.9768 0.2091 15.8810
# 4 17.5025 11.6615 25.9768 40.2973 4.7784 -3.7035
# 5 4.1326 0.4463 0.2091 4.7784 51.1135 4.7052
# 6 -12.1863 -3.9886 15.8810 -3.7035 4.7052 32.4994
#
#
#
# Elastic Compliance Matrix: (Units=1/GPa)
#
#
# Indices 1 2 3 4 5 6 
#
# 1 0.012652 -0.001525 -0.004790 -0.001143 -0.001526 0.006988
# 2 -0.001525 0.014798 -0.002842 -0.001552 -0.000076 0.002467
# 3 -0.004790 -0.002842 0.016664 -0.009181 0.002276 -0.011664
# 4 -0.001143 -0.001552 -0.009181 0.032865 -0.003679 0.008145
# 5 -0.001526 -0.000076 0.002276 -0.003679 0.020491 -0.005080
# 6 0.006988 0.002467 -0.011664 0.008145 -0.005080 0.041056
#
#
# Mechanical properties :
#
#
# Convention : Reuss Voigt Hill
#
# Bulk Modulus (GPa) = 38.75696 48.09126 43.42411
# Shear Modulus (GPa) = 30.22259 38.16491 34.19375
#
# Velocity S-wave (km/s) = 3.74436 4.20769 3.98277
# Velocity P-wave (km/s) = 6.05582 6.77611 6.42607
#
# Compressibility (1/GPa) = 0.02580182
#
# Stress axis : x y z
#
# Youngs Moduli (GPa) = 79.03812 67.57652 60.00834
#
# Poissons Ratio (x) = 0.10305 0.28742
# Poissons Ratio (y) = 0.12053 0.17053
# Poissons Ratio (z) = 0.37856 0.19203
#
# Static dielectric constant tensor:
#      x y z
#    x 3.910880 -0.183490 0.137610 
#    y -0.183490 4.004080 0.032170 
#    z 0.137610 0.032170 4.248870 
# 
# 
# High freq. dielectric constant tensor:
#      x y z
#    x 1.855670 -0.004540 -0.001340 
#    y -0.004540 1.846570 0.010110 
#    z -0.001340 0.010110 1.857070 
# 
# From -- ./inp_files/601972.got.cif
#   From: 2010.06.25/outbox.cif.g09.slc.cpg/sg2_301_cif.got.tgz:601972.got - 2010.06.27 13:26:56.
