data_PCOD8034918
_publ_section_title
;
Structure prediction by ZEFSAII (Michael W. Deem and Ramdas Pophale) SiO2 
 PCOD8034918
Probable space group: P -1
;
_chemical_formula_sum "Si O2"
_cell_formula_units_Z 16
_cell_length_a 11.238583
_cell_length_b 8.678136
_cell_length_c 9.158253
_cell_angle_alpha 95.098637
_cell_angle_beta 83.581610
_cell_angle_gamma 52.565580
_cell_volume 690.743358
_symmetry_space_group_name_H-M "P -1"
_symmetry_group_IT_number 2
_symmetry_cell_setting 'triclinic'
loop_
_space_group_symop_operation_xyz
x,y,z
-x,-y,-z
loop_
_atom_site_type_symbol
_atom_site_label
_atom_site_fract_x
_atom_site_fract_y
_atom_site_fract_z
Si Si1 0.468871 0.300083 0.319604
Si Si2 0.077927 0.086567 0.429704
Si Si3 0.152520 0.282750 0.958488
Si Si4 0.212148 0.511616 0.596180
Si Si5 0.230989 0.956321 0.101059
Si Si6 0.267153 0.112505 0.636338
Si Si7 0.419227 0.292376 0.000376
Si Si8 0.308191 0.643402 0.848950
O O1 0.339236 0.468081 0.460535
O O2 0.577376 0.356892 0.272535
O O3 0.560261 0.082472 0.363605
O O4 0.389810 0.309751 0.179900
O O5 0.205760 0.047851 0.516579
O O6 0.955323 0.322187 0.435176
O O7 0.169460 0.951343 0.264440
O O8 0.000000 0.000000 0.500000
O O9 0.162575 0.175690 0.799564
O O10 0.306786 0.260849 0.938333
O O11 0.000000 0.500000 0.000000
O O12 0.132781 0.184789 0.088736
O O13 0.252198 0.300823 0.600842
O O14 0.212066 0.607522 0.755561
O O15 0.403973 0.884337 0.074227
O O16 0.204233 0.846681 0.972232
O O17 0.394148 0.481054 0.950664
#
# Coordination Sequence:
#
# PCOD8034918 Si02
#       8
#     2   2   2   2   2   2   2   2
#     4  11  25  45  75 108 148 194 245 304 358 442
#     4  12  31  48  73 107 152 196 241 308 375 434
#     4  12  26  46  76 109 148 191 241 308 364 437
#     4  12  27  46  74 107 149 194 246 304 369 432
#     4  11  26  48  75 103 149 191 253 297 360 447
#     4  12  26  50  68 110 144 195 248 296 374 436
#     4  11  25  45  76 109 143 193 247 296 366 430
#     4  11  24  46  75 109 145 192 250 300 366 432
#
# _framework density 23.163450000000001
#
# number of rings (size 3 to 8) (size 9 to 14) (size 15 to 20)
#    0.000    0.500    3.750    4.500    8.750    0.500 
#    0.000    0.000    0.000    0.000    0.000    0.000 
#    0.000    0.000    0.000    0.000    0.000    0.000 
#
# Total GULP energy -198388.132028 kJ/mol
# GULP energy per Si atom -12399.258252 kJ/mol
# Density = 2.311073 g / cm^3
# Si number density = 23.163450 Si / 1000 Ang^3
#
#
#
# Elastic Constant Matrix: (Units=GPa)
#
#
# Indices 1 2 3 4 5 6 
#
# 1 72.9199 27.0699 62.7640 2.9129 5.2470 13.5669
# 2 27.0699 128.0748 39.1082 -13.3819 5.8537 -1.3411
# 3 62.7640 39.1082 154.2751 6.9046 -4.9558 -8.4288
# 4 2.9129 -13.3819 6.9046 42.0351 -1.6590 -7.1691
# 5 5.2470 5.8537 -4.9558 -1.6590 29.0309 -1.7349
# 6 13.5669 -1.3411 -8.4288 -7.1691 -1.7349 40.4387
#
#
#
# Elastic Compliance Matrix: (Units=1/GPa)
#
#
# Indices 1 2 3 4 5 6 
#
# 1 0.027279 -0.002470 -0.011242 -0.003243 -0.007282 -0.012464
# 2 -0.002470 0.009222 -0.001459 0.003530 -0.001377 0.001397
# 3 -0.011242 -0.001459 0.011941 -0.000378 0.004722 0.006348
# 4 -0.003243 0.003530 -0.000378 0.026264 0.001661 0.005854
# 5 -0.007282 -0.001377 0.004722 0.001661 0.037256 0.005274
# 6 -0.012464 0.001397 0.006348 0.005854 0.005274 0.031544
#
#
# Mechanical properties :
#
#
# Convention : Reuss Voigt Hill
#
# Bulk Modulus (GPa) = 55.24517 68.12820 61.68669
# Shear Modulus (GPa) = 27.79640 37.38947 32.59293
#
# Velocity S-wave (km/s) = 3.46788 4.02202 3.75518
# Velocity P-wave (km/s) = 6.31956 7.14455 6.74468
#
# Compressibility (1/GPa) = 0.01810113
#
# Stress axis : x y z
#
# Youngs Moduli (GPa) = 36.65834 108.43840 83.74782
#
# Poissons Ratio (x) = 0.26779 0.94146
# Poissons Ratio (y) = 0.09053 0.12218
# Poissons Ratio (z) = 0.41210 0.15820
#
# Static dielectric constant tensor:
#      x y z
#    x 3.977890 0.038450 0.026100 
#    y 0.038450 4.372700 -0.244130 
#    z 0.026100 -0.244130 4.264910 
# 
# 
# High freq. dielectric constant tensor:
#      x y z
#    x 1.902370 0.004860 -0.001170 
#    y 0.004860 1.932450 -0.011800 
#    z -0.001170 -0.011800 1.930800 
# 
# From -- ./inp_files/244565.got.cif
#   From: 2010.06.25/outbox.cif.g09.slc.cpg/sg2_123_cif.got.tgz:244565.got - 2010.06.27 13:26:56.
