data_PCOD8034775
_publ_section_title
;
Structure prediction by ZEFSAII (Michael W. Deem and Ramdas Pophale) SiO2 
 PCOD8034775
Probable space group: P -1
;
_chemical_formula_sum "Si O2"
_cell_formula_units_Z 14
_cell_length_a 14.493191
_cell_length_b 8.427153
_cell_length_c 11.944899
_cell_angle_alpha 33.065239
_cell_angle_beta 51.932515
_cell_angle_gamma 63.730372
_cell_volume 617.250804
_symmetry_space_group_name_H-M "P -1"
_symmetry_group_IT_number 2
_symmetry_cell_setting 'triclinic'
loop_
_space_group_symop_operation_xyz
x,y,z
-x,-y,-z
loop_
_atom_site_type_symbol
_atom_site_label
_atom_site_fract_x
_atom_site_fract_y
_atom_site_fract_z
Si Si1 0.670862 0.001961 0.379868
Si Si2 0.946960 0.855305 0.512250
Si Si3 0.473231 0.574815 0.851792
Si Si4 0.252916 0.761127 0.588734
Si Si5 0.371327 0.012196 0.138514
Si Si6 0.114155 0.848268 0.016784
Si Si7 0.172473 0.081921 0.069868
O O1 0.595499 0.149027 0.258130
O O2 0.662956 0.163061 0.411105
O O3 0.602352 0.662291 0.641956
O O4 0.805159 0.023838 0.224907
O O5 0.916432 0.504268 0.757827
O O6 0.829973 0.989505 0.494382
O O7 0.000000 0.000000 0.500000
O O8 0.042427 0.934783 0.295968
O O9 0.500000 0.500000 0.000000
O O10 0.382213 0.323107 0.008093
O O11 0.328173 0.769957 0.411092
O O12 0.178275 0.433270 0.850600
O O13 0.274566 0.990519 0.125745
O O14 0.500000 0.000000 0.000000
O O15 0.186693 0.947205 0.016887
O O16 0.000000 0.000000 0.000000
#
# Coordination Sequence:
#
# PCOD8034775 Si02
#       7
#     2   2   2   2   2   2   2
#     4  11  25  44  75 101 139 186 246 291 351 426
#     4  12  24  47  79 101 141 190 241 291 359 434
#     4  11  24  46  70 103 137 191 246 293 344 423
#     4  12  24  48  74 105 142 191 243 295 354 436
#     4  12  28  43  71 105 147 190 238 293 368 416
#     4  12  28  47  73 112 146 187 235 302 371 426
#     4  12  27  47  71 108 152 182 239 300 364 426
#
# _framework density 22.681218999999999
#
# number of rings (size 3 to 8) (size 9 to 14) (size 15 to 20)
#    0.000    0.286    4.286    4.286    4.000    0.571 
#    0.000    0.000    0.000    0.000    0.000    0.000 
#    0.000    0.000    0.000    0.000    0.000    0.000 
#
# Total GULP energy -173616.103192 kJ/mol
# GULP energy per Si atom -12401.150228 kJ/mol
# Density = 2.262960 g / cm^3
# Si number density = 22.681219 Si / 1000 Ang^3
#
#
#
# Elastic Constant Matrix: (Units=GPa)
#
#
# Indices 1 2 3 4 5 6 
#
# 1 136.2576 42.3679 42.1103 7.4519 13.4980 8.2396
# 2 42.3679 75.3975 30.1501 11.3053 7.2065 -5.5402
# 3 42.1103 30.1501 132.3334 13.9514 -3.0069 -13.2782
# 4 7.4519 11.3053 13.9514 50.5420 1.2078 -8.4988
# 5 13.4980 7.2065 -3.0069 1.2078 41.6999 2.8773
# 6 8.2396 -5.5402 -13.2782 -8.4988 2.8773 52.7644
#
#
#
# Elastic Compliance Matrix: (Units=1/GPa)
#
#
# Indices 1 2 3 4 5 6 
#
# 1 0.009890 -0.004527 -0.002408 -0.000147 -0.002415 -0.002518
# 2 -0.004527 0.017290 -0.002125 -0.002284 -0.001728 0.001714
# 3 -0.002408 -0.002125 0.009208 -0.001390 0.001702 0.002153
# 4 -0.000147 -0.002284 -0.001390 0.021196 -0.000470 0.002873
# 5 -0.002415 -0.001728 0.001702 -0.000470 0.025255 -0.000829
# 6 -0.002518 0.001714 0.002153 0.002873 -0.000829 0.020575
#
#
# Mechanical properties :
#
#
# Convention : Reuss Voigt Hill
#
# Bulk Modulus (GPa) = 54.73830 63.69390 59.21610
# Shear Modulus (GPa) = 39.17738 44.29195 41.73466
#
# Velocity S-wave (km/s) = 4.16059 4.42385 4.29424
# Velocity P-wave (km/s) = 6.87509 7.36458 7.12404
#
# Compressibility (1/GPa) = 0.01826874
#
# Stress axis : x y z
#
# Youngs Moduli (GPa) = 101.10952 57.83591 108.59655
#
# Poissons Ratio (x) = 0.26182 0.26148
# Poissons Ratio (y) = 0.45772 0.23080
# Poissons Ratio (z) = 0.24346 0.12292
#
# Static dielectric constant tensor:
#      x y z
#    x 3.432770 -0.031990 0.140280 
#    y -0.031990 3.407800 0.159470 
#    z 0.140280 0.159470 4.584180 
# 
# 
# High freq. dielectric constant tensor:
#      x y z
#    x 1.912300 0.008280 -0.002290 
#    y 0.008280 1.879780 0.006400 
#    z -0.002290 0.006400 1.920490 
# 
# From -- ./inp_files/48315.got.cif
#   From: 2010.06.25/outbox.cif.g09.slc.cpg/sg2_25_cif.got.tgz:48315.got - 2010.06.27 13:26:56.
