data_PCOD8034171
_publ_section_title
;
Structure prediction by ZEFSAII (Michael W. Deem and Ramdas Pophale) SiO2 
 PCOD8034171
Probable space group: P -1
;
_chemical_formula_sum "Si O2"
_cell_formula_units_Z 14
_cell_length_a 17.359032
_cell_length_b 12.120581
_cell_length_c 16.902513
_cell_angle_alpha 136.250819
_cell_angle_beta 156.231387
_cell_angle_gamma 29.701251
_cell_volume 661.639614
_symmetry_space_group_name_H-M "P -1"
_symmetry_group_IT_number 2
_symmetry_cell_setting 'triclinic'
loop_
_space_group_symop_operation_xyz
x,y,z
-x,-y,-z
loop_
_atom_site_type_symbol
_atom_site_label
_atom_site_fract_x
_atom_site_fract_y
_atom_site_fract_z
Si Si1 0.250260 0.746836 0.437098
Si Si2 0.884073 0.843706 0.711145
Si Si3 0.139481 0.978976 0.934271
Si Si4 0.386349 0.998097 0.769236
Si Si5 0.045047 0.307989 0.756727
Si Si6 0.257660 0.370434 0.733922
Si Si7 0.253623 0.170674 0.256120
O O1 0.500000 0.500000 0.500000
O O2 0.152784 0.702963 0.396750
O O3 0.363224 0.842422 0.625940
O O4 0.989375 0.938457 0.231650
O O5 0.824318 0.887978 0.771285
O O6 0.968758 0.964725 0.822444
O O7 0.146072 0.560557 0.794536
O O8 0.596022 0.964311 0.458564
O O9 0.472595 0.719721 0.105445
O O10 0.116815 0.168723 0.050590
O O11 0.134096 0.183927 0.691131
O O12 0.368945 0.138924 0.757270
O O13 0.689334 0.818168 0.003458
O O14 0.863205 0.579711 0.713592
O O15 0.000000 0.500000 0.500000
#
# Coordination Sequence:
#
# PCOD8034171 Si02
#       7
#     2   2   2   2   2   2   2
#     4  12  26  42  69 104 135 174 224 282 339 403
#     4  11  24  44  65 101 136 181 228 273 341 403
#     4  12  25  42  68 101 135 176 230 281 339 397
#     4  11  25  46  67  99 135 181 229 270 340 403
#     4  11  24  46  70  95 137 181 226 276 333 405
#     4  12  23  45  68  98 138 179 225 283 336 398
#     4  11  24  44  69  97 138 181 225 277 338 405
#
# _framework density 21.159555000000001
#
# number of rings (size 3 to 8) (size 9 to 14) (size 15 to 20)
#    0.000    0.571    4.286    3.857    2.000    1.143 
#    0.000    2.857    0.000    0.000    0.000    0.000 
#    0.000    0.000    0.000    0.000    0.000    0.000 
#
# Total GULP energy -173689.394376 kJ/mol
# GULP energy per Si atom -12406.385313 kJ/mol
# Density = 2.111139 g / cm^3
# Si number density = 21.159555 Si / 1000 Ang^3
#
#
#
# Elastic Constant Matrix: (Units=GPa)
#
#
# Indices 1 2 3 4 5 6 
#
# 1 97.1160 28.0674 34.4645 3.1272 15.5189 5.6687
# 2 28.0674 115.6464 30.5226 11.9485 7.0803 -9.2367
# 3 34.4645 30.5226 84.2360 5.6777 2.3326 -7.1462
# 4 3.1272 11.9485 5.6777 40.4258 -3.6745 -2.2668
# 5 15.5189 7.0803 2.3326 -3.6745 42.6011 0.1331
# 6 5.6687 -9.2367 -7.1462 -2.2668 0.1331 41.9501
#
#
#
# Elastic Compliance Matrix: (Units=1/GPa)
#
#
# Indices 1 2 3 4 5 6 
#
# 1 0.013491 -0.001914 -0.004945 -0.000352 -0.004347 -0.003092
# 2 -0.001914 0.010274 -0.002574 -0.002517 -0.001093 0.001950
# 3 -0.004945 -0.002574 0.015060 -0.000703 0.001336 0.002625
# 4 -0.000352 -0.002517 -0.000703 0.025905 0.002817 0.000764
# 5 -0.004347 -0.001093 0.001336 0.002817 0.025406 0.000646
# 6 -0.003092 0.001950 0.002625 0.000764 0.000646 0.025171
#
#
# Mechanical properties :
#
#
# Convention : Reuss Voigt Hill
#
# Bulk Modulus (GPa) = 50.10073 53.67858 51.88966
# Shear Modulus (GPa) = 35.50460 38.59166 37.04813
#
# Velocity S-wave (km/s) = 4.10072 4.27528 4.18891
# Velocity P-wave (km/s) = 6.79339 7.05650 6.92620
#
# Compressibility (1/GPa) = 0.01995979
#
# Stress axis : x y z
#
# Youngs Moduli (GPa) = 74.12253 97.33674 66.39974
#
# Poissons Ratio (x) = 0.18628 0.32832
# Poissons Ratio (y) = 0.14185 0.17093
# Poissons Ratio (z) = 0.36650 0.25057
#
# Static dielectric constant tensor:
#      x y z
#    x 4.008010 -0.096630 0.102700 
#    y -0.096630 3.896180 -0.122560 
#    z 0.102700 -0.122560 3.868190 
# 
# 
# High freq. dielectric constant tensor:
#      x y z
#    x 1.845590 -0.006140 0.007430 
#    y -0.006140 1.836670 -0.001710 
#    z 0.007430 -0.001710 1.834690 
# 
# From -- ./inp_files/40234.got.cif
#   From: 2010.06.25/outbox.cif.g09.slc.cpg/sg2_21_cif.got.tgz:40234.got - 2010.06.27 13:26:56.
