data_PCOD8034844
_publ_section_title
;
Structure prediction by ZEFSAII (Michael W. Deem and Ramdas Pophale) SiO2 
 PCOD8034844
Probable space group: P -1
;
_chemical_formula_sum "Si O2"
_cell_formula_units_Z 16
_cell_length_a 12.775374
_cell_length_b 9.148261
_cell_length_c 8.589976
_cell_angle_alpha 111.337623
_cell_angle_beta 62.115635
_cell_angle_gamma 126.077862
_cell_volume 711.668395
_symmetry_space_group_name_H-M "P -1"
_symmetry_group_IT_number 2
_symmetry_cell_setting 'triclinic'
loop_
_space_group_symop_operation_xyz
x,y,z
-x,-y,-z
loop_
_atom_site_type_symbol
_atom_site_label
_atom_site_fract_x
_atom_site_fract_y
_atom_site_fract_z
Si Si1 0.273355 0.354337 0.736701
Si Si2 0.164366 0.753946 0.603613
Si Si3 0.332306 0.750361 0.765670
Si Si4 0.343086 0.341692 0.034486
Si Si5 0.984095 0.829914 0.351011
Si Si6 0.288604 0.994355 0.107447
Si Si7 0.124062 0.404794 0.371199
Si Si8 0.623978 0.878945 0.560578
O O1 0.311204 0.558419 0.757632
O O2 0.117598 0.214549 0.739700
O O3 0.373051 0.304231 0.552174
O O4 0.284750 0.328156 0.899657
O O5 0.210553 0.733988 0.735707
O O6 0.178103 0.620303 0.418508
O O7 0.004517 0.701709 0.699531
O O8 0.256329 0.957562 0.556291
O O9 0.475683 0.851755 0.608930
O O10 0.341305 0.862230 0.957820
O O11 0.249769 0.376964 0.232482
O O12 0.328742 0.149615 0.010430
O O13 0.500000 0.500000 0.000000
O O14 0.925226 0.660250 0.443456
O O15 0.126290 0.870250 0.195750
O O16 0.000000 0.000000 0.500000
O O17 0.361480 0.090000 0.253298
#
# Coordination Sequence:
#
# PCOD8034844 Si02
#       8
#     2   2   2   2   2   2   2   2
#     4  12  27  46  75 106 142 195 242 298 365 435
#     4  11  25  44  74 103 142 192 241 294 361 423
#     4  12  28  44  72 110 149 185 244 305 356 429
#     4  12  29  46  75 108 151 187 243 297 365 427
#     4  12  22  48  76 105 139 193 243 298 354 435
#     4  12  27  46  75 108 147 188 244 299 363 422
#     4  11  24  46  72 105 142 189 238 297 358 428
#     4  12  25  48  74 102 149 195 242 290 370 434
#
# _framework density 22.482381
#
# number of rings (size 3 to 8) (size 9 to 14) (size 15 to 20)
#    0.000    0.250    5.000    2.625    7.000    1.000 
#    0.000    0.000    0.000    0.000    0.000    0.000 
#    0.000    0.000    0.000    0.000    0.000    0.000 
#
# Total GULP energy -198490.228640 kJ/mol
# GULP energy per Si atom -12405.639290 kJ/mol
# Density = 2.243121 g / cm^3
# Si number density = 22.482381 Si / 1000 Ang^3
#
#
#
# Elastic Constant Matrix: (Units=GPa)
#
#
# Indices 1 2 3 4 5 6 
#
# 1 111.4593 37.4966 36.9829 -12.1986 5.3819 2.6666
# 2 37.4966 130.4597 60.5586 5.9396 -7.6254 -12.0026
# 3 36.9829 60.5586 98.9974 4.7941 -9.0210 -6.1548
# 4 -12.1986 5.9396 4.7941 34.8392 -5.6785 -6.6815
# 5 5.3819 -7.6254 -9.0210 -5.6785 56.5962 -4.8262
# 6 2.6666 -12.0026 -6.1548 -6.6815 -4.8262 38.1865
#
#
#
# Elastic Compliance Matrix: (Units=1/GPa)
#
#
# Indices 1 2 3 4 5 6 
#
# 1 0.011395 -0.002117 -0.003406 0.004277 -0.001608 -0.001465
# 2 -0.002117 0.011337 -0.005837 -0.001211 0.000905 0.002673
# 3 -0.003406 -0.005837 0.015250 -0.001847 0.001849 0.000772
# 4 0.004277 -0.001211 -0.001847 0.032070 0.002779 0.004986
# 5 -0.001608 0.000905 0.001849 0.002779 0.018821 0.003560
# 6 -0.001465 0.002673 0.000772 0.004986 0.003560 0.028576
#
#
# Mechanical properties :
#
#
# Convention : Reuss Voigt Hill
#
# Bulk Modulus (GPa) = 65.52549 67.88807 66.70678
# Shear Modulus (GPa) = 34.42136 39.64959 37.03548
#
# Velocity S-wave (km/s) = 3.91709 4.20406 4.06311
# Velocity P-wave (km/s) = 7.04746 7.33670 7.19353
#
# Compressibility (1/GPa) = 0.01526124
#
# Stress axis : x y z
#
# Youngs Moduli (GPa) = 87.75605 88.20540 65.57293
#
# Poissons Ratio (x) = 0.18677 0.22337
# Poissons Ratio (y) = 0.18582 0.38274
# Poissons Ratio (z) = 0.29893 0.51484
#
# Static dielectric constant tensor:
#      x y z
#    x 4.607190 0.130920 -0.185360 
#    y 0.130920 4.290220 -0.017050 
#    z -0.185360 -0.017050 4.065130 
# 
# 
# High freq. dielectric constant tensor:
#      x y z
#    x 1.905250 0.001130 -0.002770 
#    y 0.001130 1.899940 0.008550 
#    z -0.002770 0.008550 1.875890 
# 
# From -- ./inp_files/242688.got.cif
#   From: 2010.06.25/outbox.cif.g09.slc.cpg/sg2_122_cif.got.tgz:242688.got - 2010.06.27 13:26:56.
