data_PCOD8034512
_publ_section_title
;
Structure prediction by ZEFSAII (Michael W. Deem and Ramdas Pophale) SiO2 
 PCOD8034512
Probable space group: P -1
;
_chemical_formula_sum "Si O2"
_cell_formula_units_Z 16
_cell_length_a 9.891945
_cell_length_b 11.762573
_cell_length_c 8.868647
_cell_angle_alpha 80.601782
_cell_angle_beta 90.258509
_cell_angle_gamma 129.252880
_cell_volume 781.722217
_symmetry_space_group_name_H-M "P -1"
_symmetry_group_IT_number 2
_symmetry_cell_setting 'triclinic'
loop_
_space_group_symop_operation_xyz
x,y,z
-x,-y,-z
loop_
_atom_site_type_symbol
_atom_site_label
_atom_site_fract_x
_atom_site_fract_y
_atom_site_fract_z
Si Si1 0.168069 0.061717 0.581049
Si Si2 0.311000 0.892081 0.099438
Si Si3 0.030094 0.899239 0.931154
Si Si4 0.315907 0.420111 0.096877
Si Si5 0.149240 0.557922 0.107492
Si Si6 0.676415 0.055621 0.564957
Si Si7 0.312297 0.377660 0.458811
Si Si8 0.014789 0.388681 0.441477
O O1 0.264630 0.233660 0.573949
O O2 0.116073 0.969863 0.754192
O O3 0.291896 0.053230 0.477144
O O4 0.000000 0.000000 0.500000
O O5 0.242414 0.723117 0.135272
O O6 0.339381 0.955073 0.253326
O O7 0.168060 0.893950 0.018813
O O8 0.500000 0.000000 0.000000
O O9 0.843294 0.732744 0.954410
O O10 0.000000 0.000000 0.000000
O O11 0.294247 0.546759 0.050961
O O12 0.320155 0.376630 0.277999
O O13 0.500000 0.500000 0.000000
O O14 0.048163 0.430577 0.259746
O O15 0.000000 0.500000 0.000000
O O16 0.832921 0.223731 0.481778
O O17 0.500000 0.000000 0.500000
O O18 0.500000 0.500000 0.500000
O O19 0.173153 0.398427 0.509075
O O20 0.000000 0.500000 0.500000
#
# Coordination Sequence:
#
# PCOD8034512 Si02
#       8
#     2   2   2   2   2   2   2   2
#     4  12  23  48  72  95 143 185 232 286 336 409
#     4  12  28  45  70 106 139 182 230 284 349 411
#     4  12  27  45  71 104 141 183 230 286 346 407
#     4  11  26  45  68 105 137 178 230 279 344 413
#     4  11  24  46  71  96 141 180 222 284 344 405
#     4  12  27  45  72 103 138 183 232 283 347 408
#     4  11  27  43  71 101 134 182 231 280 341 402
#     4  11  24  45  69  99 135 176 232 278 335 410
#
# _framework density 20.467628999999999
#
# number of rings (size 3 to 8) (size 9 to 14) (size 15 to 20)
#    0.000    0.500    5.000    2.250    7.000    2.000 
#    0.000    0.000    0.000    0.000    0.000    0.000 
#    0.000    0.000    0.000    0.000    0.000    0.000 
#
# Total GULP energy -198402.726693 kJ/mol
# GULP energy per Si atom -12400.170418 kJ/mol
# Density = 2.042104 g / cm^3
# Si number density = 20.467629 Si / 1000 Ang^3
#
#
#
# Elastic Constant Matrix: (Units=GPa)
#
#
# Indices 1 2 3 4 5 6 
#
# 1 198.4381 81.1864 71.9703 5.8594 2.3459 3.7553
# 2 81.1864 129.6133 45.6771 -1.1666 8.8558 10.4734
# 3 71.9703 45.6771 122.5686 2.7353 4.9356 8.1497
# 4 5.8594 -1.1666 2.7353 38.1868 2.9372 0.9647
# 5 2.3459 8.8558 4.9356 2.9372 40.8485 5.4849
# 6 3.7553 10.4734 8.1497 0.9647 5.4849 50.5516
#
#
#
# Elastic Compliance Matrix: (Units=1/GPa)
#
#
# Indices 1 2 3 4 5 6 
#
# 1 0.007791 -0.003877 -0.003180 -0.001163 0.000770 0.000676
# 2 -0.003877 0.010995 -0.001671 0.001231 -0.001840 -0.001544
# 3 -0.003180 -0.001671 0.010750 -0.000260 -0.000590 -0.001082
# 4 -0.001163 0.001231 -0.000260 0.026588 -0.002025 -0.000414
# 5 0.000770 -0.001840 -0.000590 -0.002025 0.025360 -0.002294
# 6 0.000676 -0.001544 -0.001082 -0.000414 -0.002294 0.020483
#
#
# Mechanical properties :
#
#
# Convention : Reuss Voigt Hill
#
# Bulk Modulus (GPa) = 82.78909 94.25418 88.52163
# Shear Modulus (GPa) = 40.50194 42.70312 41.60253
#
# Velocity S-wave (km/s) = 4.45323 4.57264 4.51333
# Velocity P-wave (km/s) = 8.18403 8.60401 8.39665
#
# Compressibility (1/GPa) = 0.01207889
#
# Stress axis : x y z
#
# Youngs Moduli (GPa) = 128.34504 90.95451 93.02077
#
# Poissons Ratio (x) = 0.35267 0.29581
# Poissons Ratio (y) = 0.49764 0.15546
# Poissons Ratio (z) = 0.40815 0.15201
#
# Static dielectric constant tensor:
#      x y z
#    x 3.958850 0.134030 -0.165120 
#    y 0.134030 3.623110 0.067530 
#    z -0.165120 0.067530 4.065090 
# 
# 
# High freq. dielectric constant tensor:
#      x y z
#    x 1.823840 -0.003410 0.001720 
#    y -0.003410 1.815180 -0.000920 
#    z 0.001720 -0.000920 1.808800 
# 
# From -- ./inp_files/186829.got.cif
#   From: 2010.06.25/outbox.cif.g09.slc.cpg/sg2_94_cif.got.tgz:186829.got - 2010.06.27 13:26:56.
