data_PCOD8034014
_publ_section_title
;
Structure prediction by ZEFSAII (Michael W. Deem and Ramdas Pophale) SiO2 
 PCOD8034014
Probable space group: P -1
;
_chemical_formula_sum "Si O2"
_cell_formula_units_Z 16
_cell_length_a 12.106031
_cell_length_b 18.073875
_cell_length_c 9.558273
_cell_angle_alpha 97.746195
_cell_angle_beta 51.204876
_cell_angle_gamma 139.956025
_cell_volume 761.313186
_symmetry_space_group_name_H-M "P -1"
_symmetry_group_IT_number 2
_symmetry_cell_setting 'triclinic'
loop_
_space_group_symop_operation_xyz
x,y,z
-x,-y,-z
loop_
_atom_site_type_symbol
_atom_site_label
_atom_site_fract_x
_atom_site_fract_y
_atom_site_fract_z
Si Si1 0.397852 0.189810 0.589166
Si Si2 0.799106 0.627774 0.621109
Si Si3 0.262241 0.475611 0.065616
Si Si4 0.757007 0.375816 0.782044
Si Si5 0.479773 0.973749 0.171726
Si Si6 0.144919 0.463056 0.670281
Si Si7 0.795668 0.254505 0.153470
Si Si8 0.248718 0.058655 0.969063
O O1 0.624072 0.361838 0.490136
O O2 0.549597 0.205330 0.359608
O O3 0.306279 0.094812 0.767639
O O4 0.095922 0.089677 0.748047
O O5 0.725026 0.538528 0.784785
O O6 0.744516 0.560593 0.500037
O O7 0.128075 0.810822 0.441923
O O8 0.567505 0.588349 0.782422
O O9 0.254974 0.561340 0.084880
O O10 0.963109 0.307901 0.178602
O O11 0.430189 0.209526 0.936870
O O12 0.000000 0.500000 0.500000
O O13 0.839969 0.341955 0.798869
O O14 0.641466 0.971462 0.079129
O O15 0.636022 0.109485 0.175490
O O16 0.500000 0.000000 0.000000
O O17 0.064778 0.410231 0.881089
#
# Coordination Sequence:
#
# PCOD8034014 Si02
#       8
#     2   2   2   2   2   2   2   2
#     4  11  25  42  68 103 132 168 229 280 331 388
#     4  11  24  44  67  95 134 179 223 268 328 405
#     4  11  25  40  69 103 126 173 232 272 322 396
#     4  12  19  42  70  92 128 177 219 268 326 392
#     4  12  25  47  65  94 140 182 213 270 344 405
#     4  12  23  45  69  92 136 178 218 272 337 397
#     4  12  26  44  66 101 137 173 222 278 335 395
#     4  11  24  43  69  99 133 177 219 275 338 394
#
# _framework density 21.016317999999998
#
# number of rings (size 3 to 8) (size 9 to 14) (size 15 to 20)
#    0.000    0.500    6.250    1.125    3.500    3.500 
#    0.000    1.250    0.000    0.000    0.000    0.000 
#    0.000    0.000    0.000    0.000    0.000    0.000 
#
# Total GULP energy -198410.429546 kJ/mol
# GULP energy per Si atom -12400.651847 kJ/mol
# Density = 2.096848 g / cm^3
# Si number density = 21.016318 Si / 1000 Ang^3
#
#
#
# Elastic Constant Matrix: (Units=GPa)
#
#
# Indices 1 2 3 4 5 6 
#
# 1 74.3809 40.2841 50.7401 -1.0686 -19.9257 -5.7511
# 2 40.2841 144.3325 52.3952 10.7753 -22.3723 -1.1140
# 3 50.7401 52.3952 130.6511 9.1995 -28.0653 -6.0026
# 4 -1.0686 10.7753 9.1995 34.3819 2.7754 -2.5142
# 5 -19.9257 -22.3723 -28.0653 2.7754 40.1581 -1.0171
# 6 -5.7511 -1.1140 -6.0026 -2.5142 -1.0171 29.2293
#
#
#
# Elastic Compliance Matrix: (Units=1/GPa)
#
#
# Indices 1 2 3 4 5 6 
#
# 1 0.020595 -0.003162 -0.005903 0.003101 0.004197 0.003132
# 2 -0.003162 0.009003 -0.001707 -0.002715 0.002422 -0.000779
# 3 -0.005903 -0.001707 0.011910 -0.003132 0.004688 0.001113
# 4 0.003101 -0.002715 -0.003132 0.031392 -0.004272 0.002415
# 5 0.004197 0.002422 0.004688 -0.004272 0.031971 0.002626
# 6 0.003132 -0.000779 0.001113 0.002415 0.002626 0.035326
#
#
# Mechanical properties :
#
#
# Convention : Reuss Voigt Hill
#
# Bulk Modulus (GPa) = 50.09162 70.68927 60.39044
# Shear Modulus (GPa) = 29.69214 34.48354 32.08784
#
# Velocity S-wave (km/s) = 3.76282 4.05507 3.91168
# Velocity P-wave (km/s) = 6.53948 7.45877 7.01420
#
# Compressibility (1/GPa) = 0.01996342
#
# Stress axis : x y z
#
# Youngs Moduli (GPa) = 48.55625 111.07868 83.96487
#
# Poissons Ratio (x) = 0.35123 0.49565
# Poissons Ratio (y) = 0.15353 0.14330
# Poissons Ratio (z) = 0.28663 0.18958
#
# Static dielectric constant tensor:
#      x y z
#    x 3.926180 0.093700 -0.113380 
#    y 0.093700 3.762980 0.183440 
#    z -0.113380 0.183440 3.793580 
# 
# 
# High freq. dielectric constant tensor:
#      x y z
#    x 1.825860 0.002850 -0.008860 
#    y 0.002850 1.831000 0.004170 
#    z -0.008860 0.004170 1.825890 
# 
# From -- ./inp_files/185806.got.cif
#   From: 2010.06.25/outbox.cif.g09.slc.cpg/sg2_93_cif.got.tgz:185806.got - 2010.06.27 13:26:56.
