data_PCOD8034744
_publ_section_title
;
Structure prediction by ZEFSAII (Michael W. Deem and Ramdas Pophale) SiO2 
 PCOD8034744
Probable space group: P -1
;
_chemical_formula_sum "Si O2"
_cell_formula_units_Z 16
_cell_length_a 12.514275
_cell_length_b 6.895325
_cell_length_c 11.646343
_cell_angle_alpha 81.473744
_cell_angle_beta 99.669450
_cell_angle_gamma 128.360535
_cell_volume 775.556586
_symmetry_space_group_name_H-M "P -1"
_symmetry_group_IT_number 2
_symmetry_cell_setting 'triclinic'
loop_
_space_group_symop_operation_xyz
x,y,z
-x,-y,-z
loop_
_atom_site_type_symbol
_atom_site_label
_atom_site_fract_x
_atom_site_fract_y
_atom_site_fract_z
Si Si1 0.616554 0.285594 0.010696
Si Si2 0.675762 0.630691 0.794994
Si Si3 0.913894 0.090845 0.933316
Si Si4 0.126251 0.289996 0.366715
Si Si5 0.123678 0.257257 0.633365
Si Si6 0.613539 0.572633 0.190861
Si Si7 0.983521 0.512085 0.277840
Si Si8 0.217082 0.874479 0.877938
O O1 0.581964 0.416957 0.083735
O O2 0.746213 0.310022 0.076163
O O3 0.650557 0.407191 0.881888
O O4 0.500000 0.000000 0.000000
O O5 0.773378 0.878697 0.864202
O O6 0.743611 0.644162 0.686047
O O7 0.528959 0.574970 0.750523
O O8 0.993879 0.318726 0.840455
O O9 0.884188 0.174222 0.035845
O O10 0.000000 0.000000 0.000000
O O11 0.157101 0.268332 0.505118
O O12 0.111231 0.510304 0.331672
O O13 0.990065 0.025712 0.321318
O O14 0.264318 0.386984 0.717402
O O15 0.061669 0.406489 0.629106
O O16 0.653724 0.837125 0.135813
O O17 0.863850 0.225252 0.248508
#
# Coordination Sequence:
#
# PCOD8034744 Si02
#       8
#     2   2   2   2   2   2   2   2
#     4  12  23  40  65  95 135 179 212 257 333 410
#     4  12  24  42  66  99 137 174 214 273 337 392
#     4  12  23  39  63 100 142 174 213 273 333 396
#     4  11  25  44  70  95 129 178 228 281 328 383
#     4  11  24  46  68  95 130 176 230 280 329 383
#     4  12  24  43  66  96 139 170 217 273 332 399
#     4  12  22  42  69  96 129 175 229 271 329 397
#     4  12  22  38  63  96 133 177 209 262 335 397
#
# _framework density 20.630344999999998
#
# number of rings (size 3 to 8) (size 9 to 14) (size 15 to 20)
#    0.000    0.250    6.250    4.875    0.000    0.500 
#    0.000    0.000    0.000    2.250    0.000    0.000 
#    0.000    0.000    0.000    0.000    0.000    0.000 
#
# Total GULP energy -198387.475478 kJ/mol
# GULP energy per Si atom -12399.217217 kJ/mol
# Density = 2.058339 g / cm^3
# Si number density = 20.630345 Si / 1000 Ang^3
#
#
#
# Elastic Constant Matrix: (Units=GPa)
#
#
# Indices 1 2 3 4 5 6 
#
# 1 134.2200 32.4934 38.7559 -3.8555 -19.5521 -3.7501
# 2 32.4934 106.3337 33.9497 5.4383 -8.8169 2.0640
# 3 38.7559 33.9497 82.6493 0.5560 -22.6478 2.7886
# 4 -3.8555 5.4383 0.5560 29.5342 -2.3922 0.8061
# 5 -19.5521 -8.8169 -22.6478 -2.3922 36.9645 1.2375
# 6 -3.7501 2.0640 2.7886 0.8061 1.2375 37.9770
#
#
#
# Elastic Compliance Matrix: (Units=1/GPa)
#
#
# Indices 1 2 3 4 5 6 
#
# 1 0.009193 -0.001775 -0.002875 0.001775 0.002756 0.001088
# 2 -0.001775 0.011280 -0.004000 -0.002289 -0.000833 -0.000419
# 3 -0.002875 -0.004000 0.017415 0.000750 0.008298 -0.001632
# 4 0.001775 -0.002289 0.000750 0.034767 0.003122 -0.000595
# 5 0.002756 -0.000833 0.008298 0.003122 0.033647 -0.001455
# 6 0.001088 -0.000419 -0.001632 -0.000595 -0.001455 0.026642
#
#
# Mechanical properties :
#
#
# Convention : Reuss Voigt Hill
#
# Bulk Modulus (GPa) = 48.57268 59.28900 53.93084
# Shear Modulus (GPa) = 31.82567 35.42875 33.62721
#
# Velocity S-wave (km/s) = 3.93194 4.14854 4.04169
# Velocity P-wave (km/s) = 6.64898 7.19363 6.92666
#
# Compressibility (1/GPa) = 0.02058770
#
# Stress axis : x y z
#
# Youngs Moduli (GPa) = 108.77643 88.65336 57.42336
#
# Poissons Ratio (x) = 0.15732 0.16511
# Poissons Ratio (y) = 0.19303 0.22970
# Poissons Ratio (z) = 0.31277 0.35462
#
# Static dielectric constant tensor:
#      x y z
#    x 4.036150 -0.139430 0.007100 
#    y -0.139430 3.907940 0.027520 
#    z 0.007100 0.027520 3.546810 
# 
# 
# High freq. dielectric constant tensor:
#      x y z
#    x 1.818270 -0.009630 -0.000070 
#    y -0.009630 1.817710 0.008630 
#    z -0.000070 0.008630 1.793030 
# 
# From -- ./inp_files/77800.got.cif
#   From: 2010.06.25/outbox.cif.g09.slc.cpg/sg2_39_cif.got.tgz:77800.got - 2010.06.27 13:26:56.
