data_PCOD8034864
_publ_section_title
;
Structure prediction by ZEFSAII (Michael W. Deem and Ramdas Pophale) SiO2 
 PCOD8034864
Probable space group: P -1
;
_chemical_formula_sum "Si O2"
_cell_formula_units_Z 16
_cell_length_a 11.391504
_cell_length_b 18.163491
_cell_length_c 24.695455
_cell_angle_alpha 162.446798
_cell_angle_beta 28.249984
_cell_angle_gamma 143.061535
_cell_volume 699.295080
_symmetry_space_group_name_H-M "P -1"
_symmetry_group_IT_number 2
_symmetry_cell_setting 'triclinic'
loop_
_space_group_symop_operation_xyz
x,y,z
-x,-y,-z
loop_
_atom_site_type_symbol
_atom_site_label
_atom_site_fract_x
_atom_site_fract_y
_atom_site_fract_z
Si Si1 0.443939 0.362084 0.316083
Si Si2 0.230173 0.888064 0.085102
Si Si3 0.859192 0.506050 0.310220
Si Si4 0.979977 0.722775 0.801334
Si Si5 0.602040 0.746872 0.127156
Si Si6 0.377011 0.935481 0.558554
Si Si7 0.763572 0.036403 0.662506
Si Si8 0.441478 0.651983 0.941145
O O1 0.613503 0.401419 0.326429
O O2 0.186154 0.601011 0.584831
O O3 0.363987 0.109006 0.179457
O O4 0.614308 0.344714 0.180141
O O5 0.252835 0.805482 0.079774
O O6 0.931337 0.979141 0.255149
O O7 0.945185 0.470206 0.312946
O O8 0.791884 0.800079 0.525543
O O9 0.090003 0.341810 0.063900
O O10 0.695413 0.746925 0.912212
O O11 0.000000 0.000000 0.000000
O O12 0.514204 0.927091 0.341033
O O13 0.492162 0.913411 0.235265
O O14 0.500000 0.500000 0.000000
O O15 0.479437 0.635071 0.311803
O O16 0.500000 0.000000 0.500000
O O17 0.000000 0.000000 0.500000
O O18 0.725073 0.286517 0.892076
#
# Coordination Sequence:
#
# PCOD8034864 Si02
#       8
#     2   2   2   2   2   2   2   2
#     4  11  24  46  73 102 150 195 244 306 372 445
#     4  11  26  49  72 106 149 194 243 308 378 443
#     4  12  25  45  75 105 153 190 258 305 373 441
#     4  12  25  45  74 110 147 199 251 312 375 441
#     4  12  26  49  76 107 147 195 252 308 368 445
#     4  12  29  48  76 107 151 195 246 313 376 443
#     4  12  27  45  77 108 148 201 248 306 371 444
#     4  12  27  47  74 108 150 192 251 304 377 443
#
# _framework density 22.880185000000001
#
# number of rings (size 3 to 8) (size 9 to 14) (size 15 to 20)
#    0.000    0.250    5.000    3.375    3.500    1.000 
#    0.000    0.000    0.000    0.000    0.000    0.000 
#    0.000    0.000    0.000    0.000    0.000    0.000 
#
# Total GULP energy -198433.172771 kJ/mol
# GULP energy per Si atom -12402.073298 kJ/mol
# Density = 2.282811 g / cm^3
# Si number density = 22.880185 Si / 1000 Ang^3
#
#
#
# Elastic Constant Matrix: (Units=GPa)
#
#
# Indices 1 2 3 4 5 6 
#
# 1 111.9228 21.1064 44.1624 15.4018 11.6176 -14.7256
# 2 21.1064 81.3142 38.7845 7.9981 3.2862 -0.0114
# 3 44.1624 38.7845 166.0136 -3.9449 20.0790 -6.2733
# 4 15.4018 7.9981 -3.9449 43.8978 -3.1490 2.4420
# 5 11.6176 3.2862 20.0790 -3.1490 45.5129 1.0989
# 6 -14.7256 -0.0114 -6.2733 2.4420 1.0989 37.5772
#
#
#
# Elastic Compliance Matrix: (Units=1/GPa)
#
#
# Indices 1 2 3 4 5 6 
#
# 1 0.011576 -0.001312 -0.002443 -0.004449 -0.002198 0.004482
# 2 -0.001312 0.014355 -0.003161 -0.002349 0.000552 -0.000901
# 3 -0.002443 -0.003161 0.007765 0.001940 -0.002446 0.000283
# 4 -0.004449 -0.002349 0.001940 0.025281 0.002274 -0.003130
# 5 -0.002198 0.000552 -0.002446 0.002274 0.023781 -0.002113
# 6 0.004482 -0.000901 0.000283 -0.003130 -0.002113 0.028680
#
#
# Mechanical properties :
#
#
# Convention : Reuss Voigt Hill
#
# Bulk Modulus (GPa) = 50.34663 63.03968 56.69316
# Shear Modulus (GPa) = 37.90956 42.41072 40.16014
#
# Velocity S-wave (km/s) = 4.07489 4.31002 4.19410
# Velocity P-wave (km/s) = 6.64769 7.23742 6.94882
#
# Compressibility (1/GPa) = 0.01986230
#
# Stress axis : x y z
#
# Youngs Moduli (GPa) = 86.38257 69.66177 128.78611
#
# Poissons Ratio (x) = 0.09142 0.31468
# Poissons Ratio (y) = 0.11336 0.40713
# Poissons Ratio (z) = 0.21107 0.22022
#
# Static dielectric constant tensor:
#      x y z
#    x 4.318500 0.171760 0.273790 
#    y 0.171760 4.296650 0.143420 
#    z 0.273790 0.143420 5.176980 
# 
# 
# High freq. dielectric constant tensor:
#      x y z
#    x 1.907550 0.003660 0.004260 
#    y 0.003660 1.895730 -0.011260 
#    z 0.004260 -0.011260 1.931330 
# 
# From -- ./inp_files/610785.got.cif
#   From: 2010.06.25/outbox.cif.g09.slc.cpg/sg2_306_cif.got.tgz:610785.got - 2010.06.27 13:26:56.
