data_PCOD8034520
_publ_section_title
;
Structure prediction by ZEFSAII (Michael W. Deem and Ramdas Pophale) SiO2 
 PCOD8034520
Probable space group: P -1
;
_chemical_formula_sum "Si O2"
_cell_formula_units_Z 12
_cell_length_a 11.155625
_cell_length_b 9.775865
_cell_length_c 11.401375
_cell_angle_alpha 58.002511
_cell_angle_beta 139.938370
_cell_angle_gamma 140.956430
_cell_volume 497.662448
_symmetry_space_group_name_H-M "P -1"
_symmetry_group_IT_number 2
_symmetry_cell_setting 'triclinic'
loop_
_space_group_symop_operation_xyz
x,y,z
-x,-y,-z
loop_
_atom_site_type_symbol
_atom_site_label
_atom_site_fract_x
_atom_site_fract_y
_atom_site_fract_z
Si Si1 0.251713 0.750086 0.565586
Si Si2 0.698662 0.842372 0.954633
Si Si3 0.018335 0.751725 0.174233
Si Si4 0.659810 0.886565 0.402645
Si Si5 0.851588 0.011986 0.237911
Si Si6 0.919487 0.508237 0.809863
O O1 0.459824 0.731320 0.741060
O O2 0.242656 0.851025 0.392965
O O3 0.000000 0.500000 0.500000
O O4 0.314319 0.907354 0.648008
O O5 0.912711 0.086844 0.952140
O O6 0.773668 0.695266 0.075944
O O7 0.665363 0.880446 0.047223
O O8 0.958867 0.542525 0.170477
O O9 0.388816 0.663919 0.349791
O O10 0.895654 0.943051 0.620551
O O11 0.689145 0.862014 0.297703
O O12 0.948629 0.247238 0.230712
O O13 0.000000 0.500000 0.000000
#
# Coordination Sequence:
#
# PCOD8034520 Si02
#       6
#     2   2   2   2   2   2
#     4  12  25  44  70 105 140 185 230 289 357 410
#     4  11  24  46  74  97 141 185 227 297 343 417
#     4  11  24  45  70 102 139 175 239 283 350 412
#     4  11  25  46  71 103 147 179 238 300 333 429
#     4  11  24  48  71 105 139 189 236 284 360 408
#     4  12  24  44  72 104 136 192 231 283 358 418
#
# _framework density 24.112731
#
# number of rings (size 3 to 8) (size 9 to 14) (size 15 to 20)
#    0.000    0.667    5.000    2.000    0.000    4.667 
#    9.000    0.000    0.000    0.000    0.000    0.000 
#    0.000    0.000    0.000    0.000    0.000    0.000 
#
# Total GULP energy -148738.713563 kJ/mol
# GULP energy per Si atom -12394.892797 kJ/mol
# Density = 2.405785 g / cm^3
# Si number density = 24.112731 Si / 1000 Ang^3
#
#
#
# Elastic Constant Matrix: (Units=GPa)
#
#
# Indices 1 2 3 4 5 6 
#
# 1 96.3513 30.4462 45.4910 1.0356 1.2916 -34.5489
# 2 30.4462 62.9167 3.5727 -2.8218 14.2535 -20.2751
# 3 45.4910 3.5727 145.1739 -12.7859 4.9769 -20.2314
# 4 1.0356 -2.8218 -12.7859 32.3350 -1.6926 -0.7145
# 5 1.2916 14.2535 4.9769 -1.6926 43.9487 -7.1353
# 6 -34.5489 -20.2751 -20.2314 -0.7145 -7.1353 28.9374
#
#
#
# Elastic Compliance Matrix: (Units=1/GPa)
#
#
# Indices 1 2 3 4 5 6 
#
# 1 0.020776 -0.004499 -0.003944 -0.001943 0.004459 0.019946
# 2 -0.004499 0.023045 0.002928 0.003270 -0.005680 0.011503
# 3 -0.003944 0.002928 0.008908 0.003919 -0.001142 0.003387
# 4 -0.001943 0.003270 0.003919 0.032925 0.000409 0.003625
# 5 0.004459 -0.005680 -0.001142 0.000409 0.025730 0.006900
# 6 0.019946 0.011503 0.003387 0.003625 0.006900 0.070590
#
#
# Mechanical properties :
#
#
# Convention : Reuss Voigt Hill
#
# Bulk Modulus (GPa) = 23.98067 51.49574 37.73821
# Shear Modulus (GPa) = 24.16586 36.03968 30.10277
#
# Velocity S-wave (km/s) = 3.16919 3.87024 3.53713
# Velocity P-wave (km/s) = 4.83307 6.43229 5.68915
#
# Compressibility (1/GPa) = 0.04170026
#
# Stress axis : x y z
#
# Youngs Moduli (GPa) = 48.13318 43.39305 112.25447
#
# Poissons Ratio (x) = 0.19523 0.44270
# Poissons Ratio (y) = 0.21656 -0.32873
# Poissons Ratio (z) = 0.18982 -0.12707
#
# Static dielectric constant tensor:
#      x y z
#    x 4.433970 -0.066030 0.188500 
#    y -0.066030 4.013320 -0.444120 
#    z 0.188500 -0.444120 4.905410 
# 
# 
# High freq. dielectric constant tensor:
#      x y z
#    x 1.960360 -0.011950 0.000790 
#    y -0.011950 1.946030 -0.009620 
#    z 0.000790 -0.009620 1.970770 
# 
# From -- ./inp_files/160788.got.cif
#   From: 2010.06.25/outbox.cif.g09.slc.cpg/sg2_81_cif.got.tgz:160788.got - 2010.06.27 13:26:56.
