data_PCOD8034237
_publ_section_title
;
Structure prediction by ZEFSAII (Michael W. Deem and Ramdas Pophale) SiO2 
 PCOD8034237
Probable space group: P -1
;
_chemical_formula_sum "Si O2"
_cell_formula_units_Z 16
_cell_length_a 11.990376
_cell_length_b 16.220740
_cell_length_c 8.498280
_cell_angle_alpha 122.398216
_cell_angle_beta 96.100208
_cell_angle_gamma 39.538670
_cell_volume 729.326683
_symmetry_space_group_name_H-M "P -1"
_symmetry_group_IT_number 2
_symmetry_cell_setting 'triclinic'
loop_
_space_group_symop_operation_xyz
x,y,z
-x,-y,-z
loop_
_atom_site_type_symbol
_atom_site_label
_atom_site_fract_x
_atom_site_fract_y
_atom_site_fract_z
Si Si1 0.906659 0.934390 0.022221
Si Si2 0.699468 0.939247 0.225750
Si Si3 0.546549 0.714876 0.857810
Si Si4 0.024685 0.940101 0.616195
Si Si5 0.233027 0.233855 0.400406
Si Si6 0.129037 0.365571 0.194428
Si Si7 0.692411 0.015586 0.652297
Si Si8 0.711850 0.382627 0.487922
O O1 0.859810 0.890032 0.105099
O O2 0.681869 0.125134 0.099295
O O3 0.002722 0.957543 0.149318
O O4 0.087910 0.765779 0.755043
O O5 0.471801 0.096534 0.269328
O O6 0.653301 0.013289 0.467087
O O7 0.803775 0.753584 0.062747
O O8 0.703445 0.676673 0.763259
O O9 0.670840 0.521192 0.687439
O O10 0.520788 0.779485 0.095894
O O11 0.247107 0.719001 0.459076
O O12 0.855362 0.982029 0.659217
O O13 0.000000 0.000000 0.500000
O O14 0.121404 0.300476 0.281266
O O15 0.226058 0.136330 0.389104
O O16 0.095435 0.417612 0.661264
O O17 0.500000 0.500000 0.500000
#
# Coordination Sequence:
#
# PCOD8034237 Si02
#       8
#     2   2   2   2   2   2   2   2
#     4  12  25  46  78 102 142 187 241 297 357 424
#     4  12  25  45  68 106 143 185 234 289 357 426
#     4  12  24  45  74 106 138 186 242 295 352 430
#     4  12  25  49  71 104 146 186 232 302 366 417
#     4  11  24  44  69 104 140 188 235 291 348 424
#     4  11  25  41  71 104 141 184 238 290 349 422
#     4  12  25  46  72  99 146 190 231 290 362 425
#     4  12  26  46  78 108 137 188 250 294 350 431
#
# _framework density 21.938041999999999
#
# number of rings (size 3 to 8) (size 9 to 14) (size 15 to 20)
#    0.000    0.250    6.250    3.375    3.500    0.500 
#    2.250    3.750    0.000    0.000    0.000    0.000 
#    0.000    0.000    0.000    0.000    0.000    0.000 
#
# Total GULP energy -198285.173370 kJ/mol
# GULP energy per Si atom -12392.823336 kJ/mol
# Density = 2.188811 g / cm^3
# Si number density = 21.938042 Si / 1000 Ang^3
#
#
#
# Elastic Constant Matrix: (Units=GPa)
#
#
# Indices 1 2 3 4 5 6 
#
# 1 114.6412 38.2695 38.8977 6.5935 12.2203 16.8347
# 2 38.2695 75.1357 52.3393 4.3212 4.0455 34.5048
# 3 38.8977 52.3393 164.5299 12.2693 29.9641 17.7292
# 4 6.5935 4.3212 12.2693 40.5463 -1.1972 -0.6793
# 5 12.2203 4.0455 29.9641 -1.1972 45.4694 1.9149
# 6 16.8347 34.5048 17.7292 -0.6793 1.9149 31.8935
#
#
#
# Elastic Compliance Matrix: (Units=1/GPa)
#
#
# Indices 1 2 3 4 5 6 
#
# 1 0.010859 -0.005068 -0.000486 -0.001141 -0.002182 0.000128
# 2 -0.005068 0.035530 -0.007374 -0.001137 0.004376 -0.031953
# 3 -0.000486 -0.007374 0.009349 -0.002073 -0.005569 0.003327
# 4 -0.001141 -0.001137 -0.002073 0.025722 0.002308 0.003394
# 5 -0.002182 0.004376 -0.005569 0.002308 0.026005 -0.001999
# 6 0.000128 -0.031953 0.003327 0.003394 -0.001999 0.064198
#
#
# Mechanical properties :
#
#
# Convention : Reuss Voigt Hill
#
# Bulk Modulus (GPa) = 33.46411 68.14662 50.80537
# Shear Modulus (GPa) = 24.09876 38.56854 31.33365
#
# Velocity S-wave (km/s) = 3.31795 4.19748 3.78336
# Velocity P-wave (km/s) = 5.47406 7.39070 6.50338
#
# Compressibility (1/GPa) = 0.02988276
#
# Stress axis : x y z
#
# Youngs Moduli (GPa) = 92.08879 28.14495 106.96627
#
# Poissons Ratio (x) = 0.14263 0.05203
# Poissons Ratio (y) = 0.46668 0.78872
# Poissons Ratio (z) = 0.04479 0.20753
#
# Static dielectric constant tensor:
#      x y z
#    x 4.276450 -0.497800 -1.293850 
#    y -0.497800 2.002940 -0.745560 
#    z -1.293850 -0.745560 10.375490 
# 
# 
# High freq. dielectric constant tensor:
#      x y z
#    x 1.885690 0.002210 0.008040 
#    y 0.002210 1.846330 0.006250 
#    z 0.008040 0.006250 1.871220 
# 
# From -- ./inp_files/279887.got.cif
#   From: 2010.06.25/outbox.cif.g09.slc.cpg/sg2_140_cif.got.tgz:279887.got - 2010.06.27 13:26:56.
