data_PCOD8034886
_publ_section_title
;
Structure prediction by ZEFSAII (Michael W. Deem and Ramdas Pophale) SiO2 
 PCOD8034886
Probable space group: P -1
;
_chemical_formula_sum "Si O2"
_cell_formula_units_Z 16
_cell_length_a 18.527704
_cell_length_b 21.719264
_cell_length_c 9.295970
_cell_angle_alpha 143.266257
_cell_angle_beta 34.358106
_cell_angle_gamma 161.882464
_cell_volume 653.476241
_symmetry_space_group_name_H-M "P -1"
_symmetry_group_IT_number 2
_symmetry_cell_setting 'triclinic'
loop_
_space_group_symop_operation_xyz
x,y,z
-x,-y,-z
loop_
_atom_site_type_symbol
_atom_site_label
_atom_site_fract_x
_atom_site_fract_y
_atom_site_fract_z
Si Si1 0.552984 0.398154 0.679548
Si Si2 0.376476 0.160975 0.966447
Si Si3 0.145921 0.243159 0.956543
Si Si4 0.211696 0.639191 0.143916
Si Si5 0.095763 0.337880 0.652033
Si Si6 0.230283 0.274977 0.542885
Si Si7 0.630851 0.067976 0.763893
Si Si8 0.305353 0.667146 0.481198
O O1 0.261749 0.223967 0.816188
O O2 0.654999 0.504846 0.556091
O O3 0.603124 0.312967 0.475284
O O4 0.688716 0.547833 0.870605
O O5 0.527612 0.198760 0.903895
O O6 0.580058 0.328963 0.823634
O O7 0.236611 0.161188 0.269374
O O8 0.142969 0.937321 0.864613
O O9 0.143509 0.227111 0.758593
O O10 0.277807 0.764417 0.145623
O O11 0.993793 0.534320 0.410278
O O12 0.095639 0.453622 0.929830
O O13 0.062860 0.231195 0.632561
O O14 0.873802 0.168773 0.588822
O O15 0.500000 0.500000 0.500000
O O16 0.436724 0.868429 0.614047
O O17 0.500000 0.000000 0.000000
#
# Coordination Sequence:
#
# PCOD8034886 Si02
#       8
#     2   2   2   2   2   2   2   2
#     4  11  24  46  74 103 151 189 242 304 369 429
#     4  12  28  46  72 109 148 191 246 302 368 443
#     4  11  26  46  72 109 146 195 242 306 367 440
#     4  12  26  49  73 105 155 192 243 302 364 436
#     4  12  24  46  76 108 149 191 243 306 363 437
#     4  12  24  46  74 107 145 192 238 297 383 431
#     4  12  26  45  74 110 140 199 251 294 360 435
#     4  12  27  48  72 108 148 197 246 302 365 430
#
# _framework density 24.484438999999998
#
# number of rings (size 3 to 8) (size 9 to 14) (size 15 to 20)
#    0.000    0.250    5.000    3.375    5.250    1.000 
#    0.000    0.000    0.000    0.000    0.000    0.000 
#    0.000    0.000    0.000    0.000    0.000    0.000 
#
# Total GULP energy -198299.219726 kJ/mol
# GULP energy per Si atom -12393.701233 kJ/mol
# Density = 2.442871 g / cm^3
# Si number density = 24.484439 Si / 1000 Ang^3
#
#
#
# Elastic Constant Matrix: (Units=GPa)
#
#
# Indices 1 2 3 4 5 6 
#
# 1 160.2590 57.3412 42.2780 -4.8563 -15.8045 7.4690
# 2 57.3412 124.2887 32.4239 -19.3088 -8.0807 17.6404
# 3 42.2780 32.4239 84.5022 -15.5118 7.6566 -9.2854
# 4 -4.8563 -19.3088 -15.5118 33.8457 0.2865 1.9707
# 5 -15.8045 -8.0807 7.6566 0.2865 39.7941 -7.3334
# 6 7.4690 17.6404 -9.2854 1.9707 -7.3334 39.2535
#
#
#
# Elastic Compliance Matrix: (Units=1/GPa)
#
#
# Indices 1 2 3 4 5 6 
#
# 1 0.008669 -0.003030 -0.003967 -0.002306 0.003524 -0.000452
# 2 -0.003030 0.011807 -0.002692 0.005383 0.000658 -0.005514
# 3 -0.003967 -0.002692 0.016769 0.005338 -0.004498 0.004823
# 4 -0.002306 0.005383 0.005338 0.034907 -0.001612 -0.002771
# 5 0.003524 0.000658 -0.004498 -0.001612 0.028150 0.003310
# 6 -0.000452 -0.005514 0.004823 -0.002771 0.003310 0.029938
#
#
# Mechanical properties :
#
#
# Convention : Reuss Voigt Hill
#
# Bulk Modulus (GPa) = 55.96611 70.34843 63.15727
# Shear Modulus (GPa) = 32.13887 38.37913 35.25900
#
# Velocity S-wave (km/s) = 3.62695 3.96345 3.79893
# Velocity P-wave (km/s) = 6.35980 7.05262 6.71516
#
# Compressibility (1/GPa) = 0.01786796
#
# Stress axis : x y z
#
# Youngs Moduli (GPa) = 115.34983 84.69234 59.63272
#
# Poissons Ratio (x) = 0.25658 0.23658
# Poissons Ratio (y) = 0.34946 0.16054
# Poissons Ratio (z) = 0.45763 0.22800
#
# Static dielectric constant tensor:
#      x y z
#    x 4.524680 0.371660 0.215860 
#    y 0.371660 5.136320 -0.270150 
#    z 0.215860 -0.270150 4.490270 
# 
# 
# High freq. dielectric constant tensor:
#      x y z
#    x 1.978540 0.005520 -0.001670 
#    y 0.005520 1.977520 -0.013040 
#    z -0.001670 -0.013040 1.973970 
# 
# From -- ./inp_files/338184.got.cif
#   From: 2010.06.25/outbox.cif.g09.slc.cpg/sg2_170_cif.got.tgz:338184.got - 2010.06.27 13:26:56.
