data_PCOD8034949
_publ_section_title
;
Structure prediction by ZEFSAII (Michael W. Deem and Ramdas Pophale) SiO2 
 PCOD8034949
Probable space group: P -1
;
_chemical_formula_sum "Si O2"
_cell_formula_units_Z 12
_cell_length_a 11.736999
_cell_length_b 6.512888
_cell_length_c 12.853615
_cell_angle_alpha 119.821863
_cell_angle_beta 40.911154
_cell_angle_gamma 133.007686
_cell_volume 470.200587
_symmetry_space_group_name_H-M "P -1"
_symmetry_group_IT_number 2
_symmetry_cell_setting 'triclinic'
loop_
_space_group_symop_operation_xyz
x,y,z
-x,-y,-z
loop_
_atom_site_type_symbol
_atom_site_label
_atom_site_fract_x
_atom_site_fract_y
_atom_site_fract_z
Si Si1 0.504199 0.067343 0.676820
Si Si2 0.049332 0.176865 0.822530
Si Si3 0.959652 0.126921 0.658805
Si Si4 0.466321 0.403385 0.118697
Si Si5 0.150709 0.753875 0.681606
Si Si6 0.312171 0.708486 0.900076
O O1 0.531788 0.368101 0.749627
O O2 0.690858 0.109448 0.489154
O O3 0.282731 0.836713 0.718527
O O4 0.509531 0.942287 0.754757
O O5 0.125906 0.205332 0.656678
O O6 0.227880 0.413199 0.828707
O O7 0.847181 0.192566 0.966390
O O8 0.005989 0.880839 0.820761
O O9 0.986904 0.425007 0.690307
O O10 0.745687 0.894699 0.800558
O O11 0.000000 0.000000 0.500000
O O12 0.630063 0.330785 0.032820
O O13 0.500000 0.500000 0.000000
#
# Coordination Sequence:
#
# PCOD8034949 Si02
#       6
#     2   2   2   2   2   2
#     4  11  24  46  81 116 152 209 263 318 388 474
#     4  11  26  47  79 117 156 205 263 319 387 473
#     4  12  27  49  75 119 158 204 257 330 399 453
#     4  12  28  52  79 115 160 205 263 332 398 462
#     4  11  25  47  80 118 157 203 265 320 388 468
#     4  11  26  50  81 112 156 211 263 317 393 474
#
# _framework density 25.521021000000001
#
# number of rings (size 3 to 8) (size 9 to 14) (size 15 to 20)
#    0.000    0.667    5.000    1.000    2.333    8.667 
#    0.000    0.833    0.000    0.000    0.000    0.000 
#    0.000    0.000    0.000    0.000    0.000    0.000 
#
# Total GULP energy -148702.262780 kJ/mol
# GULP energy per Si atom -12391.855232 kJ/mol
# Density = 2.546293 g / cm^3
# Si number density = 25.521021 Si / 1000 Ang^3
#
#
#
# Elastic Constant Matrix: (Units=GPa)
#
#
# Indices 1 2 3 4 5 6 
#
# 1 140.5006 63.2331 62.3171 -1.9427 19.8171 -22.6621
# 2 63.2331 220.1199 58.3822 13.5970 3.0802 -4.5947
# 3 62.3171 58.3822 95.8773 -6.6188 24.7385 -4.4063
# 4 -1.9427 13.5970 -6.6188 51.3786 -2.7376 9.9205
# 5 19.8171 3.0802 24.7385 -2.7376 34.9856 3.8314
# 6 -22.6621 -4.5947 -4.4063 9.9205 3.8314 44.7517
#
#
#
# Elastic Compliance Matrix: (Units=1/GPa)
#
#
# Indices 1 2 3 4 5 6 
#
# 1 0.011701 -0.001648 -0.005575 -0.001120 -0.003256 0.005734
# 2 -0.001648 0.005996 -0.003429 -0.001873 0.002725 -0.000375
# 3 -0.005575 -0.003429 0.018717 0.002828 -0.009427 -0.001152
# 4 -0.001120 -0.001873 0.002828 0.021362 0.001052 -0.005307
# 5 -0.003256 0.002725 -0.009427 0.001052 0.037565 -0.005747
# 6 0.005734 -0.000375 -0.001152 -0.005307 -0.005747 0.026766
#
#
# Mechanical properties :
#
#
# Convention : Reuss Voigt Hill
#
# Bulk Modulus (GPa) = 66.19158 91.59585 78.89371
# Shear Modulus (GPa) = 33.68207 44.39421 39.03814
#
# Velocity S-wave (km/s) = 3.63682 4.17527 3.91531
# Velocity P-wave (km/s) = 6.60512 7.69494 7.17077
#
# Compressibility (1/GPa) = 0.01510766
#
# Stress axis : x y z
#
# Youngs Moduli (GPa) = 85.46642 166.78442 53.42820
#
# Poissons Ratio (x) = 0.27486 0.29787
# Poissons Ratio (y) = 0.14085 0.18323
# Poissons Ratio (z) = 0.47649 0.57199
#
# Static dielectric constant tensor:
#      x y z
#    x 4.701920 0.081100 0.444010 
#    y 0.081100 5.027430 0.223700 
#    z 0.444010 0.223700 4.875960 
# 
# 
# High freq. dielectric constant tensor:
#      x y z
#    x 2.013190 0.001000 0.027130 
#    y 0.001000 2.050140 0.011550 
#    z 0.027130 0.011550 2.016320 
# 
# From -- ./inp_files/17675.got.cif
#   From: 2010.06.25/outbox.cif.g09.slc.cpg/sg2_9_cif.got.tgz:17675.got - 2010.06.27 13:26:56.
