data_PCOD8034312
_publ_section_title
;
Structure prediction by ZEFSAII (Michael W. Deem and Ramdas Pophale) SiO2 
 PCOD8034312
Probable space group: P -1
;
_chemical_formula_sum "Si O2"
_cell_formula_units_Z 14
_cell_length_a 12.005691
_cell_length_b 6.501962
_cell_length_c 7.523176
_cell_angle_alpha 86.722854
_cell_angle_beta 78.037307
_cell_angle_gamma 80.180514
_cell_volume 565.947912
_symmetry_space_group_name_H-M "P -1"
_symmetry_group_IT_number 2
_symmetry_cell_setting 'triclinic'
loop_
_space_group_symop_operation_xyz
x,y,z
-x,-y,-z
loop_
_atom_site_type_symbol
_atom_site_label
_atom_site_fract_x
_atom_site_fract_y
_atom_site_fract_z
Si Si1 0.953038 0.866064 0.867273
Si Si2 0.576587 0.483307 0.228672
Si Si3 0.233361 0.257049 0.819718
Si Si4 0.381033 0.919435 0.572803
Si Si5 0.566871 0.189702 0.931863
Si Si6 0.784528 0.128007 0.668587
Si Si7 0.100775 0.551225 0.587923
O O1 0.056053 0.696665 0.764845
O O2 0.905396 0.996989 0.700912
O O3 0.852540 0.757749 0.989054
O O4 0.000000 0.000000 0.000000
O O5 0.696956 0.562173 0.149020
O O6 0.479015 0.693209 0.246629
O O7 0.589575 0.334398 0.404844
O O8 0.534983 0.340704 0.098385
O O9 0.317618 0.036359 0.762979
O O10 0.165562 0.333612 0.656963
O O11 0.500000 0.000000 0.500000
O O12 0.289137 0.984835 0.442403
O O13 0.705123 0.144490 0.871066
O O14 0.500000 0.000000 0.000000
O O15 0.810505 0.343538 0.566177
O O16 0.000000 0.500000 0.500000
#
# Coordination Sequence:
#
# PCOD8034312 Si02
#       7
#     2   2   2   2   2   2   2
#     4  12  27  48  77 105 150 202 259 316 378 457
#     4  11  24  44  71 105 148 190 252 290 380 461
#     4  12  26  46  75 103 147 198 248 304 385 447
#     4  12  26  45  74 110 154 195 245 311 385 462
#     4  11  25  45  71 110 147 196 242 306 369 471
#     4  12  25  45  74 103 152 187 247 312 381 433
#     4  12  27  47  72 111 145 192 262 319 377 436
#
# _framework density 24.737262000000001
#
# number of rings (size 3 to 8) (size 9 to 14) (size 15 to 20)
#    0.000    0.286    1.429    7.714    6.000    2.286 
#    0.000    0.000    0.000    0.000    0.000    0.000 
#    0.000    0.000    0.000    0.000    0.000    0.000 
#
# Total GULP energy -173546.781488 kJ/mol
# GULP energy per Si atom -12396.198678 kJ/mol
# Density = 2.468096 g / cm^3
# Si number density = 24.737262 Si / 1000 Ang^3
#
#
#
# Elastic Constant Matrix: (Units=GPa)
#
#
# Indices 1 2 3 4 5 6 
#
# 1 123.4310 37.5848 23.2629 -7.6813 5.4120 22.0055
# 2 37.5848 104.3005 17.6065 -18.9422 6.4611 2.3631
# 3 23.2629 17.6065 79.7488 -18.1971 -1.7698 10.0360
# 4 -7.6813 -18.9422 -18.1971 41.5185 4.9816 4.7083
# 5 5.4120 6.4611 -1.7698 4.9816 58.3275 -2.6441
# 6 22.0055 2.3631 10.0360 4.7083 -2.6441 50.0928
#
#
#
# Elastic Compliance Matrix: (Units=1/GPa)
#
#
# Indices 1 2 3 4 5 6 
#
# 1 0.010168 -0.003188 -0.001720 0.000232 -0.000845 -0.004038
# 2 -0.003188 0.011764 -0.000715 0.004577 -0.001398 0.000485
# 3 -0.001720 -0.000715 0.014973 0.006231 0.000034 -0.002794
# 4 0.000232 0.004577 0.006231 0.029833 -0.003093 -0.004534
# 5 -0.000845 -0.001398 0.000034 -0.003093 0.017718 0.001656
# 6 -0.004038 0.000485 -0.002794 -0.004534 0.001656 0.022788
#
#
# Mechanical properties :
#
#
# Convention : Reuss Voigt Hill
#
# Bulk Modulus (GPa) = 38.97110 51.59875 45.28492
# Shear Modulus (GPa) = 39.35714 45.25615 42.30664
#
# Velocity S-wave (km/s) = 3.99307 4.28187 4.13999
# Velocity P-wave (km/s) = 6.08668 6.73424 6.41863
#
# Compressibility (1/GPa) = 0.02566004
#
# Stress axis : x y z
#
# Youngs Moduli (GPa) = 98.34827 85.00615 66.78645
#
# Poissons Ratio (x) = 0.27097 0.11486
# Poissons Ratio (y) = 0.31350 0.04775
# Poissons Ratio (z) = 0.16914 0.06078
#
# Static dielectric constant tensor:
#      x y z
#    x 4.731090 -0.301240 0.225420 
#    y -0.301240 4.800530 -0.282320 
#    z 0.225420 -0.282320 4.463200 
# 
# 
# High freq. dielectric constant tensor:
#      x y z
#    x 2.003940 -0.000370 0.010450 
#    y -0.000370 1.984650 -0.013840 
#    z 0.010450 -0.013840 1.991630 
# 
# From -- ./inp_files/26747.got.cif
#   From: 2010.06.25/outbox.cif.g09.slc.cpg/sg2_14_cif.got.tgz:26747.got - 2010.06.27 13:26:56.
