data_PCOD8034932
_publ_section_title
;
Structure prediction by ZEFSAII (Michael W. Deem and Ramdas Pophale) SiO2 
 PCOD8034932
Probable space group: P -1
;
_chemical_formula_sum "Si O2"
_cell_formula_units_Z 16
_cell_length_a 23.022745
_cell_length_b 12.281515
_cell_length_c 9.446628
_cell_angle_alpha 141.943408
_cell_angle_beta 133.750183
_cell_angle_gamma 26.186000
_cell_volume 725.486523
_symmetry_space_group_name_H-M "P -1"
_symmetry_group_IT_number 2
_symmetry_cell_setting 'triclinic'
loop_
_space_group_symop_operation_xyz
x,y,z
-x,-y,-z
loop_
_atom_site_type_symbol
_atom_site_label
_atom_site_fract_x
_atom_site_fract_y
_atom_site_fract_z
Si Si1 0.731966 0.928546 0.276283
Si Si2 0.580117 0.036807 0.672015
Si Si3 0.695270 0.407892 0.719075
Si Si4 0.884698 0.512892 0.681971
Si Si5 0.983432 0.013508 0.817011
Si Si6 0.496691 0.322382 0.101333
Si Si7 0.005244 0.670537 0.011560
Si Si8 0.458014 0.788534 0.527189
O O1 0.738716 0.128636 0.497364
O O2 0.639926 0.014352 0.083198
O O3 0.675155 0.931889 0.325770
O O4 0.877310 0.608983 0.170196
O O5 0.730340 0.739319 0.662432
O O6 0.500000 0.000000 0.500000
O O7 0.567887 0.146016 0.612448
O O8 0.500406 0.299144 0.915469
O O9 0.622697 0.577758 0.921838
O O10 0.592080 0.647640 0.666491
O O11 0.826948 0.293321 0.806721
O O12 0.954375 0.344941 0.776772
O O13 0.950458 0.281266 0.431645
O O14 0.896962 0.702279 0.866134
O O15 0.049605 0.062971 0.893471
O O16 0.000000 0.000000 0.000000
O O17 0.478505 0.550623 0.357822
#
# Coordination Sequence:
#
# PCOD8034932 Si02
#       8
#     2   2   2   2   2   2   2   2
#     4   9  17  40  68  97 127 174 224 271 335 395
#     4  12  26  40  61  96 139 169 216 280 331 396
#     4   9  20  41  68  96 134 165 226 278 325 413
#     4  11  27  50  66 103 140 180 237 272 340 416
#     4  12  28  44  70 105 136 176 229 291 343 400
#     4   9  19  40  64  95 131 171 220 266 332 399
#     4  11  24  46  76  94 136 194 221 283 339 407
#     4   9  21  37  69  96 127 179 214 275 331 395
#
# _framework density 22.054165000000001
#
# number of rings (size 3 to 8) (size 9 to 14) (size 15 to 20)
#    0.000    1.750    2.500    2.250    5.250    2.500 
#    2.250    2.500    0.000    0.000    0.000    0.000 
#    0.000    0.000    0.000    0.000    0.000    0.000 
#
# Total GULP energy -198303.845269 kJ/mol
# GULP energy per Si atom -12393.990329 kJ/mol
# Density = 2.200397 g / cm^3
# Si number density = 22.054165 Si / 1000 Ang^3
#
#
#
# Elastic Constant Matrix: (Units=GPa)
#
#
# Indices 1 2 3 4 5 6 
#
# 1 101.7170 21.4057 44.5936 -16.6889 -5.2325 4.4510
# 2 21.4057 60.1005 32.1551 -7.2216 -0.5009 -15.6729
# 3 44.5936 32.1551 96.6766 -16.4952 -28.6387 2.1796
# 4 -16.6889 -7.2216 -16.4952 22.9993 -2.6145 -4.0796
# 5 -5.2325 -0.5009 -28.6387 -2.6145 45.5202 -6.1788
# 6 4.4510 -15.6729 2.1796 -4.0796 -6.1788 43.5586
#
#
#
# Elastic Compliance Matrix: (Units=1/GPa)
#
#
# Indices 1 2 3 4 5 6 
#
# 1 0.013244 -0.001792 -0.005129 0.004914 -0.001647 -0.001515
# 2 -0.001792 0.024190 -0.008321 0.001463 -0.003884 0.008889
# 3 -0.005129 -0.008321 0.021102 0.010159 0.013081 -0.000719
# 4 0.004914 0.001463 0.010159 0.057201 0.011134 0.006453
# 5 -0.001647 -0.003884 0.013081 0.011134 0.031090 0.003569
# 6 -0.001515 0.008889 -0.000719 0.006453 0.003569 0.027457
#
#
# Mechanical properties :
#
#
# Convention : Reuss Voigt Hill
#
# Bulk Modulus (GPa) = 35.64551 50.53366 43.08958
# Shear Modulus (GPa) = 23.35161 33.10494 28.22828
#
# Velocity S-wave (km/s) = 3.25750 3.87857 3.58152
# Velocity P-wave (km/s) = 5.50874 6.55904 6.05670
#
# Compressibility (1/GPa) = 0.02805403
#
# Stress axis : x y z
#
# Youngs Moduli (GPa) = 75.50318 41.33894 47.38976
#
# Poissons Ratio (x) = 0.07406 0.24306
# Poissons Ratio (y) = 0.13526 0.39432
# Poissons Ratio (z) = 0.38725 0.34397
#
# Static dielectric constant tensor:
#      x y z
#    x 3.940990 -0.234090 0.025910 
#    y -0.234090 3.769220 0.018360 
#    z 0.025910 0.018360 3.987430 
# 
# 
# High freq. dielectric constant tensor:
#      x y z
#    x 1.874060 -0.012570 -0.010390 
#    y -0.012570 1.850490 -0.000180 
#    z -0.010390 -0.000180 1.873060 
# 
# From -- ./inp_files/283055.got.cif
#   From: 2010.06.25/outbox.cif.g09.slc.cpg/sg2_142_cif.got.tgz:283055.got - 2010.06.27 13:26:56.
