data_PCOD8034729
_publ_section_title
;
Structure prediction by ZEFSAII (Michael W. Deem and Ramdas Pophale) SiO2 
 PCOD8034729
Probable space group: P -1
;
_chemical_formula_sum "Si O2"
_cell_formula_units_Z 16
_cell_length_a 6.603941
_cell_length_b 14.324166
_cell_length_c 15.795329
_cell_angle_alpha 140.528484
_cell_angle_beta 51.442033
_cell_angle_gamma 128.905290
_cell_volume 709.589434
_symmetry_space_group_name_H-M "P -1"
_symmetry_group_IT_number 2
_symmetry_cell_setting 'triclinic'
loop_
_space_group_symop_operation_xyz
x,y,z
-x,-y,-z
loop_
_atom_site_type_symbol
_atom_site_label
_atom_site_fract_x
_atom_site_fract_y
_atom_site_fract_z
Si Si1 0.775800 0.441119 0.628632
Si Si2 0.263186 0.085870 0.043584
Si Si3 0.928902 0.352934 0.822173
Si Si4 0.621433 0.388784 0.443425
Si Si5 0.424273 0.611018 0.921428
Si Si6 0.252171 0.795083 0.398791
Si Si7 0.319599 0.087699 0.214695
Si Si8 0.127052 0.091751 0.676423
O O1 0.601500 0.408094 0.563848
O O2 0.612293 0.498770 0.785637
O O3 0.806961 0.279596 0.543407
O O4 0.059814 0.572899 0.634062
O O5 0.429256 0.964966 0.917892
O O6 0.437551 0.239111 0.061800
O O7 0.199385 0.133523 0.189585
O O8 0.000000 0.000000 0.000000
O O9 0.895338 0.336841 0.719852
O O10 0.128002 0.523900 0.900936
O O11 0.049964 0.218187 0.728638
O O12 0.637919 0.343480 0.935104
O O13 0.500000 0.500000 0.500000
O O14 0.439119 0.220943 0.345573
O O15 0.566863 0.845984 0.326409
O O16 0.120183 0.934084 0.519100
O O17 0.082989 0.949917 0.220529
#
# Coordination Sequence:
#
# PCOD8034729 Si02
#       8
#     2   2   2   2   2   2   2   2
#     4  11  25  44  68 109 137 175 235 285 346 412
#     4  11  25  45  67 102 135 179 224 281 344 411
#     4  11  25  46  69  99 137 186 230 287 341 409
#     4  11  25  45  71 102 139 182 228 287 347 411
#     4  11  24  46  69  98 142 179 232 281 345 413
#     4  11  26  42  72 101 137 183 226 294 343 403
#     4  11  25  42  71  97 134 181 225 279 345 410
#     4  11  24  46  66 104 135 178 239 278 346 413
#
# _framework density 22.548252999999999
#
# number of rings (size 3 to 8) (size 9 to 14) (size 15 to 20)
#    0.000    1.000    2.500    2.625    7.000    5.500 
#    0.000    0.000    0.000    0.000    0.000    0.000 
#    0.000    0.000    0.000    0.000    0.000    0.000 
#
# Total GULP energy -198320.781521 kJ/mol
# GULP energy per Si atom -12395.048845 kJ/mol
# Density = 2.249693 g / cm^3
# Si number density = 22.548253 Si / 1000 Ang^3
#
#
#
# Elastic Constant Matrix: (Units=GPa)
#
#
# Indices 1 2 3 4 5 6 
#
# 1 95.0393 47.6064 48.8374 -9.8492 18.4776 -1.4040
# 2 47.6064 130.5867 23.4618 3.5937 19.5661 0.4536
# 3 48.8374 23.4618 93.8682 -0.6963 5.3920 -6.9351
# 4 -9.8492 3.5937 -0.6963 34.9000 3.6579 -5.1939
# 5 18.4776 19.5661 5.3920 3.6579 39.2300 -2.4600
# 6 -1.4040 0.4536 -6.9351 -5.1939 -2.4600 32.5012
#
#
#
# Elastic Compliance Matrix: (Units=1/GPa)
#
#
# Indices 1 2 3 4 5 6 
#
# 1 0.018968 -0.004681 -0.008330 0.006252 -0.006059 -0.000352
# 2 -0.004681 0.009799 0.000052 -0.002192 -0.002540 -0.000871
# 3 -0.008330 0.000052 0.015036 -0.001881 0.002177 0.002712
# 4 0.006252 -0.002192 -0.001881 0.031744 -0.004261 0.004650
# 5 -0.006059 -0.002540 0.002177 -0.004261 0.029823 0.001814
# 6 -0.000352 -0.000871 0.002712 0.004650 0.001814 0.032224
#
#
# Mechanical properties :
#
#
# Convention : Reuss Voigt Hill
#
# Bulk Modulus (GPa) = 55.91849 62.14504 59.03177
# Shear Modulus (GPa) = 29.50281 34.63215 32.06748
#
# Velocity S-wave (km/s) = 3.62115 3.92332 3.77526
# Velocity P-wave (km/s) = 6.50668 6.93859 6.72610
#
# Compressibility (1/GPa) = 0.01788317
#
# Stress axis : x y z
#
# Youngs Moduli (GPa) = 52.71968 102.05181 66.50819
#
# Poissons Ratio (x) = 0.47774 0.55403
# Poissons Ratio (y) = 0.24680 -0.00344
# Poissons Ratio (z) = 0.43917 -0.00527
#
# Static dielectric constant tensor:
#      x y z
#    x 4.190280 0.182840 -0.056200 
#    y 0.182840 4.048390 0.365020 
#    z -0.056200 0.365020 3.683920 
# 
# 
# High freq. dielectric constant tensor:
#      x y z
#    x 1.882700 0.008730 -0.005820 
#    y 0.008730 1.902700 -0.001730 
#    z -0.005820 -0.001730 1.894370 
# 
# From -- ./inp_files/484434.got.cif
#   From: 2010.06.25/outbox.cif.g09.slc.cpg/sg2_243_cif.got.tgz:484434.got - 2010.06.27 13:26:56.
