data_PCOD8034506
_publ_section_title
;
Structure prediction by ZEFSAII (Michael W. Deem and Ramdas Pophale) SiO2 
 PCOD8034506
Probable space group: P -1
;
_chemical_formula_sum "Si O2"
_cell_formula_units_Z 16
_cell_length_a 18.003904
_cell_length_b 20.710361
_cell_length_c 9.293695
_cell_angle_alpha 37.526939
_cell_angle_beta 39.062781
_cell_angle_gamma 19.992639
_cell_volume 713.560863
_symmetry_space_group_name_H-M "P -1"
_symmetry_group_IT_number 2
_symmetry_cell_setting 'triclinic'
loop_
_space_group_symop_operation_xyz
x,y,z
-x,-y,-z
loop_
_atom_site_type_symbol
_atom_site_label
_atom_site_fract_x
_atom_site_fract_y
_atom_site_fract_z
Si Si1 0.057724 0.191328 0.460911
Si Si2 0.715175 0.875532 0.314233
Si Si3 0.269475 0.182204 0.943738
Si Si4 0.425549 0.750534 0.714755
Si Si5 0.716257 0.232066 0.391242
Si Si6 0.825650 0.032734 0.852298
Si Si7 0.893893 0.466981 0.473146
Si Si8 0.665737 0.332574 0.757888
O O1 0.971808 0.330686 0.470380
O O2 0.882522 0.238420 0.588823
O O3 0.271162 0.968502 0.595674
O O4 0.109316 0.217568 0.192710
O O5 0.698273 0.861073 0.197546
O O6 0.923295 0.659358 0.454867
O O7 0.500000 0.000000 0.500000
O O8 0.742157 0.980381 0.109552
O O9 0.158355 0.380056 0.788842
O O10 0.500000 0.000000 0.000000
O O11 0.417400 0.728432 0.598495
O O12 0.675264 0.589320 0.663667
O O13 0.349771 0.703576 0.995320
O O14 0.804749 0.072700 0.643948
O O15 0.550799 0.435742 0.363323
O O16 0.918548 0.146346 0.172422
O O17 0.672760 0.230578 0.817298
#
# Coordination Sequence:
#
# PCOD8034506 Si02
#       8
#     2   2   2   2   2   2   2   2
#     4  12  25  45  76 108 143 193 243 298 363 436
#     4  12  29  51  76 108 147 193 249 307 365 428
#     4  12  27  51  77 102 145 194 249 306 358 432
#     4  12  24  44  73 105 152 183 243 295 363 436
#     4  11  24  45  69 108 145 190 235 294 362 440
#     4  11  26  45  72 100 151 188 236 297 367 426
#     4  12  27  49  78 107 146 196 245 302 369 428
#     4  12  25  41  72 107 144 187 235 297 365 430
#
# _framework density 22.422753
#
# number of rings (size 3 to 8) (size 9 to 14) (size 15 to 20)
#    0.000    0.250    3.750    4.875    5.250    1.000 
#    4.500    0.000    0.000    0.000    0.000    0.000 
#    0.000    0.000    0.000    0.000    0.000    0.000 
#
# Total GULP energy -198517.969601 kJ/mol
# GULP energy per Si atom -12407.373100 kJ/mol
# Density = 2.237172 g / cm^3
# Si number density = 22.422753 Si / 1000 Ang^3
#
#
#
# Elastic Constant Matrix: (Units=GPa)
#
#
# Indices 1 2 3 4 5 6 
#
# 1 91.8539 46.8118 37.1888 -4.2594 -4.7272 -5.1621
# 2 46.8118 158.1908 57.6103 -2.6679 -14.9050 -5.1136
# 3 37.1888 57.6103 151.9517 8.2696 -17.4928 -13.5737
# 4 -4.2594 -2.6679 8.2696 44.4381 -1.2085 -2.8888
# 5 -4.7272 -14.9050 -17.4928 -1.2085 37.4294 -2.4298
# 6 -5.1621 -5.1136 -13.5737 -2.8888 -2.4298 42.4788
#
#
#
# Elastic Compliance Matrix: (Units=1/GPa)
#
#
# Indices 1 2 3 4 5 6 
#
# 1 0.013476 -0.003198 -0.002169 0.001531 -0.000495 0.000635
# 2 -0.003198 0.008244 -0.002153 0.000645 0.001898 0.000068
# 3 -0.002169 -0.002153 0.008565 -0.001703 0.002964 0.002268
# 4 0.001531 0.000645 -0.001703 0.023105 0.000486 0.001319
# 5 -0.000495 0.001898 0.002964 0.000486 0.028993 0.002807
# 6 0.000635 0.000068 0.002268 0.001319 0.002807 0.024601
#
#
# Mechanical properties :
#
#
# Convention : Reuss Voigt Hill
#
# Bulk Modulus (GPa) = 65.60164 76.13534 70.86849
# Shear Modulus (GPa) = 39.33698 42.22829 40.78263
#
# Velocity S-wave (km/s) = 4.19302 4.34438 4.26937
# Velocity P-wave (km/s) = 7.26375 7.69371 7.48182
#
# Compressibility (1/GPa) = 0.01524352
#
# Stress axis : x y z
#
# Youngs Moduli (GPa) = 74.20472 121.30016 116.75719
#
# Poissons Ratio (x) = 0.38794 0.25327
# Poissons Ratio (y) = 0.23732 0.25143
# Poissons Ratio (z) = 0.16096 0.26121
#
# Static dielectric constant tensor:
#      x y z
#    x 3.930880 0.001130 -0.035450 
#    y 0.001130 4.266570 -0.070630 
#    z -0.035450 -0.070630 4.269720 
# 
# 
# High freq. dielectric constant tensor:
#      x y z
#    x 1.884920 0.004050 -0.002210 
#    y 0.004050 1.899060 -0.002130 
#    z -0.002210 -0.002130 1.896090 
# 
# From -- ./inp_files/338072.got.cif
#   From: 2010.06.25/outbox.cif.g09.slc.cpg/sg2_170_cif.got.tgz:338072.got - 2010.06.27 13:26:56.
