data_PCOD8034438
_publ_section_title
;
Structure prediction by ZEFSAII (Michael W. Deem and Ramdas Pophale) SiO2 
 PCOD8034438
Probable space group: P -1
;
_chemical_formula_sum "Si O2"
_cell_formula_units_Z 14
_cell_length_a 9.447202
_cell_length_b 5.206690
_cell_length_c 13.358693
_cell_angle_alpha 107.790790
_cell_angle_beta 97.517403
_cell_angle_gamma 74.817811
_cell_volume 602.911846
_symmetry_space_group_name_H-M "P -1"
_symmetry_group_IT_number 2
_symmetry_cell_setting 'triclinic'
loop_
_space_group_symop_operation_xyz
x,y,z
-x,-y,-z
loop_
_atom_site_type_symbol
_atom_site_label
_atom_site_fract_x
_atom_site_fract_y
_atom_site_fract_z
Si Si1 0.695453 0.793455 0.367736
Si Si2 0.829383 0.503774 0.987059
Si Si3 0.889827 0.938539 0.564577
Si Si4 0.782296 0.460403 0.758322
Si Si5 0.545189 0.312957 0.282198
Si Si6 0.960480 0.349491 0.274890
Si Si7 0.244374 0.880864 0.891209
O O1 0.584104 0.598080 0.355095
O O2 0.833404 0.634394 0.293930
O O3 0.750105 0.864293 0.490280
O O4 0.616070 0.069872 0.335980
O O5 0.774767 0.386558 0.865716
O O6 0.784203 0.318941 0.047315
O O7 0.000000 0.500000 0.000000
O O8 0.744539 0.822434 0.032157
O O9 0.829684 0.189088 0.663757
O O10 0.000000 0.000000 0.500000
O O11 0.983673 0.688240 0.610057
O O12 0.629023 0.647941 0.727540
O O13 0.904706 0.638897 0.783038
O O14 0.602742 0.246201 0.166253
O O15 0.889792 0.100077 0.199013
#
# Coordination Sequence:
#
# PCOD8034438 Si02
#       7
#     2   2   2   2   2   2   2
#     4  11  25  48  74  99 147 192 235 283 366 421
#     4  12  25  44  73 109 135 187 238 300 342 420
#     4  12  25  45  76 108 138 188 245 302 350 416
#     4  12  29  43  73 109 145 178 250 295 348 425
#     4  11  28  48  70 108 147 193 228 294 358 436
#     4  11  24  44  76 105 137 187 244 298 341 427
#     4  11  24  46  73  98 148 187 230 283 372 412
#
# _framework density 23.220642000000002
#
# number of rings (size 3 to 8) (size 9 to 14) (size 15 to 20)
#    0.000    0.571    2.857    5.143    6.000    2.286 
#    0.000    0.000    0.000    0.000    0.000    0.000 
#    0.000    0.000    0.000    0.000    0.000    0.000 
#
# Total GULP energy -173648.435109 kJ/mol
# GULP energy per Si atom -12403.459651 kJ/mol
# Density = 2.316779 g / cm^3
# Si number density = 23.220642 Si / 1000 Ang^3
#
#
#
# Elastic Constant Matrix: (Units=GPa)
#
#
# Indices 1 2 3 4 5 6 
#
# 1 102.4596 22.8810 17.3942 2.6785 9.5366 -17.8367
# 2 22.8810 109.8415 40.1275 -13.3884 5.7440 7.7505
# 3 17.3942 40.1275 136.2061 6.7572 16.4595 -6.7167
# 4 2.6785 -13.3884 6.7572 46.1437 -3.2123 3.2015
# 5 9.5366 5.7440 16.4595 -3.2123 19.9020 -6.6866
# 6 -17.8367 7.7505 -6.7167 3.2015 -6.6866 24.9414
#
#
#
# Elastic Compliance Matrix: (Units=1/GPa)
#
#
# Indices 1 2 3 4 5 6 
#
# 1 0.012527 -0.003654 0.000386 -0.002696 -0.002374 0.009908
# 2 -0.003654 0.012468 -0.003772 0.004909 -0.000734 -0.008330
# 3 0.000386 -0.003772 0.009483 -0.003146 -0.006557 0.002648
# 4 -0.002696 0.004909 -0.003146 0.024449 0.004312 -0.006283
# 5 -0.002374 -0.000734 -0.006557 0.004312 0.062028 0.012841
# 6 0.009908 -0.008330 0.002648 -0.006283 0.012841 0.054730
#
#
# Mechanical properties :
#
#
# Convention : Reuss Voigt Hill
#
# Bulk Modulus (GPa) = 49.02705 56.59030 52.80868
# Shear Modulus (GPa) = 25.43704 36.07105 30.75404
#
# Velocity S-wave (km/s) = 3.31335 3.94560 3.64322
# Velocity P-wave (km/s) = 5.98307 6.72165 6.36309
#
# Compressibility (1/GPa) = 0.02039690
#
# Stress axis : x y z
#
# Youngs Moduli (GPa) = 79.83008 80.20718 105.45425
#
# Poissons Ratio (x) = 0.29308 -0.04070
# Poissons Ratio (y) = 0.29170 0.39778
# Poissons Ratio (z) = -0.03081 0.30254
#
# Static dielectric constant tensor:
#      x y z
#    x 4.314960 0.016170 0.093920 
#    y 0.016170 4.169800 0.119890 
#    z 0.093920 0.119890 4.764870 
# 
# 
# High freq. dielectric constant tensor:
#      x y z
#    x 1.913640 0.000190 0.001730 
#    y 0.000190 1.919710 0.003590 
#    z 0.001730 0.003590 1.932930 
# 
# From -- ./inp_files/101558.got.cif
#   From: 2010.06.25/outbox.cif.g09.slc.cpg/sg2_51_cif.got.tgz:101558.got - 2010.06.27 13:26:56.
