data_PCOD8034173
_publ_section_title
;
Structure prediction by ZEFSAII (Michael W. Deem and Ramdas Pophale) SiO2 
 PCOD8034173
Probable space group: P -1
;
_chemical_formula_sum "Si O2"
_cell_formula_units_Z 10
_cell_length_a 20.039430
_cell_length_b 6.777918
_cell_length_c 5.190236
_cell_angle_alpha 70.613501
_cell_angle_beta 64.713694
_cell_angle_gamma 44.785801
_cell_volume 448.577577
_symmetry_space_group_name_H-M "P -1"
_symmetry_group_IT_number 2
_symmetry_cell_setting 'triclinic'
loop_
_space_group_symop_operation_xyz
x,y,z
-x,-y,-z
loop_
_atom_site_type_symbol
_atom_site_label
_atom_site_fract_x
_atom_site_fract_y
_atom_site_fract_z
Si Si1 0.047856 0.073636 0.579520
Si Si2 0.214578 0.502324 0.773394
Si Si3 0.500677 0.354045 0.813246
Si Si4 0.341059 0.302122 0.154176
Si Si5 0.085384 0.389487 0.105179
O O1 0.118042 0.109285 0.301002
O O2 0.955892 0.369846 0.721913
O O3 0.116398 0.832328 0.782351
O O4 0.000000 0.000000 0.500000
O O5 0.291997 0.422218 0.462430
O O6 0.258788 0.443450 0.008806
O O7 0.181155 0.323481 0.853802
O O8 0.500000 0.500000 0.500000
O O9 0.597613 0.027695 0.801694
O O10 0.500000 0.500000 0.000000
O O11 0.405848 0.383419 0.954524
O O12 0.000000 0.500000 0.000000
#
# Coordination Sequence:
#
# PCOD8034173 Si02
#       5
#     2   2   2   2   2
#     4  11  24  44  65  93 137 190 234 284 341 389
#     4  12  25  44  69 101 143 174 233 288 330 399
#     4  11  24  49  76  97 139 178 214 274 360 415
#     4  11  27  45  68 109 135 171 227 285 336 416
#     4  11  25  42  66  94 136 189 237 275 336 400
#
# _framework density 22.292686
#
# number of rings (size 3 to 8) (size 9 to 14) (size 15 to 20)
#    0.000    0.800    2.000    4.200    5.600    8.000 
#    0.000    0.000    0.000    0.000    0.000    0.000 
#    0.000    0.000    0.000    0.000    0.000    0.000 
#
# Total GULP energy -124019.952704 kJ/mol
# GULP energy per Si atom -12401.995270 kJ/mol
# Density = 2.224195 g / cm^3
# Si number density = 22.292686 Si / 1000 Ang^3
#
#
#
# Elastic Constant Matrix: (Units=GPa)
#
#
# Indices 1 2 3 4 5 6 
#
# 1 132.7197 50.0914 35.9562 -22.6307 3.0800 5.9143
# 2 50.0914 98.4166 30.6657 -25.3355 -3.1201 11.7962
# 3 35.9562 30.6657 121.9318 -31.3086 -9.3229 11.7099
# 4 -22.6307 -25.3355 -31.3086 48.4984 6.6149 3.5268
# 5 3.0800 -3.1201 -9.3229 6.6149 46.2595 -1.7380
# 6 5.9143 11.7962 11.7099 3.5268 -1.7380 39.1736
#
#
#
# Elastic Compliance Matrix: (Units=1/GPa)
#
#
# Indices 1 2 3 4 5 6 
#
# 1 0.009832 -0.004153 -0.001555 0.001614 -0.001478 0.000020
# 2 -0.004153 0.014344 -0.000587 0.005440 0.000198 -0.003998
# 3 -0.001555 -0.000587 0.010754 0.005978 0.001253 -0.003286
# 4 0.001614 0.005440 0.005978 0.028937 -0.002914 -0.006403
# 5 -0.001478 0.000198 0.001253 -0.002914 0.022437 0.001047
# 6 0.000020 -0.003998 -0.003286 -0.006403 0.001047 0.028333
#
#
# Mechanical properties :
#
#
# Convention : Reuss Voigt Hill
#
# Bulk Modulus (GPa) = 44.76525 65.16608 54.96567
# Shear Modulus (GPa) = 37.12658 42.54328 39.83493
#
# Velocity S-wave (km/s) = 4.08538 4.37326 4.23177
# Velocity P-wave (km/s) = 6.50984 7.40243 6.97044
#
# Compressibility (1/GPa) = 0.02233876
#
# Stress axis : x y z
#
# Youngs Moduli (GPa) = 101.70524 69.71774 92.99001
#
# Poissons Ratio (x) = 0.28957 0.14463
# Poissons Ratio (y) = 0.42243 0.05456
# Poissons Ratio (z) = 0.15818 0.04091
#
# Static dielectric constant tensor:
#      x y z
#    x 4.092930 0.001000 -0.408610 
#    y 0.001000 4.330950 -0.367390 
#    z -0.408610 -0.367390 4.361550 
# 
# 
# High freq. dielectric constant tensor:
#      x y z
#    x 1.888930 0.010010 -0.005510 
#    y 0.010010 1.877330 -0.018040 
#    z -0.005510 -0.018040 1.900350 
# 
# From -- ./inp_files/2280.got.cif
#   From: 2010.06.25/outbox.cif.g09.slc.cpg/sg2_2_cif.got.tgz:2280.got - 2010.06.27 13:26:56.
