data_PCOD8034784
_publ_section_title
;
Structure prediction by ZEFSAII (Michael W. Deem and Ramdas Pophale) SiO2 
 PCOD8034784
Probable space group: P -1
;
_chemical_formula_sum "Si O2"
_cell_formula_units_Z 14
_cell_length_a 9.240015
_cell_length_b 9.026595
_cell_length_c 11.196564
_cell_angle_alpha 69.480951
_cell_angle_beta 58.857132
_cell_angle_gamma 50.347574
_cell_volume 615.085335
_symmetry_space_group_name_H-M "P -1"
_symmetry_group_IT_number 2
_symmetry_cell_setting 'triclinic'
loop_
_space_group_symop_operation_xyz
x,y,z
-x,-y,-z
loop_
_atom_site_type_symbol
_atom_site_label
_atom_site_fract_x
_atom_site_fract_y
_atom_site_fract_z
Si Si1 0.688665 0.314520 0.546832
Si Si2 0.883161 0.896100 0.087808
Si Si3 0.737512 0.856887 0.914698
Si Si4 0.515050 0.538988 0.782392
Si Si5 0.844956 0.891652 0.614730
Si Si6 0.235287 0.508760 0.077989
Si Si7 0.509802 0.881245 0.642651
O O1 0.500000 0.500000 0.500000
O O2 0.627889 0.350704 0.703413
O O3 0.912966 0.278246 0.456425
O O4 0.744846 0.105114 0.538396
O O5 0.020398 0.698048 0.157670
O O6 0.667618 0.005248 0.215505
O O7 0.864305 0.840112 0.979201
O O8 0.000000 0.000000 0.000000
O O9 0.804101 0.939476 0.758459
O O10 0.796253 0.651601 0.904723
O O11 0.500000 0.000000 0.000000
O O12 0.622056 0.548777 0.852562
O O13 0.490303 0.707714 0.660607
O O14 0.310181 0.566833 0.912195
O O15 0.725351 0.804079 0.637782
O O16 0.500000 0.000000 0.500000
#
# Coordination Sequence:
#
# PCOD8034784 Si02
#       7
#     2   2   2   2   2   2   2
#     4  11  27  46  72 105 151 198 243 304 381 455
#     4  12  27  45  76 110 144 195 248 311 372 444
#     4  12  24  47  72 101 146 185 251 305 367 442
#     4  11  24  46  70 104 144 189 247 304 369 438
#     4  11  26  47  72 106 146 196 244 308 377 435
#     4  11  25  44  74 104 141 192 251 311 368 433
#     4  12  26  47  72 108 150 189 245 304 371 453
#
# _framework density 22.76107
#
# number of rings (size 3 to 8) (size 9 to 14) (size 15 to 20)
#    0.000    0.571    4.286    2.143    8.000    4.000 
#    0.000    0.000    0.000    0.000    0.000    0.000 
#    0.000    0.000    0.000    0.000    0.000    0.000 
#
# Total GULP energy -173445.856707 kJ/mol
# GULP energy per Si atom -12388.989765 kJ/mol
# Density = 2.270926 g / cm^3
# Si number density = 22.761070 Si / 1000 Ang^3
#
#
#
# Elastic Constant Matrix: (Units=GPa)
#
#
# Indices 1 2 3 4 5 6 
#
# 1 101.6032 36.0972 30.2064 7.8717 -10.1403 -0.5875
# 2 36.0972 124.3472 7.1165 -0.9910 -7.8563 -11.2100
# 3 30.2064 7.1165 93.8088 -2.6344 1.4773 -13.8551
# 4 7.8717 -0.9910 -2.6344 40.5127 0.8782 -5.8559
# 5 -10.1403 -7.8563 1.4773 0.8782 32.9419 10.8666
# 6 -0.5875 -11.2100 -13.8551 -5.8559 10.8666 39.1945
#
#
#
# Elastic Compliance Matrix: (Units=1/GPa)
#
#
# Indices 1 2 3 4 5 6 
#
# 1 0.013392 -0.003730 -0.004889 -0.003780 0.005057 -0.004561
# 2 -0.003730 0.009365 0.001008 0.001486 -0.000061 0.003218
# 3 -0.004889 0.001008 0.013255 0.002858 -0.004064 0.006455
# 4 -0.003780 0.001486 0.002858 0.026647 -0.003760 0.006402
# 5 0.005057 -0.000061 -0.004064 -0.003760 0.036125 -0.011956
# 6 -0.004561 0.003218 0.006455 0.006402 -0.011956 0.032919
#
#
# Mechanical properties :
#
#
# Convention : Reuss Voigt Hill
#
# Bulk Modulus (GPa) = 48.09437 51.84438 49.96938
# Shear Modulus (GPa) = 32.49847 38.95242 35.72544
#
# Velocity S-wave (km/s) = 3.78274 4.14135 3.96610
# Velocity P-wave (km/s) = 6.34466 6.75979 6.55552
#
# Compressibility (1/GPa) = 0.02079245
#
# Stress axis : x y z
#
# Youngs Moduli (GPa) = 74.67227 106.78015 75.44215
#
# Poissons Ratio (x) = 0.39824 0.36881
# Poissons Ratio (y) = 0.27849 -0.07608
# Poissons Ratio (z) = 0.36505 -0.10768
#
# Static dielectric constant tensor:
#      x y z
#    x 3.993170 -0.181120 -0.006570 
#    y -0.181120 3.996560 -0.017420 
#    z -0.006570 -0.017420 4.325250 
# 
# 
# High freq. dielectric constant tensor:
#      x y z
#    x 1.905650 0.004550 -0.003370 
#    y 0.004550 1.905030 0.000340 
#    z -0.003370 0.000340 1.906230 
# 
# From -- ./inp_files/381594.got.cif
#   From: 2010.06.25/outbox.cif.g09.slc.cpg/sg2_191_cif.got.tgz:381594.got - 2010.06.27 13:26:56.
