data_PCOD8034919
_publ_section_title
;
Structure prediction by ZEFSAII (Michael W. Deem and Ramdas Pophale) SiO2 
 PCOD8034919
Probable space group: P -1
;
_chemical_formula_sum "Si O2"
_cell_formula_units_Z 16
_cell_length_a 8.254374
_cell_length_b 8.617553
_cell_length_c 11.965951
_cell_angle_alpha 75.329956
_cell_angle_beta 121.253579
_cell_angle_gamma 123.995898
_cell_volume 602.459549
_symmetry_space_group_name_H-M "P -1"
_symmetry_group_IT_number 2
_symmetry_cell_setting 'triclinic'
loop_
_space_group_symop_operation_xyz
x,y,z
-x,-y,-z
loop_
_atom_site_type_symbol
_atom_site_label
_atom_site_fract_x
_atom_site_fract_y
_atom_site_fract_z
Si Si1 0.988120 0.798160 0.078196
Si Si2 0.615355 0.945486 0.412971
Si Si3 0.756527 0.065500 0.077013
Si Si4 0.315529 0.239186 0.725935
Si Si5 0.518646 0.622478 0.840018
Si Si6 0.995474 0.659236 0.538076
Si Si7 0.076586 0.568259 0.804292
Si Si8 0.720911 0.946779 0.685967
O O1 0.047594 0.926631 0.188141
O O2 0.041676 0.633992 0.142933
O O3 0.149844 0.938045 0.012773
O O4 0.726609 0.709951 0.982207
O O5 0.555114 0.798379 0.318294
O O6 0.385245 0.921753 0.373330
O O7 0.766160 0.158001 0.385043
O O8 0.740552 0.910454 0.568133
O O9 0.897184 0.282503 0.121796
O O10 0.802469 0.942051 0.202889
O O11 0.500000 0.000000 0.000000
O O12 0.475752 0.420223 0.823987
O O13 0.140962 0.271933 0.592504
O O14 0.311380 0.610859 0.829872
O O15 0.573645 0.744698 0.725747
O O16 0.915473 0.569870 0.649325
O O17 0.000000 0.500000 0.500000
#
# Coordination Sequence:
#
# PCOD8034919 Si02
#       8
#     2   2   2   2   2   2   2   2
#     4  12  28  46  78 115 152 207 264 314 385 468
#     4  11  24  46  75 109 150 199 251 324 385 458
#     4  12  27  50  78 110 161 202 251 321 386 468
#     4  12  26  46  79 114 151 203 262 311 398 455
#     4  12  26  47  73 112 158 204 255 320 380 469
#     4  12  23  46  77 107 149 200 254 322 382 451
#     4  12  25  49  74 108 157 201 259 314 394 452
#     4  11  25  47  74 107 155 199 256 317 390 455
#
# _framework density 26.5578
#
# number of rings (size 3 to 8) (size 9 to 14) (size 15 to 20)
#    0.000    0.250    3.750    4.500    1.750    3.500 
#    0.000    0.000    0.000    0.000    0.000    0.000 
#    0.000    0.000    0.000    0.000    0.000    0.000 
#
# Total GULP energy -198363.744935 kJ/mol
# GULP energy per Si atom -12397.734058 kJ/mol
# Density = 2.649735 g / cm^3
# Si number density = 26.557800 Si / 1000 Ang^3
#
#
#
# Elastic Constant Matrix: (Units=GPa)
#
#
# Indices 1 2 3 4 5 6 
#
# 1 67.9401 2.5818 29.7160 9.4318 0.8750 -4.3868
# 2 2.5818 127.3043 39.9690 -9.0635 -8.3544 -12.1408
# 3 29.7160 39.9690 168.9740 -22.9607 -5.4934 3.3011
# 4 9.4318 -9.0635 -22.9607 60.8799 -7.1429 -2.5081
# 5 0.8750 -8.3544 -5.4934 -7.1429 44.3221 6.0483
# 6 -4.3868 -12.1408 3.3011 -2.5081 6.0483 31.0136
#
#
#
# Elastic Compliance Matrix: (Units=1/GPa)
#
#
# Indices 1 2 3 4 5 6 
#
# 1 0.017179 0.000763 -0.003876 -0.004087 -0.001765 0.003155
# 2 0.000763 0.009003 -0.002214 0.000658 0.001005 0.003725
# 3 -0.003876 -0.002214 0.007653 0.003233 0.001436 -0.002248
# 4 -0.004087 0.000658 0.003233 0.018807 0.003616 0.000151
# 5 -0.001765 0.001005 0.001436 0.003616 0.024151 -0.004426
# 6 0.003155 0.003725 -0.002248 0.000151 -0.004426 0.035263
#
#
# Mechanical properties :
#
#
# Convention : Reuss Voigt Hill
#
# Bulk Modulus (GPa) = 43.14037 56.52802 49.83419
# Shear Modulus (GPa) = 38.33236 46.70657 42.51947
#
# Velocity S-wave (km/s) = 3.80327 4.19821 4.00561
# Velocity P-wave (km/s) = 5.96370 6.69560 6.34022
#
# Compressibility (1/GPa) = 0.02318015
#
# Stress axis : x y z
#
# Youngs Moduli (GPa) = 58.21112 111.07346 130.66190
#
# Poissons Ratio (x) = -0.08470 0.50642
# Poissons Ratio (y) = -0.04439 0.28932
# Poissons Ratio (z) = 0.22561 0.24595
#
# Static dielectric constant tensor:
#      x y z
#    x 4.373160 0.190200 0.083050 
#    y 0.190200 4.569990 -0.092390 
#    z 0.083050 -0.092390 5.530040 
# 
# 
# High freq. dielectric constant tensor:
#      x y z
#    x 2.048340 -0.013800 -0.001680 
#    y -0.013800 2.077760 -0.010830 
#    z -0.001680 -0.010830 2.094820 
# 
# From -- ./inp_files/381801.got.cif
#   From: 2010.06.25/outbox.cif.g09.slc.cpg/sg2_191_cif.got.tgz:381801.got - 2010.06.27 13:26:56.
