data_PCOD8034554
_publ_section_title
;
Structure prediction by ZEFSAII (Michael W. Deem and Ramdas Pophale) SiO2 
 PCOD8034554
Probable space group: P -1
;
_chemical_formula_sum "Si O2"
_cell_formula_units_Z 16
_cell_length_a 15.591591
_cell_length_b 12.657170
_cell_length_c 11.804939
_cell_angle_alpha 78.070710
_cell_angle_beta 61.261928
_cell_angle_gamma 26.846223
_cell_volume 763.419907
_symmetry_space_group_name_H-M "P -1"
_symmetry_group_IT_number 2
_symmetry_cell_setting 'triclinic'
loop_
_space_group_symop_operation_xyz
x,y,z
-x,-y,-z
loop_
_atom_site_type_symbol
_atom_site_label
_atom_site_fract_x
_atom_site_fract_y
_atom_site_fract_z
Si Si1 0.862895 0.362797 0.177850
Si Si2 0.867102 0.595467 0.177066
Si Si3 0.122648 0.292961 0.309258
Si Si4 0.744156 0.304957 0.445029
Si Si5 0.730552 0.304839 0.705390
Si Si6 0.458696 0.755594 0.910887
Si Si7 0.451050 0.751398 0.172244
Si Si8 0.361305 0.222615 0.333811
O O1 0.759072 0.585185 0.231294
O O2 0.836192 0.313580 0.313700
O O3 0.703158 0.481126 0.147828
O O4 0.155597 0.074408 0.017010
O O5 0.075517 0.384568 0.191883
O O6 0.628698 0.914888 0.289543
O O7 0.000000 0.500000 0.000000
O O8 0.296205 0.203838 0.280950
O O9 0.851681 0.554615 0.484360
O O10 0.263371 0.034403 0.277158
O O11 0.500000 0.500000 0.500000
O O12 0.678045 0.410178 0.591674
O O13 0.973603 0.982300 0.379079
O O14 0.544082 0.550246 0.859897
O O15 0.692292 0.215691 0.744539
O O16 0.610979 0.687739 0.756638
O O17 0.540105 0.690504 0.003126
#
# Coordination Sequence:
#
# PCOD8034554 Si02
#       8
#     2   2   2   2   2   2   2   2
#     4  12  25  42  70 101 132 177 229 275 337 400
#     4  12  23  44  70  98 134 175 223 275 342 398
#     4  11  25  45  69  98 135 172 229 275 338 400
#     4  11  24  45  70  99 130 184 223 278 333 396
#     4  11  26  45  70  99 137 177 226 272 340 396
#     4  12  27  43  67 101 138 176 226 277 334 400
#     4  12  24  45  71  96 134 182 218 281 336 401
#     4  11  26  43  67 102 131 176 223 281 333 402
#
# _framework density 20.958321999999999
#
# number of rings (size 3 to 8) (size 9 to 14) (size 15 to 20)
#    0.000    0.500    6.250    0.750    7.000    2.500 
#    0.000    0.000    0.000    0.000    0.000    0.000 
#    0.000    0.000    0.000    0.000    0.000    0.000 
#
# Total GULP energy -198483.061626 kJ/mol
# GULP energy per Si atom -12405.191352 kJ/mol
# Density = 2.091062 g / cm^3
# Si number density = 20.958322 Si / 1000 Ang^3
#
#
#
# Elastic Constant Matrix: (Units=GPa)
#
#
# Indices 1 2 3 4 5 6 
#
# 1 94.1951 46.7958 30.0006 0.4033 6.4253 2.8394
# 2 46.7958 114.1488 42.2400 -12.6066 6.5139 -10.1139
# 3 30.0006 42.2400 94.7988 -11.1048 4.4970 5.6936
# 4 0.4033 -12.6066 -11.1048 27.3858 5.6586 2.6574
# 5 6.4253 6.5139 4.4970 5.6586 34.7213 0.4363
# 6 2.8394 -10.1139 5.6936 2.6574 0.4363 42.4500
#
#
#
# Elastic Compliance Matrix: (Units=1/GPa)
#
#
# Indices 1 2 3 4 5 6 
#
# 1 0.014167 -0.005428 -0.002317 -0.003327 -0.000740 -0.001714
# 2 -0.005428 0.013358 -0.003827 0.004686 -0.001817 0.003784
# 3 -0.002317 -0.003827 0.013735 0.004391 -0.001312 -0.002860
# 4 -0.003327 0.004686 0.004391 0.042269 -0.007698 -0.001817
# 5 -0.000740 -0.001817 -0.001312 -0.007698 0.030703 -0.000041
# 6 -0.001714 0.003784 -0.002860 -0.001817 -0.000041 0.025071
#
#
# Mechanical properties :
#
#
# Convention : Reuss Voigt Hill
#
# Bulk Modulus (GPa) = 55.19241 60.13503 57.66372
# Shear Modulus (GPa) = 29.67629 33.18519 31.43074
#
# Velocity S-wave (km/s) = 3.76702 3.98350 3.87677
# Velocity P-wave (km/s) = 6.73142 7.06489 6.90017
#
# Compressibility (1/GPa) = 0.01811843
#
# Stress axis : x y z
#
# Youngs Moduli (GPa) = 70.58694 74.86102 72.80575
#
# Poissons Ratio (x) = 0.40632 0.16866
# Poissons Ratio (y) = 0.38312 0.27859
# Poissons Ratio (z) = 0.16352 0.28646
#
# Static dielectric constant tensor:
#      x y z
#    x 3.822620 -0.061950 0.001880 
#    y -0.061950 4.087400 -0.101520 
#    z 0.001880 -0.101520 3.793220 
# 
# 
# High freq. dielectric constant tensor:
#      x y z
#    x 1.819820 -0.003740 -0.002390 
#    y -0.003740 1.837920 -0.006300 
#    z -0.002390 -0.006300 1.827030 
# 
# From -- ./inp_files/272483.got.cif
#   From: 2010.06.25/outbox.cif.g09.slc.cpg/sg2_137_cif.got.tgz:272483.got - 2010.06.27 13:26:56.
