data_PCOD8034219
_publ_section_title
;
Structure prediction by ZEFSAII (Michael W. Deem and Ramdas Pophale) SiO2 
 PCOD8034219
Probable space group: P -1
;
_chemical_formula_sum "Si O2"
_cell_formula_units_Z 16
_cell_length_a 9.208138
_cell_length_b 18.084679
_cell_length_c 11.502994
_cell_angle_alpha 48.982445
_cell_angle_beta 49.697991
_cell_angle_gamma 32.681919
_cell_volume 759.173192
_symmetry_space_group_name_H-M "P -1"
_symmetry_group_IT_number 2
_symmetry_cell_setting 'triclinic'
loop_
_space_group_symop_operation_xyz
x,y,z
-x,-y,-z
loop_
_atom_site_type_symbol
_atom_site_label
_atom_site_fract_x
_atom_site_fract_y
_atom_site_fract_z
Si Si1 0.764585 0.348537 0.468805
Si Si2 0.189318 0.115832 0.672318
Si Si3 0.329379 0.381912 0.567810
Si Si4 0.762170 0.686763 0.549571
Si Si5 0.733840 0.782120 0.071327
Si Si6 0.115969 0.349129 0.109960
Si Si7 0.139208 0.078914 0.997076
Si Si8 0.404384 0.838218 0.789491
O O1 0.500000 0.500000 0.500000
O O2 0.637263 0.309211 0.496911
O O3 0.926633 0.236824 0.604365
O O4 0.958059 0.347524 0.293811
O O5 0.332196 0.165964 0.578716
O O6 0.108484 0.097803 0.855109
O O7 0.382303 0.965617 0.658970
O O8 0.324332 0.351324 0.469236
O O9 0.268931 0.315626 0.753163
O O10 0.093105 0.552960 0.537994
O O11 0.598610 0.716150 0.718288
O O12 0.891970 0.804780 0.042647
O O13 0.908073 0.700378 0.947665
O O14 0.424243 0.926623 0.049203
O O15 0.440242 0.240441 0.087752
O O16 0.000000 0.500000 0.000000
O O17 0.893975 0.097756 0.138920
#
# Coordination Sequence:
#
# PCOD8034219 Si02
#       8
#     2   2   2   2   2   2   2   2
#     4  12  25  43  70 100 132 179 224 275 335 396
#     4  12  23  46  67  98 132 180 226 278 333 400
#     4  11  24  46  69  95 139 180 223 277 339 401
#     4  11  24  44  68  97 135 178 225 281 337 400
#     4  11  24  48  66  99 138 175 228 272 343 402
#     4  12  27  43  68 102 139 174 224 281 330 406
#     4  11  26  44  71  96 135 184 217 283 340 400
#     4  12  25  43  69 101 134 177 229 278 339 392
#
# _framework density 21.075559999999999
#
# number of rings (size 3 to 8) (size 9 to 14) (size 15 to 20)
#    0.000    0.500    5.000    3.000    5.250    0.000 
#    0.000    2.500    0.000    0.000    0.000    0.000 
#    0.000    0.000    0.000    0.000    0.000    0.000 
#
# Total GULP energy -198375.086634 kJ/mol
# GULP energy per Si atom -12398.442915 kJ/mol
# Density = 2.102759 g / cm^3
# Si number density = 21.075560 Si / 1000 Ang^3
#
#
#
# Elastic Constant Matrix: (Units=GPa)
#
#
# Indices 1 2 3 4 5 6 
#
# 1 103.3587 48.3244 35.5403 -0.9751 1.8594 1.3199
# 2 48.3244 104.3107 26.2391 -15.0661 5.7153 14.6484
# 3 35.5403 26.2391 76.1631 -9.2624 3.8828 6.4717
# 4 -0.9751 -15.0661 -9.2624 38.2539 3.5585 7.9548
# 5 1.8594 5.7153 3.8828 3.5585 41.8218 0.2607
# 6 1.3199 14.6484 6.4717 7.9548 0.2607 30.7045
#
#
#
# Elastic Compliance Matrix: (Units=1/GPa)
#
#
# Indices 1 2 3 4 5 6 
#
# 1 0.014667 -0.006872 -0.005556 -0.004841 0.001183 0.005063
# 2 -0.006872 0.015372 -0.000238 0.007919 -0.002391 -0.009019
# 3 -0.005556 -0.000238 0.016869 0.004935 -0.001679 -0.004468
# 4 -0.004841 0.007919 0.004935 0.033466 -0.004090 -0.013246
# 5 0.001183 -0.002391 -0.001679 -0.004090 0.024675 0.002294
# 6 0.005063 -0.009019 -0.004468 -0.013246 0.002294 0.041008
#
#
# Mechanical properties :
#
#
# Convention : Reuss Voigt Hill
#
# Bulk Modulus (GPa) = 46.34614 56.00445 51.17530
# Shear Modulus (GPa) = 27.99867 33.73796 30.86831
#
# Velocity S-wave (km/s) = 3.64880 4.00535 3.83123
# Velocity P-wave (km/s) = 6.30792 6.92974 6.62613
#
# Compressibility (1/GPa) = 0.02157677
#
# Stress axis : x y z
#
# Youngs Moduli (GPa) = 68.18087 65.05477 59.27909
#
# Poissons Ratio (x) = 0.44708 0.32934
# Poissons Ratio (y) = 0.46856 0.01408
# Poissons Ratio (z) = 0.37879 0.01545
#
# Static dielectric constant tensor:
#      x y z
#    x 4.276950 0.067280 0.082510 
#    y 0.067280 4.019410 -0.106760 
#    z 0.082510 -0.106760 3.728980 
# 
# 
# High freq. dielectric constant tensor:
#      x y z
#    x 1.845920 0.011470 0.009470 
#    y 0.011470 1.832500 -0.010490 
#    z 0.009470 -0.010490 1.822010 
# 
# From -- ./inp_files/187523.got.cif
#   From: 2010.06.25/outbox.cif.g09.slc.cpg/sg2_94_cif.got.tgz:187523.got - 2010.06.27 13:26:56.
