data_PCOD8034119
_publ_section_title
;
Structure prediction by ZEFSAII (Michael W. Deem and Ramdas Pophale) SiO2 
 PCOD8034119
Probable space group: P -1
;
_chemical_formula_sum "Si O2"
_cell_formula_units_Z 14
_cell_length_a 7.519404
_cell_length_b 11.469524
_cell_length_c 14.235525
_cell_angle_alpha 148.976305
_cell_angle_beta 66.826094
_cell_angle_gamma 119.565695
_cell_volume 549.192272
_symmetry_space_group_name_H-M "P -1"
_symmetry_group_IT_number 2
_symmetry_cell_setting 'triclinic'
loop_
_space_group_symop_operation_xyz
x,y,z
-x,-y,-z
loop_
_atom_site_type_symbol
_atom_site_label
_atom_site_fract_x
_atom_site_fract_y
_atom_site_fract_z
Si Si1 0.766343 0.250019 0.434244
Si Si2 0.043513 0.795305 0.292895
Si Si3 0.018180 0.967661 0.082884
Si Si4 0.600514 0.434591 0.150975
Si Si5 0.382024 0.365189 0.337263
Si Si6 0.612279 0.970984 0.742261
Si Si7 0.770839 0.437923 0.762420
O O1 0.786244 0.495907 0.541290
O O2 0.830292 0.313820 0.572637
O O3 0.890341 0.096203 0.257947
O O4 0.525494 0.086743 0.363002
O O5 0.832346 0.579152 0.171201
O O6 0.147712 0.909705 0.251518
O O7 0.218917 0.719681 0.258337
O O8 0.000000 0.000000 0.500000
O O9 0.946268 0.686462 0.921950
O O10 0.254860 0.084994 0.144981
O O11 0.000000 0.000000 0.000000
O O12 0.563237 0.464491 0.290674
O O13 0.450385 0.533118 0.187132
O O14 0.544796 0.153142 0.947388
O O15 0.446750 0.304043 0.388095
#
# Coordination Sequence:
#
# PCOD8034119 Si02
#       7
#     2   2   2   2   2   2   2
#     4  11  24  43  73 107 143 191 240 301 368 425
#     4  12  29  48  73 106 148 195 248 298 363 441
#     4  12  22  43  71 107 145 185 244 301 362 430
#     4  11  24  50  74 106 148 191 244 305 365 432
#     4  11  24  43  74 109 147 186 241 306 364 429
#     4  12  25  46  72 110 145 194 243 298 370 434
#     4  11  26  49  73 104 148 193 245 299 364 431
#
# _framework density 25.491985
#
# number of rings (size 3 to 8) (size 9 to 14) (size 15 to 20)
#    0.000    0.571    4.286    4.286    2.000    4.000 
#    0.000    0.000    0.000    0.000    0.000    0.000 
#    0.000    0.000    0.000    0.000    0.000    0.000 
#
# Total GULP energy -173561.860937 kJ/mol
# GULP energy per Si atom -12397.275781 kJ/mol
# Density = 2.543396 g / cm^3
# Si number density = 25.491985 Si / 1000 Ang^3
#
#
#
# Elastic Constant Matrix: (Units=GPa)
#
#
# Indices 1 2 3 4 5 6 
#
# 1 82.6358 29.9917 -1.5042 8.5497 -7.9904 -0.6945
# 2 29.9917 112.6182 20.7763 15.8716 -14.3081 11.6465
# 3 -1.5042 20.7763 118.3828 1.5807 -16.9386 6.4769
# 4 8.5497 15.8716 1.5807 38.0545 5.3144 -3.2059
# 5 -7.9904 -14.3081 -16.9386 5.3144 38.7210 8.7824
# 6 -0.6945 11.6465 6.4769 -3.2059 8.7824 34.7786
#
#
#
# Elastic Compliance Matrix: (Units=1/GPa)
#
#
# Indices 1 2 3 4 5 6 
#
# 1 0.013765 -0.003338 0.001088 -0.002025 0.002263 0.000432
# 2 -0.003338 0.011996 -0.000993 -0.005445 0.005362 -0.005755
# 3 0.001088 -0.000993 0.009483 -0.001121 0.004777 -0.002721
# 4 -0.002025 -0.005445 -0.001121 0.030867 -0.008755 0.007048
# 5 0.002263 0.005362 0.004777 -0.008755 0.034312 -0.012112
# 6 0.000432 -0.005755 -0.002721 0.007048 -0.012112 0.034904
#
#
# Mechanical properties :
#
#
# Convention : Reuss Voigt Hill
#
# Bulk Modulus (GPa) = 34.77484 45.79604 40.28544
# Shear Modulus (GPa) = 33.02545 39.93569 36.48057
#
# Velocity S-wave (km/s) = 3.60324 3.96232 3.78704
# Velocity P-wave (km/s) = 5.56617 6.23997 5.91267
#
# Compressibility (1/GPa) = 0.02875642
#
# Stress axis : x y z
#
# Youngs Moduli (GPa) = 72.65008 83.36412 105.45657
#
# Poissons Ratio (x) = 0.27829 -0.11473
# Poissons Ratio (y) = 0.24252 0.10470
# Poissons Ratio (z) = -0.07904 0.08277
#
# Static dielectric constant tensor:
#      x y z
#    x 3.282030 0.338500 -0.133780 
#    y 0.338500 4.523130 0.416050 
#    z -0.133780 0.416050 4.990460 
# 
# 
# High freq. dielectric constant tensor:
#      x y z
#    x 2.020060 -0.000340 0.012340 
#    y -0.000340 2.003050 0.015410 
#    z 0.012340 0.015410 2.057850 
# 
# From -- ./inp_files/501081.got.cif
#   From: 2010.06.25/outbox.cif.g09.slc.cpg/sg2_251_cif.got.tgz:501081.got - 2010.06.27 13:26:56.
