data_PCOD8034163
_publ_section_title
;
Structure prediction by ZEFSAII (Michael W. Deem and Ramdas Pophale) SiO2 
 PCOD8034163
Probable space group: P -1
;
_chemical_formula_sum "Si O2"
_cell_formula_units_Z 14
_cell_length_a 12.721442
_cell_length_b 10.769785
_cell_length_c 14.736799
_cell_angle_alpha 136.716756
_cell_angle_beta 149.893961
_cell_angle_gamma 64.151362
_cell_volume 573.636153
_symmetry_space_group_name_H-M "P -1"
_symmetry_group_IT_number 2
_symmetry_cell_setting 'triclinic'
loop_
_space_group_symop_operation_xyz
x,y,z
-x,-y,-z
loop_
_atom_site_type_symbol
_atom_site_label
_atom_site_fract_x
_atom_site_fract_y
_atom_site_fract_z
Si Si1 0.801935 0.876476 0.645001
Si Si2 0.994576 0.469077 0.697266
Si Si3 0.429041 0.441849 0.020168
Si Si4 0.257496 0.662264 0.380449
Si Si5 0.136794 0.273712 0.971709
Si Si6 0.266012 0.948036 0.138958
Si Si7 0.520863 0.221150 0.112152
O O1 0.599592 0.644280 0.324554
O O2 0.663347 0.936808 0.647841
O O3 0.939146 0.057298 0.765602
O O4 0.001067 0.871627 0.855220
O O5 0.782405 0.404665 0.580355
O O6 0.822906 0.406340 0.446142
O O7 0.128622 0.340682 0.745035
O O8 0.238868 0.720250 0.013262
O O9 0.457289 0.248267 0.974824
O O10 0.500000 0.500000 0.000000
O O11 0.017100 0.665080 0.174627
O O12 0.512388 0.901244 0.685862
O O13 0.293481 0.484705 0.265674
O O14 0.331775 0.243433 0.046992
O O15 0.500000 0.000000 0.000000
#
# Coordination Sequence:
#
# PCOD8034163 Si02
#       7
#     2   2   2   2   2   2   2
#     4  11  24  44  76 114 154 194 252 318 389 461
#     4  12  26  50  78 114 152 198 258 314 398 456
#     4  12  29  51  78 108 154 210 265 315 378 465
#     4  11  24  43  78 117 154 193 243 322 399 461
#     4  11  24  44  76 114 154 194 252 318 389 461
#     4  11  24  43  78 117 154 193 243 322 399 461
#     4  12  29  51  78 108 154 210 265 315 378 465
#
# _framework density 24.405714
#
# number of rings (size 3 to 8) (size 9 to 14) (size 15 to 20)
#    0.000    0.571    4.286    2.571    6.000    6.857 
#    0.000    0.000    0.000    0.000    0.000    0.000 
#    0.000    0.000    0.000    0.000    0.000    0.000 
#
# Total GULP energy -173511.953938 kJ/mol
# GULP energy per Si atom -12393.710996 kJ/mol
# Density = 2.435017 g / cm^3
# Si number density = 24.405714 Si / 1000 Ang^3
#
#
#
# Elastic Constant Matrix: (Units=GPa)
#
#
# Indices 1 2 3 4 5 6 
#
# 1 94.9989 30.5825 13.7329 3.7428 4.4671 6.3275
# 2 30.5825 125.2155 4.6721 0.2665 0.6902 -2.8717
# 3 13.7329 4.6721 59.0132 2.4932 13.5688 -12.9904
# 4 3.7428 0.2665 2.4932 42.0030 12.1331 7.2061
# 5 4.4671 0.6902 13.5688 12.1331 37.5353 3.0988
# 6 6.3275 -2.8717 -12.9904 7.2061 3.0988 42.3792
#
#
#
# Elastic Compliance Matrix: (Units=1/GPa)
#
#
# Indices 1 2 3 4 5 6 
#
# 1 0.012141 -0.002911 -0.003266 -0.000411 0.000166 -0.002953
# 2 -0.002911 0.008714 0.000225 -0.000001 0.000015 0.001093
# 3 -0.003266 0.000225 0.021168 0.000016 -0.007898 0.007566
# 4 -0.000411 -0.000001 0.000016 0.026921 -0.008337 -0.003902
# 5 0.000166 0.000015 -0.007898 -0.008337 0.032452 -0.003400
# 6 -0.002953 0.001093 0.007566 -0.003902 -0.003400 0.027343
#
#
# Mechanical properties :
#
#
# Convention : Reuss Voigt Hill
#
# Bulk Modulus (GPa) = 33.20183 41.91138 37.55660
# Shear Modulus (GPa) = 33.18236 39.73283 36.45760
#
# Velocity S-wave (km/s) = 3.69130 4.03924 3.86918
# Velocity P-wave (km/s) = 5.63926 6.24212 5.94833
#
# Compressibility (1/GPa) = 0.03011882
#
# Stress axis : x y z
#
# Youngs Moduli (GPa) = 82.36699 114.75973 47.24062
#
# Poissons Ratio (x) = 0.33409 0.15427
# Poissons Ratio (y) = 0.23978 -0.01062
# Poissons Ratio (z) = 0.26898 -0.02580
#
# Static dielectric constant tensor:
#      x y z
#    x 4.412430 -0.026590 -0.031190 
#    y -0.026590 5.177850 -0.313350 
#    z -0.031190 -0.313350 4.469340 
# 
# 
# High freq. dielectric constant tensor:
#      x y z
#    x 1.963820 0.012410 0.004970 
#    y 0.012410 1.989970 -0.012780 
#    z 0.004970 -0.012780 1.972950 
# 
# From -- ./inp_files/519295.got.cif
#   From: 2010.06.25/outbox.cif.g09.slc.cpg/sg2_260_cif.got.tgz:519295.got - 2010.06.27 13:26:56.
