data_PCOD8034656
_publ_section_title
;
Structure prediction by ZEFSAII (Michael W. Deem and Ramdas Pophale) SiO2 
 PCOD8034656
Probable space group: P -1
;
_chemical_formula_sum "Si O2"
_cell_formula_units_Z 16
_cell_length_a 20.976230
_cell_length_b 7.822188
_cell_length_c 6.502969
_cell_angle_alpha 96.095374
_cell_angle_beta 48.581056
_cell_angle_gamma 117.935504
_cell_volume 672.646933
_symmetry_space_group_name_H-M "P -1"
_symmetry_group_IT_number 2
_symmetry_cell_setting 'triclinic'
loop_
_space_group_symop_operation_xyz
x,y,z
-x,-y,-z
loop_
_atom_site_type_symbol
_atom_site_label
_atom_site_fract_x
_atom_site_fract_y
_atom_site_fract_z
Si Si1 0.610389 0.563439 0.829483
Si Si2 0.759343 0.990565 0.698414
Si Si3 0.649633 0.081823 0.239606
Si Si4 0.922306 0.679575 0.642928
Si Si5 0.759192 0.493978 0.282691
Si Si6 0.536154 0.151055 0.138387
Si Si7 0.110689 0.576819 0.688256
Si Si8 0.052781 0.002460 0.680440
O O1 0.685888 0.574544 0.495093
O O2 0.652692 0.793357 0.840396
O O3 0.500000 0.500000 0.000000
O O4 0.599974 0.391165 0.984614
O O5 0.812014 0.178331 0.446881
O O6 0.829000 0.897279 0.540709
O O7 0.739796 0.052147 0.973904
O O8 0.690357 0.259421 0.340900
O O9 0.611385 0.118590 0.109912
O O10 0.558473 0.889316 0.527147
O O11 0.905716 0.487497 0.526614
O O12 0.965532 0.860978 0.413218
O O13 0.819513 0.620540 0.968699
O O14 0.006514 0.772544 0.657497
O O15 0.835620 0.518875 0.308045
O O16 0.500000 0.000000 0.000000
O O17 0.000000 0.500000 0.000000
O O18 0.000000 0.000000 0.000000
#
# Coordination Sequence:
#
# PCOD8034656 Si02
#       8
#     2   2   2   2   2   2   2   2
#     4  12  28  46  75 109 151 194 242 310 371 439
#     4  12  26  45  70 110 147 183 253 302 372 434
#     4  11  26  44  77 104 138 195 246 299 368 441
#     4  11  24  45  74 101 146 195 243 293 387 434
#     4  12  26  47  74 105 147 196 245 300 371 439
#     4  11  24  49  74 100 147 194 244 303 372 436
#     4  12  27  46  76 107 150 196 249 307 369 449
#     4  11  25  47  71 107 147 191 238 313 368 446
#
# _framework density 23.786625000000001
#
# number of rings (size 3 to 8) (size 9 to 14) (size 15 to 20)
#    0.000    0.500    2.500    5.250    7.000    3.500 
#    0.000    0.000    0.000    0.000    0.000    0.000 
#    0.000    0.000    0.000    0.000    0.000    0.000 
#
# Total GULP energy -198245.032389 kJ/mol
# GULP energy per Si atom -12390.314524 kJ/mol
# Density = 2.373249 g / cm^3
# Si number density = 23.786625 Si / 1000 Ang^3
#
#
#
# Elastic Constant Matrix: (Units=GPa)
#
#
# Indices 1 2 3 4 5 6 
#
# 1 73.2162 24.7200 38.8657 12.4257 -9.6858 16.3139
# 2 24.7200 129.4234 43.5716 -9.1241 8.2130 11.6540
# 3 38.8657 43.5716 180.8058 -2.7667 -11.4147 -3.7167
# 4 12.4257 -9.1241 -2.7667 46.7220 -4.4388 -0.1167
# 5 -9.6858 8.2130 -11.4147 -4.4388 43.5382 0.1778
# 6 16.3139 11.6540 -3.7167 -0.1167 0.1778 37.2687
#
#
#
# Elastic Compliance Matrix: (Units=1/GPa)
#
#
# Indices 1 2 3 4 5 6 
#
# 1 0.019656 -0.002370 -0.003701 -0.005615 0.003311 -0.008265
# 2 -0.002370 0.009316 -0.001907 0.002088 -0.002563 -0.002047
# 3 -0.003701 -0.001907 0.006956 0.001170 0.001468 0.002907
# 4 -0.005615 0.002088 0.001170 0.023478 0.001049 0.001990
# 5 0.003311 -0.002563 0.001468 0.001049 0.024683 -0.000616
# 6 -0.008265 -0.002047 0.002907 0.001990 -0.000616 0.031389
#
#
# Mechanical properties :
#
#
# Convention : Reuss Voigt Hill
#
# Bulk Modulus (GPa) = 50.07284 66.41779 58.24531
# Shear Modulus (GPa) = 36.20793 43.92499 40.06646
#
# Velocity S-wave (km/s) = 3.90577 4.30190 4.10861
# Velocity P-wave (km/s) = 6.43712 7.25659 6.85910
#
# Compressibility (1/GPa) = 0.01997091
#
# Stress axis : x y z
#
# Youngs Moduli (GPa) = 50.87628 107.34687 143.75461
#
# Poissons Ratio (x) = 0.25442 0.53201
# Poissons Ratio (y) = 0.12058 0.27420
# Poissons Ratio (z) = 0.18828 0.20476
#
# Static dielectric constant tensor:
#      x y z
#    x 4.150170 0.386330 0.059440 
#    y 0.386330 4.745890 -0.149060 
#    z 0.059440 -0.149060 4.433080 
# 
# 
# High freq. dielectric constant tensor:
#      x y z
#    x 1.922120 0.013590 -0.009090 
#    y 0.013590 1.956030 -0.011000 
#    z -0.009090 -0.011000 1.967900 
# 
# From -- ./inp_files/117109.got.cif
#   From: 2010.06.25/outbox.cif.g09.slc.cpg/sg2_59_cif.got.tgz:117109.got - 2010.06.27 13:26:56.
