data_PCOD8034189
_publ_section_title
;
Structure prediction by ZEFSAII (Michael W. Deem and Ramdas Pophale) SiO2 
 PCOD8034189
Probable space group: P -1
;
_chemical_formula_sum "Si O2"
_cell_formula_units_Z 14
_cell_length_a 9.407167
_cell_length_b 8.516990
_cell_length_c 21.204038
_cell_angle_alpha 128.998995
_cell_angle_beta 30.079356
_cell_angle_gamma 128.013489
_cell_volume 650.555534
_symmetry_space_group_name_H-M "P -1"
_symmetry_group_IT_number 2
_symmetry_cell_setting 'triclinic'
loop_
_space_group_symop_operation_xyz
x,y,z
-x,-y,-z
loop_
_atom_site_type_symbol
_atom_site_label
_atom_site_fract_x
_atom_site_fract_y
_atom_site_fract_z
Si Si1 0.822244 0.669842 0.631841
Si Si2 0.188462 0.058793 0.631089
Si Si3 0.217399 0.458637 0.639857
Si Si4 0.823976 0.803150 0.084599
Si Si5 0.282735 0.464220 0.220722
Si Si6 0.279292 0.773170 0.799436
Si Si7 0.828216 0.979695 0.877374
O O1 0.750018 0.625224 0.720119
O O2 0.539268 0.670361 0.699616
O O3 0.000000 0.500000 0.500000
O O4 0.010129 0.896546 0.610301
O O5 0.217135 0.281993 0.646483
O O6 0.032004 0.053299 0.757525
O O7 0.500000 0.000000 0.500000
O O8 0.500000 0.500000 0.500000
O O9 0.191950 0.665929 0.739338
O O10 0.949699 0.399751 0.678883
O O11 0.600965 0.595929 0.131123
O O12 0.031605 0.881052 0.083176
O O13 0.645339 0.980376 0.177829
O O14 0.010641 0.733222 0.939419
O O15 0.210970 0.262523 0.152921
O O16 0.500000 0.000000 0.000000
#
# Coordination Sequence:
#
# PCOD8034189 Si02
#       7
#     2   2   2   2   2   2   2
#     4  11  24  44  67 103 137 183 239 291 350 428
#     4  11  25  43  69 102 142 187 234 293 363 420
#     4  12  25  46  71 103 145 186 235 295 354 427
#     4  11  25  45  72 103 142 185 239 295 353 425
#     4  11  25  43  70 101 139 182 234 285 359 414
#     4  11  25  45  69 103 144 182 239 292 354 425
#     4  11  25  46  69 105 146 182 235 297 355 430
#
# _framework density 21.52007
#
# number of rings (size 3 to 8) (size 9 to 14) (size 15 to 20)
#    0.000    0.857    1.429    6.000    6.000    2.857 
#    0.000    2.857    0.000    0.000    0.000    0.000 
#    0.000    0.000    0.000    0.000    0.000    0.000 
#
# Total GULP energy -173536.539478 kJ/mol
# GULP energy per Si atom -12395.467106 kJ/mol
# Density = 2.147109 g / cm^3
# Si number density = 21.520070 Si / 1000 Ang^3
#
#
#
# Elastic Constant Matrix: (Units=GPa)
#
#
# Indices 1 2 3 4 5 6 
#
# 1 116.5368 34.7892 51.4994 -7.0666 -17.0583 7.1076
# 2 34.7892 130.5923 54.1073 -12.8234 6.3812 8.4946
# 3 51.4994 54.1073 143.3772 -2.7875 -1.9276 3.4142
# 4 -7.0666 -12.8234 -2.7875 29.4052 2.0286 -5.4057
# 5 -17.0583 6.3812 -1.9276 2.0286 40.1796 10.4504
# 6 7.1076 8.4946 3.4142 -5.4057 10.4504 35.8366
#
#
#
# Elastic Compliance Matrix: (Units=1/GPa)
#
#
# Indices 1 2 3 4 5 6 
#
# 1 0.011685 -0.001718 -0.003379 0.000748 0.005862 -0.003185
# 2 -0.001718 0.009903 -0.003072 0.003712 -0.002529 -0.000416
# 3 -0.003379 -0.003072 0.009306 -0.001137 -0.000575 0.000508
# 4 0.000748 0.003712 -0.001137 0.037008 -0.003687 0.005737
# 5 0.005862 -0.002529 -0.000575 -0.003687 0.030530 -0.009968
# 6 -0.003185 -0.000416 0.000508 0.005737 -0.009968 0.032358
#
#
# Mechanical properties :
#
#
# Convention : Reuss Voigt Hill
#
# Bulk Modulus (GPa) = 68.70727 74.58868 71.64798
# Shear Modulus (GPa) = 32.89877 37.75830 35.32853
#
# Velocity S-wave (km/s) = 3.91416 4.19329 4.05613
# Velocity P-wave (km/s) = 7.24044 7.62760 7.43654
#
# Compressibility (1/GPa) = 0.01455450
#
# Stress axis : x y z
#
# Youngs Moduli (GPa) = 85.57858 100.97792 107.45995
#
# Poissons Ratio (x) = 0.17353 0.36316
# Poissons Ratio (y) = 0.14707 0.33010
# Poissons Ratio (z) = 0.28921 0.31019
#
# Static dielectric constant tensor:
#      x y z
#    x 3.803330 0.198970 -0.215340 
#    y 0.198970 2.458070 0.769980 
#    z -0.215340 0.769980 3.510790 
# 
# 
# High freq. dielectric constant tensor:
#      x y z
#    x 1.858840 0.000240 -0.008000 
#    y 0.000240 1.855420 0.004800 
#    z -0.008000 0.004800 1.854130 
# 
# From -- ./inp_files/222928.got.cif
#   From: 2010.06.25/outbox.cif.g09.slc.cpg/sg2_112_cif.got.tgz:222928.got - 2010.06.27 13:26:56.
