data_PCOD8034857
_publ_section_title
;
Structure prediction by ZEFSAII (Michael W. Deem and Ramdas Pophale) SiO2 
 PCOD8034857
Probable space group: P -1
;
_chemical_formula_sum "Si O2"
_cell_formula_units_Z 16
_cell_length_a 12.067542
_cell_length_b 8.703610
_cell_length_c 9.361204
_cell_angle_alpha 81.161894
_cell_angle_beta 97.180954
_cell_angle_gamma 129.655055
_cell_volume 747.522455
_symmetry_space_group_name_H-M "P -1"
_symmetry_group_IT_number 2
_symmetry_cell_setting 'triclinic'
loop_
_space_group_symop_operation_xyz
x,y,z
-x,-y,-z
loop_
_atom_site_type_symbol
_atom_site_label
_atom_site_fract_x
_atom_site_fract_y
_atom_site_fract_z
Si Si1 0.274303 0.950798 0.264551
Si Si2 0.471487 0.632457 0.659660
Si Si3 0.357520 0.528100 0.343567
Si Si4 0.021768 0.150414 0.367299
Si Si5 0.230960 0.534214 0.812584
Si Si6 0.986488 0.077550 0.843341
Si Si7 0.636284 0.206305 0.923172
Si Si8 0.136790 0.702208 0.556837
O O1 0.174754 0.013001 0.210405
O O2 0.267011 0.833959 0.140866
O O3 0.234624 0.827766 0.420322
O O4 0.436076 0.147276 0.290123
O O5 0.413405 0.626391 0.494556
O O6 0.565315 0.560233 0.682005
O O7 0.341201 0.503040 0.770818
O O8 0.185249 0.355327 0.348677
O O9 0.407182 0.701720 0.213239
O O10 0.912510 0.192137 0.377213
O O11 0.961635 0.013607 0.238132
O O12 0.000000 0.000000 0.500000
O O13 0.226292 0.673841 0.682919
O O14 0.077569 0.315635 0.823490
O O15 0.269953 0.628826 0.962714
O O16 0.000000 0.000000 0.000000
O O17 0.500000 0.000000 0.000000
O O18 0.000000 0.500000 0.500000
#
# Coordination Sequence:
#
# PCOD8034857 Si02
#       8
#     2   2   2   2   2   2   2   2
#     4  12  25  47  70 101 141 183 235 292 350 412
#     4  11  24  46  73 101 139 180 237 288 347 415
#     4  11  25  44  73 104 140 184 231 290 349 420
#     4  12  22  46  73 108 140 181 238 292 350 414
#     4  12  27  46  71 104 139 190 232 288 357 414
#     4  12  27  45  70 104 142 187 232 290 353 418
#     4  12  28  47  66 101 145 188 230 284 358 424
#     4  12  24  44  73 106 142 182 236 296 343 415
#
# _framework density 21.404039999999998
#
# number of rings (size 3 to 8) (size 9 to 14) (size 15 to 20)
#    0.000    0.250    5.000    3.750    3.500    4.000 
#    0.000    0.000    0.000    0.000    0.000    0.000 
#    0.000    0.000    0.000    0.000    0.000    0.000 
#
# Total GULP energy -198400.679664 kJ/mol
# GULP energy per Si atom -12400.042479 kJ/mol
# Density = 2.135532 g / cm^3
# Si number density = 21.404040 Si / 1000 Ang^3
#
#
#
# Elastic Constant Matrix: (Units=GPa)
#
#
# Indices 1 2 3 4 5 6 
#
# 1 76.5013 28.0798 41.2851 -2.7426 -25.0222 -6.8717
# 2 28.0798 101.2543 48.5914 7.6882 -1.5279 0.0374
# 3 41.2851 48.5914 151.9286 2.1577 -8.9295 -11.5153
# 4 -2.7426 7.6882 2.1577 53.1014 -13.1471 -4.0032
# 5 -25.0222 -1.5279 -8.9295 -13.1471 37.5845 6.5921
# 6 -6.8717 0.0374 -11.5153 -4.0032 6.5921 31.0836
#
#
#
# Elastic Compliance Matrix: (Units=1/GPa)
#
#
# Indices 1 2 3 4 5 6 
#
# 1 0.022106 -0.004601 -0.003629 0.005881 0.015548 0.001008
# 2 -0.004601 0.012859 -0.003190 -0.003112 -0.004080 -0.001750
# 3 -0.003629 -0.003190 0.008732 -0.000124 -0.000975 0.002627
# 4 0.005881 -0.003112 -0.000124 0.022529 0.011332 0.001756
# 5 0.015548 -0.004080 -0.000975 0.011332 0.041263 -0.004211
# 6 0.001008 -0.001750 0.002627 0.001756 -0.004211 0.034489
#
#
# Mechanical properties :
#
#
# Convention : Reuss Voigt Hill
#
# Bulk Modulus (GPa) = 47.94872 62.84410 55.39641
# Shear Modulus (GPa) = 29.10864 38.46909 33.78887
#
# Velocity S-wave (km/s) = 3.69176 4.24404 3.97750
# Velocity P-wave (km/s) = 6.37358 7.31029 6.85795
#
# Compressibility (1/GPa) = 0.02085561
#
# Stress axis : x y z
#
# Youngs Moduli (GPa) = 45.23711 77.76885 114.51995
#
# Poissons Ratio (x) = 0.35784 0.41555
# Poissons Ratio (y) = 0.20815 0.36538
# Poissons Ratio (z) = 0.16415 0.24812
#
# Static dielectric constant tensor:
#      x y z
#    x 3.891790 0.188090 -0.151490 
#    y 0.188090 3.606250 0.138450 
#    z -0.151490 0.138450 4.055240 
# 
# 
# High freq. dielectric constant tensor:
#      x y z
#    x 1.846610 -0.007380 -0.009740 
#    y -0.007380 1.851630 0.006170 
#    z -0.009740 0.006170 1.855740 
# 
# From -- ./inp_files/184142.got.cif
#   From: 2010.06.25/outbox.cif.g09.slc.cpg/sg2_93_cif.got.tgz:184142.got - 2010.06.27 13:26:56.
