data_PCOD8034510
_publ_section_title
;
Structure prediction by ZEFSAII (Michael W. Deem and Ramdas Pophale) SiO2 
 PCOD8034510
Probable space group: P -1
;
_chemical_formula_sum "Si O2"
_cell_formula_units_Z 16
_cell_length_a 6.852926
_cell_length_b 9.383981
_cell_length_c 19.772356
_cell_angle_alpha 51.600251
_cell_angle_beta 65.450719
_cell_angle_gamma 49.972651
_cell_volume 762.772671
_symmetry_space_group_name_H-M "P -1"
_symmetry_group_IT_number 2
_symmetry_cell_setting 'triclinic'
loop_
_space_group_symop_operation_xyz
x,y,z
-x,-y,-z
loop_
_atom_site_type_symbol
_atom_site_label
_atom_site_fract_x
_atom_site_fract_y
_atom_site_fract_z
Si Si1 0.496471 0.784095 0.362880
Si Si2 0.577486 0.447168 0.348879
Si Si3 0.517211 0.232009 0.846388
Si Si4 0.742387 0.714202 0.491044
Si Si5 0.031933 0.921912 0.944047
Si Si6 0.508676 0.921239 0.836457
Si Si7 0.044487 0.012464 0.569098
Si Si8 0.998938 0.476338 0.928388
O O1 0.637709 0.547822 0.376178
O O2 0.597442 0.801194 0.415436
O O3 0.210301 0.841209 0.394954
O O4 0.516642 0.951756 0.264893
O O5 0.449164 0.624155 0.256122
O O6 0.404208 0.353145 0.418217
O O7 0.835830 0.232908 0.349001
O O8 0.278175 0.388044 0.882842
O O9 0.778737 0.094441 0.889542
O O10 0.470378 0.061446 0.867187
O O11 0.777472 0.892852 0.470423
O O12 0.000000 0.500000 0.500000
O O13 0.278576 0.883403 0.880523
O O14 0.083922 0.689932 0.018910
O O15 0.000000 0.000000 0.000000
O O16 0.786201 0.701727 0.858788
O O17 0.000000 0.000000 0.500000
O O18 0.000000 0.500000 0.000000
#
# Coordination Sequence:
#
# PCOD8034510 Si02
#       8
#     2   2   2   2   2   2   2   2
#     4  11  25  45  67  98 139 173 225 277 332 393
#     4  11  24  45  69  97 135 180 219 278 336 389
#     4  11  25  46  67 103 141 170 224 285 334 399
#     4  12  24  43  69  98 134 180 225 270 333 396
#     4  12  24  45  71  98 135 177 225 274 342 406
#     4  11  25  44  69 104 135 177 223 283 333 399
#     4  12  24  44  67  95 133 179 229 270 327 397
#     4  12  23  46  74  95 136 179 222 276 343 402
#
# _framework density 20.976103999999999
#
# number of rings (size 3 to 8) (size 9 to 14) (size 15 to 20)
#    0.000    0.500    5.000    3.750    1.750    0.000 
#    4.500    0.000    0.000    0.000    0.000    0.000 
#    0.000    0.000    0.000    0.000    0.000    0.000 
#
# Total GULP energy -198357.345924 kJ/mol
# GULP energy per Si atom -12397.334120 kJ/mol
# Density = 2.092836 g / cm^3
# Si number density = 20.976104 Si / 1000 Ang^3
#
#
#
# Elastic Constant Matrix: (Units=GPa)
#
#
# Indices 1 2 3 4 5 6 
#
# 1 96.7987 36.9323 38.1717 1.4533 -0.4064 3.0061
# 2 36.9323 118.1336 38.5456 -12.0405 2.5625 4.0280
# 3 38.1717 38.5456 103.7645 -1.6093 -6.6633 7.8173
# 4 1.4533 -12.0405 -1.6093 41.3774 -2.3927 -1.6980
# 5 -0.4064 2.5625 -6.6633 -2.3927 24.0210 -6.2555
# 6 3.0061 4.0280 7.8173 -1.6980 -6.2555 46.2881
#
#
#
# Elastic Compliance Matrix: (Units=1/GPa)
#
#
# Indices 1 2 3 4 5 6 
#
# 1 0.012955 -0.002972 -0.003721 -0.001507 -0.000672 -0.000100
# 2 -0.002972 0.010705 -0.002924 0.002986 -0.001805 -0.000379
# 3 -0.003721 -0.002924 0.012394 -0.000090 0.003380 -0.001144
# 4 -0.001507 0.002986 -0.000090 0.025273 0.002437 0.001110
# 5 -0.000672 -0.001805 0.003380 0.002437 0.044484 0.005731
# 6 -0.000100 -0.000379 -0.001144 0.001110 0.005731 0.022652
#
#
# Mechanical properties :
#
#
# Convention : Reuss Voigt Hill
#
# Bulk Modulus (GPa) = 59.45309 60.66622 60.05966
# Shear Modulus (GPa) = 32.61542 36.00712 34.31127
#
# Velocity S-wave (km/s) = 3.94748 4.14766 4.04881
# Velocity P-wave (km/s) = 7.01296 7.20568 7.10997
#
# Compressibility (1/GPa) = 0.01681998
#
# Stress axis : x y z
#
# Youngs Moduli (GPa) = 77.19221 93.41801 80.68379
#
# Poissons Ratio (x) = 0.27761 0.30020
# Poissons Ratio (y) = 0.22939 0.23594
# Poissons Ratio (z) = 0.28721 0.27318
#
# Static dielectric constant tensor:
#      x y z
#    x 4.074390 -0.234630 -0.006200 
#    y -0.234630 4.021020 -0.127020 
#    z -0.006200 -0.127020 3.904960 
# 
# 
# High freq. dielectric constant tensor:
#      x y z
#    x 1.821230 -0.002160 -0.002540 
#    y -0.002160 1.844530 -0.005390 
#    z -0.002540 -0.005390 1.833230 
# 
# From -- ./inp_files/46846.got.cif
#   From: 2010.06.25/outbox.cif.g09.slc.cpg/sg2_24_cif.got.tgz:46846.got - 2010.06.27 13:26:56.
