data_PCOD8034951
_publ_section_title
;
Structure prediction by ZEFSAII (Michael W. Deem and Ramdas Pophale) SiO2 
 PCOD8034951
Probable space group: P -1
;
_chemical_formula_sum "Si O2"
_cell_formula_units_Z 14
_cell_length_a 10.783039
_cell_length_b 8.705145
_cell_length_c 8.892239
_cell_angle_alpha 133.682798
_cell_angle_beta 108.270553
_cell_angle_gamma 67.621220
_cell_volume 556.572676
_symmetry_space_group_name_H-M "P -1"
_symmetry_group_IT_number 2
_symmetry_cell_setting 'triclinic'
loop_
_space_group_symop_operation_xyz
x,y,z
-x,-y,-z
loop_
_atom_site_type_symbol
_atom_site_label
_atom_site_fract_x
_atom_site_fract_y
_atom_site_fract_z
Si Si1 0.984542 0.007522 0.179273
Si Si2 0.524602 0.093260 0.914413
Si Si3 0.764670 0.862928 0.682434
Si Si4 0.681835 0.482729 0.829445
Si Si5 0.862389 0.422918 0.588962
Si Si6 0.668134 0.017375 0.468652
Si Si7 0.893209 0.727613 0.191696
O O1 0.950216 0.792673 0.096625
O O2 0.133617 0.020991 0.291980
O O3 0.875958 0.221551 0.343012
O O4 0.000000 0.000000 0.000000
O O5 0.684572 0.020690 0.890875
O O6 0.457544 0.975880 0.680868
O O7 0.461196 0.351890 0.075433
O O8 0.500000 0.000000 0.000000
O O9 0.853096 0.637432 0.628803
O O10 0.668278 0.843762 0.489574
O O11 0.721220 0.467673 0.656568
O O12 0.658370 0.248397 0.705530
O O13 0.799963 0.556694 0.016377
O O14 0.985208 0.383912 0.728178
O O15 0.805252 0.951671 0.378550
#
# Coordination Sequence:
#
# PCOD8034951 Si02
#       7
#     2   2   2   2   2   2   2
#     4  12  26  44  73 115 154 187 246 307 367 440
#     4  11  26  50  76 106 144 193 255 304 357 434
#     4  12  26  47  70 110 151 189 246 305 358 436
#     4  11  24  46  82 103 142 204 244 293 371 433
#     4  12  23  46  73 108 150 198 236 298 378 437
#     4  11  25  48  76 104 148 196 245 306 359 435
#     4  11  24  47  75 111 151 193 244 297 371 446
#
# _framework density 25.153948
#
# number of rings (size 3 to 8) (size 9 to 14) (size 15 to 20)
#    0.000    0.571    4.286    3.429    2.000    2.286 
#    7.714    0.000    0.000    0.000    0.000    0.000 
#    0.000    0.000    0.000    0.000    0.000    0.000 
#
# Total GULP energy -173465.491601 kJ/mol
# GULP energy per Si atom -12390.392257 kJ/mol
# Density = 2.509670 g / cm^3
# Si number density = 25.153948 Si / 1000 Ang^3
#
#
#
# Elastic Constant Matrix: (Units=GPa)
#
#
# Indices 1 2 3 4 5 6 
#
# 1 68.0549 23.1902 21.9575 19.6345 -24.9634 1.8463
# 2 23.1902 131.0060 57.2663 -6.3443 5.9951 -11.8279
# 3 21.9575 57.2663 140.1993 11.0252 -18.1966 -9.4803
# 4 19.6345 -6.3443 11.0252 54.5301 -2.5904 -13.6749
# 5 -24.9634 5.9951 -18.1966 -2.5904 38.4269 2.1259
# 6 1.8463 -11.8279 -9.4803 -13.6749 2.1259 25.3307
#
#
#
# Elastic Compliance Matrix: (Units=1/GPa)
#
#
# Indices 1 2 3 4 5 6 
#
# 1 0.030096 -0.009425 0.002102 -0.015308 0.021865 -0.015907
# 2 -0.009425 0.013457 -0.005365 0.008099 -0.010783 0.010240
# 3 0.002102 -0.005365 0.010059 -0.003420 0.006808 -0.001311
# 4 -0.015308 0.008099 -0.003420 0.030158 -0.011951 0.020902
# 5 0.021865 -0.010783 0.006808 -0.011951 0.045120 -0.014320
# 6 -0.015907 0.010240 -0.001311 0.020902 -0.014320 0.057414
#
#
# Mechanical properties :
#
#
# Convention : Reuss Voigt Hill
#
# Bulk Modulus (GPa) = 35.41402 60.45427 47.93415
# Shear Modulus (GPa) = 22.61524 39.44727 31.03126
#
# Velocity S-wave (km/s) = 3.00171 3.96439 3.51615
# Velocity P-wave (km/s) = 5.11108 6.71126 5.96507
#
# Compressibility (1/GPa) = 0.02823740
#
# Stress axis : x y z
#
# Youngs Moduli (GPa) = 33.22716 74.31211 99.41778
#
# Poissons Ratio (x) = 0.70035 -0.20899
# Poissons Ratio (y) = 0.31315 0.53333
# Poissons Ratio (z) = -0.06985 0.39865
#
# Static dielectric constant tensor:
#      x y z
#    x 5.250230 -0.382150 -0.470000 
#    y -0.382150 4.641970 0.080390 
#    z -0.470000 0.080390 5.084010 
# 
# 
# High freq. dielectric constant tensor:
#      x y z
#    x 2.000350 -0.009420 -0.029660 
#    y -0.009420 2.005960 -0.006970 
#    z -0.029660 -0.006970 2.013740 
# 
# From -- ./inp_files/241481.got.cif
#   From: 2010.06.25/outbox.cif.g09.slc.cpg/sg2_121_cif.got.tgz:241481.got - 2010.06.27 13:26:56.
