data_PCOD8034502
_publ_section_title
;
Structure prediction by ZEFSAII (Michael W. Deem and Ramdas Pophale) SiO2 
 PCOD8034502
Probable space group: P -1
;
_chemical_formula_sum "Si O2"
_cell_formula_units_Z 12
_cell_length_a 6.040792
_cell_length_b 15.493919
_cell_length_c 5.004503
_cell_angle_alpha 95.605457
_cell_angle_beta 89.922381
_cell_angle_gamma 88.521858
_cell_volume 466.000680
_symmetry_space_group_name_H-M "P -1"
_symmetry_group_IT_number 2
_symmetry_cell_setting 'triclinic'
loop_
_space_group_symop_operation_xyz
x,y,z
-x,-y,-z
loop_
_atom_site_type_symbol
_atom_site_label
_atom_site_fract_x
_atom_site_fract_y
_atom_site_fract_z
Si Si1 0.321852 0.213113 0.744443
Si Si2 0.975010 0.636896 0.157914
Si Si3 0.694333 0.482916 0.201931
Si Si4 0.706842 0.168130 0.068727
Si Si5 0.046849 0.898966 0.450955
Si Si6 0.659880 0.321850 0.440310
O O1 0.182307 0.151406 0.528439
O O2 0.468278 0.269518 0.562738
O O3 0.175716 0.283875 0.938691
O O4 0.463783 0.153241 0.935725
O O5 0.122541 0.686103 0.385379
O O6 0.813866 0.571252 0.301383
O O7 0.112570 0.583537 0.922839
O O8 0.595445 0.425633 0.431919
O O9 0.500000 0.500000 0.000000
O O10 0.718042 0.273269 0.141572
O O11 0.756545 0.126270 0.347935
O O12 0.886575 0.127441 0.857607
O O13 0.000000 0.000000 0.500000
#
# Coordination Sequence:
#
# PCOD8034502 Si02
#       6
#     2   2   2   2   2   2
#     4  12  26  47  79 107 155 205 250 323 378 457
#     4  11  24  45  69 105 151 207 254 318 379 445
#     4  11  25  44  68 106 153 203 262 315 375 446
#     4  12  26  52  76 118 153 199 256 309 386 459
#     4  12  29  53  81 115 155 199 252 315 385 464
#     4  12  24  45  72 108 151 201 260 306 385 448
#
# _framework density 25.751037
#
# number of rings (size 3 to 8) (size 9 to 14) (size 15 to 20)
#    0.000    0.333    3.333    5.000    2.333    8.000 
#    3.000    0.000    0.000    0.000    0.000    0.000 
#    0.000    0.000    0.000    0.000    0.000    0.000 
#
# Total GULP energy -148735.011143 kJ/mol
# GULP energy per Si atom -12394.584262 kJ/mol
# Density = 2.569243 g / cm^3
# Si number density = 25.751037 Si / 1000 Ang^3
#
#
#
# Elastic Constant Matrix: (Units=GPa)
#
#
# Indices 1 2 3 4 5 6 
#
# 1 122.1216 58.6426 25.7832 3.3159 31.1677 6.2918
# 2 58.6426 151.9972 20.7477 9.2603 24.1269 -2.9796
# 3 25.7832 20.7477 91.0237 4.0445 18.4993 -0.7125
# 4 3.3159 9.2603 4.0445 41.7652 -7.8868 7.0812
# 5 31.1677 24.1269 18.4993 -7.8868 29.8175 -4.4920
# 6 6.2918 -2.9796 -0.7125 7.0812 -4.4920 39.6411
#
#
#
# Elastic Compliance Matrix: (Units=1/GPa)
#
#
# Indices 1 2 3 4 5 6 
#
# 1 0.012986 -0.003002 -0.000525 -0.001994 -0.011842 -0.003282
# 2 -0.003002 0.008620 -0.000113 -0.002663 -0.004304 0.001110
# 3 -0.000525 -0.000113 0.012928 -0.002695 -0.008114 -0.000131
# 4 -0.001994 -0.002663 -0.002695 0.027957 0.012782 -0.003478
# 5 -0.011842 -0.004304 -0.008114 0.012782 0.058683 0.005777
# 6 -0.003282 0.001110 -0.000131 -0.003478 0.005777 0.027104
#
#
# Mechanical properties :
#
#
# Convention : Reuss Voigt Hill
#
# Bulk Modulus (GPa) = 36.68915 63.94327 50.31621
# Shear Modulus (GPa) = 30.36892 39.57604 34.97248
#
# Velocity S-wave (km/s) = 3.43786 3.92455 3.68924
# Velocity P-wave (km/s) = 5.48061 6.73954 6.14241
#
# Compressibility (1/GPa) = 0.02725601
#
# Stress axis : x y z
#
# Youngs Moduli (GPa) = 77.00425 116.01185 77.35017
#
# Poissons Ratio (x) = 0.34825 0.04058
# Poissons Ratio (y) = 0.23115 0.00872
# Poissons Ratio (z) = 0.04040 0.01308
#
# Static dielectric constant tensor:
#      x y z
#    x 5.139700 -0.088020 0.001280 
#    y -0.088020 4.946300 0.138070 
#    z 0.001280 0.138070 4.449390 
# 
# 
# High freq. dielectric constant tensor:
#      x y z
#    x 2.047830 -0.011340 0.003350 
#    y -0.011340 2.034560 0.010070 
#    z 0.003350 0.010070 2.017220 
# 
# From -- ./inp_files/4566.got.cif
#   From: 2010.06.25/outbox.cif.g09.slc.cpg/sg2_3_cif.got.tgz:4566.got - 2010.06.27 13:26:56.
