data_PCOD8034496
_publ_section_title
;
Structure prediction by ZEFSAII (Michael W. Deem and Ramdas Pophale) SiO2 
 PCOD8034496
Probable space group: P -1
;
_chemical_formula_sum "Si O2"
_cell_formula_units_Z 16
_cell_length_a 16.461230
_cell_length_b 8.842850
_cell_length_c 7.877832
_cell_angle_alpha 71.980311
_cell_angle_beta 80.168023
_cell_angle_gamma 34.873102
_cell_volume 616.182404
_symmetry_space_group_name_H-M "P -1"
_symmetry_group_IT_number 2
_symmetry_cell_setting 'triclinic'
loop_
_space_group_symop_operation_xyz
x,y,z
-x,-y,-z
loop_
_atom_site_type_symbol
_atom_site_label
_atom_site_fract_x
_atom_site_fract_y
_atom_site_fract_z
Si Si1 0.541218 0.613852 0.891365
Si Si2 0.896696 0.387112 0.678966
Si Si3 0.160530 0.869216 0.185955
Si Si4 0.714870 0.773172 0.307740
Si Si5 0.135622 0.228711 0.951800
Si Si6 0.392581 0.359003 0.781785
Si Si7 0.176973 0.963253 0.512535
Si Si8 0.708983 0.921490 0.738028
O O1 0.667857 0.415094 0.777902
O O2 0.417712 0.898457 0.731871
O O3 0.500000 0.500000 0.000000
O O4 0.587616 0.647467 0.023432
O O5 0.915641 0.176782 0.810376
O O6 0.763533 0.604504 0.517124
O O7 0.839585 0.586869 0.784050
O O8 0.047636 0.202495 0.607624
O O9 0.109529 0.010970 0.340517
O O10 0.118979 0.063886 0.983574
O O11 0.681257 0.696287 0.200485
O O12 0.844779 0.690097 0.245047
O O13 0.275330 0.030779 0.094167
O O14 0.000000 0.500000 0.000000
O O15 0.288254 0.659482 0.646833
O O16 0.546437 0.114251 0.713773
O O17 0.265207 0.986544 0.447522
#
# Coordination Sequence:
#
# PCOD8034496 Si02
#       8
#     2   2   2   2   2   2   2   2
#     4  12  25  45  70 104 138 187 235 290 348 422
#     4  12  27  45  74 105 141 185 238 290 349 416
#     4  11  24  45  69 104 137 182 237 282 351 413
#     4  12  25  45  71 101 147 183 232 293 351 416
#     4  11  25  46  73  96 145 193 233 286 354 418
#     4  12  26  44  72 106 143 183 233 293 353 413
#     4  11  25  47  71 101 146 183 231 290 352 420
#     4  11  25  46  70 106 139 186 238 285 353 422
#
# _framework density 25.966338
#
# number of rings (size 3 to 8) (size 9 to 14) (size 15 to 20)
#    0.000    0.500    3.750    4.500    7.000    2.000 
#    0.000    1.250    0.000    0.000    0.000    0.000 
#    0.000    0.000    0.000    0.000    0.000    0.000 
#
# Total GULP energy -198393.740994 kJ/mol
# GULP energy per Si atom -12399.608812 kJ/mol
# Density = 2.590724 g / cm^3
# Si number density = 25.966338 Si / 1000 Ang^3
#
#
#
# Elastic Constant Matrix: (Units=GPa)
#
#
# Indices 1 2 3 4 5 6 
#
# 1 115.4523 15.2738 28.7710 -2.4348 -28.5734 19.5812
# 2 15.2738 117.9107 1.2839 0.5534 -19.9588 6.8522
# 3 28.7710 1.2839 53.4499 -2.5046 -17.6357 10.7984
# 4 -2.4348 0.5534 -2.5046 39.0830 8.8165 -6.5695
# 5 -28.5734 -19.9588 -17.6357 8.8165 38.0887 0.5574
# 6 19.5812 6.8522 10.7984 -6.5695 0.5574 38.8368
#
#
#
# Elastic Compliance Matrix: (Units=1/GPa)
#
#
# Indices 1 2 3 4 5 6 
#
# 1 0.012492 0.000297 -0.002646 -0.002452 0.008959 -0.006158
# 2 0.000297 0.009782 0.002419 -0.002044 0.006986 -0.002994
# 3 -0.002646 0.002419 0.025116 -0.002308 0.011543 -0.006632
# 4 -0.002452 -0.002044 -0.002308 0.028976 -0.010793 0.007295
# 5 0.008959 0.006986 0.011543 -0.010793 0.044646 -0.011426
# 6 -0.006158 -0.002994 -0.006632 0.007295 -0.011426 0.032624
#
#
# Mechanical properties :
#
#
# Convention : Reuss Voigt Hill
#
# Bulk Modulus (GPa) = 21.03946 41.94115 31.49030
# Shear Modulus (GPa) = 29.52664 39.30066 34.41365
#
# Velocity S-wave (km/s) = 3.37577 3.89462 3.64444
# Velocity P-wave (km/s) = 4.82852 6.03418 5.46470
#
# Compressibility (1/GPa) = 0.04752974
#
# Stress axis : x y z
#
# Youngs Moduli (GPa) = 80.05299 102.22538 39.81580
#
# Poissons Ratio (x) = -0.03031 0.10535
# Poissons Ratio (y) = -0.02374 -0.09633
# Poissons Ratio (z) = 0.21182 -0.24733
#
# Static dielectric constant tensor:
#      x y z
#    x 5.260010 0.251240 -0.226850 
#    y 0.251240 4.828100 -0.005110 
#    z -0.226850 -0.005110 4.138590 
# 
# 
# High freq. dielectric constant tensor:
#      x y z
#    x 2.042990 0.004980 -0.012150 
#    y 0.004980 2.057780 -0.008450 
#    z -0.012150 -0.008450 2.031300 
# 
# From -- ./inp_files/297851.got.cif
#   From: 2010.06.25/outbox.cif.g09.slc.cpg/sg2_149_cif.got.tgz:297851.got - 2010.06.27 13:26:56.
