data_PCOD8034044
_publ_section_title
;
Structure prediction by ZEFSAII (Michael W. Deem and Ramdas Pophale) SiO2 
 PCOD8034044
Probable space group: P -1
;
_chemical_formula_sum "Si O2"
_cell_formula_units_Z 16
_cell_length_a 10.914746
_cell_length_b 24.786078
_cell_length_c 5.573555
_cell_angle_alpha 57.523637
_cell_angle_beta 120.909253
_cell_angle_gamma 147.742941
_cell_volume 672.931500
_symmetry_space_group_name_H-M "P -1"
_symmetry_group_IT_number 2
_symmetry_cell_setting 'triclinic'
loop_
_space_group_symop_operation_xyz
x,y,z
-x,-y,-z
loop_
_atom_site_type_symbol
_atom_site_label
_atom_site_fract_x
_atom_site_fract_y
_atom_site_fract_z
Si Si1 0.943616 0.643256 0.492897
Si Si2 0.103721 0.305212 0.184892
Si Si3 0.349847 0.248823 0.116420
Si Si4 0.125666 0.880299 0.873684
Si Si5 0.747646 0.384138 0.583446
Si Si6 0.452156 0.928511 0.430649
Si Si7 0.529303 0.411645 0.593244
Si Si8 0.621821 0.241803 0.150281
O O1 0.994315 0.703570 0.639028
O O2 0.703327 0.525114 0.605745
O O3 0.173674 0.679567 0.628520
O O4 0.922732 0.662379 0.158723
O O5 0.377913 0.387814 0.283023
O O6 0.960488 0.189662 0.277232
O O7 0.553993 0.323454 0.334545
O O8 0.400760 0.206945 0.089685
O O9 0.087642 0.149457 0.186248
O O10 0.351785 0.320918 0.829547
O O11 0.339120 0.000144 0.724638
O O12 0.212688 0.860494 0.212349
O O13 0.682199 0.405546 0.688994
O O14 0.000000 0.500000 0.500000
O O15 0.734598 0.306989 0.857433
O O16 0.451385 0.858067 0.718591
O O17 0.500000 0.000000 0.500000
#
# Coordination Sequence:
#
# PCOD8034044 Si02
#       8
#     2   2   2   2   2   2   2   2
#     4  12  26  42  72 109 156 197 259 309 376 455
#     4  12  25  44  72 109 149 199 249 321 380 453
#     4  11  25  46  70 103 151 195 251 303 378 449
#     4  11  25  47  76 105 141 197 243 323 383 455
#     4  11  24  43  71 100 150 205 253 295 368 447
#     4  11  26  49  78 107 142 186 255 317 397 452
#     4  11  25  42  67 106 147 199 247 309 372 443
#     4  11  26  45  71 108 147 201 245 318 370 454
#
# _framework density 23.776565999999999
#
# number of rings (size 3 to 8) (size 9 to 14) (size 15 to 20)
#    0.000    0.750    2.500    3.750    7.000    4.500 
#    0.000    1.250    0.000    0.000    0.000    0.000 
#    0.000    0.000    0.000    0.000    0.000    0.000 
#
# Total GULP energy -198265.006431 kJ/mol
# GULP energy per Si atom -12391.562902 kJ/mol
# Density = 2.372245 g / cm^3
# Si number density = 23.776566 Si / 1000 Ang^3
#
#
#
# Elastic Constant Matrix: (Units=GPa)
#
#
# Indices 1 2 3 4 5 6 
#
# 1 96.9956 53.4596 54.3914 0.4545 -0.0362 20.0743
# 2 53.4596 122.7399 42.7198 3.6316 4.0867 14.2345
# 3 54.3914 42.7198 141.6196 -4.6951 -1.7964 6.3532
# 4 0.4545 3.6316 -4.6951 46.5181 2.7889 -1.0334
# 5 -0.0362 4.0867 -1.7964 2.7889 25.3227 9.6935
# 6 20.0743 14.2345 6.3532 -1.0334 9.6935 37.7042
#
#
#
# Elastic Compliance Matrix: (Units=1/GPa)
#
#
# Indices 1 2 3 4 5 6 
#
# 1 0.017340 -0.005136 -0.004756 -0.000617 0.003411 -0.007386
# 2 -0.005136 0.011033 -0.001365 -0.000880 -0.001463 -0.000849
# 3 -0.004756 -0.001365 0.009273 0.001110 0.000187 0.001468
# 4 -0.000617 -0.000880 0.001110 0.021897 -0.002887 0.001816
# 5 0.003411 -0.001463 0.000187 -0.002887 0.045019 -0.012949
# 6 -0.007386 -0.000849 0.001468 0.001816 -0.012949 0.033907
#
#
# Mechanical properties :
#
#
# Convention : Reuss Voigt Hill
#
# Bulk Modulus (GPa) = 66.08914 73.61076 69.84995
# Shear Modulus (GPa) = 30.11544 35.96129 33.03837
#
# Velocity S-wave (km/s) = 3.56280 3.89326 3.73169
# Velocity P-wave (km/s) = 6.69186 7.15797 6.92884
#
# Compressibility (1/GPa) = 0.01513108
#
# Stress axis : x y z
#
# Youngs Moduli (GPa) = 57.66874 90.64065 107.83864
#
# Poissons Ratio (x) = 0.46552 0.51293
# Poissons Ratio (y) = 0.29618 0.14721
# Poissons Ratio (z) = 0.27430 0.12373
#
# Static dielectric constant tensor:
#      x y z
#    x 4.413190 0.262900 0.035990 
#    y 0.262900 4.451630 -0.163010 
#    z 0.035990 -0.163010 4.630290 
# 
# 
# High freq. dielectric constant tensor:
#      x y z
#    x 1.947370 0.016910 0.000050 
#    y 0.016910 1.944660 0.004710 
#    z 0.000050 0.004710 1.949630 
# 
# From -- ./inp_files/84999.got.cif
#   From: 2010.06.25/outbox.cif.g09.slc.cpg/sg2_43_cif.got.tgz:84999.got - 2010.06.27 13:26:56.
