data_PCOD8034324
_publ_section_title
;
Structure prediction by ZEFSAII (Michael W. Deem and Ramdas Pophale) SiO2 
 PCOD8034324
Probable space group: P -1
;
_chemical_formula_sum "Si O2"
_cell_formula_units_Z 16
_cell_length_a 10.181234
_cell_length_b 12.668372
_cell_length_c 14.295825
_cell_angle_alpha 138.486708
_cell_angle_beta 49.002799
_cell_angle_gamma 100.390471
_cell_volume 722.634449
_symmetry_space_group_name_H-M "P -1"
_symmetry_group_IT_number 2
_symmetry_cell_setting 'triclinic'
loop_
_space_group_symop_operation_xyz
x,y,z
-x,-y,-z
loop_
_atom_site_type_symbol
_atom_site_label
_atom_site_fract_x
_atom_site_fract_y
_atom_site_fract_z
Si Si1 0.676452 0.920777 0.561235
Si Si2 0.534767 0.500216 0.095322
Si Si3 0.813845 0.827115 0.093104
Si Si4 0.070493 0.522501 0.080463
Si Si5 0.053857 0.522664 0.621291
Si Si6 0.179684 0.952418 0.594589
Si Si7 0.799955 0.922636 0.699619
Si Si8 0.630271 0.680660 0.815143
O O1 0.773474 0.940434 0.433825
O O2 0.835828 0.678778 0.347294
O O3 0.717601 0.009866 0.690010
O O4 0.423344 0.004683 0.732312
O O5 0.402580 0.724726 0.347917
O O6 0.458813 0.390228 0.113467
O O7 0.500000 0.500000 0.000000
O O8 0.792729 0.388756 0.924739
O O9 0.772598 0.691463 0.082236
O O10 0.012255 0.671739 0.824363
O O11 0.880667 0.933141 0.201099
O O12 0.000000 0.500000 0.000000
O O13 0.101375 0.310531 0.486488
O O14 0.264448 0.463497 0.422455
O O15 0.830350 0.665320 0.758685
O O16 0.982128 0.947720 0.657531
O O17 0.570582 0.089519 0.973838
#
# Coordination Sequence:
#
# PCOD8034324 Si02
#       8
#     2   2   2   2   2   2   2   2
#     4  12  22  39  65  99 132 179 216 269 331 398
#     4  12  23  43  70 103 133 173 217 276 335 390
#     4  12  24  44  62 101 138 177 215 270 338 397
#     4  12  23  39  66  94 139 177 209 265 339 400
#     4  11  24  46  70  93 131 180 229 270 329 392
#     4  12  24  39  65 102 143 166 217 282 332 395
#     4  12  23  42  69 100 125 174 230 275 327 390
#     4  11  24  44  71  97 130 172 229 282 317 385
#
# _framework density 22.141207999999999
#
# number of rings (size 3 to 8) (size 9 to 14) (size 15 to 20)
#    0.000    0.250    6.250    4.875    0.000    0.000 
#    0.000    1.250    0.000    0.000    0.000    0.000 
#    0.000    0.000    0.000    0.000    0.000    0.000 
#
# Total GULP energy -198246.535180 kJ/mol
# GULP energy per Si atom -12390.408449 kJ/mol
# Density = 2.209081 g / cm^3
# Si number density = 22.141208 Si / 1000 Ang^3
#
#
#
# Elastic Constant Matrix: (Units=GPa)
#
#
# Indices 1 2 3 4 5 6 
#
# 1 131.8478 21.4264 48.5894 -14.4292 12.6410 -6.0189
# 2 21.4264 50.6333 24.1753 -7.5360 5.8877 -0.2885
# 3 48.5894 24.1753 137.9610 -2.5820 11.9199 -5.9346
# 4 -14.4292 -7.5360 -2.5820 31.4164 -8.1541 4.5739
# 5 12.6410 5.8877 11.9199 -8.1541 46.8573 2.2482
# 6 -6.0189 -0.2885 -5.9346 4.5739 2.2482 18.7550
#
#
#
# Elastic Compliance Matrix: (Units=1/GPa)
#
#
# Indices 1 2 3 4 5 6 
#
# 1 0.009451 -0.002089 -0.002742 0.003103 -0.001122 0.001511
# 2 -0.002089 0.022902 -0.003244 0.004455 -0.000601 -0.002359
# 3 -0.002742 -0.003244 0.008997 -0.002105 -0.001634 0.002626
# 4 0.003103 0.004455 -0.002105 0.037084 0.006041 -0.009370
# 5 -0.001122 -0.000601 -0.001634 0.006041 0.023434 -0.005169
# 6 0.001511 -0.002359 0.002626 -0.009370 -0.005169 0.057503
#
#
# Mechanical properties :
#
#
# Convention : Reuss Voigt Hill
#
# Bulk Modulus (GPa) = 39.68246 56.53602 48.10924
# Shear Modulus (GPa) = 27.18552 34.48915 30.83734
#
# Velocity S-wave (km/s) = 3.50783 3.95104 3.73602
# Velocity P-wave (km/s) = 5.86241 6.81205 6.35499
#
# Compressibility (1/GPa) = 0.02520005
#
# Stress axis : x y z
#
# Youngs Moduli (GPa) = 105.81148 43.66428 111.14269
#
# Poissons Ratio (x) = 0.09121 0.30481
# Poissons Ratio (y) = 0.22103 0.36051
# Poissons Ratio (z) = 0.29019 0.14163
#
# Static dielectric constant tensor:
#      x y z
#    x 3.931540 -0.212970 0.199770 
#    y -0.212970 4.694840 1.153030 
#    z 0.199770 1.153030 5.561740 
# 
# 
# High freq. dielectric constant tensor:
#      x y z
#    x 1.863810 -0.020190 0.001990 
#    y -0.020190 1.841460 0.016290 
#    z 0.001990 0.016290 1.905850 
# 
# From -- ./inp_files/382349.got.cif
#   From: 2010.06.25/outbox.cif.g09.slc.cpg/sg2_192_cif.got.tgz:382349.got - 2010.06.27 13:26:56.
