data_PCOD8034313
_publ_section_title
;
Structure prediction by ZEFSAII (Michael W. Deem and Ramdas Pophale) SiO2 
 PCOD8034313
Probable space group: P -1
;
_chemical_formula_sum "Si O2"
_cell_formula_units_Z 14
_cell_length_a 11.562336
_cell_length_b 6.300436
_cell_length_c 9.034743
_cell_angle_alpha 107.046604
_cell_angle_beta 75.311575
_cell_angle_gamma 80.513087
_cell_volume 587.977416
_symmetry_space_group_name_H-M "P -1"
_symmetry_group_IT_number 2
_symmetry_cell_setting 'triclinic'
loop_
_space_group_symop_operation_xyz
x,y,z
-x,-y,-z
loop_
_atom_site_type_symbol
_atom_site_label
_atom_site_fract_x
_atom_site_fract_y
_atom_site_fract_z
Si Si1 0.417927 0.254862 0.066995
Si Si2 0.252885 0.942701 0.391658
Si Si3 0.170676 0.160451 0.186224
Si Si4 0.743491 0.621411 0.349672
Si Si5 0.915450 0.188738 0.346912
Si Si6 0.907864 0.753523 0.092985
Si Si7 0.485044 0.375674 0.750436
O O1 0.273503 0.304034 0.171872
O O2 0.478420 0.386508 0.194881
O O3 0.419161 0.336494 0.915485
O O4 0.500000 0.000000 0.000000
O O5 0.150673 0.835281 0.481172
O O6 0.390635 0.815683 0.367001
O O7 0.233403 0.931302 0.217062
O O8 0.240965 0.210507 0.488082
O O9 0.041558 0.276350 0.341335
O O10 0.130980 0.118900 0.024529
O O11 0.820937 0.363799 0.307707
O O12 0.786469 0.721256 0.206340
O O13 0.603101 0.613397 0.360759
O O14 0.961412 0.934970 0.205675
O O15 0.000000 0.500000 0.000000
#
# Coordination Sequence:
#
# PCOD8034313 Si02
#       7
#     2   2   2   2   2   2   2
#     4  11  25  42  70 107 132 180 232 291 346 394
#     4  11  27  46  67 107 140 189 228 279 353 413
#     4  12  24  46  75  99 146 174 233 293 343 413
#     4  11  25  46  71 101 142 184 234 284 344 415
#     4  11  27  45  69 105 141 184 228 282 359 409
#     4  11  24  44  71 106 133 181 234 286 348 409
#     4  11  25  45  72 100 141 181 238 284 341 410
#
# _framework density 23.810435999999999
#
# number of rings (size 3 to 8) (size 9 to 14) (size 15 to 20)
#    0.000    0.857    4.286    1.286    4.000    2.286 
#    0.000    0.000    0.000    0.000    0.000    0.000 
#    0.000    0.000    0.000    0.000    0.000    0.000 
#
# Total GULP energy -173488.243706 kJ/mol
# GULP energy per Si atom -12392.017408 kJ/mol
# Density = 2.375624 g / cm^3
# Si number density = 23.810436 Si / 1000 Ang^3
#
#
#
# Elastic Constant Matrix: (Units=GPa)
#
#
# Indices 1 2 3 4 5 6 
#
# 1 169.6250 52.2387 38.7197 -9.5829 -19.8964 0.6356
# 2 52.2387 108.7335 40.3116 6.2248 -5.1099 -5.0080
# 3 38.7197 40.3116 81.9103 -12.9829 -11.6825 8.2578
# 4 -9.5829 6.2248 -12.9829 43.6522 0.6104 -10.3263
# 5 -19.8964 -5.1099 -11.6825 0.6104 37.6675 -10.9683
# 6 0.6356 -5.0080 8.2578 -10.3263 -10.9683 38.4717
#
#
#
# Elastic Compliance Matrix: (Units=1/GPa)
#
#
# Indices 1 2 3 4 5 6 
#
# 1 0.007684 -0.003035 -0.001457 0.001951 0.003550 0.001326
# 2 -0.003035 0.013114 -0.005966 -0.003900 -0.001125 0.001670
# 3 -0.001457 -0.005966 0.017303 0.005108 0.003057 -0.002224
# 4 0.001951 -0.003900 0.005108 0.026926 0.003574 0.006610
# 5 0.003550 -0.001125 0.003057 0.003574 0.031832 0.009173
# 6 0.001326 0.001670 -0.002224 0.006610 0.009173 0.031055
#
#
# Mechanical properties :
#
#
# Convention : Reuss Voigt Hill
#
# Bulk Modulus (GPa) = 58.19043 69.20097 63.69570
# Shear Modulus (GPa) = 32.34977 39.22485 35.78731
#
# Velocity S-wave (km/s) = 3.68997 4.06320 3.88107
# Velocity P-wave (km/s) = 6.53044 7.15116 6.84784
#
# Compressibility (1/GPa) = 0.01718496
#
# Stress axis : x y z
#
# Youngs Moduli (GPa) = 130.13494 76.25221 57.79226
#
# Poissons Ratio (x) = 0.23146 0.08419
# Poissons Ratio (y) = 0.39502 0.34481
# Poissons Ratio (z) = 0.18958 0.45494
#
# Static dielectric constant tensor:
#      x y z
#    x 4.552770 0.195110 -0.231620 
#    y 0.195110 4.226680 -0.231310 
#    z -0.231620 -0.231310 4.431600 
# 
# 
# High freq. dielectric constant tensor:
#      x y z
#    x 1.959380 0.003830 -0.012730 
#    y 0.003830 1.938390 -0.021590 
#    z -0.012730 -0.021590 1.939700 
# 
# From -- ./inp_files/69668.got.cif
#   From: 2010.06.25/outbox.cif.g09.slc.cpg/sg2_35_cif.got.tgz:69668.got - 2010.06.27 13:26:56.
