data_PCOD8034269
_publ_section_title
;
Structure prediction by ZEFSAII (Michael W. Deem and Ramdas Pophale) SiO2 
 PCOD8034269
Probable space group: P -1
;
_chemical_formula_sum "Si O2"
_cell_formula_units_Z 16
_cell_length_a 12.407733
_cell_length_b 8.752672
_cell_length_c 8.745852
_cell_angle_alpha 78.728343
_cell_angle_beta 86.068675
_cell_angle_gamma 129.101389
_cell_volume 699.521421
_symmetry_space_group_name_H-M "P -1"
_symmetry_group_IT_number 2
_symmetry_cell_setting 'triclinic'
loop_
_space_group_symop_operation_xyz
x,y,z
-x,-y,-z
loop_
_atom_site_type_symbol
_atom_site_label
_atom_site_fract_x
_atom_site_fract_y
_atom_site_fract_z
Si Si1 0.367597 0.823299 0.781586
Si Si2 0.867563 0.448348 0.934558
Si Si3 0.893983 0.807862 0.757366
Si Si4 0.352073 0.267587 0.038228
Si Si5 0.817104 0.776484 0.426465
Si Si6 0.383168 0.178508 0.710717
Si Si7 0.335200 0.668126 0.494125
Si Si8 0.675763 0.090824 0.785012
O O1 0.409637 0.784724 0.623946
O O2 0.304398 0.937594 0.739935
O O3 0.507420 0.974648 0.846905
O O4 0.246969 0.603841 0.916631
O O5 0.915693 0.641780 0.792351
O O6 0.782261 0.241106 0.881219
O O7 0.000000 0.500000 0.000000
O O8 0.783413 0.749371 0.913662
O O9 0.836407 0.805774 0.599727
O O10 0.047717 0.035011 0.722163
O O11 0.326773 0.099202 0.191401
O O12 0.500000 0.500000 0.000000
O O13 0.355205 0.207098 0.879248
O O14 0.679549 0.751937 0.409831
O O15 0.794037 0.575131 0.417484
O O16 0.551645 0.314500 0.629340
O O17 0.274782 0.768731 0.400250
#
# Coordination Sequence:
#
# PCOD8034269 Si02
#       8
#     2   2   2   2   2   2   2   2
#     4  11  25  44  73 105 142 182 241 297 353 416
#     4  12  25  48  73 100 141 190 240 291 353 421
#     4  11  27  46  70 101 142 192 232 285 361 423
#     4  12  27  43  72 107 138 182 233 290 355 421
#     4  11  25  47  68  99 148 184 232 291 351 427
#     4  11  24  44  70 103 141 180 233 293 351 418
#     4  11  25  45  73 105 139 188 240 293 352 416
#     4  11  24  46  70 103 140 184 236 297 345 420
#
# _framework density 22.872778
#
# number of rings (size 3 to 8) (size 9 to 14) (size 15 to 20)
#    0.000    0.750    2.500    4.500   10.500    1.500 
#    0.000    1.250    0.000    0.000    0.000    0.000 
#    0.000    0.000    0.000    0.000    0.000    0.000 
#
# Total GULP energy -198334.258902 kJ/mol
# GULP energy per Si atom -12395.891181 kJ/mol
# Density = 2.282072 g / cm^3
# Si number density = 22.872778 Si / 1000 Ang^3
#
#
#
# Elastic Constant Matrix: (Units=GPa)
#
#
# Indices 1 2 3 4 5 6 
#
# 1 82.5454 50.2851 28.5965 -0.8152 13.5269 -2.1763
# 2 50.2851 160.7155 50.1331 -20.6027 5.4223 -2.5172
# 3 28.5965 50.1331 77.0839 1.9134 -1.2452 0.5217
# 4 -0.8152 -20.6027 1.9134 46.8935 -7.4445 6.2784
# 5 13.5269 5.4223 -1.2452 -7.4445 47.4000 -6.1367
# 6 -2.1763 -2.5172 0.5217 6.2784 -6.1367 37.8434
#
#
#
# Elastic Compliance Matrix: (Units=1/GPa)
#
#
# Indices 1 2 3 4 5 6 
#
# 1 0.016649 -0.004264 -0.003426 -0.002229 -0.004660 0.000335
# 2 -0.004264 0.009584 -0.004750 0.004461 0.000674 -0.000173
# 3 -0.003426 -0.004750 0.017423 -0.002600 0.001561 -0.000069
# 4 -0.002229 0.004461 -0.002600 0.024339 0.003456 -0.003273
# 5 -0.004660 0.000674 0.001561 0.003456 0.023317 0.002963
# 6 0.000335 -0.000173 -0.000069 -0.003273 0.002963 0.027457
#
#
# Mechanical properties :
#
#
# Convention : Reuss Voigt Hill
#
# Bulk Modulus (GPa) = 53.25538 64.26383 58.75960
# Shear Modulus (GPa) = 33.35347 39.18273 36.26810
#
# Velocity S-wave (km/s) = 3.82280 4.14342 3.98634
# Velocity P-wave (km/s) = 6.54362 7.14477 6.85079
#
# Compressibility (1/GPa) = 0.01877745
#
# Stress axis : x y z
#
# Youngs Moduli (GPa) = 60.06254 104.33523 57.39404
#
# Poissons Ratio (x) = 0.44488 0.19661
# Poissons Ratio (y) = 0.25610 0.27264
# Poissons Ratio (z) = 0.20575 0.49562
#
# Static dielectric constant tensor:
#      x y z
#    x 4.011870 -0.122810 0.257240 
#    y -0.122810 4.402360 -0.341130 
#    z 0.257240 -0.341130 4.184450 
# 
# 
# High freq. dielectric constant tensor:
#      x y z
#    x 1.886620 -0.006870 0.017830 
#    y -0.006870 1.917100 -0.016650 
#    z 0.017830 -0.016650 1.906420 
# 
# From -- ./inp_files/243551.got.cif
#   From: 2010.06.25/outbox.cif.g09.slc.cpg/sg2_122_cif.got.tgz:243551.got - 2010.06.27 13:26:56.
