data_PCOD8034610
_publ_section_title
;
Structure prediction by ZEFSAII (Michael W. Deem and Ramdas Pophale) SiO2 
 PCOD8034610
Probable space group: P -1
;
_chemical_formula_sum "Si O2"
_cell_formula_units_Z 16
_cell_length_a 18.465434
_cell_length_b 11.896884
_cell_length_c 8.966399
_cell_angle_alpha 128.529864
_cell_angle_beta 81.470943
_cell_angle_gamma 140.310414
_cell_volume 737.018851
_symmetry_space_group_name_H-M "P -1"
_symmetry_group_IT_number 2
_symmetry_cell_setting 'triclinic'
loop_
_space_group_symop_operation_xyz
x,y,z
-x,-y,-z
loop_
_atom_site_type_symbol
_atom_site_label
_atom_site_fract_x
_atom_site_fract_y
_atom_site_fract_z
Si Si1 0.851207 0.751168 0.936460
Si Si2 0.907239 0.219148 0.722126
Si Si3 0.417698 0.746577 0.918001
Si Si4 0.162155 0.727380 0.494442
Si Si5 0.109906 0.297568 0.784871
Si Si6 0.651688 0.677355 0.556195
Si Si7 0.611339 0.122101 0.447973
Si Si8 0.154336 0.949823 0.901831
O O1 0.720660 0.441449 0.629371
O O2 0.867908 0.699431 0.045823
O O3 0.815870 0.860434 0.057686
O O4 0.000000 0.000000 0.000000
O O5 0.882975 0.221745 0.560798
O O6 0.026514 0.300180 0.779255
O O7 0.741028 0.907869 0.584938
O O8 0.000000 0.500000 0.000000
O O9 0.267399 0.564937 0.872049
O O10 0.386813 0.549227 0.671888
O O11 0.500000 0.000000 0.000000
O O12 0.524293 0.900967 0.154435
O O13 0.293898 0.850497 0.491447
O O14 0.217692 0.911690 0.776372
O O15 0.023767 0.382306 0.288323
O O16 0.000000 0.000000 0.500000
O O17 0.500000 0.500000 0.500000
O O18 0.763374 0.870108 0.821281
O O19 0.500000 0.000000 0.500000
#
# Coordination Sequence:
#
# PCOD8034610 Si02
#       8
#     2   2   2   2   2   2   2   2
#     4  12  24  45  75 105 143 190 241 305 360 434
#     4  12  25  45  77 102 145 192 239 304 359 436
#     4  12  29  47  74 108 148 197 242 309 369 432
#     4  11  25  45  72 110 141 188 243 293 367 430
#     4  12  26  47  73 109 143 189 254 295 365 441
#     4  12  27  49  68 107 149 194 246 296 374 434
#     4  12  26  47  72 105 150 186 245 301 367 437
#     4  11  24  45  72 105 143 188 242 301 356 433
#
# _framework density 21.709078000000002
#
# number of rings (size 3 to 8) (size 9 to 14) (size 15 to 20)
#    0.000    0.250    5.000    3.750    3.500    3.000 
#    0.000    1.875    0.000    0.000    0.000    0.000 
#    0.000    0.000    0.000    0.000    0.000    0.000 
#
# Total GULP energy -198323.970265 kJ/mol
# GULP energy per Si atom -12395.248142 kJ/mol
# Density = 2.165967 g / cm^3
# Si number density = 21.709078 Si / 1000 Ang^3
#
#
#
# Elastic Constant Matrix: (Units=GPa)
#
#
# Indices 1 2 3 4 5 6 
#
# 1 164.3471 64.3368 54.4405 4.3907 -14.4178 8.7014
# 2 64.3368 136.5755 43.1163 14.7364 -8.3090 10.1302
# 3 54.4405 43.1163 163.9929 1.8147 -25.6539 -0.4087
# 4 4.3907 14.7364 1.8147 42.5718 -2.3767 1.7230
# 5 -14.4178 -8.3090 -25.6539 -2.3767 37.1544 0.0010
# 6 8.7014 10.1302 -0.4087 1.7230 0.0010 45.2120
#
#
#
# Elastic Compliance Matrix: (Units=1/GPa)
#
#
# Indices 1 2 3 4 5 6 
#
# 1 0.008012 -0.003164 -0.001631 0.000446 0.001304 -0.000865
# 2 -0.003164 0.009697 -0.001516 -0.002923 -0.000293 -0.001466
# 3 -0.001631 -0.001516 0.007721 0.000581 0.004396 0.000701
# 4 0.000446 -0.002923 0.000581 0.024528 0.001490 -0.000360
# 5 0.001304 -0.000293 0.004396 0.001490 0.030486 -0.000203
# 6 -0.000865 -0.001466 0.000701 -0.000360 -0.000203 0.022633
#
#
# Mechanical properties :
#
#
# Convention : Reuss Voigt Hill
#
# Bulk Modulus (GPa) = 78.07880 87.63364 82.85622
# Shear Modulus (GPa) = 41.67734 45.18911 43.43322
#
# Velocity S-wave (km/s) = 4.38632 4.56738 4.47776
# Velocity P-wave (km/s) = 7.85475 8.26254 8.06122
#
# Compressibility (1/GPa) = 0.01280757
#
# Stress axis : x y z
#
# Youngs Moduli (GPa) = 124.81644 103.12022 129.51738
#
# Poissons Ratio (x) = 0.32626 0.21123
# Poissons Ratio (y) = 0.39491 0.19641
# Poissons Ratio (z) = 0.20357 0.15638
#
# Static dielectric constant tensor:
#      x y z
#    x 4.080160 -0.034660 0.128340 
#    y -0.034660 4.019320 0.032560 
#    z 0.128340 0.032560 5.233160 
# 
# 
# High freq. dielectric constant tensor:
#      x y z
#    x 1.862340 0.003380 -0.012440 
#    y 0.003380 1.854110 0.004390 
#    z -0.012440 0.004390 1.879350 
# 
# From -- ./inp_files/333766.got.cif
#   From: 2010.06.25/outbox.cif.g09.slc.cpg/sg2_167_cif.got.tgz:333766.got - 2010.06.27 13:26:56.
