data_PCOD8034111
_publ_section_title
;
Structure prediction by ZEFSAII (Michael W. Deem and Ramdas Pophale) SiO2 
 PCOD8034111
Probable space group: P -1
;
_chemical_formula_sum "Si O2"
_cell_formula_units_Z 14
_cell_length_a 9.713613
_cell_length_b 9.125026
_cell_length_c 19.734571
_cell_angle_alpha 55.656150
_cell_angle_beta 152.570528
_cell_angle_gamma 117.042457
_cell_volume 660.409152
_symmetry_space_group_name_H-M "P -1"
_symmetry_group_IT_number 2
_symmetry_cell_setting 'triclinic'
loop_
_space_group_symop_operation_xyz
x,y,z
-x,-y,-z
loop_
_atom_site_type_symbol
_atom_site_label
_atom_site_fract_x
_atom_site_fract_y
_atom_site_fract_z
Si Si1 0.306620 0.677136 0.045879
Si Si2 0.305999 0.969183 0.186673
Si Si3 0.741226 0.328768 0.642456
Si Si4 0.625686 0.705490 0.774891
Si Si5 0.270894 0.862275 0.454805
Si Si6 0.399070 0.334052 0.961379
Si Si7 0.608722 0.954624 0.193682
O O1 0.458917 0.480842 0.184216
O O2 0.393330 0.721653 0.997036
O O3 0.410714 0.828779 0.099087
O O4 0.950078 0.684045 0.887754
O O5 0.305008 0.826372 0.283854
O O6 0.586159 0.897694 0.277797
O O7 0.382484 0.152991 0.205143
O O8 0.000000 0.000000 0.000000
O O9 0.500000 0.500000 0.500000
O O10 0.744969 0.262033 0.584493
O O11 0.058419 0.397056 0.776110
O O12 0.382907 0.751887 0.598368
O O13 0.939579 0.954725 0.306840
O O14 0.500000 0.000000 0.500000
O O15 0.500000 0.500000 0.000000
O O16 0.432646 0.154873 0.067155
#
# Coordination Sequence:
#
# PCOD8034111 Si02
#       7
#     2   2   2   2   2   2   2
#     4  11  24  43  73 104 137 192 245 293 351 436
#     4  12  24  47  72 107 144 186 239 298 355 426
#     4  12  29  46  72 106 151 186 234 301 366 419
#     4  11  25  43  72 104 145 186 238 296 366 423
#     4  12  27  49  71 104 145 190 237 298 358 428
#     4  12  26  44  72 105 140 189 245 291 355 433
#     4  12  26  45  77 100 145 189 241 295 361 425
#
# _framework density 21.198979999999999
#
# number of rings (size 3 to 8) (size 9 to 14) (size 15 to 20)
#    0.000    0.286    5.714    2.143    6.000    2.286 
#    0.000    0.000    0.000    0.000    0.000    0.000 
#    0.000    0.000    0.000    0.000    0.000    0.000 
#
# Total GULP energy -173604.140329 kJ/mol
# GULP energy per Si atom -12400.295738 kJ/mol
# Density = 2.115073 g / cm^3
# Si number density = 21.198980 Si / 1000 Ang^3
#
#
#
# Elastic Constant Matrix: (Units=GPa)
#
#
# Indices 1 2 3 4 5 6 
#
# 1 121.3859 32.4474 27.0616 5.8866 0.3999 -24.2616
# 2 32.4474 160.5725 51.1246 4.9452 -10.1280 -18.9323
# 3 27.0616 51.1246 118.5034 3.8906 -2.3396 -13.6852
# 4 5.8866 4.9452 3.8906 32.9069 -0.9792 -0.0980
# 5 0.3999 -10.1280 -2.3396 -0.9792 39.9451 4.7586
# 6 -24.2616 -18.9323 -13.6852 -0.0980 4.7586 38.8640
#
#
#
# Elastic Compliance Matrix: (Units=1/GPa)
#
#
# Indices 1 2 3 4 5 6 
#
# 1 0.009933 -0.001017 -0.001176 -0.001502 -0.001109 0.005423
# 2 -0.001017 0.007668 -0.002804 -0.000587 0.001547 0.001922
# 3 -0.001176 -0.002804 0.010102 -0.000567 -0.000299 0.001492
# 4 -0.001502 -0.000587 -0.000567 0.030831 0.000760 -0.001439
# 5 -0.001109 0.001547 -0.000299 0.000760 0.025820 -0.003204
# 6 0.005423 0.001922 0.001492 -0.001439 -0.003204 0.030967
#
#
# Mechanical properties :
#
#
# Convention : Reuss Voigt Hill
#
# Bulk Modulus (GPa) = 56.46890 69.08101 62.77495
# Shear Modulus (GPa) = 38.10448 41.66508 39.88478
#
# Velocity S-wave (km/s) = 4.24425 4.43812 4.34227
# Velocity P-wave (km/s) = 7.12135 7.67596 7.40385
#
# Compressibility (1/GPa) = 0.01770886
#
# Stress axis : x y z
#
# Youngs Moduli (GPa) = 100.67867 130.40580 98.99109
#
# Poissons Ratio (x) = 0.13263 0.11639
# Poissons Ratio (y) = 0.10239 0.27759
# Poissons Ratio (z) = 0.11837 0.36569
#
# Static dielectric constant tensor:
#      x y z
#    x 4.182390 -0.008490 -0.120360 
#    y -0.008490 3.920860 0.028180 
#    z -0.120360 0.028180 3.914830 
# 
# 
# High freq. dielectric constant tensor:
#      x y z
#    x 1.856470 -0.000320 -0.002830 
#    y -0.000320 1.843770 0.003050 
#    z -0.002830 0.003050 1.828620 
# 
# From -- ./inp_files/157342.got.cif
#   From: 2010.06.25/outbox.cif.g09.slc.cpg/sg2_79_cif.got.tgz:157342.got - 2010.06.27 13:26:56.
