data_PCOD8034241
_publ_section_title
;
Structure prediction by ZEFSAII (Michael W. Deem and Ramdas Pophale) SiO2 
 PCOD8034241
Probable space group: P -1
;
_chemical_formula_sum "Si O2"
_cell_formula_units_Z 16
_cell_length_a 8.953532
_cell_length_b 22.915289
_cell_length_c 14.252363
_cell_angle_alpha 150.638325
_cell_angle_beta 31.178871
_cell_angle_gamma 130.612498
_cell_volume 688.688526
_symmetry_space_group_name_H-M "P -1"
_symmetry_group_IT_number 2
_symmetry_cell_setting 'triclinic'
loop_
_space_group_symop_operation_xyz
x,y,z
-x,-y,-z
loop_
_atom_site_type_symbol
_atom_site_label
_atom_site_fract_x
_atom_site_fract_y
_atom_site_fract_z
Si Si1 0.380714 0.880238 0.277033
Si Si2 0.584513 0.649124 0.707314
Si Si3 0.298578 0.091658 0.318751
Si Si4 0.635926 0.062723 0.295666
Si Si5 0.265701 0.369055 0.707360
Si Si6 0.747090 0.385111 0.332955
Si Si7 0.740684 0.459395 0.895647
Si Si8 0.459848 0.268267 0.825948
O O1 0.476685 0.830409 0.260714
O O2 0.009204 0.939695 0.548101
O O3 0.506939 0.990962 0.341764
O O4 0.543901 0.772525 0.961744
O O5 0.583781 0.538400 0.623697
O O6 0.295106 0.680009 0.833816
O O7 0.902082 0.607997 0.420244
O O8 0.485512 0.066258 0.279683
O O9 0.182170 0.242906 0.567789
O O10 0.500000 0.000000 0.000000
O O11 0.565327 0.200540 0.573701
O O12 0.000000 0.000000 0.000000
O O13 0.582739 0.336715 0.434852
O O14 0.319219 0.402946 0.832138
O O15 0.000000 0.500000 0.000000
O O16 0.097340 0.352287 0.129408
O O17 0.651193 0.360872 0.871848
O O18 0.500000 0.500000 0.000000
#
# Coordination Sequence:
#
# PCOD8034241 Si02
#       8
#     2   2   2   2   2   2   2   2
#     4  12  28  46  75 105 148 194 252 302 368 445
#     4  11  24  44  69 107 145 195 242 304 371 436
#     4  12  29  50  80 109 149 199 250 305 378 445
#     4  12  28  50  75 105 149 196 250 306 369 445
#     4  12  26  46  74 109 148 191 244 304 367 446
#     4  11  25  41  72  99 148 186 244 300 373 433
#     4  12  24  42  69 104 147 189 239 305 369 436
#     4  12  26  45  72 108 147 191 247 305 373 437
#
# _framework density 23.232565000000001
#
# number of rings (size 3 to 8) (size 9 to 14) (size 15 to 20)
#    0.000    0.250    2.500    6.000    8.750    1.000 
#    0.000    0.000    0.000    0.000    0.000    0.000 
#    0.000    0.000    0.000    0.000    0.000    0.000 
#
# Total GULP energy -198431.955124 kJ/mol
# GULP energy per Si atom -12401.997195 kJ/mol
# Density = 2.317969 g / cm^3
# Si number density = 23.232565 Si / 1000 Ang^3
#
#
#
# Elastic Constant Matrix: (Units=GPa)
#
#
# Indices 1 2 3 4 5 6 
#
# 1 117.4722 12.6157 40.4826 1.3925 -7.3638 -2.8871
# 2 12.6157 122.2883 30.2195 -13.1890 -5.9915 3.5102
# 3 40.4826 30.2195 97.4355 -6.1499 9.2097 3.9825
# 4 1.3925 -13.1890 -6.1499 40.7370 8.4266 -0.7653
# 5 -7.3638 -5.9915 9.2097 8.4266 45.0288 1.5273
# 6 -2.8871 3.5102 3.9825 -0.7653 1.5273 36.2065
#
#
#
# Elastic Compliance Matrix: (Units=1/GPa)
#
#
# Indices 1 2 3 4 5 6 
#
# 1 0.010381 0.000037 -0.004755 -0.001647 0.002943 0.001188
# 2 0.000037 0.009203 -0.002837 0.002247 0.001410 -0.000589
# 3 -0.004755 -0.002837 0.013722 0.002184 -0.004323 -0.001385
# 4 -0.001647 0.002247 0.002184 0.026790 -0.005437 0.000206
# 5 0.002943 0.001410 -0.004323 -0.005437 0.024799 -0.000587
# 6 0.001188 -0.000589 -0.001385 0.000206 -0.000587 0.027953
#
#
# Mechanical properties :
#
#
# Convention : Reuss Voigt Hill
#
# Bulk Modulus (GPa) = 54.96082 55.98128 55.47105
# Shear Modulus (GPa) = 37.30726 41.31967 39.31347
#
# Velocity S-wave (km/s) = 4.01161 4.22183 4.11806
# Velocity P-wave (km/s) = 6.72053 6.92196 6.82199
#
# Compressibility (1/GPa) = 0.01819478
#
# Stress axis : x y z
#
# Youngs Moduli (GPa) = 96.33373 108.65974 72.87693
#
# Poissons Ratio (x) = -0.00397 0.34653
# Poissons Ratio (y) = -0.00352 0.20674
# Poissons Ratio (z) = 0.45807 0.30825
#
# Static dielectric constant tensor:
#      x y z
#    x 5.495240 0.596300 0.300720 
#    y 0.596300 4.838130 0.096240 
#    z 0.300720 0.096240 4.086560 
# 
# 
# High freq. dielectric constant tensor:
#      x y z
#    x 1.937030 0.004270 0.002680 
#    y 0.004270 1.931770 -0.007020 
#    z 0.002680 -0.007020 1.920440 
# 
# From -- ./inp_files/508734.got.cif
#   From: 2010.06.25/outbox.cif.g09.slc.cpg/sg2_255_cif.got.tgz:508734.got - 2010.06.27 13:26:56.
