data_PCOD8034947
_publ_section_title
;
Structure prediction by ZEFSAII (Michael W. Deem and Ramdas Pophale) SiO2 
 PCOD8034947
Probable space group: P -1
;
_chemical_formula_sum "Si O2"
_cell_formula_units_Z 12
_cell_length_a 8.876285
_cell_length_b 6.123432
_cell_length_c 8.840964
_cell_angle_alpha 103.086203
_cell_angle_beta 97.706347
_cell_angle_gamma 86.442260
_cell_volume 463.579131
_symmetry_space_group_name_H-M "P -1"
_symmetry_group_IT_number 2
_symmetry_cell_setting 'triclinic'
loop_
_space_group_symop_operation_xyz
x,y,z
-x,-y,-z
loop_
_atom_site_type_symbol
_atom_site_label
_atom_site_fract_x
_atom_site_fract_y
_atom_site_fract_z
Si Si1 0.087548 0.963468 0.237669
Si Si2 0.675354 0.717322 0.734639
Si Si3 0.353897 0.895075 0.732608
Si Si4 0.352479 0.351568 0.935507
Si Si5 0.850599 0.259016 0.094729
Si Si6 0.123279 0.652230 0.456728
O O1 0.036246 0.821183 0.353423
O O2 0.253144 0.064611 0.299820
O O3 0.087407 0.796428 0.070647
O O4 0.980058 0.185434 0.223466
O O5 0.496538 0.738442 0.677063
O O6 0.748565 0.491247 0.639359
O O7 0.701007 0.731273 0.920349
O O8 0.305537 0.861594 0.897563
O O9 0.210389 0.817796 0.605494
O O10 0.388869 0.159925 0.782999
O O11 0.201489 0.479379 0.866490
O O12 0.500000 0.500000 0.000000
O O13 0.000000 0.500000 0.500000
#
# Coordination Sequence:
#
# PCOD8034947 Si02
#       6
#     2   2   2   2   2   2
#     4  11  26  49  78 114 161 207 265 328 390 468
#     4  12  25  48  80 116 158 205 265 328 393 466
#     4  12  27  47  81 121 154 207 263 327 397 463
#     4  12  24  47  83 121 158 201 263 329 393 469
#     4  11  24  46  80 119 151 210 262 320 393 467
#     4  12  30  55  77 114 164 213 261 326 398 472
#
# _framework density 25.885548
#
# number of rings (size 3 to 8) (size 9 to 14) (size 15 to 20)
#    0.000    0.333    5.000    3.000    0.000    8.000 
#    0.000    0.833    0.000    0.000    0.000    0.000 
#    0.000    0.000    0.000    0.000    0.000    0.000 
#
# Total GULP energy -148663.149228 kJ/mol
# GULP energy per Si atom -12388.595769 kJ/mol
# Density = 2.582663 g / cm^3
# Si number density = 25.885548 Si / 1000 Ang^3
#
#
#
# Elastic Constant Matrix: (Units=GPa)
#
#
# Indices 1 2 3 4 5 6 
#
# 1 132.8563 52.7697 62.1500 -1.9987 -1.5151 -4.5743
# 2 52.7697 134.5126 81.8939 -7.2344 9.7923 -9.3167
# 3 62.1500 81.8939 120.1257 7.0148 1.5210 -0.9004
# 4 -1.9987 -7.2344 7.0148 61.1727 2.7046 -6.2442
# 5 -1.5151 9.7923 1.5210 2.7046 41.0418 4.0522
# 6 -4.5743 -9.3167 -0.9004 -6.2442 4.0522 57.8837
#
#
#
# Elastic Compliance Matrix: (Units=1/GPa)
#
#
# Indices 1 2 3 4 5 6 
#
# 1 0.010139 -0.001251 -0.004440 0.000717 0.000735 0.000557
# 2 -0.001251 0.014022 -0.009028 0.003073 -0.003516 0.002595
# 3 -0.004440 -0.009028 0.016939 -0.003442 0.001790 -0.002037
# 4 0.000717 0.003073 -0.003442 0.017474 -0.001980 0.002521
# 5 0.000735 -0.003516 0.001790 -0.001980 0.025541 -0.002482
# 6 0.000557 0.002595 -0.002037 0.002521 -0.002482 0.018152
#
#
# Mechanical properties :
#
#
# Convention : Reuss Voigt Hill
#
# Bulk Modulus (GPa) = 85.73736 86.79132 86.26434
# Shear Modulus (GPa) = 36.87544 44.73169 40.80356
#
# Velocity S-wave (km/s) = 3.77842 4.16150 3.97458
# Velocity P-wave (km/s) = 7.22696 7.52944 7.37975
#
# Compressibility (1/GPa) = 0.01166353
#
# Stress axis : x y z
#
# Youngs Moduli (GPa) = 98.62803 71.31530 59.03419
#
# Poissons Ratio (x) = 0.08921 0.26211
# Poissons Ratio (y) = 0.12337 0.53295
# Poissons Ratio (z) = 0.43790 0.64382
#
# Static dielectric constant tensor:
#      x y z
#    x 4.862210 -0.132040 -0.351100 
#    y -0.132040 4.827270 -0.139030 
#    z -0.351100 -0.139030 4.640210 
# 
# 
# High freq. dielectric constant tensor:
#      x y z
#    x 2.048270 -0.006740 -0.016860 
#    y -0.006740 2.043170 0.006430 
#    z -0.016860 0.006430 2.025530 
# 
# From -- ./inp_files/143812.got.cif
#   From: 2010.06.25/outbox.cif.g09.slc.cpg/sg2_72_cif.got.tgz:143812.got - 2010.06.27 13:26:56.
