data_PCOD8034392
_publ_section_title
;
Structure prediction by ZEFSAII (Michael W. Deem and Ramdas Pophale) SiO2 
 PCOD8034392
Probable space group: P -1
;
_chemical_formula_sum "Si O2"
_cell_formula_units_Z 16
_cell_length_a 23.063379
_cell_length_b 17.038577
_cell_length_c 14.804041
_cell_angle_alpha 149.866709
_cell_angle_beta 160.110474
_cell_angle_gamma 20.661045
_cell_volume 692.842210
_symmetry_space_group_name_H-M "P -1"
_symmetry_group_IT_number 2
_symmetry_cell_setting 'triclinic'
loop_
_space_group_symop_operation_xyz
x,y,z
-x,-y,-z
loop_
_atom_site_type_symbol
_atom_site_label
_atom_site_fract_x
_atom_site_fract_y
_atom_site_fract_z
Si Si1 0.657473 0.308213 0.762932
Si Si2 0.997291 0.641731 0.707263
Si Si3 0.700040 0.242526 0.065805
Si Si4 0.720667 0.694393 0.055256
Si Si5 0.244108 0.975673 0.544890
Si Si6 0.957086 0.471596 0.808174
Si Si7 0.193561 0.763222 0.595671
Si Si8 0.427822 0.880220 0.396237
O O1 0.692390 0.173747 0.595448
O O2 0.399614 0.570063 0.634606
O O3 0.653400 0.211880 0.752489
O O4 0.876811 0.286135 0.076592
O O5 0.133147 0.517004 0.876035
O O6 0.000000 0.500000 0.500000
O O7 0.713704 0.868124 0.535297
O O8 0.677121 0.225600 0.122561
O O9 0.500000 0.500000 0.000000
O O10 0.643642 0.117347 0.808497
O O11 0.972978 0.120828 0.324519
O O12 0.828224 0.624802 0.041727
O O13 0.730390 0.858478 0.279671
O O14 0.441954 0.816049 0.756504
O O15 0.936281 0.298401 0.607365
O O16 0.715655 0.718048 0.664056
O O17 0.000000 0.500000 0.000000
O O18 0.000000 0.000000 0.500000
#
# Coordination Sequence:
#
# PCOD8034392 Si02
#       8
#     2   2   2   2   2   2   2   2
#     4  11  24  45  69 100 139 186 238 283 358 424
#     4  12  28  41  66 106 143 181 239 299 356 420
#     4  12  22  44  74 103 134 186 241 291 346 424
#     4  11  25  44  69 105 141 187 231 293 364 427
#     4  11  24  44  74  94 143 186 234 285 358 427
#     4  11  24  47  70  98 143 185 235 285 366 430
#     4  11  26  43  73 102 137 183 237 296 350 417
#     4  11  24  44  74 100 134 193 237 293 354 423
#
# _framework density 23.09328
#
# number of rings (size 3 to 8) (size 9 to 14) (size 15 to 20)
#    0.000    0.750    5.000    2.625    3.500    6.000 
#    0.000    0.000    0.000    0.000    0.000    0.000 
#    0.000    0.000    0.000    0.000    0.000    0.000 
#
# Total GULP energy -198429.295575 kJ/mol
# GULP energy per Si atom -12401.830973 kJ/mol
# Density = 2.304072 g / cm^3
# Si number density = 23.093280 Si / 1000 Ang^3
#
#
#
# Elastic Constant Matrix: (Units=GPa)
#
#
# Indices 1 2 3 4 5 6 
#
# 1 75.9494 39.0934 25.4219 -6.2197 -22.0044 -17.2171
# 2 39.0934 169.8436 49.5893 -23.7100 -22.4707 -22.8394
# 3 25.4219 49.5893 123.5096 -12.1730 -22.1167 -22.8113
# 4 -6.2197 -23.7100 -12.1730 52.3001 -9.1898 -12.8319
# 5 -22.0044 -22.4707 -22.1167 -9.1898 37.3802 -0.7315
# 6 -17.2171 -22.8394 -22.8113 -12.8319 -0.7315 39.9759
#
#
#
# Elastic Compliance Matrix: (Units=1/GPa)
#
#
# Indices 1 2 3 4 5 6 
#
# 1 0.020868 -0.000340 0.001873 0.008672 0.015573 0.012931
# 2 -0.000340 0.008847 -0.000298 0.006817 0.006755 0.007049
# 3 0.001873 -0.000298 0.012215 0.007186 0.010115 0.010098
# 4 0.008672 0.006817 0.007186 0.034551 0.022404 0.023231
# 5 0.015573 0.006755 0.010115 0.022404 0.051952 0.024480
# 6 0.012931 0.007049 0.010098 0.023231 0.024480 0.048279
#
#
# Mechanical properties :
#
#
# Convention : Reuss Voigt Hill
#
# Bulk Modulus (GPa) = 22.52310 66.39019 44.45665
# Shear Modulus (GPa) = 26.44901 42.94443 34.69672
#
# Velocity S-wave (km/s) = 3.38792 4.31699 3.88036
# Velocity P-wave (km/s) = 5.00782 7.32528 6.27447
#
# Compressibility (1/GPa) = 0.04439886
#
# Stress axis : x y z
#
# Youngs Moduli (GPa) = 47.91928 113.03869 81.86441
#
# Poissons Ratio (x) = 0.03847 -0.15333
# Poissons Ratio (y) = 0.01631 0.02443
# Poissons Ratio (z) = -0.08975 0.03373
#
# Static dielectric constant tensor:
#      x y z
#    x 4.086740 -0.245390 -0.188910 
#    y -0.245390 4.426600 -0.103050 
#    z -0.188910 -0.103050 4.373640 
# 
# 
# High freq. dielectric constant tensor:
#      x y z
#    x 1.900790 -0.019970 -0.015760 
#    y -0.019970 1.930470 -0.010420 
#    z -0.015760 -0.010420 1.918060 
# 
# From -- ./inp_files/543188.got.cif
#   From: 2010.06.25/outbox.cif.g09.slc.cpg/sg2_272_cif.got.tgz:543188.got - 2010.06.27 13:26:56.
