data_PCOD8034804
_publ_section_title
;
Structure prediction by ZEFSAII (Michael W. Deem and Ramdas Pophale) SiO2 
 PCOD8034804
Probable space group: P -1
;
_chemical_formula_sum "Si O2"
_cell_formula_units_Z 16
_cell_length_a 25.109437
_cell_length_b 8.897803
_cell_length_c 9.410224
_cell_angle_alpha 131.668209
_cell_angle_beta 150.913322
_cell_angle_gamma 45.408063
_cell_volume 719.794181
_symmetry_space_group_name_H-M "P -1"
_symmetry_group_IT_number 2
_symmetry_cell_setting 'triclinic'
loop_
_space_group_symop_operation_xyz
x,y,z
-x,-y,-z
loop_
_atom_site_type_symbol
_atom_site_label
_atom_site_fract_x
_atom_site_fract_y
_atom_site_fract_z
Si Si1 0.582624 0.323684 0.482168
Si Si2 0.048109 0.767105 0.528527
Si Si3 0.801573 0.157005 0.510819
Si Si4 0.132717 0.502626 0.309074
Si Si5 0.331851 0.109283 0.417555
Si Si6 0.183223 0.662176 0.053610
Si Si7 0.464313 0.717794 0.969574
Si Si8 0.171801 0.224969 0.860246
O O1 0.500000 0.500000 0.500000
O O2 0.682985 0.408588 0.718700
O O3 0.517867 0.296011 0.168863
O O4 0.637201 0.111907 0.568227
O O5 0.146179 0.605017 0.557125
O O6 0.937634 0.685824 0.232443
O O7 0.101132 0.785757 0.815390
O O8 0.000000 0.000000 0.500000
O O9 0.831043 0.352250 0.630553
O O10 0.849333 0.164939 0.785953
O O11 0.667806 0.168063 0.218754
O O12 0.859767 0.935295 0.424576
O O13 0.231000 0.272685 0.381051
O O14 0.000000 0.500000 0.000000
O O15 0.450307 0.159262 0.702711
O O16 0.284238 0.103656 0.142290
O O17 0.173341 0.432335 0.913456
O O18 0.500000 0.500000 0.000000
#
# Coordination Sequence:
#
# PCOD8034804 Si02
#       8
#     2   2   2   2   2   2   2   2
#     4  11  28  45  69 107 143 189 249 300 362 437
#     4  12  25  44  72 105 144 191 241 300 365 432
#     4  11  25  46  72 104 146 191 242 302 364 432
#     4  12  24  45  75 106 149 188 241 302 364 433
#     4  12  25  45  75 105 149 192 243 304 366 429
#     4  11  26  48  67 106 149 184 247 301 360 443
#     4  11  24  46  71 103 144 189 242 295 365 434
#     4  12  25  46  74 108 142 196 245 296 371 431
#
# _framework density 22.228577999999999
#
# number of rings (size 3 to 8) (size 9 to 14) (size 15 to 20)
#    0.000    0.500    5.000    2.250    5.250    3.000 
#    0.000    0.000    0.000    0.000    0.000    0.000 
#    0.000    0.000    0.000    0.000    0.000    0.000 
#
# Total GULP energy -198307.914149 kJ/mol
# GULP energy per Si atom -12394.244634 kJ/mol
# Density = 2.217798 g / cm^3
# Si number density = 22.228578 Si / 1000 Ang^3
#
#
#
# Elastic Constant Matrix: (Units=GPa)
#
#
# Indices 1 2 3 4 5 6 
#
# 1 129.8219 47.9266 48.8975 4.3473 -12.5545 -5.4138
# 2 47.9266 127.6789 23.9534 9.0433 -27.2756 -3.4296
# 3 48.8975 23.9534 112.9686 -0.3465 -15.0942 2.3949
# 4 4.3473 9.0433 -0.3465 30.8165 11.9450 0.0580
# 5 -12.5545 -27.2756 -15.0942 11.9450 47.8015 -11.0275
# 6 -5.4138 -3.4296 2.3949 0.0580 -11.0275 33.0468
#
#
#
# Elastic Compliance Matrix: (Units=1/GPa)
#
#
# Indices 1 2 3 4 5 6 
#
# 1 0.010400 -0.002982 -0.003852 -0.000807 0.000435 0.001820
# 2 -0.002982 0.011133 -0.000122 -0.005857 0.007749 0.003272
# 3 -0.003852 -0.000122 0.010857 -0.000162 0.002229 -0.000686
# 4 -0.000807 -0.005857 -0.000162 0.040091 -0.014959 -0.005791
# 5 0.000435 0.007749 0.002229 -0.014959 0.032576 0.011611
# 6 0.001820 0.003272 -0.000686 -0.005791 0.011611 0.034832
#
#
# Mechanical properties :
#
#
# Convention : Reuss Voigt Hill
#
# Bulk Modulus (GPa) = 54.11926 68.00271 61.06099
# Shear Modulus (GPa) = 31.25804 38.97908 35.11856
#
# Velocity S-wave (km/s) = 3.75401 4.19209 3.97909
# Velocity P-wave (km/s) = 6.57189 7.35462 6.97424
#
# Compressibility (1/GPa) = 0.01847771
#
# Stress axis : x y z
#
# Youngs Moduli (GPa) = 96.15755 89.82706 92.10607
#
# Poissons Ratio (x) = 0.26787 0.35479
# Poissons Ratio (y) = 0.28674 0.01121
# Poissons Ratio (z) = 0.37040 0.01093
#
# Static dielectric constant tensor:
#      x y z
#    x 4.340900 -0.134910 0.066500 
#    y -0.134910 3.581290 -0.302920 
#    z 0.066500 -0.302920 4.153490 
# 
# 
# High freq. dielectric constant tensor:
#      x y z
#    x 1.900030 0.003910 0.004180 
#    y 0.003910 1.865060 0.006410 
#    z 0.004180 0.006410 1.890940 
# 
# From -- ./inp_files/338209.got.cif
#   From: 2010.06.25/outbox.cif.g09.slc.cpg/sg2_170_cif.got.tgz:338209.got - 2010.06.27 13:26:56.
