data_PCOD8034207
_publ_section_title
;
Structure prediction by ZEFSAII (Michael W. Deem and Ramdas Pophale) SiO2 
 PCOD8034207
Probable space group: P -1
;
_chemical_formula_sum "Si O2"
_cell_formula_units_Z 16
_cell_length_a 12.437063
_cell_length_b 8.678064
_cell_length_c 18.539513
_cell_angle_alpha 56.590736
_cell_angle_beta 151.637984
_cell_angle_gamma 130.864430
_cell_volume 717.095240
_symmetry_space_group_name_H-M "P -1"
_symmetry_group_IT_number 2
_symmetry_cell_setting 'triclinic'
loop_
_space_group_symop_operation_xyz
x,y,z
-x,-y,-z
loop_
_atom_site_type_symbol
_atom_site_label
_atom_site_fract_x
_atom_site_fract_y
_atom_site_fract_z
Si Si1 0.368206 0.425936 0.515901
Si Si2 0.858715 0.284850 0.509405
Si Si3 0.552422 0.915958 0.925547
Si Si4 0.039217 0.669113 0.922672
Si Si5 0.245216 0.011383 0.603126
Si Si6 0.604963 0.797260 0.658050
Si Si7 0.095136 0.608650 0.809422
Si Si8 0.989549 0.778266 0.231599
O O1 0.500000 0.500000 0.500000
O O2 0.432423 0.254323 0.637963
O O3 0.419525 0.634992 0.533834
O O4 0.070618 0.308654 0.357037
O O5 0.569137 0.242233 0.364186
O O6 0.000000 0.500000 0.500000
O O7 0.027136 0.297600 0.676294
O O8 0.846694 0.103079 0.497700
O O9 0.378567 0.778268 0.923077
O O10 0.391669 0.901636 0.761945
O O11 0.772515 0.845046 0.064137
O O12 0.679113 0.153991 0.960155
O O13 0.989328 0.576367 0.836902
O O14 0.844909 0.750650 0.816826
O O15 0.000000 0.500000 0.000000
O O16 0.000000 0.000000 0.500000
O O17 0.725751 0.039466 0.648868
O O18 0.051686 0.389619 0.809920
#
# Coordination Sequence:
#
# PCOD8034207 Si02
#       8
#     2   2   2   2   2   2   2   2
#     4  12  23  41  73 102 138 178 242 290 348 407
#     4  12  26  44  71 105 142 184 237 294 348 417
#     4  11  26  47  69 104 143 186 235 290 360 420
#     4  11  26  45  70 104 144 185 234 293 353 420
#     4  12  26  45  72 104 140 181 240 291 348 420
#     4  11  24  44  68 102 137 182 234 285 348 419
#     4  12  24  44  73 101 139 192 234 290 350 420
#     4  11  26  46  73 103 143 189 234 289 358 424
#
# _framework density 22.312239999999999
#
# number of rings (size 3 to 8) (size 9 to 14) (size 15 to 20)
#    0.000    0.500    3.750    4.125    3.500    3.000 
#    0.000    2.500    0.000    0.000    0.000    0.000 
#    0.000    0.000    0.000    0.000    0.000    0.000 
#
# Total GULP energy -198260.349004 kJ/mol
# GULP energy per Si atom -12391.271813 kJ/mol
# Density = 2.226146 g / cm^3
# Si number density = 22.312240 Si / 1000 Ang^3
#
#
#
# Elastic Constant Matrix: (Units=GPa)
#
#
# Indices 1 2 3 4 5 6 
#
# 1 120.1710 75.0448 38.1318 -3.4558 13.5687 1.9648
# 2 75.0448 167.1583 38.3177 9.7759 -4.6154 12.2666
# 3 38.1318 38.3177 106.6949 1.3159 3.6620 7.7137
# 4 -3.4558 9.7759 1.3159 34.6734 8.1744 -1.2972
# 5 13.5687 -4.6154 3.6620 8.1744 31.6170 4.5827
# 6 1.9648 12.2666 7.7137 -1.2972 4.5827 43.8421
#
#
#
# Elastic Compliance Matrix: (Units=1/GPa)
#
#
# Indices 1 2 3 4 5 6 
#
# 1 0.014412 -0.006606 -0.002749 0.005549 -0.008665 0.002756
# 2 -0.006606 0.009889 -0.001118 -0.004965 0.006136 -0.003062
# 3 -0.002749 -0.001118 0.010867 -0.000449 0.000091 -0.001499
# 4 0.005549 -0.004965 -0.000449 0.033845 -0.012313 0.003508
# 5 -0.008665 0.006136 0.000091 -0.012313 0.040274 -0.005918
# 6 0.002756 -0.003062 -0.001499 0.003508 -0.005918 0.024529
#
#
# Mechanical properties :
#
#
# Convention : Reuss Voigt Hill
#
# Bulk Modulus (GPa) = 70.31350 77.44586 73.87968
# Shear Modulus (GPa) = 31.34748 38.19516 34.77132
#
# Velocity S-wave (km/s) = 3.75233 4.14194 3.95194
# Velocity P-wave (km/s) = 7.09613 7.59339 7.34897
#
# Compressibility (1/GPa) = 0.01422202
#
# Stress axis : x y z
#
# Youngs Moduli (GPa) = 69.38662 101.12175 92.01956
#
# Poissons Ratio (x) = 0.66803 0.25292
# Poissons Ratio (y) = 0.45838 0.10292
# Poissons Ratio (z) = 0.19071 0.11310
#
# Static dielectric constant tensor:
#      x y z
#    x 4.949860 -0.911140 0.113620 
#    y -0.911140 5.310910 0.149100 
#    z 0.113620 0.149100 4.289180 
# 
# 
# High freq. dielectric constant tensor:
#      x y z
#    x 1.879030 0.002020 0.013970 
#    y 0.002020 1.900250 0.006750 
#    z 0.013970 0.006750 1.882970 
# 
# From -- ./inp_files/279245.got.cif
#   From: 2010.06.25/outbox.cif.g09.slc.cpg/sg2_140_cif.got.tgz:279245.got - 2010.06.27 13:26:56.
