data_PCOD8034379
_publ_section_title
;
Structure prediction by ZEFSAII (Michael W. Deem and Ramdas Pophale) SiO2 
 PCOD8034379
Probable space group: P -1
;
_chemical_formula_sum "Si O2"
_cell_formula_units_Z 16
_cell_length_a 9.339678
_cell_length_b 18.131862
_cell_length_c 11.450483
_cell_angle_alpha 42.760696
_cell_angle_beta 142.847571
_cell_angle_gamma 144.419800
_cell_volume 660.682998
_symmetry_space_group_name_H-M "P -1"
_symmetry_group_IT_number 2
_symmetry_cell_setting 'triclinic'
loop_
_space_group_symop_operation_xyz
x,y,z
-x,-y,-z
loop_
_atom_site_type_symbol
_atom_site_label
_atom_site_fract_x
_atom_site_fract_y
_atom_site_fract_z
Si Si1 0.392014 0.949963 0.249893
Si Si2 0.528397 0.629302 0.909026
Si Si3 0.415547 0.701864 0.157804
Si Si4 0.151324 0.278006 0.759110
Si Si5 0.066763 0.773540 0.706899
Si Si6 0.265630 0.169783 0.400806
Si Si7 0.274424 0.030600 0.856064
Si Si8 0.058501 0.419868 0.350337
O O1 0.516681 0.868738 0.369971
O O2 0.158734 0.858322 0.302717
O O3 0.655087 0.086164 0.314611
O O4 0.211925 0.977450 0.009901
O O5 0.592560 0.720434 0.733928
O O6 0.241409 0.594757 0.827209
O O7 0.500000 0.500000 0.000000
O O8 0.784736 0.697787 0.089561
O O9 0.604959 0.729125 0.135445
O O10 0.598529 0.815063 0.240746
O O11 0.308203 0.563912 0.306040
O O12 0.148021 0.704519 0.937037
O O13 0.135803 0.394871 0.557936
O O14 0.940132 0.684579 0.612958
O O15 0.824843 0.784292 0.598943
O O16 0.995593 0.037946 0.323699
O O17 0.500000 0.000000 0.000000
#
# Coordination Sequence:
#
# PCOD8034379 Si02
#       8
#     2   2   2   2   2   2   2   2
#     4  11  25  44  71 111 145 187 244 295 364 426
#     4  12  28  48  76 104 150 194 239 306 363 434
#     4  11  25  46  73 104 147 192 246 303 358 432
#     4  12  27  48  72 110 143 193 244 298 367 432
#     4  11  25  45  79 107 145 196 237 301 362 434
#     4  12  24  48  74 111 149 189 243 302 365 427
#     4  11  24  44  73 106 141 194 242 299 360 430
#     4  12  27  51  71 109 148 195 246 294 367 435
#
# _framework density 24.217365000000001
#
# number of rings (size 3 to 8) (size 9 to 14) (size 15 to 20)
#    0.000    0.500    6.250    1.875    3.500    4.000 
#    2.250    0.000    0.000    0.000    0.000    0.000 
#    0.000    0.000    0.000    0.000    0.000    0.000 
#
# Total GULP energy -198446.235415 kJ/mol
# GULP energy per Si atom -12402.889713 kJ/mol
# Density = 2.416225 g / cm^3
# Si number density = 24.217365 Si / 1000 Ang^3
#
#
#
# Elastic Constant Matrix: (Units=GPa)
#
#
# Indices 1 2 3 4 5 6 
#
# 1 105.5549 74.3566 28.1204 -11.6005 5.5157 6.6428
# 2 74.3566 142.5680 40.4102 -29.4070 -0.1070 -2.2202
# 3 28.1204 40.4102 115.5070 -12.5666 -0.5235 -4.7972
# 4 -11.6005 -29.4070 -12.5666 39.4471 1.5035 -1.1425
# 5 5.5157 -0.1070 -0.5235 1.5035 30.6019 -2.9698
# 6 6.6428 -2.2202 -4.7972 -1.1425 -2.9698 39.8433
#
#
#
# Elastic Compliance Matrix: (Units=1/GPa)
#
#
# Indices 1 2 3 4 5 6 
#
# 1 0.015907 -0.008389 -0.001315 -0.001978 -0.003168 -0.003571
# 2 -0.008389 0.013360 -0.001778 0.006938 0.001404 0.002233
# 3 -0.001315 -0.001778 0.009815 0.001437 0.000462 0.001378
# 4 -0.001978 0.006938 0.001437 0.030483 -0.000928 0.001694
# 5 -0.003168 0.001404 0.000462 -0.000928 0.033612 0.003141
# 6 -0.003571 0.002233 0.001378 0.001694 0.003141 0.026267
#
#
# Mechanical properties :
#
#
# Convention : Reuss Voigt Hill
#
# Bulk Modulus (GPa) = 62.04487 72.15603 67.10045
# Shear Modulus (GPa) = 31.68941 36.69466 34.19203
#
# Velocity S-wave (km/s) = 3.62130 3.89681 3.76158
# Velocity P-wave (km/s) = 6.56968 7.07860 6.82889
#
# Compressibility (1/GPa) = 0.01611737
#
# Stress axis : x y z
#
# Youngs Moduli (GPa) = 62.86624 74.84809 101.88123
#
# Poissons Ratio (x) = 0.62793 0.13401
# Poissons Ratio (y) = 0.52741 0.18113
# Poissons Ratio (z) = 0.08269 0.13307
#
# Static dielectric constant tensor:
#      x y z
#    x 4.368950 0.103960 -0.032520 
#    y 0.103960 4.263800 -0.267650 
#    z -0.032520 -0.267650 4.539270 
# 
# 
# High freq. dielectric constant tensor:
#      x y z
#    x 1.957000 0.008270 0.002530 
#    y 0.008270 1.959040 -0.010670 
#    z 0.002530 -0.010670 1.986520 
# 
# From -- ./inp_files/402911.got.cif
#   From: 2010.06.25/outbox.cif.g09.slc.cpg/sg2_202_cif.got.tgz:402911.got - 2010.06.27 13:26:56.
