data_PCOD8034066
_publ_section_title
;
Structure prediction by ZEFSAII (Michael W. Deem and Ramdas Pophale) SiO2 
 PCOD8034066
Probable space group: P -1
;
_chemical_formula_sum "Si O2"
_cell_formula_units_Z 14
_cell_length_a 14.589477
_cell_length_b 20.888726
_cell_length_c 12.675747
_cell_angle_alpha 31.783304
_cell_angle_beta 19.970110
_cell_angle_gamma 30.172078
_cell_volume 647.069255
_symmetry_space_group_name_H-M "P -1"
_symmetry_group_IT_number 2
_symmetry_cell_setting 'triclinic'
loop_
_space_group_symop_operation_xyz
x,y,z
-x,-y,-z
loop_
_atom_site_type_symbol
_atom_site_label
_atom_site_fract_x
_atom_site_fract_y
_atom_site_fract_z
Si Si1 0.874937 0.664210 0.291538
Si Si2 0.723289 0.177477 0.383565
Si Si3 0.079731 0.102461 0.497759
Si Si4 0.151010 0.362519 0.395752
Si Si5 0.304864 0.476077 0.655390
Si Si6 0.771167 0.296991 0.737921
Si Si7 0.414316 0.820492 0.243489
O O1 0.561570 0.716478 0.505275
O O2 0.840965 0.668865 0.446606
O O3 0.043798 0.517548 0.274123
O O4 0.044265 0.755419 0.944045
O O5 0.679141 0.114580 0.631513
O O6 0.849946 0.051717 0.346503
O O7 0.948457 0.171578 0.652426
O O8 0.857281 0.162271 0.560367
O O9 0.375245 0.123808 0.123360
O O10 0.940403 0.299385 0.658676
O O11 0.464125 0.290767 0.107346
O O12 0.500000 0.500000 0.500000
O O13 0.273993 0.570007 0.459697
O O14 0.434795 0.330097 0.677490
O O15 0.000000 0.500000 0.000000
#
# Coordination Sequence:
#
# PCOD8034066 Si02
#       7
#     2   2   2   2   2   2   2
#     4  11  24  46  67  96 121 159 222 272 314 368
#     4  12  25  43  67  91 128 173 217 259 308 373
#     4  12  25  42  61  95 135 172 211 251 307 394
#     4  11  24  43  71  94 123 162 209 273 329 373
#     4  12  21  36  58  93 129 158 202 253 304 368
#     4  12  23  41  64  98 132 167 202 258 330 374
#     4  12  22  41  63  93 131 174 212 256 311 372
#
# _framework density 21.636015
#
# number of rings (size 3 to 8) (size 9 to 14) (size 15 to 20)
#    0.000    0.286    2.857    7.714    0.000    2.286 
#    0.000    4.286    0.000    0.000    0.000    0.000 
#    0.000    0.000    0.000    0.000    0.000    0.000 
#
# Total GULP energy -173699.715638 kJ/mol
# GULP energy per Si atom -12407.122546 kJ/mol
# Density = 2.158677 g / cm^3
# Si number density = 21.636015 Si / 1000 Ang^3
#
#
#
# Elastic Constant Matrix: (Units=GPa)
#
#
# Indices 1 2 3 4 5 6 
#
# 1 98.2578 9.9273 13.6341 7.2885 -3.3578 7.5949
# 2 9.9273 87.6223 29.0458 0.4210 3.3244 24.1951
# 3 13.6341 29.0458 72.8285 22.1504 -6.1882 -3.1133
# 4 7.2885 0.4210 22.1504 23.0187 3.9933 -0.7654
# 5 -3.3578 3.3244 -6.1882 3.9933 34.3465 5.6770
# 6 7.5949 24.1951 -3.1133 -0.7654 5.6770 30.3829
#
#
#
# Elastic Compliance Matrix: (Units=1/GPa)
#
#
# Indices 1 2 3 4 5 6 
#
# 1 0.010850 0.000020 -0.001227 -0.002654 0.001681 -0.003235
# 2 0.000020 0.020187 -0.012540 0.011633 -0.002829 -0.016544
# 3 -0.001227 -0.012540 0.028541 -0.027802 0.007635 0.011091
# 4 -0.002654 0.011633 -0.027802 0.072968 -0.013713 -0.007048
# 5 0.001681 -0.002829 0.007635 -0.013713 0.033173 -0.003928
# 6 -0.003235 -0.016544 0.011091 -0.007048 -0.003928 0.048589
#
#
# Mechanical properties :
#
#
# Convention : Reuss Voigt Hill
#
# Bulk Modulus (GPa) = 31.17042 40.43589 35.80315
# Shear Modulus (GPa) = 19.80213 31.28972 25.54592
#
# Velocity S-wave (km/s) = 3.02857 3.80700 3.43988
# Velocity P-wave (km/s) = 5.16408 6.16880 5.68866
#
# Compressibility (1/GPa) = 0.03208170
#
# Stress axis : x y z
#
# Youngs Moduli (GPa) = 92.16645 49.53649 35.03759
#
# Poissons Ratio (x) = -0.00098 0.04300
# Poissons Ratio (y) = -0.00182 0.43939
# Poissons Ratio (z) = 0.11312 0.62121
#
# Static dielectric constant tensor:
#      x y z
#    x 3.963980 0.054790 -0.089480 
#    y 0.054790 4.178750 0.156110 
#    z -0.089480 0.156110 3.900580 
# 
# 
# High freq. dielectric constant tensor:
#      x y z
#    x 1.862080 0.006690 -0.010690 
#    y 0.006690 1.857070 0.012730 
#    z -0.010690 0.012730 1.854240 
# 
# From -- ./inp_files/365225.got.cif
#   From: 2010.06.25/outbox.cif.g09.slc.cpg/sg2_183_cif.got.tgz:365225.got - 2010.06.27 13:26:56.
