data_PCOD8034980
_publ_section_title
;
Structure prediction by ZEFSAII (Michael W. Deem and Ramdas Pophale) SiO2 
 PCOD8034980
Probable space group: P -1
;
_chemical_formula_sum "Si O2"
_cell_formula_units_Z 16
_cell_length_a 13.244270
_cell_length_b 9.373326
_cell_length_c 11.704566
_cell_angle_alpha 113.213340
_cell_angle_beta 134.748270
_cell_angle_gamma 46.521016
_cell_volume 737.242912
_symmetry_space_group_name_H-M "P -1"
_symmetry_group_IT_number 2
_symmetry_cell_setting 'triclinic'
loop_
_space_group_symop_operation_xyz
x,y,z
-x,-y,-z
loop_
_atom_site_type_symbol
_atom_site_label
_atom_site_fract_x
_atom_site_fract_y
_atom_site_fract_z
Si Si1 0.020599 0.643679 0.182175
Si Si2 0.217055 0.465188 0.057522
Si Si3 0.859964 0.236228 0.471849
Si Si4 0.608223 0.150232 0.204955
Si Si5 0.055294 0.662015 0.661213
Si Si6 0.856552 0.185535 0.022912
Si Si7 0.275439 0.218021 0.690974
Si Si8 0.337137 0.934585 0.039032
O O1 0.184609 0.512597 0.181323
O O2 0.100646 0.686154 0.362920
O O3 0.848464 0.838675 0.040618
O O4 0.949146 0.522358 0.125467
O O5 0.407273 0.243798 0.119630
O O6 0.238411 0.614835 0.061107
O O7 0.668072 0.275311 0.345012
O O8 0.860085 0.341896 0.393176
O O9 0.000000 0.000000 0.500000
O O10 0.612177 0.163236 0.076326
O O11 0.738571 0.914767 0.270708
O O12 0.849175 0.739513 0.504416
O O13 0.040496 0.814680 0.784736
O O14 0.189557 0.434577 0.745633
O O15 0.695985 0.183906 0.937835
O O16 0.000000 0.000000 0.000000
O O17 0.485604 0.096227 0.781087
#
# Coordination Sequence:
#
# PCOD8034980 Si02
#       8
#     2   2   2   2   2   2   2   2
#     4  11  24  47  70 100 134 181 228 270 339 409
#     4  11  27  44  71 100 138 182 223 276 338 408
#     4  12  23  41  71  99 136 176 220 285 332 398
#     4  12  24  41  70 106 133 176 229 282 330 400
#     4  11  25  44  64 105 136 178 221 282 347 394
#     4  12  26  45  68  97 142 183 218 276 347 405
#     4  11  25  40  71 100 136 171 227 286 332 393
#     4  12  23  43  68 101 133 174 234 273 328 404
#
# _framework density 21.702480000000001
#
# number of rings (size 3 to 8) (size 9 to 14) (size 15 to 20)
#    0.000    0.500    6.250    1.125    8.750    1.500 
#    0.000    0.625    0.000    0.000    0.000    0.000 
#    0.000    0.000    0.000    0.000    0.000    0.000 
#
# Total GULP energy -198415.523547 kJ/mol
# GULP energy per Si atom -12400.970222 kJ/mol
# Density = 2.165308 g / cm^3
# Si number density = 21.702480 Si / 1000 Ang^3
#
#
#
# Elastic Constant Matrix: (Units=GPa)
#
#
# Indices 1 2 3 4 5 6 
#
# 1 139.8908 51.8529 48.8051 6.4334 5.4775 7.3717
# 2 51.8529 92.9109 28.6256 4.0505 -6.8459 7.2624
# 3 48.8051 28.6256 93.7670 14.4645 10.1052 1.1681
# 4 6.4334 4.0505 14.4645 39.8668 -0.3980 -0.1695
# 5 5.4775 -6.8459 10.1052 -0.3980 30.0988 3.2094
# 6 7.3717 7.2624 1.1681 -0.1695 3.2094 42.3885
#
#
#
# Elastic Compliance Matrix: (Units=1/GPa)
#
#
# Indices 1 2 3 4 5 6 
#
# 1 0.010281 -0.004635 -0.003783 0.000165 -0.001571 -0.000770
# 2 -0.004635 0.014710 -0.002665 0.000265 0.005305 -0.002041
# 3 -0.003783 -0.002665 0.014666 -0.004486 -0.005015 0.001072
# 4 0.000165 0.000265 -0.004486 0.026676 0.001887 0.000013
# 5 -0.001571 0.005305 -0.005015 0.001887 0.036774 -0.003274
# 6 -0.000770 -0.002041 0.001072 0.000013 -0.003274 0.024293
#
#
# Mechanical properties :
#
#
# Convention : Reuss Voigt Hill
#
# Bulk Modulus (GPa) = 57.17251 65.01509 61.09380
# Shear Modulus (GPa) = 32.17566 35.62318 33.89942
#
# Velocity S-wave (km/s) = 3.85461 4.05586 3.95651
# Velocity P-wave (km/s) = 6.79791 7.20804 7.00598
#
# Compressibility (1/GPa) = 0.01749092
#
# Stress axis : x y z
#
# Youngs Moduli (GPa) = 97.27069 67.98183 68.18316
#
# Poissons Ratio (x) = 0.31509 0.25791
# Poissons Ratio (y) = 0.45084 0.18174
# Poissons Ratio (z) = 0.36794 0.18120
#
# Static dielectric constant tensor:
#      x y z
#    x 3.518280 -1.023320 -1.048390 
#    y -1.023320 1.227340 -2.931210 
#    z -1.048390 -2.931210 0.839190 
# 
# 
# High freq. dielectric constant tensor:
#      x y z
#    x 1.860520 0.019670 0.015520 
#    y 0.019670 1.852100 0.006690 
#    z 0.015520 0.006690 1.845430 
# 
# From -- ./inp_files/419619.got.cif
#   From: 2010.06.25/outbox.cif.g09.slc.cpg/sg2_210_cif.got.tgz:419619.got - 2010.06.27 13:26:56.
