data_PCOD8034074
_publ_section_title
;
Structure prediction by ZEFSAII (Michael W. Deem and Ramdas Pophale) SiO2 
 PCOD8034074
Probable space group: P -1
;
_chemical_formula_sum "Si O2"
_cell_formula_units_Z 12
_cell_length_a 17.542753
_cell_length_b 8.420190
_cell_length_c 5.361702
_cell_angle_alpha 57.625192
_cell_angle_beta 55.378524
_cell_angle_gamma 51.621213
_cell_volume 490.001720
_symmetry_space_group_name_H-M "P -1"
_symmetry_group_IT_number 2
_symmetry_cell_setting 'triclinic'
loop_
_space_group_symop_operation_xyz
x,y,z
-x,-y,-z
loop_
_atom_site_type_symbol
_atom_site_label
_atom_site_fract_x
_atom_site_fract_y
_atom_site_fract_z
Si Si1 0.205729 0.643850 0.222880
Si Si2 0.559562 0.887831 0.234342
Si Si3 0.678743 0.428682 0.413156
Si Si4 0.086259 0.074055 0.227899
Si Si5 0.088649 0.398614 0.623354
Si Si6 0.255212 0.038602 0.323971
O O1 0.280787 0.576281 0.378548
O O2 0.162871 0.894611 0.043004
O O3 0.111699 0.588203 0.513359
O O4 0.254855 0.533350 0.963069
O O5 0.571622 0.648045 0.418013
O O6 0.500000 0.000000 0.500000
O O7 0.500000 0.000000 0.000000
O O8 0.672273 0.886408 0.031911
O O9 0.671562 0.212504 0.539430
O O10 0.152255 0.059588 0.360552
O O11 0.000000 0.000000 0.500000
O O12 0.041412 0.309471 0.002731
O O13 0.000000 0.500000 0.500000
O O14 0.202370 0.202799 0.510290
#
# Coordination Sequence:
#
# PCOD8034074 Si02
#       6
#     2   2   2   2   2   2
#     4  11  24  43  72 100 146 194 243 293 367 431
#     4  12  28  47  78 111 142 186 249 310 375 440
#     4  11  24  47  75 103 142 192 238 304 370 437
#     4  11  26  44  70 106 150 199 250 301 363 441
#     4  12  26  41  72 105 149 196 251 297 369 436
#     4  11  26  46  74 103 151 195 242 303 369 438
#
# _framework density 24.489706999999999
#
# number of rings (size 3 to 8) (size 9 to 14) (size 15 to 20)
#    0.000    0.667    3.333    3.000    7.000    4.000 
#    0.000    0.000    0.000    0.000    0.000    0.000 
#    0.000    0.000    0.000    0.000    0.000    0.000 
#
# Total GULP energy -148669.635654 kJ/mol
# GULP energy per Si atom -12389.136305 kJ/mol
# Density = 2.443397 g / cm^3
# Si number density = 24.489707 Si / 1000 Ang^3
#
#
#
# Elastic Constant Matrix: (Units=GPa)
#
#
# Indices 1 2 3 4 5 6 
#
# 1 67.8591 3.2441 9.0548 -5.7468 6.9292 -4.4640
# 2 3.2441 130.7643 26.2128 -34.6262 10.6228 1.2761
# 3 9.0548 26.2128 103.0428 -11.8740 7.3897 -0.3948
# 4 -5.7468 -34.6262 -11.8740 52.6964 -2.8788 1.8288
# 5 6.9292 10.6228 7.3897 -2.8788 42.4333 -5.7472
# 6 -4.4640 1.2761 -0.3948 1.8288 -5.7472 30.2501
#
#
#
# Elastic Compliance Matrix: (Units=1/GPa)
#
#
# Indices 1 2 3 4 5 6 
#
# 1 0.015320 0.000393 -0.001118 0.001504 -0.002067 0.001746
# 2 0.000393 0.009730 -0.001684 0.005989 -0.001950 -0.001107
# 3 -0.001118 -0.001684 0.010438 0.001068 -0.001174 -0.000245
# 4 0.001504 0.005989 0.001068 0.023339 -0.000555 -0.001533
# 5 -0.002067 -0.001950 -0.001174 -0.000555 0.025179 0.004579
# 6 0.001746 -0.001107 -0.000245 -0.001533 0.004579 0.034322
#
#
# Mechanical properties :
#
#
# Convention : Reuss Voigt Hill
#
# Bulk Modulus (GPa) = 32.60519 42.07662 37.34090
# Shear Modulus (GPa) = 37.48977 42.61958 40.05468
#
# Velocity S-wave (km/s) = 3.91684 4.17622 4.04861
# Velocity P-wave (km/s) = 5.81362 6.36185 6.09390
#
# Compressibility (1/GPa) = 0.03066997
#
# Stress axis : x y z
#
# Youngs Moduli (GPa) = 65.27389 102.77189 95.80678
#
# Poissons Ratio (x) = -0.04040 0.10712
# Poissons Ratio (y) = -0.02566 0.16134
# Poissons Ratio (z) = 0.07298 0.17307
#
# Static dielectric constant tensor:
#      x y z
#    x 4.327540 0.251430 0.003880 
#    y 0.251430 5.376830 -0.427830 
#    z 0.003880 -0.427830 4.698690 
# 
# 
# High freq. dielectric constant tensor:
#      x y z
#    x 1.944110 0.014770 0.001410 
#    y 0.014770 2.015370 -0.011980 
#    z 0.001410 -0.011980 1.979390 
# 
# From -- ./inp_files/35312.got.cif
#   From: 2010.06.25/outbox.cif.g09.slc.cpg/sg2_18_cif.got.tgz:35312.got - 2010.06.27 13:26:56.
