data_PCOD8034817
_publ_section_title
;
Structure prediction by ZEFSAII (Michael W. Deem and Ramdas Pophale) SiO2 
 PCOD8034817
Probable space group: P -1
;
_chemical_formula_sum "Si O2"
_cell_formula_units_Z 10
_cell_length_a 7.988727
_cell_length_b 5.190659
_cell_length_c 11.160949
_cell_angle_alpha 84.051363
_cell_angle_beta 113.031153
_cell_angle_gamma 116.648868
_cell_volume 379.219765
_symmetry_space_group_name_H-M "P -1"
_symmetry_group_IT_number 2
_symmetry_cell_setting 'triclinic'
loop_
_space_group_symop_operation_xyz
x,y,z
-x,-y,-z
loop_
_atom_site_type_symbol
_atom_site_label
_atom_site_fract_x
_atom_site_fract_y
_atom_site_fract_z
Si Si1 0.621966 0.354167 0.451865
Si Si2 0.792867 0.971958 0.389579
Si Si3 0.200053 0.263061 0.839147
Si Si4 0.554751 0.867818 0.908191
Si Si5 0.255968 0.842468 0.290499
O O1 0.626108 0.653782 0.397944
O O2 0.719382 0.402173 0.611447
O O3 0.745778 0.232630 0.406400
O O4 0.380884 0.130346 0.393361
O O5 0.800296 0.972836 0.246012
O O6 0.000000 0.000000 0.500000
O O7 0.361997 0.579979 0.823499
O O8 0.977851 0.242543 0.788618
O O9 0.263566 0.205989 0.992313
O O10 0.632313 0.100187 0.810478
O O11 0.500000 0.000000 0.000000
#
# Coordination Sequence:
#
# PCOD8034817 Si02
#       5
#     2   2   2   2   2
#     4  11  26  46  72 113 154 191 237 310 362 444
#     4  12  24  48  77 109 153 192 242 302 374 430
#     4  11  25  45  74 104 146 197 247 300 370 436
#     4  11  25  49  70 102 148 196 249 309 357 439
#     4  11  24  46  71 109 147 193 249 298 371 436
#
# _framework density 26.369934000000001
#
# number of rings (size 3 to 8) (size 9 to 14) (size 15 to 20)
#    0.000    0.800    4.000    2.400    0.000    4.000 
#   10.800    0.000    0.000    0.000    0.000    0.000 
#    0.000    0.000    0.000    0.000    0.000    0.000 
#
# Total GULP energy -123936.844276 kJ/mol
# GULP energy per Si atom -12393.684428 kJ/mol
# Density = 2.630992 g / cm^3
# Si number density = 26.369934 Si / 1000 Ang^3
#
#
#
# Elastic Constant Matrix: (Units=GPa)
#
#
# Indices 1 2 3 4 5 6 
#
# 1 128.7559 9.4176 59.8007 20.1371 -2.7671 1.7755
# 2 9.4176 36.3811 28.0182 -5.6749 -9.1236 -2.0507
# 3 59.8007 28.0182 176.0075 -13.6985 2.2618 14.4172
# 4 20.1371 -5.6749 -13.6985 46.8262 13.5692 -6.2311
# 5 -2.7671 -9.1236 2.2618 13.5692 64.4281 13.5943
# 6 1.7755 -2.0507 14.4172 -6.2311 13.5943 40.8522
#
#
#
# Elastic Compliance Matrix: (Units=1/GPa)
#
#
# Indices 1 2 3 4 5 6 
#
# 1 0.010771 -0.000153 -0.004114 -0.006567 0.002123 -0.000732
# 2 -0.000153 0.033031 -0.005329 0.001687 0.003980 0.002478
# 3 -0.004114 -0.005329 0.008402 0.003791 -0.001616 -0.001938
# 4 -0.006567 0.001687 0.003791 0.028409 -0.007388 0.005824
# 5 0.002123 0.003980 -0.001616 -0.007388 0.019234 -0.006850
# 6 -0.000732 0.002478 -0.001938 0.005824 -0.006850 0.028486
#
#
# Mechanical properties :
#
#
# Convention : Reuss Voigt Hill
#
# Bulk Modulus (GPa) = 30.29139 59.51305 44.90222
# Shear Modulus (GPa) = 31.53982 46.68182 39.11082
#
# Velocity S-wave (km/s) = 3.46215 4.21202 3.85536
# Velocity P-wave (km/s) = 5.24347 6.80238 6.07315
#
# Compressibility (1/GPa) = 0.03301268
#
# Stress axis : x y z
#
# Youngs Moduli (GPa) = 92.84098 30.27430 119.01785
#
# Poissons Ratio (x) = 0.00464 0.48959
# Poissons Ratio (y) = 0.01424 0.63424
# Poissons Ratio (z) = 0.38191 0.16133
#
# Static dielectric constant tensor:
#      x y z
#    x 4.641160 0.076950 0.184820 
#    y 0.076950 4.914150 -0.352190 
#    z 0.184820 -0.352190 5.716370 
# 
# 
# High freq. dielectric constant tensor:
#      x y z
#    x 2.058350 0.001990 0.010330 
#    y 0.001990 2.042390 -0.013640 
#    z 0.010330 -0.013640 2.090270 
# 
# From -- ./inp_files/60148.got.cif
#   From: 2010.06.25/outbox.cif.g09.slc.cpg/sg2_31_cif.got.tgz:60148.got - 2010.06.27 13:26:56.
