data_PCOD8034194
_publ_section_title
;
Structure prediction by ZEFSAII (Michael W. Deem and Ramdas Pophale) SiO2 
 PCOD8034194
Probable space group: P -1
;
_chemical_formula_sum "Si O2"
_cell_formula_units_Z 16
_cell_length_a 11.736495
_cell_length_b 25.116046
_cell_length_c 9.523970
_cell_angle_alpha 138.194090
_cell_angle_beta 28.211465
_cell_angle_gamma 150.064304
_cell_volume 660.300134
_symmetry_space_group_name_H-M "P -1"
_symmetry_group_IT_number 2
_symmetry_cell_setting 'triclinic'
loop_
_space_group_symop_operation_xyz
x,y,z
-x,-y,-z
loop_
_atom_site_type_symbol
_atom_site_label
_atom_site_fract_x
_atom_site_fract_y
_atom_site_fract_z
Si Si1 0.126423 0.927653 0.397996
Si Si2 0.102244 0.192393 0.080836
Si Si3 0.224528 0.834467 0.877205
Si Si4 0.183234 0.536324 0.570724
Si Si5 0.095465 0.791538 0.397810
Si Si6 0.301881 0.436754 0.729403
Si Si7 0.718685 0.325626 0.496743
Si Si8 0.220937 0.038438 0.969643
O O1 0.202561 0.880687 0.343835
O O2 0.831487 0.914905 0.748706
O O3 0.413157 0.052867 0.305211
O O4 0.027289 0.857100 0.226842
O O5 0.941102 0.218293 0.197370
O O6 0.166556 0.240226 0.262315
O O7 0.450101 0.246811 0.749984
O O8 0.839993 0.063791 0.111416
O O9 0.206024 0.743572 0.792940
O O10 0.440961 0.552564 0.428099
O O11 0.385719 0.637021 0.441250
O O12 0.031137 0.429748 0.440470
O O13 0.882591 0.524221 0.936255
O O14 0.987317 0.687006 0.236566
O O15 0.422683 0.858519 0.266402
O O16 0.500000 0.500000 0.500000
O O17 0.000000 0.000000 0.000000
#
# Coordination Sequence:
#
# PCOD8034194 Si02
#       8
#     2   2   2   2   2   2   2   2
#     4  11  24  44  67 107 150 191 245 304 379 460
#     4  12  25  43  71 107 147 199 248 308 377 471
#     4  11  25  43  70 107 149 195 249 305 379 463
#     4  11  29  52  79 113 152 203 266 327 385 460
#     4  12  27  44  75 104 151 200 246 320 387 453
#     4  12  29  53  80 114 153 200 267 325 389 454
#     4  11  27  47  78 106 150 202 253 318 390 453
#     4  12  24  43  70 109 153 196 250 307 381 465
#
# _framework density 24.231403
#
# number of rings (size 3 to 8) (size 9 to 14) (size 15 to 20)
#    0.000    0.500    3.750    3.000    8.750    2.500 
#    0.000    0.000    0.000    0.000    0.000    0.000 
#    0.000    0.000    0.000    0.000    0.000    0.000 
#
# Total GULP energy -198260.435643 kJ/mol
# GULP energy per Si atom -12391.277228 kJ/mol
# Density = 2.417625 g / cm^3
# Si number density = 24.231403 Si / 1000 Ang^3
#
#
#
# Elastic Constant Matrix: (Units=GPa)
#
#
# Indices 1 2 3 4 5 6 
#
# 1 122.2813 47.7430 18.5299 -0.0320 -0.3998 -7.8151
# 2 47.7430 113.2826 23.6089 20.4021 1.8648 -3.0500
# 3 18.5299 23.6089 108.7154 11.3807 8.5305 -10.7918
# 4 -0.0320 20.4021 11.3807 34.5166 -2.6818 -8.8390
# 5 -0.3998 1.8648 8.5305 -2.6818 39.5911 -5.2666
# 6 -7.8151 -3.0500 -10.7918 -8.8390 -5.2666 22.4989
#
#
#
# Elastic Compliance Matrix: (Units=1/GPa)
#
#
# Indices 1 2 3 4 5 6 
#
# 1 0.010563 -0.004996 -0.000839 0.004562 0.001460 0.004724
# 2 -0.004996 0.012599 -0.001330 -0.008214 -0.001477 -0.004238
# 3 -0.000839 -0.001330 0.010302 -0.001916 -0.001859 0.003282
# 4 0.004562 -0.008214 -0.001916 0.039054 0.005648 0.016218
# 5 0.001460 -0.001477 -0.001859 0.005648 0.027190 0.007999
# 6 0.004724 -0.004238 0.003282 0.016218 0.007999 0.055331
#
#
# Mechanical properties :
#
#
# Convention : Reuss Voigt Hill
#
# Bulk Modulus (GPa) = 52.25487 58.22699 55.24093
# Shear Modulus (GPa) = 28.44998 36.28115 32.36556
#
# Velocity S-wave (km/s) = 3.43022 3.87367 3.65867
# Velocity P-wave (km/s) = 6.10740 6.63994 6.37923
#
# Compressibility (1/GPa) = 0.01913697
#
# Stress axis : x y z
#
# Youngs Moduli (GPa) = 94.66734 79.36859 97.06624
#
# Poissons Ratio (x) = 0.39649 0.08142
# Poissons Ratio (y) = 0.47292 0.12906
# Poissons Ratio (z) = 0.07941 0.10553
#
# Static dielectric constant tensor:
#      x y z
#    x 4.474480 -0.363600 0.304280 
#    y -0.363600 4.666210 -0.049800 
#    z 0.304280 -0.049800 4.682330 
# 
# 
# High freq. dielectric constant tensor:
#      x y z
#    x 1.960840 -0.008990 0.013370 
#    y -0.008990 1.973330 0.002540 
#    z 0.013370 0.002540 1.969350 
# 
# From -- ./inp_files/285837.got.cif
#   From: 2010.06.25/outbox.cif.g09.slc.cpg/sg2_143_cif.got.tgz:285837.got - 2010.06.27 13:26:56.
