data_PCOD8034597
_publ_section_title
;
Structure prediction by ZEFSAII (Michael W. Deem and Ramdas Pophale) SiO2 
 PCOD8034597
Probable space group: P -1
;
_chemical_formula_sum "Si O2"
_cell_formula_units_Z 16
_cell_length_a 11.355398
_cell_length_b 14.701397
_cell_length_c 13.924978
_cell_angle_alpha 136.881138
_cell_angle_beta 33.654232
_cell_angle_gamma 112.737095
_cell_volume 714.987400
_symmetry_space_group_name_H-M "P -1"
_symmetry_group_IT_number 2
_symmetry_cell_setting 'triclinic'
loop_
_space_group_symop_operation_xyz
x,y,z
-x,-y,-z
loop_
_atom_site_type_symbol
_atom_site_label
_atom_site_fract_x
_atom_site_fract_y
_atom_site_fract_z
Si Si1 0.886013 0.187016 0.730203
Si Si2 0.351778 0.280924 0.809945
Si Si3 0.574191 0.656407 0.707926
Si Si4 0.825488 0.695291 0.261596
Si Si5 0.931805 0.354574 0.653870
Si Si6 0.308851 0.845261 0.849003
Si Si7 0.052555 0.721409 0.807352
Si Si8 0.107258 0.793743 0.611099
O O1 0.920758 0.233278 0.637243
O O2 0.021301 0.229242 0.751890
O O3 0.580516 0.287103 0.042917
O O4 0.000000 0.000000 0.500000
O O5 0.265122 0.251386 0.744616
O O6 0.664993 0.177672 0.520112
O O7 0.240872 0.468975 0.044264
O O8 0.238576 0.224997 0.926566
O O9 0.362085 0.748970 0.837921
O O10 0.732664 0.461466 0.440985
O O11 0.769636 0.709164 0.612337
O O12 0.582463 0.766758 0.551333
O O13 0.000000 0.500000 0.000000
O O14 0.818505 0.350778 0.624993
O O15 0.110671 0.837290 0.909796
O O16 0.161760 0.039511 0.113934
O O17 0.067953 0.736621 0.695373
#
# Coordination Sequence:
#
# PCOD8034597 Si02
#       8
#     2   2   2   2   2   2   2   2
#     4  12  25  41  70 110 142 180 232 299 362 411
#     4  11  24  45  72  99 136 190 240 286 344 428
#     4  11  24  45  73  99 136 183 241 294 340 423
#     4  12  22  45  77 101 139 188 239 290 349 421
#     4  11  25  46  69  99 143 189 237 287 353 417
#     4  12  24  45  72 104 143 178 229 303 363 403
#     4  11  24  45  72 102 133 187 241 283 351 427
#     4  12  27  44  67 102 150 186 224 298 359 421
#
# _framework density 22.378015000000001
#
# number of rings (size 3 to 8) (size 9 to 14) (size 15 to 20)
#    0.000    0.500    3.750    4.875    1.750    4.500 
#    2.250    0.000    0.000    0.000    0.000    0.000 
#    0.000    0.000    0.000    0.000    0.000    0.000 
#
# Total GULP energy -198479.723411 kJ/mol
# GULP energy per Si atom -12404.982713 kJ/mol
# Density = 2.232708 g / cm^3
# Si number density = 22.378015 Si / 1000 Ang^3
#
#
#
# Elastic Constant Matrix: (Units=GPa)
#
#
# Indices 1 2 3 4 5 6 
#
# 1 123.8292 30.5014 15.2881 -5.4830 12.2626 -10.4150
# 2 30.5014 113.3167 45.6409 -21.1363 5.0832 -8.0917
# 3 15.2881 45.6409 105.9945 -20.5122 -7.5386 7.1008
# 4 -5.4830 -21.1363 -20.5122 50.2984 0.3980 4.8077
# 5 12.2626 5.0832 -7.5386 0.3980 29.3976 6.0002
# 6 -10.4150 -8.0917 7.1008 4.8077 6.0002 24.4745
#
#
#
# Elastic Compliance Matrix: (Units=1/GPa)
#
#
# Indices 1 2 3 4 5 6 
#
# 1 0.009587 -0.001412 -0.001661 -0.000712 -0.005301 0.005534
# 2 -0.001412 0.012376 -0.005330 0.002372 -0.004088 0.005573
# 3 -0.001661 -0.005330 0.013844 0.004028 0.006943 -0.008979
# 4 -0.000712 0.002372 0.004028 0.022968 0.001758 -0.005630
# 5 -0.005301 -0.004088 0.006943 0.001758 0.042011 -0.016266
# 6 0.005534 0.005573 -0.008979 -0.005630 -0.016266 0.052755
#
#
# Mechanical properties :
#
#
# Convention : Reuss Voigt Hill
#
# Bulk Modulus (GPa) = 52.62657 58.44456 55.53557
# Shear Modulus (GPa) = 28.29982 37.61476 32.95729
#
# Velocity S-wave (km/s) = 3.56002 4.10430 3.84181
# Velocity P-wave (km/s) = 6.36132 6.97381 6.67460
#
# Compressibility (1/GPa) = 0.01900181
#
# Stress axis : x y z
#
# Youngs Moduli (GPa) = 104.30522 80.80460 72.23364
#
# Poissons Ratio (x) = 0.11407 0.11995
# Poissons Ratio (y) = 0.14724 0.38502
# Poissons Ratio (z) = 0.17321 0.43071
#
# Static dielectric constant tensor:
#      x y z
#    x 4.050630 0.062460 0.113900 
#    y 0.062460 4.062490 -0.284160 
#    z 0.113900 -0.284160 4.175040 
# 
# 
# High freq. dielectric constant tensor:
#      x y z
#    x 1.879380 0.001810 0.010110 
#    y 0.001810 1.890030 -0.013600 
#    z 0.010110 -0.013600 1.894560 
# 
# From -- ./inp_files/522468.got.cif
#   From: 2010.06.25/outbox.cif.g09.slc.cpg/sg2_262_cif.got.tgz:522468.got - 2010.06.27 13:26:56.
