data_PCOD8034670
_publ_section_title
;
Structure prediction by ZEFSAII (Michael W. Deem and Ramdas Pophale) SiO2 
 PCOD8034670
Probable space group: P -1
;
_chemical_formula_sum "Si O2"
_cell_formula_units_Z 16
_cell_length_a 7.527122
_cell_length_b 11.443448
_cell_length_c 11.860802
_cell_angle_alpha 79.017984
_cell_angle_beta 122.448050
_cell_angle_gamma 127.956590
_cell_volume 664.672169
_symmetry_space_group_name_H-M "P -1"
_symmetry_group_IT_number 2
_symmetry_cell_setting 'triclinic'
loop_
_space_group_symop_operation_xyz
x,y,z
-x,-y,-z
loop_
_atom_site_type_symbol
_atom_site_label
_atom_site_fract_x
_atom_site_fract_y
_atom_site_fract_z
Si Si1 0.157581 0.346078 0.964860
Si Si2 0.194117 0.361641 0.544288
Si Si3 0.506931 0.316607 0.504568
Si Si4 0.456246 0.357922 0.858434
Si Si5 0.172666 0.123143 0.130067
Si Si6 0.562939 0.132399 0.395473
Si Si7 0.329442 0.040906 0.869001
Si Si8 0.407421 0.854643 0.281817
O O1 0.265548 0.371802 0.869994
O O2 0.841619 0.212997 0.873791
O O3 0.240850 0.497695 0.028411
O O4 0.283718 0.288227 0.097309
O O5 0.254750 0.308034 0.460363
O O6 0.275608 0.526819 0.516105
O O7 0.373408 0.366477 0.702617
O O8 0.882386 0.247473 0.490068
O O9 0.418776 0.175801 0.421918
O O10 0.628057 0.293224 0.660734
O O11 0.436596 0.211212 0.903115
O O12 0.437357 0.134272 0.234317
O O13 0.983181 0.075418 0.184067
O O14 0.000000 0.000000 0.000000
O O15 0.443326 0.953637 0.388477
O O16 0.342666 0.032976 0.737744
O O17 0.500000 0.000000 0.000000
#
# Coordination Sequence:
#
# PCOD8034670 Si02
#       8
#     2   2   2   2   2   2   2   2
#     4  11  24  45  74 104 143 190 241 297 376 423
#     4  11  26  51  72 109 145 193 247 295 362 429
#     4  11  26  49  74 106 148 191 247 297 357 436
#     4  11  24  46  74 103 146 189 241 302 356 441
#     4  12  23  46  69 106 147 186 238 298 363 433
#     4  12  26  45  79 104 148 193 238 303 363 434
#     4  12  24  45  70 105 152 184 239 299 360 437
#     4  12  25  46  70 109 145 189 241 301 363 430
#
# _framework density 24.072016000000001
#
# number of rings (size 3 to 8) (size 9 to 14) (size 15 to 20)
#    0.000    0.500    5.000    2.250    1.750    4.000 
#    0.000    0.000    0.000    0.000    0.000    0.000 
#    0.000    0.000    0.000    0.000    0.000    0.000 
#
# Total GULP energy -198269.648101 kJ/mol
# GULP energy per Si atom -12391.853006 kJ/mol
# Density = 2.401723 g / cm^3
# Si number density = 24.072016 Si / 1000 Ang^3
#
#
#
# Elastic Constant Matrix: (Units=GPa)
#
#
# Indices 1 2 3 4 5 6 
#
# 1 93.6078 32.2403 31.6529 12.7953 -8.3517 -6.0882
# 2 32.2403 132.7129 50.5713 -20.1271 1.0935 -15.4845
# 3 31.6529 50.5713 79.7186 12.2114 2.4934 -13.1708
# 4 12.7953 -20.1271 12.2114 40.6698 -5.4212 2.7247
# 5 -8.3517 1.0935 2.4934 -5.4212 36.1800 -3.1708
# 6 -6.0882 -15.4845 -13.1708 2.7247 -3.1708 38.8382
#
#
#
# Elastic Compliance Matrix: (Units=1/GPa)
#
#
# Indices 1 2 3 4 5 6 
#
# 1 0.013524 -0.002811 -0.002902 -0.004440 0.002790 0.000554
# 2 -0.002811 0.013155 -0.008593 0.010044 0.001163 0.001281
# 3 -0.002902 -0.008593 0.021491 -0.010468 -0.003119 0.003887
# 4 -0.004440 0.010044 -0.010468 0.034843 0.004410 -0.002326
# 5 0.002790 0.001163 -0.003119 0.004410 0.029293 0.001925
# 6 0.000554 0.001281 0.003887 -0.002326 0.001925 0.027984
#
#
# Mechanical properties :
#
#
# Convention : Reuss Voigt Hill
#
# Bulk Modulus (GPa) = 51.12874 59.44091 55.28483
# Shear Modulus (GPa) = 28.50280 35.90924 32.20602
#
# Velocity S-wave (km/s) = 3.44476 3.86650 3.66170
# Velocity P-wave (km/s) = 6.09162 6.68428 6.39482
#
# Compressibility (1/GPa) = 0.01955847
#
# Stress axis : x y z
#
# Youngs Moduli (GPa) = 73.94050 76.01432 46.53209
#
# Poissons Ratio (x) = 0.21370 0.13504
# Poissons Ratio (y) = 0.20787 0.39983
# Poissons Ratio (z) = 0.21458 0.65315
#
# Static dielectric constant tensor:
#      x y z
#    x 4.588190 -0.228430 -0.162860 
#    y -0.228430 4.626540 -0.253930 
#    z -0.162860 -0.253930 4.444910 
# 
# 
# High freq. dielectric constant tensor:
#      x y z
#    x 1.954000 -0.015320 -0.012950 
#    y -0.015320 1.964750 -0.013910 
#    z -0.012950 -0.013910 1.959260 
# 
# From -- ./inp_files/392520.got.cif
#   From: 2010.06.25/outbox.cif.g09.slc.cpg/sg2_197_cif.got.tgz:392520.got - 2010.06.27 13:26:56.
