data_PCOD8034262
_publ_section_title
;
Structure prediction by ZEFSAII (Michael W. Deem and Ramdas Pophale) SiO2 
 PCOD8034262
Probable space group: P -1
;
_chemical_formula_sum "Si O2"
_cell_formula_units_Z 14
_cell_length_a 16.174558
_cell_length_b 5.150669
_cell_length_c 9.322286
_cell_angle_alpha 88.818365
_cell_angle_beta 87.278862
_cell_angle_gamma 131.098734
_cell_volume 583.209637
_symmetry_space_group_name_H-M "P -1"
_symmetry_group_IT_number 2
_symmetry_cell_setting 'triclinic'
loop_
_space_group_symop_operation_xyz
x,y,z
-x,-y,-z
loop_
_atom_site_type_symbol
_atom_site_label
_atom_site_fract_x
_atom_site_fract_y
_atom_site_fract_z
Si Si1 0.524576 0.937775 0.782209
Si Si2 0.683395 0.668017 0.321435
Si Si3 0.413215 0.126679 0.940036
Si Si4 0.078804 0.290328 0.372584
Si Si5 0.172671 0.828652 0.911960
Si Si6 0.950973 0.254644 0.806631
Si Si7 0.312626 0.827119 0.490618
O O1 0.421041 0.513830 0.780462
O O2 0.466124 0.098723 0.795613
O O3 0.594041 0.040754 0.633363
O O4 0.599617 0.086894 0.916535
O O5 0.676029 0.368554 0.389660
O O6 0.798496 0.907419 0.220880
O O7 0.674213 0.863164 0.444046
O O8 0.286515 0.912088 0.913963
O O9 0.500000 0.500000 0.000000
O O10 0.038103 0.482550 0.309283
O O11 0.195357 0.582529 0.429047
O O12 0.089657 0.098555 0.251063
O O13 0.000000 0.000000 0.500000
O O14 0.069139 0.445680 0.869273
O O15 0.142449 0.888434 0.065694
#
# Coordination Sequence:
#
# PCOD8034262 Si02
#       7
#     2   2   2   2   2   2   2
#     4  11  26  43  69 104 141 187 237 285 357 422
#     4  12  25  44  69 102 143 191 229 291 348 418
#     4  11  24  44  70 101 139 184 228 293 349 414
#     4  12  25  48  72 106 141 182 237 287 356 409
#     4  11  25  47  72 103 143 180 241 285 355 414
#     4  11  27  45  76 104 138 189 231 294 345 418
#     4  12  27  43  73 101 144 187 236 290 348 422
#
# _framework density 24.005085999999999
#
# number of rings (size 3 to 8) (size 9 to 14) (size 15 to 20)
#    0.000    0.571    1.429    5.571    4.000    5.714 
#    0.000    0.000    0.000    0.000    0.000    0.000 
#    0.000    0.000    0.000    0.000    0.000    0.000 
#
# Total GULP energy -173481.041330 kJ/mol
# GULP energy per Si atom -12391.502952 kJ/mol
# Density = 2.395045 g / cm^3
# Si number density = 24.005086 Si / 1000 Ang^3
#
#
#
# Elastic Constant Matrix: (Units=GPa)
#
#
# Indices 1 2 3 4 5 6 
#
# 1 102.7519 47.1171 14.6206 16.5967 -0.7258 20.3726
# 2 47.1171 98.1278 29.6767 23.1001 -9.2819 13.9933
# 3 14.6206 29.6767 92.2506 6.4216 -11.4230 17.2866
# 4 16.5967 23.1001 6.4216 55.1181 7.0598 -7.5165
# 5 -0.7258 -9.2819 -11.4230 7.0598 35.1793 -0.8865
# 6 20.3726 13.9933 17.2866 -7.5165 -0.8865 42.8764
#
#
#
# Elastic Compliance Matrix: (Units=1/GPa)
#
#
# Indices 1 2 3 4 5 6 
#
# 1 0.013609 -0.005416 0.000722 -0.002588 -0.000532 -0.005454
# 2 -0.005416 0.015645 -0.002867 -0.005425 0.004117 -0.002243
# 3 0.000722 -0.002867 0.013154 -0.001701 0.003747 -0.004932
# 4 -0.002588 -0.005425 -0.001701 0.023269 -0.006514 0.007630
# 5 -0.000532 0.004117 0.003747 -0.006514 0.031947 -0.003083
# 6 -0.005454 -0.002243 -0.004932 0.007630 -0.003083 0.029908
#
#
# Mechanical properties :
#
#
# Convention : Reuss Voigt Hill
#
# Bulk Modulus (GPa) = 36.64926 52.88435 44.76680
# Shear Modulus (GPa) = 32.94906 40.08249 36.51577
#
# Velocity S-wave (km/s) = 3.70886 4.09069 3.90445
# Velocity P-wave (km/s) = 5.80011 6.66258 6.24625
#
# Compressibility (1/GPa) = 0.02728568
#
# Stress axis : x y z
#
# Youngs Moduli (GPa) = 73.48308 63.91936 76.02060
#
# Poissons Ratio (x) = 0.34619 -0.05487
# Poissons Ratio (y) = 0.39798 0.21793
# Poissons Ratio (z) = -0.05304 0.18324
#
# Static dielectric constant tensor:
#      x y z
#    x 4.248720 0.511540 0.050410 
#    y 0.511540 4.391500 0.304830 
#    z 0.050410 0.304830 4.738420 
# 
# 
# High freq. dielectric constant tensor:
#      x y z
#    x 1.957720 0.008660 0.008270 
#    y 0.008660 1.963000 0.007290 
#    z 0.008270 0.007290 1.980600 
# 
# From -- ./inp_files/123702.got.cif
#   From: 2010.06.25/outbox.cif.g09.slc.cpg/sg2_62_cif.got.tgz:123702.got - 2010.06.27 13:26:56.
