data_PCOD8034770
_publ_section_title
;
Structure prediction by ZEFSAII (Michael W. Deem and Ramdas Pophale) SiO2 
 PCOD8034770
Probable space group: P -1
;
_chemical_formula_sum "Si O2"
_cell_formula_units_Z 14
_cell_length_a 4.812485
_cell_length_b 12.308727
_cell_length_c 12.205619
_cell_angle_alpha 58.013675
_cell_angle_beta 108.045118
_cell_angle_gamma 86.429411
_cell_volume 559.631679
_symmetry_space_group_name_H-M "P -1"
_symmetry_group_IT_number 2
_symmetry_cell_setting 'triclinic'
loop_
_space_group_symop_operation_xyz
x,y,z
-x,-y,-z
loop_
_atom_site_type_symbol
_atom_site_label
_atom_site_fract_x
_atom_site_fract_y
_atom_site_fract_z
Si Si1 0.671783 0.612082 0.768578
Si Si2 0.697555 0.434753 0.660133
Si Si3 0.679262 0.743925 0.211394
Si Si4 0.702270 0.916977 0.325113
Si Si5 0.218512 0.636821 0.948706
Si Si6 0.628999 0.116568 0.500912
Si Si7 0.671333 0.797343 0.932370
O O1 0.666730 0.547513 0.685484
O O2 0.429527 0.758966 0.657173
O O3 0.006552 0.628750 0.824044
O O4 0.600866 0.512331 0.905788
O O5 0.500000 0.500000 0.500000
O O6 0.612987 0.303430 0.764617
O O7 0.043908 0.389655 0.686488
O O8 0.753369 0.846884 0.251226
O O9 0.634915 0.812234 0.050552
O O10 0.564038 0.831163 0.439584
O O11 0.013839 0.938712 0.398680
O O12 0.443118 0.057147 0.211044
O O13 0.468960 0.708153 0.904421
O O14 0.016066 0.723210 0.977154
O O15 0.500000 0.000000 0.500000
#
# Coordination Sequence:
#
# PCOD8034770 Si02
#       7
#     2   2   2   2   2   2   2
#     4  11  24  46  70 101 136 180 226 285 340 404
#     4  12  25  43  67  99 140 176 225 278 335 405
#     4  12  24  44  65 102 133 180 228 273 335 400
#     4  12  26  44  71  99 138 184 224 280 338 403
#     4  11  26  42  72 102 134 177 232 281 341 398
#     4  12  27  47  70 101 136 178 227 279 348 403
#     4  12  23  47  67 103 137 178 230 279 335 402
#
# _framework density 25.016451
#
# number of rings (size 3 to 8) (size 9 to 14) (size 15 to 20)
#    0.000    0.286    2.857    6.429    0.000    6.857 
#    0.000    4.286    0.000    0.000    0.000    0.000 
#    0.000    0.000    0.000    0.000    0.000    0.000 
#
# Total GULP energy -173680.511801 kJ/mol
# GULP energy per Si atom -12405.750843 kJ/mol
# Density = 2.495951 g / cm^3
# Si number density = 25.016451 Si / 1000 Ang^3
#
#
#
# Elastic Constant Matrix: (Units=GPa)
#
#
# Indices 1 2 3 4 5 6 
#
# 1 70.3911 -9.9716 13.9181 -6.7505 -0.4347 4.6520
# 2 -9.9716 110.1040 45.3978 -1.6637 0.5187 11.7658
# 3 13.9181 45.3978 144.4729 -1.2683 6.4514 5.6025
# 4 -6.7505 -1.6637 -1.2683 50.5574 1.4081 2.7506
# 5 -0.4347 0.5187 6.4514 1.4081 34.0783 4.0002
# 6 4.6520 11.7658 5.6025 2.7506 4.0002 23.7082
#
#
#
# Elastic Compliance Matrix: (Units=1/GPa)
#
#
# Indices 1 2 3 4 5 6 
#
# 1 0.015569 0.002833 -0.002245 0.002326 0.000997 -0.004368
# 2 0.002833 0.011483 -0.003706 0.000939 0.001192 -0.005689
# 3 -0.002245 -0.003706 0.008349 -0.000200 -0.001615 0.000602
# 4 0.002326 0.000939 -0.000200 0.020299 -0.000415 -0.003161
# 5 0.000997 0.001192 -0.001615 -0.000415 0.030304 -0.005470
# 6 -0.004368 -0.005689 0.000602 -0.003161 -0.005470 0.047008
#
#
# Mechanical properties :
#
#
# Convention : Reuss Voigt Hill
#
# Bulk Modulus (GPa) = 34.28535 47.07294 40.67914
# Shear Modulus (GPa) = 33.56371 40.04369 36.80370
#
# Velocity S-wave (km/s) = 3.66685 4.00521 3.83976
# Velocity P-wave (km/s) = 5.62695 6.34402 5.99621
#
# Compressibility (1/GPa) = 0.02916698
#
# Stress axis : x y z
#
# Youngs Moduli (GPa) = 64.22858 87.08275 119.76862
#
# Poissons Ratio (x) = -0.24670 0.26886
# Poissons Ratio (y) = -0.18195 0.44382
# Poissons Ratio (z) = 0.14418 0.32270
#
# Static dielectric constant tensor:
#      x y z
#    x 4.475150 -0.042770 -0.015520 
#    y -0.042770 4.465970 0.088990 
#    z -0.015520 0.088990 4.534090 
# 
# 
# High freq. dielectric constant tensor:
#      x y z
#    x 1.998380 -0.004830 0.000560 
#    y -0.004830 2.010300 0.013140 
#    z 0.000560 0.013140 2.013130 
# 
# From -- ./inp_files/362976.got.cif
#   From: 2010.06.25/outbox.cif.g09.slc.cpg/sg2_182_cif.got.tgz:362976.got - 2010.06.27 13:26:56.
