data_PCOD8034693
_publ_section_title
;
Structure prediction by ZEFSAII (Michael W. Deem and Ramdas Pophale) SiO2 
 PCOD8034693
Probable space group: P -1
;
_chemical_formula_sum "Si O2"
_cell_formula_units_Z 14
_cell_length_a 9.227583
_cell_length_b 14.030238
_cell_length_c 15.068503
_cell_angle_alpha 149.311888
_cell_angle_beta 140.112848
_cell_angle_gamma 43.581193
_cell_volume 625.944176
_symmetry_space_group_name_H-M "P -1"
_symmetry_group_IT_number 2
_symmetry_cell_setting 'triclinic'
loop_
_space_group_symop_operation_xyz
x,y,z
-x,-y,-z
loop_
_atom_site_type_symbol
_atom_site_label
_atom_site_fract_x
_atom_site_fract_y
_atom_site_fract_z
Si Si1 0.492365 0.229247 0.049326
Si Si2 0.430375 0.079926 0.434508
Si Si3 0.507659 0.542237 0.172742
Si Si4 0.733417 0.032299 0.378289
Si Si5 0.884053 0.433849 0.120381
Si Si6 0.972933 0.981587 0.076909
Si Si7 0.665325 0.453850 0.623847
O O1 0.554908 0.339590 0.080347
O O2 0.385573 0.376491 0.192613
O O3 0.726746 0.095860 0.086891
O O4 0.309444 0.098578 0.830324
O O5 0.458624 0.297560 0.613157
O O6 0.593997 0.967420 0.344657
O O7 0.500000 0.000000 0.500000
O O8 0.167175 0.068388 0.286692
O O9 0.691940 0.546833 0.185819
O O10 0.246337 0.596341 0.056397
O O11 0.633207 0.253140 0.487252
O O12 0.000000 0.000000 0.500000
O O13 0.069842 0.565546 0.296932
O O14 0.013711 0.236050 0.064319
O O15 0.000000 0.000000 0.000000
O O16 0.500000 0.500000 0.500000
#
# Coordination Sequence:
#
# PCOD8034693 Si02
#       7
#     2   2   2   2   2   2   2
#     4  12  27  49  74 104 146 195 240 304 365 424
#     4  12  26  45  75 112 143 187 252 300 357 433
#     4  11  24  45  75 103 140 186 245 304 355 423
#     4  12  28  48  75 107 149 191 242 298 367 439
#     4  11  25  45  71 105 141 188 243 297 362 430
#     4  12  24  45  74 103 142 186 243 301 356 420
#     4  12  30  48  69 107 150 191 242 294 370 442
#
# _framework density 22.366212000000001
#
# number of rings (size 3 to 8) (size 9 to 14) (size 15 to 20)
#    0.000    0.286    5.714    1.714    8.000    4.000 
#    0.000    0.000    0.000    0.000    0.000    0.000 
#    0.000    0.000    0.000    0.000    0.000    0.000 
#
# Total GULP energy -173683.542683 kJ/mol
# GULP energy per Si atom -12405.967334 kJ/mol
# Density = 2.231531 g / cm^3
# Si number density = 22.366212 Si / 1000 Ang^3
#
#
#
# Elastic Constant Matrix: (Units=GPa)
#
#
# Indices 1 2 3 4 5 6 
#
# 1 89.2392 30.6061 39.9617 -14.7592 3.1489 -3.5188
# 2 30.6061 119.0462 45.8570 -14.9645 -2.4666 0.7226
# 3 39.9617 45.8570 166.8301 -16.3799 -2.4658 -7.5691
# 4 -14.7592 -14.9645 -16.3799 46.6579 -4.9706 8.1258
# 5 3.1489 -2.4666 -2.4658 -4.9706 34.6716 -3.8308
# 6 -3.5188 0.7226 -7.5691 8.1258 -3.8308 39.4229
#
#
#
# Elastic Compliance Matrix: (Units=1/GPa)
#
#
# Indices 1 2 3 4 5 6 
#
# 1 0.013517 -0.002263 -0.002374 0.002565 -0.001173 0.000149
# 2 -0.002263 0.010063 -0.002056 0.002086 0.000951 -0.001119
# 3 -0.002374 -0.002056 0.007293 0.001051 0.000860 0.001093
# 4 0.002565 0.002086 0.001051 0.024357 0.003003 -0.004336
# 5 -0.001173 0.000951 0.000860 0.003003 0.029764 0.002316
# 6 0.000149 -0.001119 0.001093 -0.004336 0.002316 0.026728
#
#
# Mechanical properties :
#
#
# Convention : Reuss Voigt Hill
#
# Bulk Modulus (GPa) = 57.18791 67.55169 62.36980
# Shear Modulus (GPa) = 38.18613 41.39653 39.79133
#
# Velocity S-wave (km/s) = 4.13645 4.30682 4.22249
# Velocity P-wave (km/s) = 6.95974 7.41618 7.19158
#
# Compressibility (1/GPa) = 0.01748621
#
# Stress axis : x y z
#
# Youngs Moduli (GPa) = 73.98169 99.37876 137.10976
#
# Poissons Ratio (x) = 0.22492 0.32555
# Poissons Ratio (y) = 0.16744 0.28186
# Poissons Ratio (z) = 0.17566 0.20429
#
# Static dielectric constant tensor:
#      x y z
#    x 4.084490 0.034210 0.064530 
#    y 0.034210 4.085320 0.113020 
#    z 0.064530 0.113020 4.091800 
# 
# 
# High freq. dielectric constant tensor:
#      x y z
#    x 1.881400 0.003950 0.005250 
#    y 0.003950 1.891730 -0.001440 
#    z 0.005250 -0.001440 1.895490 
# 
# From -- ./inp_files/157244.got.cif
#   From: 2010.06.25/outbox.cif.g09.slc.cpg/sg2_79_cif.got.tgz:157244.got - 2010.06.27 13:26:56.
