data_PCOD8034716
_publ_section_title
;
Structure prediction by ZEFSAII (Michael W. Deem and Ramdas Pophale) SiO2 
 PCOD8034716
Probable space group: P -1
;
_chemical_formula_sum "Si O2"
_cell_formula_units_Z 16
_cell_length_a 9.518699
_cell_length_b 17.197465
_cell_length_c 17.225616
_cell_angle_alpha 31.362837
_cell_angle_beta 141.451006
_cell_angle_gamma 152.028562
_cell_volume 683.816746
_symmetry_space_group_name_H-M "P -1"
_symmetry_group_IT_number 2
_symmetry_cell_setting 'triclinic'
loop_
_space_group_symop_operation_xyz
x,y,z
-x,-y,-z
loop_
_atom_site_type_symbol
_atom_site_label
_atom_site_fract_x
_atom_site_fract_y
_atom_site_fract_z
Si Si1 0.718286 0.588506 0.322985
Si Si2 0.338667 0.137642 0.497726
Si Si3 0.273109 0.205616 0.110973
Si Si4 0.819768 0.588468 0.541904
Si Si5 0.754542 0.998870 0.587494
Si Si6 0.306867 0.981391 0.189369
Si Si7 0.271315 0.658062 0.043273
Si Si8 0.947084 0.580160 0.125912
O O1 0.574701 0.363490 0.436870
O O2 0.882935 0.647568 0.427609
O O3 0.440367 0.580616 0.206238
O O4 0.982227 0.753175 0.235169
O O5 0.456856 0.023845 0.662873
O O6 0.330911 0.151855 0.389389
O O7 0.000000 0.000000 0.500000
O O8 0.622768 0.375694 0.137074
O O9 0.123133 0.044593 0.251552
O O10 0.238455 0.103531 0.102571
O O11 0.089410 0.278611 0.966329
O O12 0.500000 0.500000 0.500000
O O13 0.986584 0.771550 0.518434
O O14 0.893292 0.450991 0.713349
O O15 0.500000 0.000000 0.500000
O O16 0.477214 0.112592 0.073627
O O17 0.139013 0.675743 0.048430
O O18 0.000000 0.500000 0.000000
#
# Coordination Sequence:
#
# PCOD8034716 Si02
#       8
#     2   2   2   2   2   2   2   2
#     4  12  27  48  75 113 153 201 246 320 391 443
#     4  12  27  46  76 113 148 201 260 306 375 457
#     4  11  24  45  76 110 147 199 256 307 374 446
#     4  12  23  47  76 109 152 188 248 320 376 435
#     4  12  23  45  78 101 147 199 253 306 361 455
#     4  12  25  50  69 110 156 199 246 316 387 442
#     4  12  26  48  75 106 155 200 252 306 378 462
#     4  11  25  45  76 113 144 202 257 306 369 453
#
# _framework density 23.398083
#
# number of rings (size 3 to 8) (size 9 to 14) (size 15 to 20)
#    0.000    0.250    6.250    2.250    3.500    0.000 
#    4.500    1.250    0.000    0.000    0.000    0.000 
#    0.000    0.000    0.000    0.000    0.000    0.000 
#
# Total GULP energy -198299.846840 kJ/mol
# GULP energy per Si atom -12393.740428 kJ/mol
# Density = 2.334483 g / cm^3
# Si number density = 23.398083 Si / 1000 Ang^3
#
#
#
# Elastic Constant Matrix: (Units=GPa)
#
#
# Indices 1 2 3 4 5 6 
#
# 1 117.9942 47.1275 53.9367 -8.6820 0.6099 11.9059
# 2 47.1275 114.7357 44.9347 -13.0075 7.6147 13.7612
# 3 53.9367 44.9347 150.1445 4.8470 11.6187 9.3003
# 4 -8.6820 -13.0075 4.8470 41.7293 0.3031 4.6149
# 5 0.6099 7.6147 11.6187 0.3031 36.8212 3.5367
# 6 11.9059 13.7612 9.3003 4.6149 3.5367 38.4415
#
#
#
# Elastic Compliance Matrix: (Units=1/GPa)
#
#
# Indices 1 2 3 4 5 6 
#
# 1 0.011568 -0.003090 -0.003297 0.002044 0.001671 -0.002078
# 2 -0.003090 0.011717 -0.002218 0.003609 -0.001413 -0.003004
# 3 -0.003297 -0.002218 0.008748 -0.002398 -0.002246 0.000193
# 4 0.002044 0.003609 -0.002398 0.026291 0.000194 -0.004519
# 5 0.001671 -0.001413 -0.002246 0.000194 0.028331 -0.002098
# 6 -0.002078 -0.003004 0.000193 -0.004519 -0.002098 0.028421
#
#
# Mechanical properties :
#
#
# Convention : Reuss Voigt Hill
#
# Bulk Modulus (GPa) = 67.46555 74.98578 71.22567
# Shear Modulus (GPa) = 36.43599 39.19010 37.81304
#
# Velocity S-wave (km/s) = 3.95044 4.09703 4.02440
# Velocity P-wave (km/s) = 7.05014 7.38229 7.21813
#
# Compressibility (1/GPa) = 0.01482238
#
# Stress axis : x y z
#
# Youngs Moduli (GPa) = 86.44633 85.34841 114.31606
#
# Poissons Ratio (x) = 0.26373 0.37694
# Poissons Ratio (y) = 0.26712 0.25350
# Poissons Ratio (z) = 0.28504 0.18927
#
# Static dielectric constant tensor:
#      x y z
#    x 4.222060 0.259930 0.188280 
#    y 0.259930 4.168260 -0.270360 
#    z 0.188280 -0.270360 4.523250 
# 
# 
# High freq. dielectric constant tensor:
#      x y z
#    x 1.925960 0.014090 0.004170 
#    y 0.014090 1.933940 -0.000370 
#    z 0.004170 -0.000370 1.940940 
# 
# From -- ./inp_files/562064.got.cif
#   From: 2010.06.25/outbox.cif.g09.slc.cpg/sg2_282_cif.got.tgz:562064.got - 2010.06.27 13:26:56.
