data_PCOD8034338
_publ_section_title
;
Structure prediction by ZEFSAII (Michael W. Deem and Ramdas Pophale) SiO2 
 PCOD8034338
Probable space group: P -1
;
_chemical_formula_sum "Si O2"
_cell_formula_units_Z 12
_cell_length_a 11.149944
_cell_length_b 8.481821
_cell_length_c 7.301261
_cell_angle_alpha 92.301728
_cell_angle_beta 130.411127
_cell_angle_gamma 64.709744
_cell_volume 446.358941
_symmetry_space_group_name_H-M "P -1"
_symmetry_group_IT_number 2
_symmetry_cell_setting 'triclinic'
loop_
_space_group_symop_operation_xyz
x,y,z
-x,-y,-z
loop_
_atom_site_type_symbol
_atom_site_label
_atom_site_fract_x
_atom_site_fract_y
_atom_site_fract_z
Si Si1 0.536212 0.306622 0.685460
Si Si2 0.813504 0.670716 0.162266
Si Si3 0.528128 0.359778 0.183082
Si Si4 0.821950 0.041238 0.655401
Si Si5 0.837448 0.661129 0.604857
Si Si6 0.148266 0.981326 0.796549
O O1 0.487187 0.518503 0.644737
O O2 0.674790 0.168463 0.665512
O O3 0.344722 0.311042 0.478543
O O4 0.650699 0.212117 0.988799
O O5 0.839145 0.605550 0.393590
O O6 0.803622 0.862282 0.154012
O O7 0.965043 0.525380 0.156115
O O8 0.619208 0.696968 0.920666
O O9 0.726317 0.161699 0.374366
O O10 0.500000 0.500000 0.000000
O O11 0.027159 0.012420 0.867640
O O12 0.845933 0.841979 0.654820
O O13 0.000000 0.000000 0.500000
#
# Coordination Sequence:
#
# PCOD8034338 Si02
#       6
#     2   2   2   2   2   2
#     4  12  26  46  70 105 145 183 226 286 354 413
#     4  11  25  44  71 106 134 179 241 293 329 407
#     4  12  25  44  74 103 138 183 235 286 340 411
#     4  12  26  46  70 105 145 183 226 286 354 413
#     4  11  24  44  72 102 142 181 232 285 348 404
#     4  12  25  44  74 103 138 183 235 286 340 411
#
# _framework density 26.884191999999999
#
# number of rings (size 3 to 8) (size 9 to 14) (size 15 to 20)
#    0.000    0.333    3.333    5.500    4.667    1.333 
#    0.000    2.500    0.000    0.000    0.000    0.000 
#    0.000    0.000    0.000    0.000    0.000    0.000 
#
# Total GULP energy -148680.196791 kJ/mol
# GULP energy per Si atom -12390.016399 kJ/mol
# Density = 2.682300 g / cm^3
# Si number density = 26.884192 Si / 1000 Ang^3
#
#
#
# Elastic Constant Matrix: (Units=GPa)
#
#
# Indices 1 2 3 4 5 6 
#
# 1 105.7067 38.7387 34.3160 8.7912 66.9120 7.9449
# 2 38.7387 199.4880 52.2504 -22.2619 40.2585 26.8780
# 3 34.3160 52.2504 82.2461 -20.9353 63.1368 12.0830
# 4 8.7912 -22.2619 -20.9353 41.6197 -11.7212 15.6091
# 5 66.9120 40.2585 63.1368 -11.7212 55.7806 8.7295
# 6 7.9449 26.8780 12.0830 15.6091 8.7295 47.6721
#
#
#
# Elastic Compliance Matrix: (Units=1/GPa)
#
#
# Indices 1 2 3 4 5 6 
#
# 1 -0.007246 0.000377 -0.030052 -0.002295 0.041681 0.001731
# 2 0.000377 0.006782 0.001499 0.004601 -0.005326 -0.004798
# 3 -0.030052 0.001499 -0.006467 0.021257 0.048320 -0.010006
# 4 -0.002295 0.004601 0.021257 0.040951 -0.013111 -0.018607
# 5 0.041681 -0.005326 0.048320 -0.013111 -0.086286 0.003902
# 6 0.001731 -0.004798 -0.010006 -0.018607 0.003902 0.031307
#
#
# Mechanical properties :
#
#
# Convention : Reuss Voigt Hill
#
# Bulk Modulus (GPa) = -15.80195 70.89454 27.54630
# Shear Modulus (GPa) = 349.66957 46.49021 198.07989
#
# Velocity S-wave (km/s) = 11.41698 4.16297 8.59296
# Velocity P-wave (km/s) = 12.95786 7.03809 10.42691
#
# Compressibility (1/GPa) = -0.06328332
#
# Stress axis : x y z
#
# Youngs Moduli (GPa) = -138.01340 147.45624 -154.63014
#
# Poissons Ratio (x) = -0.05565 -4.64695
# Poissons Ratio (y) = 0.05208 0.23172
# Poissons Ratio (z) = -4.14758 -0.22097
#
# Static dielectric constant tensor:
#      x y z
#    x 6.339990 -0.715980 -0.064610 
#    y -0.715980 5.201450 -0.324310 
#    z -0.064610 -0.324310 6.153210 
# 
# 
# High freq. dielectric constant tensor:
#      x y z
#    x 2.112050 -0.028930 -0.001810 
#    y -0.028930 2.104780 -0.010770 
#    z -0.001810 -0.010770 2.101920 
# 
# From -- ./inp_files/146985.got.cif
#   From: 2010.06.25/outbox.cif.g09.slc.cpg/sg2_74_cif.got.tgz:146985.got - 2010.06.27 13:26:56.
