data_PCOD8034710
_publ_section_title
;
Structure prediction by ZEFSAII (Michael W. Deem and Ramdas Pophale) SiO2 
 PCOD8034710
Probable space group: P -1
;
_chemical_formula_sum "Si O2"
_cell_formula_units_Z 12
_cell_length_a 8.747429
_cell_length_b 11.405617
_cell_length_c 5.744690
_cell_angle_alpha 91.623111
_cell_angle_beta 71.306477
_cell_angle_gamma 116.088615
_cell_volume 483.305340
_symmetry_space_group_name_H-M "P -1"
_symmetry_group_IT_number 2
_symmetry_cell_setting 'triclinic'
loop_
_space_group_symop_operation_xyz
x,y,z
-x,-y,-z
loop_
_atom_site_type_symbol
_atom_site_label
_atom_site_fract_x
_atom_site_fract_y
_atom_site_fract_z
Si Si1 0.892411 0.251191 0.407511
Si Si2 0.210322 0.579888 0.837434
Si Si3 0.890082 0.844183 0.040229
Si Si4 0.590638 0.997624 0.705268
Si Si5 0.572534 0.740026 0.852922
Si Si6 0.214842 0.359674 0.545822
O O1 0.766862 0.308279 0.353910
O O2 0.777980 0.130029 0.626428
O O3 0.991098 0.207023 0.163907
O O4 0.050312 0.365909 0.485044
O O5 0.351078 0.657621 0.985234
O O6 0.286221 0.482676 0.692181
O O7 0.000000 0.500000 0.000000
O O8 0.684354 0.792333 0.039557
O O9 0.866591 0.783474 0.302481
O O10 0.000000 0.000000 0.000000
O O11 0.500000 0.000000 0.500000
O O12 0.621514 0.868437 0.676324
O O13 0.500000 0.000000 0.000000
O O14 0.628314 0.636034 0.698030
#
# Coordination Sequence:
#
# PCOD8034710 Si02
#       6
#     2   2   2   2   2   2
#     4  11  25  47  73 108 145 198 259 315 384 455
#     4  12  25  48  74 105 152 203 259 312 383 460
#     4  11  24  45  76 106 149 192 249 316 387 456
#     4  12  28  47  78 116 154 197 258 330 394 455
#     4  11  27  46  73 112 146 197 256 315 389 458
#     4  11  25  47  71 104 149 198 252 319 379 463
#
# _framework density 24.829024
#
# number of rings (size 3 to 8) (size 9 to 14) (size 15 to 20)
#    0.000    0.667    3.333    3.000    9.333    3.333 
#    3.000    0.000    0.000    0.000    0.000    0.000 
#    0.000    0.000    0.000    0.000    0.000    0.000 
#
# Total GULP energy -148698.596458 kJ/mol
# GULP energy per Si atom -12391.549705 kJ/mol
# Density = 2.477251 g / cm^3
# Si number density = 24.829024 Si / 1000 Ang^3
#
#
#
# Elastic Constant Matrix: (Units=GPa)
#
#
# Indices 1 2 3 4 5 6 
#
# 1 127.2843 55.6444 33.9033 0.6399 0.6204 14.2427
# 2 55.6444 115.0135 -2.7078 3.8889 -2.7787 17.7142
# 3 33.9033 -2.7078 67.1560 4.4497 4.5516 20.9974
# 4 0.6399 3.8889 4.4497 34.1091 9.5831 -2.3568
# 5 0.6204 -2.7787 4.5516 9.5831 28.1123 -9.6344
# 6 14.2427 17.7142 20.9974 -2.3568 -9.6344 43.8518
#
#
#
# Elastic Compliance Matrix: (Units=1/GPa)
#
#
# Indices 1 2 3 4 5 6 
#
# 1 0.012444 -0.006601 -0.007436 0.001489 0.000590 0.002395
# 2 -0.006601 0.013069 0.006070 -0.002336 -0.000933 -0.006372
# 3 -0.007436 0.006070 0.023542 -0.002673 -0.006555 -0.012893
# 4 0.001489 -0.002336 -0.002673 0.032985 -0.010675 0.001167
# 5 0.000590 -0.000933 -0.006555 -0.010675 0.044456 0.012517
# 6 0.002395 -0.006372 -0.012893 0.001167 0.012517 0.033587
#
#
# Mechanical properties :
#
#
# Convention : Reuss Voigt Hill
#
# Bulk Modulus (GPa) = 30.19206 53.68152 41.93679
# Shear Modulus (GPa) = 26.72970 36.05555 31.39263
#
# Velocity S-wave (km/s) = 3.28464 3.81485 3.55963
# Velocity P-wave (km/s) = 5.15476 6.40870 5.81563
#
# Compressibility (1/GPa) = 0.03312129
#
# Stress axis : x y z
#
# Youngs Moduli (GPa) = 80.35789 76.51772 42.47706
#
# Poissons Ratio (x) = 0.50507 0.31586
# Poissons Ratio (y) = 0.53041 -0.25782
# Poissons Ratio (z) = 0.59754 -0.46444
#
# Static dielectric constant tensor:
#      x y z
#    x 4.889150 0.377880 0.054790 
#    y 0.377880 5.599080 -0.170310 
#    z 0.054790 -0.170310 4.355330 
# 
# 
# High freq. dielectric constant tensor:
#      x y z
#    x 2.004910 0.001960 0.005280 
#    y 0.001960 2.005970 -0.000070 
#    z 0.005280 -0.000070 1.966640 
# 
# From -- ./inp_files/20934.got.cif
#   From: 2010.06.25/outbox.cif.g09.slc.cpg/sg2_11_cif.got.tgz:20934.got - 2010.06.27 13:26:56.
