data_PCOD8034973
_publ_section_title
;
Structure prediction by ZEFSAII (Michael W. Deem and Ramdas Pophale) SiO2 
 PCOD8034973
Probable space group: P -1
;
_chemical_formula_sum "Si O2"
_cell_formula_units_Z 14
_cell_length_a 8.398124
_cell_length_b 5.537830
_cell_length_c 13.076036
_cell_angle_alpha 104.644590
_cell_angle_beta 88.937523
_cell_angle_gamma 87.575766
_cell_volume 587.580127
_symmetry_space_group_name_H-M "P -1"
_symmetry_group_IT_number 2
_symmetry_cell_setting 'triclinic'
loop_
_space_group_symop_operation_xyz
x,y,z
-x,-y,-z
loop_
_atom_site_type_symbol
_atom_site_label
_atom_site_fract_x
_atom_site_fract_y
_atom_site_fract_z
Si Si1 0.136355 0.596515 0.936691
Si Si2 0.532957 0.951446 0.285459
Si Si3 0.428121 0.517368 0.390873
Si Si4 0.936327 0.444691 0.605565
Si Si5 0.873105 0.808947 0.264145
Si Si6 0.073074 0.134772 0.179085
Si Si7 0.618252 0.097732 0.925392
O O1 0.194713 0.419702 0.823395
O O2 0.055202 0.836860 0.907212
O O3 0.291414 0.664592 0.007124
O O4 0.000000 0.500000 0.000000
O O5 0.509173 0.736023 0.348509
O O6 0.721736 0.007159 0.292667
O O7 0.480273 0.825495 0.166608
O O8 0.442697 0.226842 0.321732
O O9 0.500000 0.500000 0.500000
O O10 0.246020 0.623561 0.408725
O O11 0.947798 0.660562 0.711432
O O12 0.000000 0.500000 0.500000
O O13 0.059029 0.230623 0.626062
O O14 0.029295 0.879519 0.206419
O O15 0.249802 0.120458 0.128688
O O16 0.500000 0.000000 0.000000
#
# Coordination Sequence:
#
# PCOD8034973 Si02
#       7
#     2   2   2   2   2   2   2
#     4  11  25  42  71 101 142 200 253 305 376 448
#     4  12  29  49  77 115 157 198 255 323 384 460
#     4  12  28  53  78 112 156 196 254 326 394 452
#     4  11  26  47  78 107 146 200 249 313 386 464
#     4  11  26  46  74 106 149 199 257 308 376 470
#     4  11  24  47  69 105 149 191 258 308 374 463
#     4  12  26  45  73 109 155 205 252 319 386 453
#
# _framework density 23.826537999999999
#
# number of rings (size 3 to 8) (size 9 to 14) (size 15 to 20)
#    0.000    0.571    2.857    3.429   12.000    1.143 
#    0.000    0.000    0.000    0.000    0.000    0.000 
#    0.000    0.000    0.000    0.000    0.000    0.000 
#
# Total GULP energy -173439.929996 kJ/mol
# GULP energy per Si atom -12388.566428 kJ/mol
# Density = 2.377231 g / cm^3
# Si number density = 23.826538 Si / 1000 Ang^3
#
#
#
# Elastic Constant Matrix: (Units=GPa)
#
#
# Indices 1 2 3 4 5 6 
#
# 1 161.4000 18.1891 42.8143 -13.2393 5.0273 2.3296
# 2 18.1891 74.5000 19.9845 -22.4267 -2.0505 10.5311
# 3 42.8143 19.9845 119.7324 -23.0568 12.7770 10.4568
# 4 -13.2393 -22.4267 -23.0568 33.4083 2.4888 0.6600
# 5 5.0273 -2.0505 12.7770 2.4888 51.4254 -5.7374
# 6 2.3296 10.5311 10.4568 0.6600 -5.7374 40.7245
#
#
#
# Elastic Compliance Matrix: (Units=1/GPa)
#
#
# Indices 1 2 3 4 5 6 
#
# 1 0.006943 -0.000993 -0.002231 0.000548 -0.000146 0.000403
# 2 -0.000993 0.017858 0.000099 0.011783 -0.000324 -0.004823
# 3 -0.002231 0.000099 0.011159 0.007194 -0.003271 -0.003341
# 4 0.000548 0.011783 0.007194 0.043457 -0.004168 -0.006217
# 5 -0.000146 -0.000324 -0.003271 -0.004168 0.020902 0.003944
# 6 0.000403 -0.004823 -0.003341 -0.006217 0.003944 0.027294
#
#
# Mechanical properties :
#
#
# Convention : Reuss Voigt Hill
#
# Bulk Modulus (GPa) = 33.65720 57.51202 45.58461
# Shear Modulus (GPa) = 34.77844 43.42126 39.09985
#
# Velocity S-wave (km/s) = 3.82468 4.27358 4.05535
# Velocity P-wave (km/s) = 5.80180 6.96717 6.41102
#
# Compressibility (1/GPa) = 0.02971132
#
# Stress axis : x y z
#
# Youngs Moduli (GPa) = 144.02580 55.99603 89.61032
#
# Poissons Ratio (x) = 0.05558 0.19994
# Poissons Ratio (y) = 0.14296 -0.00887
# Poissons Ratio (z) = 0.32135 -0.00554
#
# Static dielectric constant tensor:
#      x y z
#    x 4.625830 0.124120 0.190060 
#    y 0.124120 3.730510 0.307590 
#    z 0.190060 0.307590 4.528350 
# 
# 
# High freq. dielectric constant tensor:
#      x y z
#    x 1.960730 -0.005600 0.007960 
#    y -0.005600 1.929620 -0.006590 
#    z 0.007960 -0.006590 1.967800 
# 
# From -- ./inp_files/28328.got.cif
#   From: 2010.06.25/outbox.cif.g09.slc.cpg/sg2_15_cif.got.tgz:28328.got - 2010.06.27 13:26:56.
