data_PCOD8034921
_publ_section_title
;
Structure prediction by ZEFSAII (Michael W. Deem and Ramdas Pophale) SiO2 
 PCOD8034921
Probable space group: P -1
;
_chemical_formula_sum "Si O2"
_cell_formula_units_Z 14
_cell_length_a 24.398224
_cell_length_b 11.744394
_cell_length_c 9.297278
_cell_angle_alpha 36.871307
_cell_angle_beta 29.395263
_cell_angle_gamma 26.696289
_cell_volume 584.630321
_symmetry_space_group_name_H-M "P -1"
_symmetry_group_IT_number 2
_symmetry_cell_setting 'triclinic'
loop_
_space_group_symop_operation_xyz
x,y,z
-x,-y,-z
loop_
_atom_site_type_symbol
_atom_site_label
_atom_site_fract_x
_atom_site_fract_y
_atom_site_fract_z
Si Si1 0.752494 0.551779 0.126552
Si Si2 0.010873 0.841253 0.807472
Si Si3 0.095082 0.155182 0.244405
Si Si4 0.559808 0.426452 0.664396
Si Si5 0.395340 0.972024 0.852048
Si Si6 0.721176 0.117077 0.326095
Si Si7 0.102422 0.453723 0.445216
O O1 0.652862 0.486367 0.469239
O O2 0.667580 0.844923 0.051871
O O3 0.901830 0.390176 0.046077
O O4 0.793709 0.500525 0.914049
O O5 0.979011 0.732306 0.857141
O O6 0.110328 0.909054 0.469409
O O7 0.858936 0.089344 0.981546
O O8 0.992498 0.348651 0.410435
O O9 0.261557 0.054155 0.970393
O O10 0.670241 0.218800 0.500571
O O11 0.413664 0.692537 0.667601
O O12 0.519448 0.308495 0.992265
O O13 0.500000 0.000000 0.500000
O O14 0.784331 0.831115 0.461503
O O15 0.000000 0.500000 0.500000
#
# Coordination Sequence:
#
# PCOD8034921 Si02
#       7
#     2   2   2   2   2   2   2
#     4  12  25  46  79 110 144 202 253 309 380 440
#     4  11  25  45  77 112 150 200 243 320 379 433
#     4  11  25  47  74 113 153 192 258 308 375 451
#     4  11  26  49  71 110 157 194 258 304 377 459
#     4  12  27  47  75 106 152 204 249 306 382 454
#     4  11  24  46  75 110 152 198 245 321 373 438
#     4  12  22  44  79 111 146 191 259 314 368 443
#
# _framework density 23.946757000000002
#
# number of rings (size 3 to 8) (size 9 to 14) (size 15 to 20)
#    0.000    0.571    5.714    0.857    2.000    6.857 
#    2.571    0.000    0.000    0.000    0.000    0.000 
#    0.000    0.000    0.000    0.000    0.000    0.000 
#
# Total GULP energy -173549.803370 kJ/mol
# GULP energy per Si atom -12396.414526 kJ/mol
# Density = 2.389225 g / cm^3
# Si number density = 23.946757 Si / 1000 Ang^3
#
#
#
# Elastic Constant Matrix: (Units=GPa)
#
#
# Indices 1 2 3 4 5 6 
#
# 1 115.2581 61.4409 53.7490 -13.7505 -5.5263 -7.5328
# 2 61.4409 114.7319 37.3617 -7.7138 0.2175 -15.4853
# 3 53.7490 37.3617 159.3136 -10.0749 -6.3313 -10.2635
# 4 -13.7505 -7.7138 -10.0749 30.5121 -5.7175 3.4087
# 5 -5.5263 0.2175 -6.3313 -5.7175 33.4265 -3.5861
# 6 -7.5328 -15.4853 -10.2635 3.4087 -3.5861 32.3326
#
#
#
# Elastic Compliance Matrix: (Units=1/GPa)
#
#
# Indices 1 2 3 4 5 6 
#
# 1 0.014016 -0.006393 -0.002919 0.004295 0.002444 -0.000905
# 2 -0.006393 0.012921 -0.000652 -0.000490 -0.000871 0.004447
# 3 -0.002919 -0.000652 0.007632 0.001123 0.001316 0.001458
# 4 0.004295 -0.000490 0.001123 0.036478 0.006956 -0.001952
# 5 0.002444 -0.000871 0.001316 0.006956 0.032130 0.003400
# 6 -0.000905 0.004447 0.001458 -0.001952 0.003400 0.033893
#
#
# Mechanical properties :
#
#
# Convention : Reuss Voigt Hill
#
# Bulk Modulus (GPa) = 68.30707 77.15632 72.73170
# Shear Modulus (GPa) = 30.88732 35.03769 32.96251
#
# Velocity S-wave (km/s) = 3.59532 3.82926 3.71413
# Velocity P-wave (km/s) = 6.76917 7.20006 6.98794
#
# Compressibility (1/GPa) = 0.01463977
#
# Stress axis : x y z
#
# Youngs Moduli (GPa) = 71.34776 77.39360 131.02831
#
# Poissons Ratio (x) = 0.49479 0.38246
# Poissons Ratio (y) = 0.45614 0.08548
# Poissons Ratio (z) = 0.20826 0.05049
#
# Static dielectric constant tensor:
#      x y z
#    x 4.241610 -0.009090 0.112590 
#    y -0.009090 4.303420 -0.000310 
#    z 0.112590 -0.000310 4.683150 
# 
# 
# High freq. dielectric constant tensor:
#      x y z
#    x 1.942560 0.000700 0.007510 
#    y 0.000700 1.950370 -0.006400 
#    z 0.007510 -0.006400 1.970960 
# 
# From -- ./inp_files/353775.got.cif
#   From: 2010.06.25/outbox.cif.g09.slc.cpg/sg2_177_cif.got.tgz:353775.got - 2010.06.27 13:26:56.
