data_PCOD8034087
_publ_section_title
;
Structure prediction by ZEFSAII (Michael W. Deem and Ramdas Pophale) SiO2 
 PCOD8034087
Probable space group: P -1
;
_chemical_formula_sum "Si O2"
_cell_formula_units_Z 14
_cell_length_a 6.633248
_cell_length_b 11.051107
_cell_length_c 11.567296
_cell_angle_alpha 74.015817
_cell_angle_beta 131.567093
_cell_angle_gamma 103.293889
_cell_volume 608.564889
_symmetry_space_group_name_H-M "P -1"
_symmetry_group_IT_number 2
_symmetry_cell_setting 'triclinic'
loop_
_space_group_symop_operation_xyz
x,y,z
-x,-y,-z
loop_
_atom_site_type_symbol
_atom_site_label
_atom_site_fract_x
_atom_site_fract_y
_atom_site_fract_z
Si Si1 0.723175 0.643829 0.617327
Si Si2 0.134177 0.574980 0.424159
Si Si3 0.814989 0.843859 0.402470
Si Si4 0.335951 0.256546 0.859467
Si Si5 0.844055 0.864846 0.949434
Si Si6 0.082456 0.645960 0.965710
Si Si7 0.393313 0.934221 0.593170
O O1 0.421050 0.642065 0.556246
O O2 0.801459 0.507749 0.641037
O O3 0.735392 0.732129 0.488074
O O4 0.928835 0.692394 0.781840
O O5 0.000000 0.500000 0.500000
O O6 0.933678 0.671064 0.272417
O O7 0.643911 0.829546 0.223620
O O8 0.134406 0.837907 0.494098
O O9 0.728100 0.972435 0.386944
O O10 0.324729 0.169766 0.990862
O O11 0.599992 0.351868 0.941139
O O12 0.640885 0.870473 0.762929
O O13 0.030300 0.748707 0.019679
O O14 0.000000 0.000000 0.000000
O O15 0.000000 0.500000 0.000000
O O16 0.500000 0.000000 0.500000
#
# Coordination Sequence:
#
# PCOD8034087 Si02
#       7
#     2   2   2   2   2   2   2
#     4  11  25  43  72 101 143 185 244 296 358 438
#     4  11  24  43  72 106 141 189 241 299 365 436
#     4  11  25  42  71 103 137 187 248 297 358 436
#     4  12  27  44  73 106 150 188 245 306 370 435
#     4  12  28  47  74 105 151 199 242 301 378 434
#     4  12  28  47  72 109 149 190 246 309 371 440
#     4  11  25  45  70 102 141 191 246 298 358 437
#
# _framework density 23.004943000000001
#
# number of rings (size 3 to 8) (size 9 to 14) (size 15 to 20)
#    0.000    0.571    1.429    5.143   10.000    9.143 
#    0.000    0.000    0.000    0.000    0.000    0.000 
#    0.000    0.000    0.000    0.000    0.000    0.000 
#
# Total GULP energy -173607.963788 kJ/mol
# GULP energy per Si atom -12400.568842 kJ/mol
# Density = 2.295258 g / cm^3
# Si number density = 23.004943 Si / 1000 Ang^3
#
#
#
# Elastic Constant Matrix: (Units=GPa)
#
#
# Indices 1 2 3 4 5 6 
#
# 1 137.1771 50.3615 56.1958 3.8394 4.3934 23.4636
# 2 50.3615 105.5409 32.6318 2.7937 6.6510 16.3121
# 3 56.1958 32.6318 136.3822 8.9889 -3.4580 17.6437
# 4 3.8394 2.7937 8.9889 38.4718 9.0473 5.3966
# 5 4.3934 6.6510 -3.4580 9.0473 50.6562 -5.0041
# 6 23.4636 16.3121 17.6437 5.3966 -5.0041 54.5742
#
#
#
# Elastic Compliance Matrix: (Units=1/GPa)
#
#
# Indices 1 2 3 4 5 6 
#
# 1 0.010314 -0.003513 -0.003146 0.000547 -0.000994 -0.002513
# 2 -0.003513 0.011905 -0.001231 0.000407 -0.001597 -0.001837
# 3 -0.003146 -0.001231 0.009205 -0.001924 0.001313 -0.000945
# 4 0.000547 0.000407 -0.001924 0.028087 -0.005547 -0.003021
# 5 -0.000994 -0.001597 0.001313 -0.005547 0.021413 0.002992
# 6 -0.002513 -0.001837 -0.000945 -0.003021 0.002992 0.020832
#
#
# Mechanical properties :
#
#
# Convention : Reuss Voigt Hill
#
# Bulk Modulus (GPa) = 63.91067 73.05317 68.48192
# Shear Modulus (GPa) = 40.73304 44.73451 42.73377
#
# Velocity S-wave (km/s) = 4.21244 4.41450 4.31465
# Velocity P-wave (km/s) = 7.17643 7.60317 7.39288
#
# Compressibility (1/GPa) = 0.01564684
#
# Stress axis : x y z
#
# Youngs Moduli (GPa) = 96.95118 83.99494 108.63212
#
# Poissons Ratio (x) = 0.29504 0.34173
# Poissons Ratio (y) = 0.34055 0.13371
# Poissons Ratio (z) = 0.30498 0.10339
#
# Static dielectric constant tensor:
#      x y z
#    x 4.463070 -0.175030 0.020470 
#    y -0.175030 4.379460 0.181160 
#    z 0.020470 0.181160 4.714710 
# 
# 
# High freq. dielectric constant tensor:
#      x y z
#    x 1.927500 -0.003580 0.001870 
#    y -0.003580 1.914100 0.006650 
#    z 0.001870 0.006650 1.918320 
# 
# From -- ./inp_files/44750.got.cif
#   From: 2010.06.25/outbox.cif.g09.slc.cpg/sg2_23_cif.got.tgz:44750.got - 2010.06.27 13:26:56.
