data_PCOD8034164
_publ_section_title
;
Structure prediction by ZEFSAII (Michael W. Deem and Ramdas Pophale) SiO2 
 PCOD8034164
Probable space group: P -1
;
_chemical_formula_sum "Si O2"
_cell_formula_units_Z 16
_cell_length_a 9.367004
_cell_length_b 20.751827
_cell_length_c 18.052807
_cell_angle_alpha 160.938807
_cell_angle_beta 142.420961
_cell_angle_gamma 36.918978
_cell_volume 676.128174
_symmetry_space_group_name_H-M "P -1"
_symmetry_group_IT_number 2
_symmetry_cell_setting 'triclinic'
loop_
_space_group_symop_operation_xyz
x,y,z
-x,-y,-z
loop_
_atom_site_type_symbol
_atom_site_label
_atom_site_fract_x
_atom_site_fract_y
_atom_site_fract_z
Si Si1 0.752304 0.734421 0.034381
Si Si2 0.035005 0.792214 0.698565
Si Si3 0.603876 0.194262 0.765423
Si Si4 0.465892 0.176706 0.411570
Si Si5 0.709162 0.377937 0.856193
Si Si6 0.255103 0.434876 0.314411
Si Si7 0.676087 0.418343 0.273107
Si Si8 0.985797 0.816938 0.963198
O O1 0.013903 0.670783 0.111245
O O2 0.668065 0.978693 0.254554
O O3 0.770589 0.618597 0.838544
O O4 0.562794 0.660624 0.929433
O O5 0.771721 0.889914 0.730657
O O6 0.031525 0.630068 0.455164
O O7 0.227364 0.673719 0.708472
O O8 0.132799 0.979901 0.911916
O O9 0.708857 0.256157 0.799727
O O10 0.824113 0.132249 0.845809
O O11 0.500000 0.000000 0.500000
O O12 0.394239 0.380754 0.913239
O O13 0.552506 0.298224 0.645002
O O14 0.396326 0.333821 0.484502
O O15 0.500000 0.500000 0.500000
O O16 0.230301 0.249099 0.155252
O O17 0.877567 0.361305 0.230014
#
# Coordination Sequence:
#
# PCOD8034164 Si02
#       8
#     2   2   2   2   2   2   2   2
#     4  12  28  47  73 113 154 190 252 315 373 439
#     4  12  26  46  79 106 149 194 253 304 372 453
#     4  11  24  43  79 113 146 195 248 304 381 445
#     4  12  26  47  78 106 150 203 249 305 377 445
#     4  11  25  48  72 110 155 190 251 311 367 448
#     4  12  27  50  72 113 152 194 249 315 374 438
#     4  12  26  47  73 111 145 201 249 308 370 447
#     4  12  25  47  79 108 147 199 252 299 379 452
#
# _framework density 23.664152000000001
#
# number of rings (size 3 to 8) (size 9 to 14) (size 15 to 20)
#    0.000    0.250    6.250    1.875    3.500    3.000 
#    0.000    0.000    0.000    0.000    0.000    0.000 
#    0.000    0.000    0.000    0.000    0.000    0.000 
#
# Total GULP energy -198489.703236 kJ/mol
# GULP energy per Si atom -12405.606452 kJ/mol
# Density = 2.361029 g / cm^3
# Si number density = 23.664152 Si / 1000 Ang^3
#
#
#
# Elastic Constant Matrix: (Units=GPa)
#
#
# Indices 1 2 3 4 5 6 
#
# 1 80.0567 30.2593 21.1558 3.4593 18.0249 -5.6224
# 2 30.2593 88.4629 22.4734 10.5647 16.6356 -10.1759
# 3 21.1558 22.4734 105.8287 18.5291 13.7247 -5.4284
# 4 3.4593 10.5647 18.5291 32.4869 -2.0765 2.7932
# 5 18.0249 16.6356 13.7247 -2.0765 49.5075 0.7993
# 6 -5.6224 -10.1759 -5.4284 2.7932 0.7993 35.3073
#
#
#
# Elastic Compliance Matrix: (Units=1/GPa)
#
#
# Indices 1 2 3 4 5 6 
#
# 1 0.015382 -0.004027 -0.001732 0.000325 -0.003771 0.001082
# 2 -0.004027 0.014503 -0.000878 -0.004333 -0.003407 0.003824
# 3 -0.001732 -0.000878 0.011534 -0.006428 -0.002571 0.001811
# 4 0.000325 -0.004333 -0.006428 0.036571 0.004737 -0.005186
# 5 -0.003771 -0.003407 -0.002571 0.004737 0.023675 -0.002888
# 6 0.001082 0.003824 0.001811 -0.005186 -0.002888 0.030351
#
#
# Mechanical properties :
#
#
# Convention : Reuss Voigt Hill
#
# Bulk Modulus (GPa) = 35.53136 46.90283 41.21709
# Shear Modulus (GPa) = 32.32674 36.82435 34.57554
#
# Velocity S-wave (km/s) = 3.70004 3.94905 3.82657
# Velocity P-wave (km/s) = 5.77072 6.37625 6.08103
#
# Compressibility (1/GPa) = 0.02814415
#
# Stress axis : x y z
#
# Youngs Moduli (GPa) = 65.01176 68.95301 86.70189
#
# Poissons Ratio (x) = 0.27765 0.15019
# Poissons Ratio (y) = 0.26178 0.07613
# Poissons Ratio (z) = 0.11262 0.06055
#
# Static dielectric constant tensor:
#      x y z
#    x 4.454730 -0.050650 0.041650 
#    y -0.050650 4.402120 -0.017460 
#    z 0.041650 -0.017460 4.447180 
# 
# 
# High freq. dielectric constant tensor:
#      x y z
#    x 1.940080 0.000840 0.004590 
#    y 0.000840 1.935580 0.002330 
#    z 0.004590 0.002330 1.952390 
# 
# From -- ./inp_files/563003.got.cif
#   From: 2010.06.25/outbox.cif.g09.slc.cpg/sg2_282_cif.got.tgz:563003.got - 2010.06.27 13:26:56.
