data_PCOD8034308
_publ_section_title
;
Structure prediction by ZEFSAII (Michael W. Deem and Ramdas Pophale) SiO2 
 PCOD8034308
Probable space group: P -1
;
_chemical_formula_sum "Si O2"
_cell_formula_units_Z 14
_cell_length_a 6.999978
_cell_length_b 13.067195
_cell_length_c 13.166373
_cell_angle_alpha 60.578988
_cell_angle_beta 81.226240
_cell_angle_gamma 39.612855
_cell_volume 611.020520
_symmetry_space_group_name_H-M "P -1"
_symmetry_group_IT_number 2
_symmetry_cell_setting 'triclinic'
loop_
_space_group_symop_operation_xyz
x,y,z
-x,-y,-z
loop_
_atom_site_type_symbol
_atom_site_label
_atom_site_fract_x
_atom_site_fract_y
_atom_site_fract_z
Si Si1 0.426839 0.512248 0.183246
Si Si2 0.705859 0.452215 0.599382
Si Si3 0.277912 0.881386 0.449232
Si Si4 0.678979 0.615759 0.029028
Si Si5 0.552128 0.971628 0.303456
Si Si6 0.296569 0.847511 0.758641
Si Si7 0.736596 0.828652 0.985668
O O1 0.353165 0.583962 0.270530
O O2 0.695986 0.477361 0.142571
O O3 0.568978 0.310648 0.259676
O O4 0.110731 0.674651 0.057149
O O5 0.500000 0.500000 0.500000
O O6 0.591569 0.641854 0.539880
O O7 0.088555 0.254618 0.641735
O O8 0.395622 0.958441 0.403156
O O9 0.000000 0.000000 0.500000
O O10 0.093913 0.948935 0.323379
O O11 0.367446 0.767983 0.904632
O O12 0.646099 0.734957 0.055726
O O13 0.000000 0.500000 0.000000
O O14 0.549532 0.098774 0.298028
O O15 0.335224 0.090120 0.161440
O O16 0.500000 0.000000 0.000000
#
# Coordination Sequence:
#
# PCOD8034308 Si02
#       7
#     2   2   2   2   2   2   2
#     4  12  25  46  71 103 144 178 232 291 343 416
#     4  12  26  50  68 103 141 189 234 287 344 408
#     4  12  26  46  70 102 137 190 235 282 344 408
#     4  11  25  42  70 108 138 177 224 287 355 410
#     4  11  26  47  73 102 141 179 237 290 342 414
#     4  11  24  44  72 104 138 180 232 288 347 408
#     4  11  24  44  71 105 136 183 227 281 359 408
#
# _framework density 22.912485
#
# number of rings (size 3 to 8) (size 9 to 14) (size 15 to 20)
#    0.000    0.571    5.714    1.714    4.000    2.286 
#    5.143    0.000    0.000    0.000    0.000    0.000 
#    0.000    0.000    0.000    0.000    0.000    0.000 
#
# Total GULP energy -173486.957771 kJ/mol
# GULP energy per Si atom -12391.925555 kJ/mol
# Density = 2.286034 g / cm^3
# Si number density = 22.912485 Si / 1000 Ang^3
#
#
#
# Elastic Constant Matrix: (Units=GPa)
#
#
# Indices 1 2 3 4 5 6 
#
# 1 153.8168 67.6541 64.4200 6.6675 -30.9377 6.7792
# 2 67.6541 123.8434 38.9078 -6.1144 -20.6711 11.7058
# 3 64.4200 38.9078 110.6969 -10.5222 1.5367 -5.2708
# 4 6.6675 -6.1144 -10.5222 35.6514 1.6768 1.3581
# 5 -30.9377 -20.6711 1.5367 1.6768 49.7636 -3.8395
# 6 6.7792 11.7058 -5.2708 1.3581 -3.8395 38.7517
#
#
#
# Elastic Compliance Matrix: (Units=1/GPa)
#
#
# Indices 1 2 3 4 5 6 
#
# 1 0.012524 -0.003848 -0.006573 -0.005205 0.006481 -0.001098
# 2 -0.003848 0.011463 -0.001749 0.002179 0.002126 -0.002893
# 3 -0.006573 -0.001749 0.014183 0.005249 -0.005204 0.002908
# 4 -0.005205 0.002179 0.005249 0.031133 -0.003579 -0.000479
# 5 0.006481 0.002126 -0.005204 -0.003579 0.025300 0.000148
# 6 -0.001098 -0.002893 0.002908 -0.000479 0.000148 0.027298
#
#
# Mechanical properties :
#
#
# Convention : Reuss Voigt Hill
#
# Bulk Modulus (GPa) = 72.31249 81.14677 76.72963
# Shear Modulus (GPa) = 33.14496 39.32501 36.23499
#
# Velocity S-wave (km/s) = 3.80753 4.14734 3.98106
# Velocity P-wave (km/s) = 7.13853 7.64374 7.39545
#
# Compressibility (1/GPa) = 0.01382887
#
# Stress axis : x y z
#
# Youngs Moduli (GPa) = 79.84478 87.24060 70.50506
#
# Poissons Ratio (x) = 0.33572 0.46343
# Poissons Ratio (y) = 0.30726 0.12335
# Poissons Ratio (z) = 0.52482 0.15263
#
# Static dielectric constant tensor:
#      x y z
#    x 4.078910 0.266540 0.208980 
#    y 0.266540 4.235850 -0.336440 
#    z 0.208980 -0.336440 4.189340 
# 
# 
# High freq. dielectric constant tensor:
#      x y z
#    x 1.906480 0.013500 0.008280 
#    y 0.013500 1.898750 -0.017610 
#    z 0.008280 -0.017610 1.920880 
# 
# From -- ./inp_files/482724.got.cif
#   From: 2010.06.25/outbox.cif.g09.slc.cpg/sg2_242_cif.got.tgz:482724.got - 2010.06.27 13:26:56.
