data_PCOD8034891
_publ_section_title
;
Structure prediction by ZEFSAII (Michael W. Deem and Ramdas Pophale) SiO2 
 PCOD8034891
Probable space group: P -1
;
_chemical_formula_sum "Si O2"
_cell_formula_units_Z 16
_cell_length_a 14.298244
_cell_length_b 8.304616
_cell_length_c 8.359231
_cell_angle_alpha 96.892637
_cell_angle_beta 44.831168
_cell_angle_gamma 90.878827
_cell_volume 691.275852
_symmetry_space_group_name_H-M "P -1"
_symmetry_group_IT_number 2
_symmetry_cell_setting 'triclinic'
loop_
_space_group_symop_operation_xyz
x,y,z
-x,-y,-z
loop_
_atom_site_type_symbol
_atom_site_label
_atom_site_fract_x
_atom_site_fract_y
_atom_site_fract_z
Si Si1 0.653445 0.348472 0.449473
Si Si2 0.755368 0.839095 0.012992
Si Si3 0.743654 0.230494 0.651004
Si Si4 0.076130 0.630825 0.027113
Si Si5 0.011552 0.013238 0.800124
Si Si6 0.853702 0.506431 0.736486
Si Si7 0.408107 0.284412 0.529957
Si Si8 0.436649 0.926516 0.918583
O O1 0.641071 0.276755 0.634969
O O2 0.544126 0.270173 0.467031
O O3 0.628636 0.541494 0.484784
O O4 0.807224 0.297216 0.208750
O O5 0.782359 0.688803 0.839992
O O6 0.882012 0.942147 0.874459
O O7 0.627557 0.945347 0.114852
O O8 0.716570 0.773018 0.227256
O O9 0.791478 0.400861 0.665178
O O10 0.673860 0.181612 0.892494
O O11 0.859280 0.089674 0.444132
O O12 0.981937 0.792348 0.219098
O O13 0.149590 0.548863 0.081945
O O14 0.000000 0.500000 0.000000
O O15 0.000000 0.000000 0.000000
O O16 0.000000 0.500000 0.500000
O O17 0.437097 0.169318 0.330565
O O18 0.500000 0.000000 0.000000
#
# Coordination Sequence:
#
# PCOD8034891 Si02
#       8
#     2   2   2   2   2   2   2   2
#     4  11  24  46  74 105 137 194 245 293 352 429
#     4  12  26  49  75 105 144 194 238 297 358 439
#     4  12  27  46  72 110 148 182 236 304 366 428
#     4  12  25  46  74 106 143 192 241 292 354 441
#     4  12  26  44  76 108 143 186 235 292 369 430
#     4  12  25  45  70 110 145 182 237 295 372 418
#     4  11  26  48  75  99 141 197 251 289 349 430
#     4  12  30  46  69 107 145 192 239 301 365 412
#
# _framework density 23.145606000000001
#
# number of rings (size 3 to 8) (size 9 to 14) (size 15 to 20)
#    0.000    0.250    3.750    4.875    7.000    1.500 
#    0.000    0.000    0.000    0.000    0.000    0.000 
#    0.000    0.000    0.000    0.000    0.000    0.000 
#
# Total GULP energy -198359.389951 kJ/mol
# GULP energy per Si atom -12397.461872 kJ/mol
# Density = 2.309293 g / cm^3
# Si number density = 23.145606 Si / 1000 Ang^3
#
#
#
# Elastic Constant Matrix: (Units=GPa)
#
#
# Indices 1 2 3 4 5 6 
#
# 1 83.1072 28.0151 0.0688 19.1668 4.0006 -0.2829
# 2 28.0151 120.0675 33.8595 26.1953 3.3083 7.5909
# 3 0.0688 33.8595 117.2219 17.6000 4.6835 2.2856
# 4 19.1668 26.1953 17.6000 39.4842 7.9428 4.3720
# 5 4.0006 3.3083 4.6835 7.9428 32.8361 -1.6369
# 6 -0.2829 7.5909 2.2856 4.3720 -1.6369 38.9585
#
#
#
# Elastic Compliance Matrix: (Units=1/GPa)
#
#
# Indices 1 2 3 4 5 6 
#
# 1 0.014301 -0.002538 0.001621 -0.006073 -0.000190 0.001177
# 2 -0.002538 0.010705 -0.002370 -0.004791 0.000658 -0.001400
# 3 0.001621 -0.002370 0.009753 -0.003493 -0.000491 0.000273
# 4 -0.006073 -0.004791 -0.003493 0.034727 -0.006833 -0.003090
# 5 -0.000190 0.000658 -0.000491 -0.006833 0.032235 0.002020
# 6 0.001177 -0.001400 0.000273 -0.003090 0.002020 0.026365
#
#
# Mechanical properties :
#
#
# Convention : Reuss Voigt Hill
#
# Bulk Modulus (GPa) = 35.48086 49.36481 42.42283
# Shear Modulus (GPa) = 34.70895 39.48598 37.09747
#
# Velocity S-wave (km/s) = 3.87666 4.13483 4.00782
# Velocity P-wave (km/s) = 5.94984 6.64605 6.30756
#
# Compressibility (1/GPa) = 0.02818421
#
# Stress axis : x y z
#
# Youngs Moduli (GPa) = 69.92706 93.41528 102.52897
#
# Poissons Ratio (x) = 0.23710 -0.16622
# Poissons Ratio (y) = 0.17749 0.24303
# Poissons Ratio (z) = -0.11336 0.22142
#
# Static dielectric constant tensor:
#      x y z
#    x 3.826720 0.043550 -0.277620 
#    y 0.043550 3.604840 1.444880 
#    z -0.277620 1.444880 2.168740 
# 
# 
# High freq. dielectric constant tensor:
#      x y z
#    x 1.918060 -0.000580 0.002700 
#    y -0.000580 1.931160 0.007250 
#    z 0.002700 0.007250 1.922560 
# 
# From -- ./inp_files/298647.got.cif
#   From: 2010.06.25/outbox.cif.g09.slc.cpg/sg2_150_cif.got.tgz:298647.got - 2010.06.27 13:26:56.
