data_PCOD8034281
_publ_section_title
;
Structure prediction by ZEFSAII (Michael W. Deem and Ramdas Pophale) SiO2 
 PCOD8034281
Probable space group: P -1
;
_chemical_formula_sum "Si O2"
_cell_formula_units_Z 16
_cell_length_a 21.706747
_cell_length_b 12.524503
_cell_length_c 9.239358
_cell_angle_alpha 151.400554
_cell_angle_beta 138.106974
_cell_angle_gamma 34.328258
_cell_volume 676.326756
_symmetry_space_group_name_H-M "P -1"
_symmetry_group_IT_number 2
_symmetry_cell_setting 'triclinic'
loop_
_space_group_symop_operation_xyz
x,y,z
-x,-y,-z
loop_
_atom_site_type_symbol
_atom_site_label
_atom_site_fract_x
_atom_site_fract_y
_atom_site_fract_z
Si Si1 0.052602 0.252268 0.686366
Si Si2 0.388457 0.397448 0.473107
Si Si3 0.397790 0.470155 0.259098
Si Si4 0.613783 0.971049 0.425996
Si Si5 0.787228 0.985336 0.554179
Si Si6 0.128565 0.823262 0.833700
Si Si7 0.188059 0.963531 0.823485
Si Si8 0.296770 0.253644 0.390015
O O1 0.118882 0.986939 0.587336
O O2 0.967426 0.232045 0.412041
O O3 0.139911 0.241000 0.708662
O O4 0.000000 0.500000 0.000000
O O5 0.368756 0.375689 0.244081
O O6 0.518181 0.274283 0.580142
O O7 0.361691 0.217957 0.312592
O O8 0.310817 0.705672 0.742864
O O9 0.500000 0.500000 0.500000
O O10 0.296402 0.745756 0.355301
O O11 0.424905 0.231499 0.915436
O O12 0.724292 0.894998 0.442436
O O13 0.630119 0.960690 0.614783
O O14 0.872791 0.023449 0.843076
O O15 0.246071 0.546780 0.712991
O O16 0.118479 0.991344 0.875013
O O17 0.198094 0.217564 0.132879
#
# Coordination Sequence:
#
# PCOD8034281 Si02
#       8
#     2   2   2   2   2   2   2   2
#     4  12  26  47  77 104 140 188 247 307 364 424
#     4  11  26  41  73 106 147 189 235 289 352 425
#     4  12  26  45  70 104 147 188 239 292 356 433
#     4  12  26  46  72 106 147 194 234 288 360 435
#     4  12  26  47  74 104 149 189 239 300 365 430
#     4  11  24  49  70 104 142 193 242 300 364 421
#     4  11  24  45  72 104 146 186 241 301 353 427
#     4  11  24  44  70 106 148 186 242 289 350 432
#
# _framework density 23.657202999999999
#
# number of rings (size 3 to 8) (size 9 to 14) (size 15 to 20)
#    0.000    0.500    6.250    1.500    3.500    0.500 
#    2.250    1.250    0.000    0.000    0.000    0.000 
#    0.000    0.000    0.000    0.000    0.000    0.000 
#
# Total GULP energy -198291.948659 kJ/mol
# GULP energy per Si atom -12393.246791 kJ/mol
# Density = 2.360336 g / cm^3
# Si number density = 23.657203 Si / 1000 Ang^3
#
#
#
# Elastic Constant Matrix: (Units=GPa)
#
#
# Indices 1 2 3 4 5 6 
#
# 1 131.4141 45.3640 25.6917 -1.8587 -3.7428 4.6056
# 2 45.3640 120.5556 37.2745 -18.8176 -4.2458 9.3132
# 3 25.6917 37.2745 81.8450 -7.5497 2.0774 -16.8899
# 4 -1.8587 -18.8176 -7.5497 32.9565 -4.1114 -2.9620
# 5 -3.7428 -4.2458 2.0774 -4.1114 30.7217 0.1504
# 6 4.6056 9.3132 -16.8899 -2.9620 0.1504 37.2598
#
#
#
# Elastic Compliance Matrix: (Units=1/GPa)
#
#
# Indices 1 2 3 4 5 6 
#
# 1 0.009047 -0.002924 -0.001969 -0.001661 0.000616 -0.001415
# 2 -0.002924 0.012317 -0.005198 0.005567 0.002465 -0.004641
# 3 -0.001969 -0.005198 0.017362 0.001509 -0.001977 0.009541
# 4 -0.001661 0.005567 0.001509 0.034609 0.005086 0.002228
# 5 0.000616 0.002465 -0.001977 0.005086 0.033787 -0.001321
# 6 -0.001415 -0.004641 0.009541 0.002228 -0.001321 0.032681
#
#
# Mechanical properties :
#
#
# Convention : Reuss Voigt Hill
#
# Bulk Modulus (GPa) = 53.92707 61.16391 57.54549
# Shear Modulus (GPa) = 30.09025 35.21990 32.65508
#
# Velocity S-wave (km/s) = 3.57028 3.86263 3.71933
# Velocity P-wave (km/s) = 6.31194 6.76784 6.54386
#
# Compressibility (1/GPa) = 0.01854356
#
# Stress axis : x y z
#
# Youngs Moduli (GPa) = 110.52820 81.18993 57.59660
#
# Poissons Ratio (x) = 0.23739 0.11342
# Poissons Ratio (y) = 0.32317 0.29941
# Poissons Ratio (z) = 0.21765 0.42205
#
# Static dielectric constant tensor:
#      x y z
#    x 4.336560 0.093610 -0.107220 
#    y 0.093610 4.437340 -0.129610 
#    z -0.107220 -0.129610 3.935050 
# 
# 
# High freq. dielectric constant tensor:
#      x y z
#    x 1.942020 0.009010 -0.008140 
#    y 0.009010 1.953140 -0.011100 
#    z -0.008140 -0.011100 1.914010 
# 
# From -- ./inp_files/346543.got.cif
#   From: 2010.06.25/outbox.cif.g09.slc.cpg/sg2_174_cif.got.tgz:346543.got - 2010.06.27 13:26:56.
