data_PCOD8034853
_publ_section_title
;
Structure prediction by ZEFSAII (Michael W. Deem and Ramdas Pophale) SiO2 
 PCOD8034853
Probable space group: P -1
;
_chemical_formula_sum "Si O2"
_cell_formula_units_Z 12
_cell_length_a 14.032362
_cell_length_b 9.852299
_cell_length_c 16.917829
_cell_angle_alpha 137.296577
_cell_angle_beta 155.252245
_cell_angle_gamma 35.623723
_cell_volume 570.246346
_symmetry_space_group_name_H-M "P -1"
_symmetry_group_IT_number 2
_symmetry_cell_setting 'triclinic'
loop_
_space_group_symop_operation_xyz
x,y,z
-x,-y,-z
loop_
_atom_site_type_symbol
_atom_site_label
_atom_site_fract_x
_atom_site_fract_y
_atom_site_fract_z
Si Si1 0.582275 0.169965 0.952275
Si Si2 0.273036 0.054458 0.791154
Si Si3 0.276008 0.511224 0.392235
Si Si4 0.720500 0.518093 0.286969
Si Si5 0.032107 0.330323 0.021316
Si Si6 0.556582 0.467267 0.307981
O O1 0.343484 0.158834 0.812221
O O2 0.468737 0.274764 0.825661
O O3 0.706950 0.296681 0.150137
O O4 0.841879 0.921738 0.029186
O O5 0.989259 0.233366 0.692293
O O6 0.280070 0.813616 0.675336
O O7 0.500000 0.000000 0.000000
O O8 0.500000 0.500000 0.500000
O O9 0.390223 0.422217 0.527430
O O10 0.213256 0.326161 0.227565
O O11 0.628183 0.561121 0.325789
O O12 0.000000 0.500000 0.500000
O O13 0.751492 0.425316 0.889948
O O14 0.000000 0.500000 0.000000
#
# Coordination Sequence:
#
# PCOD8034853 Si02
#       6
#     2   2   2   2   2   2
#     4  11  24  46  72  97 139 184 229 284 345 415
#     4  12  21  43  73 100 134 185 231 287 346 400
#     4  12  24  38  65 105 140 172 225 287 348 402
#     4  11  26  46  68  98 137 187 235 278 339 417
#     4  12  23  44  69 105 141 175 227 293 353 399
#     4  12  25  42  71 101 138 181 232 286 342 413
#
# _framework density 21.043537000000001
#
# number of rings (size 3 to 8) (size 9 to 14) (size 15 to 20)
#    0.000    0.333    6.667    1.500    0.000    4.667 
#    0.000    1.667    0.000    0.000    0.000    0.000 
#    0.000    0.000    0.000    0.000    0.000    0.000 
#
# Total GULP energy -148752.038809 kJ/mol
# GULP energy per Si atom -12396.003234 kJ/mol
# Density = 2.099564 g / cm^3
# Si number density = 21.043537 Si / 1000 Ang^3
#
#
#
# Elastic Constant Matrix: (Units=GPa)
#
#
# Indices 1 2 3 4 5 6 
#
# 1 195.1208 49.5696 70.7455 -5.1905 1.8540 4.9314
# 2 49.5696 94.0418 13.6105 -9.0009 11.5558 -6.9150
# 3 70.7455 13.6105 126.5477 2.2836 -2.6144 -3.1592
# 4 -5.1905 -9.0009 2.2836 28.2081 -11.1326 3.6718
# 5 1.8540 11.5558 -2.6144 -11.1326 55.1470 -9.3125
# 6 4.9314 -6.9150 -3.1592 3.6718 -9.3125 35.6802
#
#
#
# Elastic Compliance Matrix: (Units=1/GPa)
#
#
# Indices 1 2 3 4 5 6 
#
# 1 0.007490 -0.003469 -0.003881 0.000907 0.000117 -0.002114
# 2 -0.003469 0.013006 0.000519 0.002500 -0.001683 0.002350
# 3 -0.003881 0.000519 0.010097 -0.001394 0.000525 0.001811
# 4 0.000907 0.002500 -0.001394 0.039562 0.007028 -0.002001
# 5 0.000117 -0.001683 0.000525 0.007028 0.020664 0.004374
# 6 -0.002114 0.002350 0.001811 -0.002001 0.004374 0.030282
#
#
# Mechanical properties :
#
#
# Convention : Reuss Voigt Hill
#
# Bulk Modulus (GPa) = 59.06127 75.95130 67.50628
# Shear Modulus (GPa) = 35.61079 42.59270 39.10175
#
# Velocity S-wave (km/s) = 4.11815 4.50380 4.31529
# Velocity P-wave (km/s) = 7.12316 7.95088 7.54837
#
# Compressibility (1/GPa) = 0.01693157
#
# Stress axis : x y z
#
# Youngs Moduli (GPa) = 133.51344 76.88837 99.03929
#
# Poissons Ratio (x) = 0.26675 0.38435
# Poissons Ratio (y) = 0.46320 -0.05145
# Poissons Ratio (z) = 0.51813 -0.03994
#
# Static dielectric constant tensor:
#      x y z
#    x 4.071580 -0.128790 0.042290 
#    y -0.128790 3.763320 0.247180 
#    z 0.042290 0.247180 4.079450 
# 
# 
# High freq. dielectric constant tensor:
#      x y z
#    x 1.841050 -0.011660 -0.006980 
#    y -0.011660 1.807040 -0.000260 
#    z -0.006980 -0.000260 1.848010 
# 
# From -- ./inp_files/251553.got.cif
#   From: 2010.06.25/outbox.cif.g09.slc.cpg/sg2_126_cif.got.tgz:251553.got - 2010.06.27 13:26:56.
