data_PCOD8034469
_publ_section_title
;
Structure prediction by ZEFSAII (Michael W. Deem and Ramdas Pophale) SiO2 
 PCOD8034469
Probable space group: P -1
;
_chemical_formula_sum "Si O2"
_cell_formula_units_Z 16
_cell_length_a 16.751775
_cell_length_b 15.597781
_cell_length_c 15.829914
_cell_angle_alpha 161.546991
_cell_angle_beta 35.872657
_cell_angle_gamma 145.582178
_cell_volume 731.014514
_symmetry_space_group_name_H-M "P -1"
_symmetry_group_IT_number 2
_symmetry_cell_setting 'triclinic'
loop_
_space_group_symop_operation_xyz
x,y,z
-x,-y,-z
loop_
_atom_site_type_symbol
_atom_site_label
_atom_site_fract_x
_atom_site_fract_y
_atom_site_fract_z
Si Si1 0.587499 0.159791 0.995442
Si Si2 0.283028 0.758891 0.636661
Si Si3 0.726949 0.603087 0.021928
Si Si4 0.454057 0.330346 0.109315
Si Si5 0.775057 0.778045 0.457986
Si Si6 0.028616 0.620546 0.847416
Si Si7 0.051492 0.048965 0.367482
Si Si8 0.332248 0.870092 0.510448
O O1 0.479476 0.216107 0.072153
O O2 0.697383 0.448240 0.203870
O O3 0.500000 0.000000 0.000000
O O4 0.672727 0.965784 0.696499
O O5 0.348673 0.518501 0.389582
O O6 0.127260 0.704167 0.758817
O O7 0.261353 0.733907 0.531468
O O8 0.386204 0.070362 0.861721
O O9 0.700402 0.370633 0.755814
O O10 0.872403 0.639667 0.980663
O O11 0.601175 0.528040 0.128451
O O12 0.739058 0.897505 0.241554
O O13 0.816786 0.830307 0.569268
O O14 0.913440 0.856103 0.354051
O O15 0.013474 0.302996 0.591316
O O16 0.098946 0.847524 0.072251
O O17 0.500000 0.000000 0.500000
#
# Coordination Sequence:
#
# PCOD8034469 Si02
#       8
#     2   2   2   2   2   2   2   2
#     4  12  27  42  68 103 145 176 232 290 341 401
#     4  12  27  43  70 101 140 180 225 284 350 413
#     4  12  24  43  75  99 136 180 231 285 333 414
#     4  12  24  44  69  99 135 186 230 277 344 415
#     4  11  24  45  68 100 128 190 230 288 341 408
#     4  12  27  44  68 106 136 181 227 294 342 407
#     4  11  24  45  73  91 141 179 236 279 346 416
#     4  12  23  45  71 105 135 179 229 279 346 413
#
# _framework density 21.88739
#
# number of rings (size 3 to 8) (size 9 to 14) (size 15 to 20)
#    0.000    0.250    2.500    6.750    5.250    3.000 
#    0.000    0.000    0.000    0.000    0.000    0.000 
#    0.000    0.000    0.000    0.000    0.000    0.000 
#
# Total GULP energy -198564.120312 kJ/mol
# GULP energy per Si atom -12410.257519 kJ/mol
# Density = 2.183757 g / cm^3
# Si number density = 21.887390 Si / 1000 Ang^3
#
#
#
# Elastic Constant Matrix: (Units=GPa)
#
#
# Indices 1 2 3 4 5 6 
#
# 1 63.5209 29.5583 -1.4483 -0.2410 -5.4587 -15.9503
# 2 29.5583 68.0869 25.7265 6.6389 -0.9026 -15.3679
# 3 -1.4483 25.7265 95.3936 -4.4218 -13.0241 -13.4887
# 4 -0.2410 6.6389 -4.4218 29.9672 -11.0032 -1.1598
# 5 -5.4587 -0.9026 -13.0241 -11.0032 33.4014 -2.8359
# 6 -15.9503 -15.3679 -13.4887 -1.1598 -2.8359 28.9826
#
#
#
# Elastic Compliance Matrix: (Units=1/GPa)
#
#
# Indices 1 2 3 4 5 6 
#
# 1 0.025257 -0.011454 0.006996 0.008012 0.010239 0.012405
# 2 -0.011454 0.023734 -0.007729 -0.009027 -0.007080 0.001630
# 3 0.006996 -0.007729 0.015675 0.008254 0.010479 0.008403
# 4 0.008012 -0.009027 0.008254 0.044051 0.019401 0.007126
# 5 0.010239 -0.007080 0.010479 0.019401 0.042894 0.011731
# 6 0.012405 0.001630 0.008403 0.007126 0.011731 0.047539
#
#
# Mechanical properties :
#
#
# Convention : Reuss Voigt Hill
#
# Bulk Modulus (GPa) = 24.81860 37.18606 31.00233
# Shear Modulus (GPa) = 21.10097 30.01458 25.55777
#
# Velocity S-wave (km/s) = 3.10832 3.70715 3.42086
# Velocity P-wave (km/s) = 4.92402 5.94563 5.45878
#
# Compressibility (1/GPa) = 0.04029235
#
# Stress axis : x y z
#
# Youngs Moduli (GPa) = 39.59231 42.13313 63.79576
#
# Poissons Ratio (x) = 0.48258 -0.44630
# Poissons Ratio (y) = 0.45348 0.49309
# Poissons Ratio (z) = -0.27698 0.32566
#
# Static dielectric constant tensor:
#      x y z
#    x 4.033860 -0.051100 -0.034340 
#    y -0.051100 4.236510 0.112860 
#    z -0.034340 0.112860 4.181190 
# 
# 
# High freq. dielectric constant tensor:
#      x y z
#    x 1.869280 -0.006510 0.000380 
#    y -0.006510 1.867290 0.001840 
#    z 0.000380 0.001840 1.881670 
# 
# From -- ./inp_files/534224.got.cif
#   From: 2010.06.25/outbox.cif.g09.slc.cpg/sg2_268_cif.got.tgz:534224.got - 2010.06.27 13:26:56.
