data_PCOD8034814
_publ_section_title
;
Structure prediction by ZEFSAII (Michael W. Deem and Ramdas Pophale) SiO2 
 PCOD8034814
Probable space group: P -1
;
_chemical_formula_sum "Si O2"
_cell_formula_units_Z 12
_cell_length_a 5.947743
_cell_length_b 13.511613
_cell_length_c 6.414941
_cell_angle_alpha 81.536301
_cell_angle_beta 76.656565
_cell_angle_gamma 89.336097
_cell_volume 496.013615
_symmetry_space_group_name_H-M "P -1"
_symmetry_group_IT_number 2
_symmetry_cell_setting 'triclinic'
loop_
_space_group_symop_operation_xyz
x,y,z
-x,-y,-z
loop_
_atom_site_type_symbol
_atom_site_label
_atom_site_fract_x
_atom_site_fract_y
_atom_site_fract_z
Si Si1 0.736435 0.974725 0.846551
Si Si2 0.985553 0.622008 0.704438
Si Si3 0.702624 0.317265 0.035461
Si Si4 0.028110 0.156005 0.826571
Si Si5 0.300693 0.200689 0.376758
Si Si6 0.334838 0.539985 0.342074
O O1 0.687740 0.914545 0.662951
O O2 0.883076 0.898374 0.972879
O O3 0.881627 0.076588 0.739284
O O4 0.500000 0.000000 0.000000
O O5 0.910680 0.737727 0.695208
O O6 0.755907 0.552165 0.753590
O O7 0.136662 0.605278 0.886364
O O8 0.129294 0.599595 0.473279
O O9 0.540248 0.257109 0.251269
O O10 0.557032 0.381010 0.875580
O O11 0.862588 0.243875 0.896657
O O12 0.251612 0.197822 0.636512
O O13 0.500000 0.500000 0.500000
#
# Coordination Sequence:
#
# PCOD8034814 Si02
#       6
#     2   2   2   2   2   2
#     4  11  24  46  71 107 144 192 240 300 359 425
#     4  11  25  46  72 107 145 192 240 304 363 428
#     4  12  25  46  76 106 145 193 245 296 367 433
#     4  11  25  46  70 104 149 188 243 298 357 434
#     4  12  25  43  75 107 140 195 243 294 363 431
#     4  11  26  48  74 108 146 190 247 301 364 432
#
# _framework density 24.192881
#
# number of rings (size 3 to 8) (size 9 to 14) (size 15 to 20)
#    0.000    0.667    5.000    2.000    0.000   10.000 
#    0.000    0.000    0.000    0.000    0.000    0.000 
#    0.000    0.000    0.000    0.000    0.000    0.000 
#
# Total GULP energy -148748.287769 kJ/mol
# GULP energy per Si atom -12395.690647 kJ/mol
# Density = 2.413782 g / cm^3
# Si number density = 24.192881 Si / 1000 Ang^3
#
#
#
# Elastic Constant Matrix: (Units=GPa)
#
#
# Indices 1 2 3 4 5 6 
#
# 1 87.8225 38.1386 39.4070 2.6048 -0.0221 15.3949
# 2 38.1386 119.9089 56.1224 15.7707 -3.3858 5.7698
# 3 39.4070 56.1224 117.3614 -10.2901 -12.8888 12.0614
# 4 2.6048 15.7707 -10.2901 36.7366 -3.9515 -8.2133
# 5 -0.0221 -3.3858 -12.8888 -3.9515 50.0156 5.1674
# 6 15.3949 5.7698 12.0614 -8.2133 5.1674 37.8237
#
#
#
# Elastic Compliance Matrix: (Units=1/GPa)
#
#
# Indices 1 2 3 4 5 6 
#
# 1 0.015055 -0.002626 -0.003558 -0.002124 -0.000744 -0.004952
# 2 -0.002626 0.012944 -0.006039 -0.007281 -0.001216 -0.000395
# 3 -0.003558 -0.006039 0.013726 0.006865 0.003776 -0.001033
# 4 -0.002124 -0.007281 0.006865 0.034290 0.003283 0.006783
# 5 -0.000744 -0.001216 0.003776 0.003283 0.021447 -0.002933
# 6 -0.004952 -0.000395 -0.001033 0.006783 -0.002933 0.030717
#
#
# Mechanical properties :
#
#
# Convention : Reuss Voigt Hill
#
# Bulk Modulus (GPa) = 57.88000 65.82544 61.85272
# Shear Modulus (GPa) = 31.56878 37.67684 34.62281
#
# Velocity S-wave (km/s) = 3.61623 3.95061 3.78711
# Velocity P-wave (km/s) = 6.43525 6.93379 6.68917
#
# Compressibility (1/GPa) = 0.01727713
#
# Stress axis : x y z
#
# Youngs Moduli (GPa) = 66.42526 77.25601 72.85405
#
# Poissons Ratio (x) = 0.20291 0.25921
# Poissons Ratio (y) = 0.17446 0.43999
# Poissons Ratio (z) = 0.23634 0.46657
#
# Static dielectric constant tensor:
#      x y z
#    x 4.217950 0.005980 -0.064560 
#    y 0.005980 4.681520 0.097460 
#    z -0.064560 0.097460 4.303830 
# 
# 
# High freq. dielectric constant tensor:
#      x y z
#    x 1.947120 -0.012390 -0.011380 
#    y -0.012390 1.979260 0.011730 
#    z -0.011380 0.011730 1.959800 
# 
# From -- ./inp_files/3193.got.cif
#   From: 2010.06.25/outbox.cif.g09.slc.cpg/sg2_2_cif.got.tgz:3193.got - 2010.06.27 13:26:56.
