data_PCOD8034549
_publ_section_title
;
Structure prediction by ZEFSAII (Michael W. Deem and Ramdas Pophale) SiO2 
 PCOD8034549
Probable space group: P -1
;
_chemical_formula_sum "Si O2"
_cell_formula_units_Z 16
_cell_length_a 6.996462
_cell_length_b 20.376156
_cell_length_c 20.376179
_cell_angle_alpha 159.363842
_cell_angle_beta 63.524024
_cell_angle_gamma 105.008298
_cell_volume 792.738393
_symmetry_space_group_name_H-M "P -1"
_symmetry_group_IT_number 2
_symmetry_cell_setting 'triclinic'
loop_
_space_group_symop_operation_xyz
x,y,z
-x,-y,-z
loop_
_atom_site_type_symbol
_atom_site_label
_atom_site_fract_x
_atom_site_fract_y
_atom_site_fract_z
Si Si1 0.811124 0.415973 0.941901
Si Si2 0.576633 0.798188 0.010300
Si Si3 0.249010 0.542721 0.446265
Si Si4 0.076648 0.413066 0.125176
Si Si5 0.749010 0.304714 0.708261
Si Si6 0.908502 0.168657 0.826807
Si Si7 0.408498 0.264702 0.422853
Si Si8 0.688873 0.753024 0.727097
O O1 0.868668 0.281540 0.739976
O O2 0.832150 0.260018 0.851192
O O3 0.538037 0.623661 0.175059
O O4 0.000000 0.500000 0.000000
O O5 0.324269 0.807984 0.076986
O O6 0.520643 0.014118 0.184566
O O7 0.728666 0.599596 0.753006
O O8 0.749982 0.764479 0.014485
O O9 0.383540 0.676703 0.536761
O O10 0.368660 0.391356 0.349791
O O11 0.961964 0.713096 0.661691
O O12 0.228664 0.518346 0.171755
O O13 0.824293 0.598728 0.367734
O O14 0.020649 0.294802 0.965247
O O15 0.883527 0.079687 0.439752
O O16 0.332177 0.316657 0.407825
O O17 0.500000 0.000000 0.000000
#
# Coordination Sequence:
#
# PCOD8034549 Si02
#       8
#     2   2   2   2   2   2   2   2
#     4  11  24  45  70  97 135 175 221 271 329 390
#     4  12  25  42  67  99 130 175 222 271 329 393
#     4  11  25  44  68  99 134 171 220 276 323 394
#     4  12  25  42  67  99 130 175 222 271 329 393
#     4  11  25  44  68  99 134 171 220 276 323 394
#     4  12  25  43  70  97 133 174 221 271 334 390
#     4  12  25  43  70  97 133 174 221 271 334 390
#     4  11  24  45  70  97 135 175 221 271 329 390
#
# _framework density 20.183201
#
# number of rings (size 3 to 8) (size 9 to 14) (size 15 to 20)
#    0.000    0.500    7.500    0.750    0.000    6.000 
#    0.000    0.000    0.000    0.000    0.000    0.000 
#    0.000    0.000    0.000    0.000    0.000    0.000 
#
# Total GULP energy -198524.602413 kJ/mol
# GULP energy per Si atom -12407.787651 kJ/mol
# Density = 2.013726 g / cm^3
# Si number density = 20.183201 Si / 1000 Ang^3
#
#
#
# Elastic Constant Matrix: (Units=GPa)
#
#
# Indices 1 2 3 4 5 6 
#
# 1 100.0780 30.3846 42.0345 1.5412 1.9003 5.6786
# 2 30.3846 101.6763 28.9015 1.8898 3.1147 -3.7021
# 3 42.0345 28.9015 110.4493 -2.3146 -0.0799 8.6364
# 4 1.5412 1.8898 -2.3146 33.3009 -0.6142 -1.5166
# 5 1.9003 3.1147 -0.0799 -0.6142 28.9439 -2.1707
# 6 5.6786 -3.7021 8.6364 -1.5166 -2.1707 41.8398
#
#
#
# Elastic Compliance Matrix: (Units=1/GPa)
#
#
# Indices 1 2 3 4 5 6 
#
# 1 0.012568 -0.002620 -0.004023 -0.000778 -0.000659 -0.001170
# 2 -0.002620 0.011322 -0.002113 -0.000607 -0.000936 0.001723
# 3 -0.004023 -0.002113 0.011309 0.001012 0.000400 -0.001918
# 4 -0.000778 -0.000607 0.001012 0.030230 0.000834 0.000982
# 5 -0.000659 -0.000936 0.000400 0.000834 0.034844 0.001762
# 6 -0.001170 0.001723 -0.001918 0.000982 0.001762 0.024735
#
#
# Mechanical properties :
#
#
# Convention : Reuss Voigt Hill
#
# Bulk Modulus (GPa) = 56.54160 57.20495 56.87328
# Shear Modulus (GPa) = 33.68877 34.87577 34.28227
#
# Velocity S-wave (km/s) = 4.08995 4.16138 4.12582
# Velocity P-wave (km/s) = 7.09779 7.17592 7.13696
#
# Compressibility (1/GPa) = 0.01768609
#
# Stress axis : x y z
#
# Youngs Moduli (GPa) = 79.56536 88.32659 88.42168
#
# Poissons Ratio (x) = 0.23144 0.35571
# Poissons Ratio (y) = 0.20849 0.18687
# Poissons Ratio (z) = 0.32008 0.18667
#
# Static dielectric constant tensor:
#      x y z
#    x 3.643890 -0.062500 -0.059140 
#    y -0.062500 3.936180 -0.099430 
#    z -0.059140 -0.099430 3.600060 
# 
# 
# High freq. dielectric constant tensor:
#      x y z
#    x 1.794640 -0.001790 -0.004770 
#    y -0.001790 1.808180 -0.006200 
#    z -0.004770 -0.006200 1.792120 
# 
# From -- ./inp_files/120379.got.cif
#   From: 2010.06.25/outbox.cif.g09.slc.cpg/sg2_61_cif.got.tgz:120379.got - 2010.06.27 13:26:56.
