data_PCOD8034557
_publ_section_title
;
Structure prediction by ZEFSAII (Michael W. Deem and Ramdas Pophale) SiO2 
 PCOD8034557
Probable space group: P -1
;
_chemical_formula_sum "Si O2"
_cell_formula_units_Z 14
_cell_length_a 17.071213
_cell_length_b 12.164492
_cell_length_c 9.337390
_cell_angle_alpha 49.750107
_cell_angle_beta 110.496925
_cell_angle_gamma 149.834701
_cell_volume 624.206324
_symmetry_space_group_name_H-M "P -1"
_symmetry_group_IT_number 2
_symmetry_cell_setting 'triclinic'
loop_
_space_group_symop_operation_xyz
x,y,z
-x,-y,-z
loop_
_atom_site_type_symbol
_atom_site_label
_atom_site_fract_x
_atom_site_fract_y
_atom_site_fract_z
Si Si1 0.323106 0.311088 0.405744
Si Si2 0.687348 0.263563 0.238383
Si Si3 0.329171 0.643208 0.144790
Si Si4 0.959980 0.700666 0.533593
Si Si5 0.288360 0.538806 0.631924
Si Si6 0.014060 0.572959 0.283721
Si Si7 0.290998 0.226074 0.781170
O O1 0.404105 0.596310 0.223283
O O2 0.235542 0.134347 0.654083
O O3 0.488721 0.462146 0.334863
O O4 0.171401 0.069548 0.386586
O O5 0.691091 0.402658 0.234885
O O6 0.814252 0.326407 0.316839
O O7 0.479279 0.888007 0.388921
O O8 0.763261 0.445797 0.986836
O O9 0.166448 0.398695 0.360507
O O10 0.500000 0.000000 0.000000
O O11 0.889007 0.637162 0.383303
O O12 0.939216 0.498180 0.717807
O O13 0.250331 0.315643 0.755113
O O14 0.000000 0.500000 0.500000
O O15 0.176796 0.936022 0.047033
#
# Coordination Sequence:
#
# PCOD8034557 Si02
#       7
#     2   2   2   2   2   2   2
#     4  11  25  43  72 106 144 180 239 290 350 412
#     4  11  25  44  71 101 142 188 230 289 353 416
#     4  12  23  42  73 106 139 183 236 288 348 417
#     4  12  24  44  71 101 142 183 234 289 346 420
#     4  11  24  45  71 100 143 185 235 282 352 423
#     4  12  27  46  70 103 143 183 235 291 352 414
#     4  11  25  46  71 104 142 186 233 294 349 415
#
# _framework density 22.428481999999999
#
# number of rings (size 3 to 8) (size 9 to 14) (size 15 to 20)
#    0.000    0.571    4.286    3.000    2.000    6.286 
#    0.000    2.143    0.000    0.000    0.000    0.000 
#    0.000    0.000    0.000    0.000    0.000    0.000 
#
# Total GULP energy -173628.980729 kJ/mol
# GULP energy per Si atom -12402.070052 kJ/mol
# Density = 2.237743 g / cm^3
# Si number density = 22.428482 Si / 1000 Ang^3
#
#
#
# Elastic Constant Matrix: (Units=GPa)
#
#
# Indices 1 2 3 4 5 6 
#
# 1 115.5040 28.4811 21.0356 -9.3658 26.7138 3.5539
# 2 28.4811 118.0575 45.7754 -7.0257 7.3310 14.7960
# 3 21.0356 45.7754 108.5072 3.7345 15.0139 -5.8212
# 4 -9.3658 -7.0257 3.7345 40.0102 -1.6086 4.0292
# 5 26.7138 7.3310 15.0139 -1.6086 32.8779 -3.5110
# 6 3.5539 14.7960 -5.8212 4.0292 -3.5110 37.8244
#
#
#
# Elastic Compliance Matrix: (Units=1/GPa)
#
#
# Indices 1 2 3 4 5 6 
#
# 1 0.011408 -0.001720 -0.000434 0.002210 -0.008741 -0.001512
# 2 -0.001720 0.011637 -0.005049 0.002682 0.000664 -0.005392
# 3 -0.000434 -0.005049 0.012259 -0.002673 -0.003842 0.003831
# 4 0.002210 0.002682 -0.002673 0.026674 -0.000353 -0.004542
# 5 -0.008741 0.000664 -0.003842 -0.000353 0.039499 0.003674
# 6 -0.001512 -0.005392 0.003831 -0.004542 0.003674 0.030104
#
#
# Mechanical properties :
#
#
# Convention : Reuss Voigt Hill
#
# Bulk Modulus (GPa) = 47.85045 59.18365 53.51705
# Shear Modulus (GPa) = 32.68937 38.59428 35.64182
#
# Velocity S-wave (km/s) = 3.82186 4.15272 3.99072
# Velocity P-wave (km/s) = 6.39190 7.03125 6.71918
#
# Compressibility (1/GPa) = 0.02089845
#
# Stress axis : x y z
#
# Youngs Moduli (GPa) = 87.65594 85.92995 81.57088
#
# Poissons Ratio (x) = 0.14782 0.03537
# Poissons Ratio (y) = 0.15079 0.41188
# Poissons Ratio (z) = 0.03801 0.43389
#
# Static dielectric constant tensor:
#      x y z
#    x 4.457630 0.258290 -0.034280 
#    y 0.258290 4.341090 0.085930 
#    z -0.034280 0.085930 3.919760 
# 
# 
# High freq. dielectric constant tensor:
#      x y z
#    x 1.899700 0.001060 0.004180 
#    y 0.001060 1.894400 0.004760 
#    z 0.004180 0.004760 1.873040 
# 
# From -- ./inp_files/156820.got.cif
#   From: 2010.06.25/outbox.cif.g09.slc.cpg/sg2_79_cif.got.tgz:156820.got - 2010.06.27 13:26:56.
