data_PCOD8034212
_publ_section_title
;
Structure prediction by ZEFSAII (Michael W. Deem and Ramdas Pophale) SiO2 
 PCOD8034212
Probable space group: P -1
;
_chemical_formula_sum "Si O2"
_cell_formula_units_Z 14
_cell_length_a 16.304114
_cell_length_b 12.476185
_cell_length_c 9.912063
_cell_angle_alpha 51.879802
_cell_angle_beta 43.869540
_cell_angle_gamma 25.121499
_cell_volume 588.893238
_symmetry_space_group_name_H-M "P -1"
_symmetry_group_IT_number 2
_symmetry_cell_setting 'triclinic'
loop_
_space_group_symop_operation_xyz
x,y,z
-x,-y,-z
loop_
_atom_site_type_symbol
_atom_site_label
_atom_site_fract_x
_atom_site_fract_y
_atom_site_fract_z
Si Si1 0.448837 0.430135 0.014380
Si Si2 0.330381 0.325232 0.899986
Si Si3 0.941572 0.858478 0.285600
Si Si4 0.661994 0.387085 0.279732
Si Si5 0.731392 0.662867 0.346186
Si Si6 0.182857 0.200676 0.282610
Si Si7 0.327386 0.982658 0.750678
O O1 0.614771 0.146769 0.076255
O O2 0.202592 0.611226 0.176928
O O3 0.500000 0.500000 0.000000
O O4 0.487383 0.448269 0.804465
O O5 0.225031 0.577831 0.841473
O O6 0.309434 0.286579 0.803813
O O7 0.589419 0.085520 0.820796
O O8 0.209203 0.340075 0.135666
O O9 0.852904 0.815542 0.509539
O O10 0.850402 0.091639 0.265733
O O11 0.869571 0.904052 0.181016
O O12 0.500000 0.500000 0.500000
O O13 0.537499 0.767346 0.567077
O O14 0.970573 0.359682 0.322783
O O15 0.744560 0.796448 0.298041
#
# Coordination Sequence:
#
# PCOD8034212 Si02
#       7
#     2   2   2   2   2   2   2
#     4  12  28  48  75 106 144 193 245 294 367 439
#     4  11  26  45  67 105 152 185 243 295 367 425
#     4  12  25  49  74 107 145 191 245 300 363 427
#     4  12  26  48  75 105 148 191 236 306 363 427
#     4  11  24  44  68 104 144 189 236 298 357 433
#     4  11  24  44  71 101 143 193 235 299 357 425
#     4  11  25  42  72 104 139 185 245 294 355 430
#
# _framework density 23.773408
#
# number of rings (size 3 to 8) (size 9 to 14) (size 15 to 20)
#    0.000    0.571    5.714    0.857    6.000    0.571 
#    2.571    1.429    0.000    0.000    0.000    0.000 
#    0.000    0.000    0.000    0.000    0.000    0.000 
#
# Total GULP energy -173606.768432 kJ/mol
# GULP energy per Si atom -12400.483459 kJ/mol
# Density = 2.371930 g / cm^3
# Si number density = 23.773408 Si / 1000 Ang^3
#
#
#
# Elastic Constant Matrix: (Units=GPa)
#
#
# Indices 1 2 3 4 5 6 
#
# 1 122.8510 37.1960 40.6709 0.9086 1.2695 -2.0431
# 2 37.1960 82.6952 33.3084 -10.2064 0.6736 -18.4983
# 3 40.6709 33.3084 142.1074 -25.2765 8.8534 -5.2087
# 4 0.9086 -10.2064 -25.2765 36.3990 -5.1686 -5.6294
# 5 1.2695 0.6736 8.8534 -5.1686 36.0114 -4.8175
# 6 -2.0431 -18.4983 -5.2087 -5.6294 -4.8175 44.1800
#
#
#
# Elastic Compliance Matrix: (Units=1/GPa)
#
#
# Indices 1 2 3 4 5 6 
#
# 1 0.010396 -0.004594 -0.002627 -0.003795 -0.000486 -0.002289
# 2 -0.004594 0.017161 -0.001613 0.005281 0.002022 0.007676
# 3 -0.002627 -0.001613 0.009359 0.006093 -0.001176 0.000955
# 4 -0.003795 0.005281 0.006093 0.035131 0.004614 0.007734
# 5 -0.000486 0.002022 -0.001176 0.004614 0.029297 0.004468
# 6 -0.002289 0.007676 0.000955 0.007734 0.004468 0.027328
#
#
# Mechanical properties :
#
#
# Convention : Reuss Voigt Hill
#
# Bulk Modulus (GPa) = 51.95508 63.33382 57.64445
# Shear Modulus (GPa) = 32.73183 39.08329 35.90756
#
# Velocity S-wave (km/s) = 3.71458 4.05902 3.89061
# Velocity P-wave (km/s) = 6.34817 6.97610 6.66953
#
# Compressibility (1/GPa) = 0.01924739
#
# Stress axis : x y z
#
# Youngs Moduli (GPa) = 96.19359 58.27110 106.85096
#
# Poissons Ratio (x) = 0.26772 0.28070
# Poissons Ratio (y) = 0.44194 0.17233
# Poissons Ratio (z) = 0.25271 0.09398
#
# Static dielectric constant tensor:
#      x y z
#    x 4.230330 -0.163660 -0.012040 
#    y -0.163660 4.615710 -0.424630 
#    z -0.012040 -0.424630 4.876810 
# 
# 
# High freq. dielectric constant tensor:
#      x y z
#    x 1.935250 -0.009730 -0.005240 
#    y -0.009730 1.948010 -0.009250 
#    z -0.005240 -0.009250 1.952670 
# 
# From -- ./inp_files/306693.got.cif
#   From: 2010.06.25/outbox.cif.g09.slc.cpg/sg2_154_cif.got.tgz:306693.got - 2010.06.27 13:26:56.
