data_PCOD8034059
_publ_section_title
;
Structure prediction by ZEFSAII (Michael W. Deem and Ramdas Pophale) SiO2 
 PCOD8034059
Probable space group: P -1
;
_chemical_formula_sum "Si O2"
_cell_formula_units_Z 10
_cell_length_a 8.566303
_cell_length_b 12.277086
_cell_length_c 8.941674
_cell_angle_alpha 32.082505
_cell_angle_beta 71.151246
_cell_angle_gamma 79.572827
_cell_volume 464.577248
_symmetry_space_group_name_H-M "P -1"
_symmetry_group_IT_number 2
_symmetry_cell_setting 'triclinic'
loop_
_space_group_symop_operation_xyz
x,y,z
-x,-y,-z
loop_
_atom_site_type_symbol
_atom_site_label
_atom_site_fract_x
_atom_site_fract_y
_atom_site_fract_z
Si Si1 0.578935 0.800576 0.728346
Si Si2 0.842283 0.541682 0.407953
Si Si3 0.851912 0.903349 0.767062
Si Si4 0.346945 0.822527 0.308475
Si Si5 0.399801 0.375740 0.368610
O O1 0.693292 0.811435 0.824118
O O2 0.676067 0.768375 0.580928
O O3 0.500000 0.000000 0.500000
O O4 0.426101 0.610584 0.026164
O O5 0.734855 0.325599 0.629613
O O6 0.727252 0.654982 0.418736
O O7 0.000000 0.500000 0.500000
O O8 0.905475 0.709951 0.063556
O O9 0.802689 0.078089 0.689200
O O10 0.000000 0.000000 0.500000
O O11 0.422427 0.683068 0.569065
O O12 0.500000 0.000000 0.000000
#
# Coordination Sequence:
#
# PCOD8034059 Si02
#       5
#     2   2   2   2   2
#     4  11  24  43  71 105 137 181 235 294 353 420
#     4  12  29  46  70 105 148 189 239 294 356 422
#     4  12  28  45  71 107 148 182 233 300 364 415
#     4  12  24  47  77 100 136 191 244 290 344 425
#     4  11  24  44  73 101 136 186 244 287 345 431
#
# _framework density 21.524946
#
# number of rings (size 3 to 8) (size 9 to 14) (size 15 to 20)
#    0.000    0.400    6.000    1.800    5.600    1.600 
#    0.000    0.000    0.000    0.000    0.000    0.000 
#    0.000    0.000    0.000    0.000    0.000    0.000 
#
# Total GULP energy -124025.103594 kJ/mol
# GULP energy per Si atom -12402.510359 kJ/mol
# Density = 2.147595 g / cm^3
# Si number density = 21.524946 Si / 1000 Ang^3
#
#
#
# Elastic Constant Matrix: (Units=GPa)
#
#
# Indices 1 2 3 4 5 6 
#
# 1 103.3190 34.5879 50.3663 -2.3984 27.6750 3.0738
# 2 34.5879 143.7736 53.4245 1.2417 0.8041 -1.1680
# 3 50.3663 53.4245 155.0476 0.4506 13.9787 -8.5059
# 4 -2.3984 1.2417 0.4506 35.0499 -4.5286 -0.6462
# 5 27.6750 0.8041 13.9787 -4.5286 39.1117 9.8662
# 6 3.0738 -1.1680 -8.5059 -0.6462 9.8662 42.0068
#
#
#
# Elastic Compliance Matrix: (Units=1/GPa)
#
#
# Indices 1 2 3 4 5 6 
#
# 1 0.014351 -0.002270 -0.003032 -0.000072 -0.009137 0.000418
# 2 -0.002270 0.008378 -0.002406 -0.000117 0.002448 -0.000665
# 3 -0.003032 -0.002406 0.008517 -0.000378 -0.001451 0.002215
# 4 -0.000072 -0.000117 -0.000378 0.029000 0.003670 -0.000490
# 5 -0.009137 0.002448 -0.001451 0.003670 0.034866 -0.007690
# 6 0.000418 -0.000665 0.002215 -0.000490 -0.007690 0.026004
#
#
# Mechanical properties :
#
#
# Convention : Reuss Voigt Hill
#
# Bulk Modulus (GPa) = 63.18079 75.43308 69.30693
# Shear Modulus (GPa) = 35.25871 40.81777 38.03824
#
# Velocity S-wave (km/s) = 4.05166 4.35938 4.20833
# Velocity P-wave (km/s) = 7.16268 7.77557 7.47541
#
# Compressibility (1/GPa) = 0.01582760
#
# Stress axis : x y z
#
# Youngs Moduli (GPa) = 69.68376 119.36708 117.40971
#
# Poissons Ratio (x) = 0.27101 0.35604
# Poissons Ratio (y) = 0.15821 0.28249
# Poissons Ratio (z) = 0.21131 0.28720
#
# Static dielectric constant tensor:
#      x y z
#    x 3.675350 0.124840 0.189500 
#    y 0.124840 4.340790 -0.059070 
#    z 0.189500 -0.059070 3.924740 
# 
# 
# High freq. dielectric constant tensor:
#      x y z
#    x 1.830550 0.008150 0.020690 
#    y 0.008150 1.867360 -0.002470 
#    z 0.020690 -0.002470 1.857390 
# 
# From -- ./inp_files/15269.got.cif
#   From: 2010.06.25/outbox.cif.g09.slc.cpg/sg2_8_cif.got.tgz:15269.got - 2010.06.27 13:26:56.
