data_PCOD8034566
_publ_section_title
;
Structure prediction by ZEFSAII (Michael W. Deem and Ramdas Pophale) SiO2 
 PCOD8034566
Probable space group: P -1
;
_chemical_formula_sum "Si O2"
_cell_formula_units_Z 14
_cell_length_a 11.948215
_cell_length_b 8.565007
_cell_length_c 8.762567
_cell_angle_alpha 54.068324
_cell_angle_beta 57.304548
_cell_angle_gamma 57.761223
_cell_volume 579.400053
_symmetry_space_group_name_H-M "P -1"
_symmetry_group_IT_number 2
_symmetry_cell_setting 'triclinic'
loop_
_space_group_symop_operation_xyz
x,y,z
-x,-y,-z
loop_
_atom_site_type_symbol
_atom_site_label
_atom_site_fract_x
_atom_site_fract_y
_atom_site_fract_z
Si Si1 0.789165 0.186220 0.622086
Si Si2 0.737128 0.806360 0.344181
Si Si3 0.039920 0.562790 0.767647
Si Si4 0.759258 0.816760 0.679517
Si Si5 0.361448 0.516305 0.001207
Si Si6 0.141987 0.895428 0.051264
Si Si7 0.462120 0.437700 0.402923
O O1 0.876200 0.272114 0.384899
O O2 0.885382 0.081789 0.758103
O O3 0.662358 0.370201 0.682694
O O4 0.728256 0.030420 0.666978
O O5 0.869258 0.631177 0.281122
O O6 0.757834 0.845511 0.483161
O O7 0.591104 0.759692 0.448250
O O8 0.736735 0.006223 0.137324
O O9 0.905444 0.660727 0.710312
O O10 0.000000 0.500000 0.000000
O O11 0.643396 0.713521 0.874613
O O12 0.390443 0.605248 0.767368
O O13 0.500000 0.500000 0.000000
O O14 0.211457 0.657576 0.095439
O O15 0.000000 0.000000 0.000000
O O16 0.500000 0.500000 0.500000
#
# Coordination Sequence:
#
# PCOD8034566 Si02
#       7
#     2   2   2   2   2   2   2
#     4  11  26  47  71 109 143 184 245 302 355 435
#     4  11  25  45  69 104 142 191 240 301 358 429
#     4  11  24  45  71 102 143 189 242 295 367 427
#     4  12  25  42  73 104 145 187 238 300 361 426
#     4  12  25  49  72 103 147 196 240 294 361 427
#     4  12  26  48  77 107 149 188 244 299 361 427
#     4  11  27  48  71  99 146 191 246 296 356 431
#
# _framework density 24.162925000000001
#
# number of rings (size 3 to 8) (size 9 to 14) (size 15 to 20)
#    0.000    0.571    2.857    4.286    8.000    3.429 
#    0.000    0.000    0.000    0.000    0.000    0.000 
#    0.000    0.000    0.000    0.000    0.000    0.000 
#
# Total GULP energy -173555.555879 kJ/mol
# GULP energy per Si atom -12396.825420 kJ/mol
# Density = 2.410793 g / cm^3
# Si number density = 24.162925 Si / 1000 Ang^3
#
#
#
# Elastic Constant Matrix: (Units=GPa)
#
#
# Indices 1 2 3 4 5 6 
#
# 1 108.6519 30.8312 38.1126 -3.9149 -1.5280 21.0362
# 2 30.8312 78.2863 40.1656 0.9714 -11.2065 22.9573
# 3 38.1126 40.1656 157.9887 -0.2780 -19.3163 23.1627
# 4 -3.9149 0.9714 -0.2780 42.6438 10.0883 -5.2255
# 5 -1.5280 -11.2065 -19.3163 10.0883 47.8718 -4.2074
# 6 21.0362 22.9573 23.1627 -5.2255 -4.2074 42.9817
#
#
#
# Elastic Compliance Matrix: (Units=1/GPa)
#
#
# Indices 1 2 3 4 5 6 
#
# 1 0.011229 -0.002876 -0.001711 0.001065 -0.001498 -0.003054
# 2 -0.002876 0.017547 -0.002444 -0.002179 0.002907 -0.006628
# 3 -0.001711 -0.002444 0.007976 -0.000913 0.002607 -0.002011
# 4 0.001065 -0.002179 -0.000913 0.025431 -0.005883 0.003650
# 5 -0.001498 0.002907 0.002607 -0.005883 0.023759 -0.000613
# 6 -0.003054 -0.006628 -0.002011 0.003650 -0.000613 0.029768
#
#
# Mechanical properties :
#
#
# Convention : Reuss Voigt Hill
#
# Bulk Modulus (GPa) = 44.07447 62.57174 53.32310
# Shear Modulus (GPa) = 36.40738 42.42064 39.41401
#
# Velocity S-wave (km/s) = 3.88589 4.19454 4.04316
# Velocity P-wave (km/s) = 6.19788 7.02929 6.62664
#
# Compressibility (1/GPa) = 0.02268887
#
# Stress axis : x y z
#
# Youngs Moduli (GPa) = 89.05701 56.98997 125.38214
#
# Poissons Ratio (x) = 0.16392 0.21454
# Poissons Ratio (y) = 0.25616 0.30642
# Poissons Ratio (z) = 0.15238 0.13928
#
# Static dielectric constant tensor:
#      x y z
#    x 4.431350 0.083180 -0.040370 
#    y 0.083180 4.296390 -0.479030 
#    z -0.040370 -0.479030 4.576200 
# 
# 
# High freq. dielectric constant tensor:
#      x y z
#    x 1.963810 0.010130 -0.005080 
#    y 0.010130 1.958990 -0.003730 
#    z -0.005080 -0.003730 1.976490 
# 
# From -- ./inp_files/223140.got.cif
#   From: 2010.06.25/outbox.cif.g09.slc.cpg/sg2_112_cif.got.tgz:223140.got - 2010.06.27 13:26:56.
