data_PCOD8034105
_publ_section_title
;
Structure prediction by ZEFSAII (Michael W. Deem and Ramdas Pophale) SiO2 
 PCOD8034105
Probable space group: P -1
;
_chemical_formula_sum "Si O2"
_cell_formula_units_Z 14
_cell_length_a 18.816511
_cell_length_b 6.314359
_cell_length_c 16.130303
_cell_angle_alpha 43.875114
_cell_angle_beta 25.825867
_cell_angle_gamma 50.011105
_cell_volume 578.539472
_symmetry_space_group_name_H-M "P -1"
_symmetry_group_IT_number 2
_symmetry_cell_setting 'triclinic'
loop_
_space_group_symop_operation_xyz
x,y,z
-x,-y,-z
loop_
_atom_site_type_symbol
_atom_site_label
_atom_site_fract_x
_atom_site_fract_y
_atom_site_fract_z
Si Si1 0.567267 0.339184 0.316321
Si Si2 0.792689 0.340510 0.925242
Si Si3 0.895931 0.306845 0.531252
Si Si4 0.237614 0.336159 0.848023
Si Si5 0.068677 0.323778 0.867579
Si Si6 0.286796 0.720478 0.423929
Si Si7 0.317951 0.413123 0.192043
O O1 0.609444 0.479913 0.323292
O O2 0.443365 0.545339 0.338537
O O3 0.500000 0.000000 0.500000
O O4 0.726370 0.356495 0.084852
O O5 0.702147 0.565349 0.892602
O O6 0.985271 0.416468 0.701535
O O7 0.765902 0.999297 0.013732
O O8 0.731881 0.288726 0.653214
O O9 0.821682 0.371429 0.682177
O O10 0.000000 0.000000 0.500000
O O11 0.231461 0.297492 0.764389
O O12 0.077804 0.523613 0.976058
O O13 0.122635 0.546158 0.674758
O O14 0.000000 0.000000 0.000000
O O15 0.288593 0.069975 0.353514
O O16 0.500000 0.500000 0.000000
#
# Coordination Sequence:
#
# PCOD8034105 Si02
#       7
#     2   2   2   2   2   2   2
#     4  12  28  47  74 111 153 204 256 315 388 457
#     4  12  26  45  74 105 148 197 253 312 381 462
#     4  12  27  46  76 109 149 198 259 309 382 455
#     4  11  24  43  73 100 145 192 253 307 388 441
#     4  11  24  45  72 106 140 193 252 321 375 456
#     4  12  26  45  72 103 154 190 252 314 382 451
#     4  12  28  46  72 110 151 199 251 313 391 457
#
# _framework density 24.198868000000001
#
# number of rings (size 3 to 8) (size 9 to 14) (size 15 to 20)
#    0.000    0.286    1.429    7.286    6.000    8.000 
#    0.000    0.000    0.000    0.000    0.000    0.000 
#    0.000    0.000    0.000    0.000    0.000    0.000 
#
# Total GULP energy -173522.509556 kJ/mol
# GULP energy per Si atom -12394.464968 kJ/mol
# Density = 2.414379 g / cm^3
# Si number density = 24.198868 Si / 1000 Ang^3
#
#
#
# Elastic Constant Matrix: (Units=GPa)
#
#
# Indices 1 2 3 4 5 6 
#
# 1 154.5388 33.7148 28.9404 -10.9888 -17.3912 2.6084
# 2 33.7148 133.9299 44.6292 -27.2508 1.3260 -4.1563
# 3 28.9404 44.6292 109.3976 -22.6368 3.0984 16.5455
# 4 -10.9888 -27.2508 -22.6368 48.8212 6.0952 -2.9413
# 5 -17.3912 1.3260 3.0984 6.0952 44.8054 -3.2412
# 6 2.6084 -4.1563 16.5455 -2.9413 -3.2412 41.6707
#
#
#
# Elastic Compliance Matrix: (Units=1/GPa)
#
#
# Indices 1 2 3 4 5 6 
#
# 1 0.007394 -0.001412 -0.001545 -0.000209 0.003064 0.000233
# 2 -0.001412 0.009760 -0.003144 0.003945 -0.000974 0.002513
# 3 -0.001545 -0.003144 0.012411 0.003624 -0.002224 -0.005062
# 4 -0.000209 0.003945 0.003624 0.024818 -0.003794 0.000424
# 5 0.003064 -0.000974 -0.002224 -0.003794 0.024368 0.002222
# 6 0.000233 0.002513 -0.005062 0.000424 0.002222 0.026446
#
#
# Mechanical properties :
#
#
# Convention : Reuss Voigt Hill
#
# Bulk Modulus (GPa) = 57.59643 68.04834 62.82238
# Shear Modulus (GPa) = 40.58836 46.43158 43.50997
#
# Velocity S-wave (km/s) = 4.09991 4.38511 4.24490
# Velocity P-wave (km/s) = 6.80186 7.33624 7.07410
#
# Compressibility (1/GPa) = 0.01736219
#
# Stress axis : x y z
#
# Youngs Moduli (GPa) = 135.23837 102.45710 80.57328
#
# Poissons Ratio (x) = 0.14467 0.12452
# Poissons Ratio (y) = 0.19096 0.25334
# Poissons Ratio (z) = 0.20900 0.32215
#
# Static dielectric constant tensor:
#      x y z
#    x 4.681440 0.133900 0.026250 
#    y 0.133900 4.365510 -0.092150 
#    z 0.026250 -0.092150 4.405870 
# 
# 
# High freq. dielectric constant tensor:
#      x y z
#    x 1.979270 -0.001400 -0.006810 
#    y -0.001400 1.967210 -0.009290 
#    z -0.006810 -0.009290 1.962750 
# 
# From -- ./inp_files/107055.got.cif
#   From: 2010.06.25/outbox.cif.g09.slc.cpg/sg2_54_cif.got.tgz:107055.got - 2010.06.27 13:26:56.
