data_PCOD8034103
_publ_section_title
;
Structure prediction by ZEFSAII (Michael W. Deem and Ramdas Pophale) SiO2 
 PCOD8034103
Probable space group: P -1
;
_chemical_formula_sum "Si O2"
_cell_formula_units_Z 16
_cell_length_a 11.897575
_cell_length_b 11.133963
_cell_length_c 12.235164
_cell_angle_alpha 42.316317
_cell_angle_beta 66.567699
_cell_angle_gamma 98.864083
_cell_volume 689.016308
_symmetry_space_group_name_H-M "P -1"
_symmetry_group_IT_number 2
_symmetry_cell_setting 'triclinic'
loop_
_space_group_symop_operation_xyz
x,y,z
-x,-y,-z
loop_
_atom_site_type_symbol
_atom_site_label
_atom_site_fract_x
_atom_site_fract_y
_atom_site_fract_z
Si Si1 0.877522 0.231001 0.545381
Si Si2 0.427839 0.442551 0.319194
Si Si3 0.444848 0.753219 0.739395
Si Si4 0.503325 0.128443 0.118322
Si Si5 0.074019 0.904535 0.835248
Si Si6 0.218426 0.140496 0.988437
Si Si7 0.175971 0.794879 0.063449
Si Si8 0.030119 0.224340 0.282947
O O1 0.855068 0.023218 0.760193
O O2 0.022196 0.505589 0.366986
O O3 0.943410 0.269472 0.370878
O O4 0.686499 0.128897 0.686487
O O5 0.467601 0.317578 0.310083
O O6 0.230848 0.209426 0.599885
O O7 0.417290 0.618226 0.144025
O O8 0.571911 0.597452 0.257051
O O9 0.529551 0.843483 0.765201
O O10 0.500000 0.000000 0.500000
O O11 0.234375 0.494542 0.003168
O O12 0.633458 0.098488 0.078201
O O13 0.887924 0.786995 0.031037
O O14 0.070155 0.861177 0.736519
O O15 0.119365 0.774583 0.973577
O O16 0.186082 0.984367 0.001697
O O17 0.000000 0.000000 0.500000
#
# Coordination Sequence:
#
# PCOD8034103 Si02
#       8
#     2   2   2   2   2   2   2   2
#     4  11  24  43  73 100 136 185 231 294 343 428
#     4  11  24  44  72  99 137 188 234 289 355 432
#     4  12  24  42  72 108 148 178 232 311 361 424
#     4  11  24  44  67 101 144 185 235 283 361 432
#     4  12  25  43  72 101 138 179 234 296 363 418
#     4  11  25  48  69  99 136 191 245 283 348 423
#     4  12  27  43  68 103 144 184 234 296 350 417
#     4  12  22  45  77 104 143 184 236 293 368 437
#
# _framework density 23.221511
#
# number of rings (size 3 to 8) (size 9 to 14) (size 15 to 20)
#    0.000    0.500    3.750    4.875    1.750    5.000 
#    0.000    0.000    0.000    0.000    0.000    0.000 
#    0.000    0.000    0.000    0.000    0.000    0.000 
#
# Total GULP energy -198413.226739 kJ/mol
# GULP energy per Si atom -12400.826671 kJ/mol
# Density = 2.316866 g / cm^3
# Si number density = 23.221511 Si / 1000 Ang^3
#
#
#
# Elastic Constant Matrix: (Units=GPa)
#
#
# Indices 1 2 3 4 5 6 
#
# 1 118.5874 6.9385 25.2881 14.2792 0.6617 -3.2821
# 2 6.9385 81.2362 3.3895 7.8823 2.1645 -0.1708
# 3 25.2881 3.3895 86.9451 -11.4288 -1.9541 10.5139
# 4 14.2792 7.8823 -11.4288 19.8311 3.7935 -4.5048
# 5 0.6617 2.1645 -1.9541 3.7935 17.4141 -9.0704
# 6 -3.2821 -0.1708 10.5139 -4.5048 -9.0704 30.9529
#
#
#
# Elastic Compliance Matrix: (Units=1/GPa)
#
#
# Indices 1 2 3 4 5 6 
#
# 1 0.010726 0.000245 -0.004689 -0.010539 0.002308 0.001874
# 2 0.000245 0.012952 -0.001324 -0.006072 -0.000732 -0.000551
# 3 -0.004689 -0.001324 0.015007 0.012061 -0.003073 -0.004747
# 4 -0.010539 -0.006072 0.012061 0.069997 -0.011998 0.001423
# 5 0.002308 -0.000732 -0.003073 -0.011998 0.070166 0.020100
# 6 0.001874 -0.000551 -0.004747 0.001423 0.020100 0.040213
#
#
# Mechanical properties :
#
#
# Convention : Reuss Voigt Hill
#
# Bulk Modulus (GPa) = 36.83552 39.77789 38.30671
# Shear Modulus (GPa) = 20.86386 30.38310 25.62348
#
# Velocity S-wave (km/s) = 3.00070 3.62111 3.32541
# Velocity P-wave (km/s) = 5.28230 5.88644 5.59254
#
# Compressibility (1/GPa) = 0.02714771
#
# Stress axis : x y z
#
# Youngs Moduli (GPa) = 93.22917 77.21017 66.63347
#
# Poissons Ratio (x) = -0.01888 0.31247
# Poissons Ratio (y) = -0.02280 0.08822
# Poissons Ratio (z) = 0.43718 0.10223
#
# Static dielectric constant tensor:
#      x y z
#    x 4.209150 0.232030 -0.108800 
#    y 0.232030 4.116730 -0.142670 
#    z -0.108800 -0.142670 4.427590 
# 
# 
# High freq. dielectric constant tensor:
#      x y z
#    x 1.927020 0.008910 -0.007750 
#    y 0.008910 1.913950 -0.009360 
#    z -0.007750 -0.009360 1.927660 
# 
# From -- ./inp_files/357084.got.cif
#   From: 2010.06.25/outbox.cif.g09.slc.cpg/sg2_179_cif.got.tgz:357084.got - 2010.06.27 13:26:56.
