data_PCOD8034429
_publ_section_title
;
Structure prediction by ZEFSAII (Michael W. Deem and Ramdas Pophale) SiO2 
 PCOD8034429
Probable space group: P -1
;
_chemical_formula_sum "Si O2"
_cell_formula_units_Z 16
_cell_length_a 7.950087
_cell_length_b 9.540820
_cell_length_c 14.933576
_cell_angle_alpha 39.097392
_cell_angle_beta 77.235463
_cell_angle_gamma 82.861735
_cell_volume 694.628272
_symmetry_space_group_name_H-M "P -1"
_symmetry_group_IT_number 2
_symmetry_cell_setting 'triclinic'
loop_
_space_group_symop_operation_xyz
x,y,z
-x,-y,-z
loop_
_atom_site_type_symbol
_atom_site_label
_atom_site_fract_x
_atom_site_fract_y
_atom_site_fract_z
Si Si1 0.096139 0.244827 0.874419
Si Si2 0.380433 0.414122 0.190028
Si Si3 0.906343 0.366923 0.998575
Si Si4 0.379546 0.899610 0.746695
Si Si5 0.087131 0.689533 0.567009
Si Si6 0.773737 0.967365 0.481022
Si Si7 0.395457 0.708143 0.386103
Si Si8 0.493952 0.242584 0.842934
O O1 0.019229 0.432338 0.725602
O O2 0.299643 0.264368 0.820235
O O3 0.065655 0.305144 0.950557
O O4 0.000000 0.000000 0.000000
O O5 0.223419 0.493012 0.112225
O O6 0.538014 0.341584 0.145612
O O7 0.319548 0.181951 0.358343
O O8 0.448802 0.591795 0.166763
O O9 0.803992 0.144073 0.160059
O O10 0.000000 0.500000 0.000000
O O11 0.356178 0.996912 0.602248
O O12 0.498861 0.066558 0.708980
O O13 0.210974 0.690739 0.465450
O O14 0.933006 0.841503 0.484155
O O15 0.174541 0.794670 0.595766
O O16 0.500000 0.500000 0.500000
O O17 0.374618 0.715056 0.277208
O O18 0.500000 0.000000 0.000000
#
# Coordination Sequence:
#
# PCOD8034429 Si02
#       8
#     2   2   2   2   2   2   2   2
#     4  12  25  48  71 102 151 199 235 298 374 441
#     4  12  24  48  73 106 147 192 245 300 373 439
#     4  12  27  46  74 106 145 189 247 303 362 436
#     4  12  26  43  74 111 141 192 248 304 361 439
#     4  11  24  45  75 103 148 193 245 304 364 440
#     4  11  24  44  75 109 146 191 244 302 378 429
#     4  12  25  45  71 106 145 186 246 303 363 431
#     4  12  27  46  73 105 146 195 244 302 370 435
#
# _framework density 23.033902000000001
#
# number of rings (size 3 to 8) (size 9 to 14) (size 15 to 20)
#    0.000    0.250    3.750    6.000    1.750    2.000 
#    0.000    3.750    0.000    0.000    0.000    0.000 
#    0.000    0.000    0.000    0.000    0.000    0.000 
#
# Total GULP energy -198418.190548 kJ/mol
# GULP energy per Si atom -12401.136909 kJ/mol
# Density = 2.298148 g / cm^3
# Si number density = 23.033902 Si / 1000 Ang^3
#
#
#
# Elastic Constant Matrix: (Units=GPa)
#
#
# Indices 1 2 3 4 5 6 
#
# 1 80.1540 43.2633 12.4582 -1.2239 1.1100 5.3244
# 2 43.2633 143.4728 45.8956 -8.4815 -2.5846 -8.3121
# 3 12.4582 45.8956 124.1330 -7.4538 -6.1557 3.1476
# 4 -1.2239 -8.4815 -7.4538 41.8911 -3.1397 -11.2352
# 5 1.1100 -2.5846 -6.1557 -3.1397 43.6458 5.2104
# 6 5.3244 -8.3121 3.1476 -11.2352 5.2104 42.1256
#
#
#
# Elastic Compliance Matrix: (Units=1/GPa)
#
#
# Indices 1 2 3 4 5 6 
#
# 1 0.015328 -0.004995 0.000289 -0.001418 -0.000355 -0.003279
# 2 -0.004995 0.009783 -0.003068 0.002196 0.000029 0.003373
# 3 0.000289 -0.003068 0.009308 0.000798 0.001335 -0.001290
# 4 -0.001418 0.002196 0.000798 0.026516 0.001295 0.007465
# 5 -0.000355 0.000029 0.001335 0.001295 0.023516 -0.002612
# 6 -0.003279 0.003373 -0.001290 0.007465 -0.002612 0.027229
#
#
# Mechanical properties :
#
#
# Convention : Reuss Voigt Hill
#
# Bulk Modulus (GPa) = 52.99067 61.22153 57.10610
# Shear Modulus (GPa) = 37.44815 41.94203 39.69509
#
# Velocity S-wave (km/s) = 4.03648 4.27181 4.15581
# Velocity P-wave (km/s) = 6.69176 7.13917 6.91908
#
# Compressibility (1/GPa) = 0.01887125
#
# Stress axis : x y z
#
# Youngs Moduli (GPa) = 65.24003 102.21556 107.43338
#
# Poissons Ratio (x) = 0.51052 -0.03101
# Poissons Ratio (y) = 0.32585 0.32962
# Poissons Ratio (z) = -0.01883 0.31361
#
# Static dielectric constant tensor:
#      x y z
#    x 4.481220 -0.391490 -0.185910 
#    y -0.391490 4.227000 0.033720 
#    z -0.185910 0.033720 4.343880 
# 
# 
# High freq. dielectric constant tensor:
#      x y z
#    x 1.905810 -0.014540 -0.007470 
#    y -0.014540 1.923280 0.000990 
#    z -0.007470 0.000990 1.927510 
# 
# From -- ./inp_files/274740.got.cif
#   From: 2010.06.25/outbox.cif.g09.slc.cpg/sg2_138_cif.got.tgz:274740.got - 2010.06.27 13:26:56.
