data_PCOD8034987
_publ_section_title
;
Structure prediction by ZEFSAII (Michael W. Deem and Ramdas Pophale) SiO2 
 PCOD8034987
Probable space group: P -1
;
_chemical_formula_sum "Si O2"
_cell_formula_units_Z 10
_cell_length_a 14.212788
_cell_length_b 5.260966
_cell_length_c 11.746507
_cell_angle_alpha 73.326142
_cell_angle_beta 31.456667
_cell_angle_gamma 62.774063
_cell_volume 397.338456
_symmetry_space_group_name_H-M "P -1"
_symmetry_group_IT_number 2
_symmetry_cell_setting 'triclinic'
loop_
_space_group_symop_operation_xyz
x,y,z
-x,-y,-z
loop_
_atom_site_type_symbol
_atom_site_label
_atom_site_fract_x
_atom_site_fract_y
_atom_site_fract_z
Si Si1 0.579343 0.678699 0.004684
Si Si2 0.913530 0.432788 0.265420
Si Si3 0.728373 0.110705 0.339760
Si Si4 0.318066 0.397450 0.830316
Si Si5 0.835329 0.326214 0.606891
O O1 0.612282 0.642209 0.108250
O O2 0.397943 0.594418 0.179810
O O3 0.800660 0.503519 0.739327
O O4 0.500000 0.000000 0.000000
O O5 0.810967 0.235610 0.344834
O O6 0.898682 0.452793 0.415208
O O7 0.827574 0.763882 0.265159
O O8 0.144783 0.287665 0.009287
O O9 0.495753 0.197404 0.589931
O O10 0.758488 0.261772 0.173629
O O11 0.000000 0.000000 0.500000
#
# Coordination Sequence:
#
# PCOD8034987 Si02
#       5
#     2   2   2   2   2
#     4  11  24  47  70 107 144 191 243 303 366 433
#     4  12  26  48  75 106 148 190 247 294 368 432
#     4  11  27  49  71 112 145 194 240 302 360 438
#     4  11  25  45  77 103 149 191 243 300 363 431
#     4  11  26  44  73 105 145 191 244 302 367 436
#
# _framework density 25.167462
#
# number of rings (size 3 to 8) (size 9 to 14) (size 15 to 20)
#    0.000    0.800    2.000    3.600    2.800    8.000 
#    7.200    0.000    0.000    0.000    0.000    0.000 
#    0.000    0.000    0.000    0.000    0.000    0.000 
#
# Total GULP energy -123927.543654 kJ/mol
# GULP energy per Si atom -12392.754365 kJ/mol
# Density = 2.511018 g / cm^3
# Si number density = 25.167462 Si / 1000 Ang^3
#
#
#
# Elastic Constant Matrix: (Units=GPa)
#
#
# Indices 1 2 3 4 5 6 
#
# 1 60.4978 27.4449 11.5909 -0.6757 12.7482 -25.8912
# 2 27.4449 83.9282 25.8141 2.4971 10.0293 -16.2437
# 3 11.5909 25.8141 154.8883 -3.5284 -7.4123 -9.7533
# 4 -0.6757 2.4971 -3.5284 42.4812 -10.5550 10.5306
# 5 12.7482 10.0293 -7.4123 -10.5550 42.6624 -13.5549
# 6 -25.8912 -16.2437 -9.7533 10.5306 -13.5549 47.1347
#
#
#
# Elastic Compliance Matrix: (Units=1/GPa)
#
#
# Indices 1 2 3 4 5 6 
#
# 1 0.024459 -0.005185 -0.000485 -0.002964 -0.003332 0.011252
# 2 -0.005185 0.014938 -0.002158 -0.002131 -0.002338 0.001657
# 3 -0.000485 -0.002158 0.007050 0.001085 0.002433 0.000907
# 4 -0.002964 -0.002131 0.001085 0.026821 0.006194 -0.006349
# 5 -0.003332 -0.002338 0.002433 0.006194 0.028420 0.004657
# 6 0.011252 0.001657 0.000907 -0.006349 0.004657 0.030913
#
#
# Mechanical properties :
#
#
# Convention : Reuss Voigt Hill
#
# Bulk Modulus (GPa) = 32.47538 47.66824 40.07181
# Shear Modulus (GPa) = 31.54182 42.08660 36.81421
#
# Velocity S-wave (km/s) = 3.54401 4.09377 3.82877
# Velocity P-wave (km/s) = 5.44779 6.42859 5.95840
#
# Compressibility (1/GPa) = 0.03079255
#
# Stress axis : x y z
#
# Youngs Moduli (GPa) = 40.88432 66.94502 141.83647
#
# Poissons Ratio (x) = 0.34712 0.06874
# Poissons Ratio (y) = 0.21199 0.30603
# Poissons Ratio (z) = 0.01981 0.14444
#
# Static dielectric constant tensor:
#      x y z
#    x 4.830410 -0.258580 -0.005860 
#    y -0.258580 4.295520 -0.053600 
#    z -0.005860 -0.053600 4.898800 
# 
# 
# High freq. dielectric constant tensor:
#      x y z
#    x 2.010530 -0.019500 -0.000890 
#    y -0.019500 1.991320 -0.001310 
#    z -0.000890 -0.001310 2.040550 
# 
# From -- ./inp_files/19978.got.cif
#   From: 2010.06.25/outbox.cif.g09.slc.cpg/sg2_10_cif.got.tgz:19978.got - 2010.06.27 13:26:56.
