data_PCOD8034634
_publ_section_title
;
Structure prediction by ZEFSAII (Michael W. Deem and Ramdas Pophale) SiO2 
 PCOD8034634
Probable space group: P -1
;
_chemical_formula_sum "Si O2"
_cell_formula_units_Z 16
_cell_length_a 9.234420
_cell_length_b 8.500484
_cell_length_c 12.529719
_cell_angle_alpha 47.517174
_cell_angle_beta 88.770408
_cell_angle_gamma 98.371452
_cell_volume 707.879443
_symmetry_space_group_name_H-M "P -1"
_symmetry_group_IT_number 2
_symmetry_cell_setting 'triclinic'
loop_
_space_group_symop_operation_xyz
x,y,z
-x,-y,-z
loop_
_atom_site_type_symbol
_atom_site_label
_atom_site_fract_x
_atom_site_fract_y
_atom_site_fract_z
Si Si1 0.038920 0.989515 0.126877
Si Si2 0.021273 0.251411 0.358412
Si Si3 0.532792 0.169512 0.646021
Si Si4 0.189754 0.592126 0.359419
Si Si5 0.132049 0.393525 0.068925
Si Si6 0.699879 0.363694 0.343717
Si Si7 0.418774 0.672854 0.871370
Si Si8 0.765332 0.720919 0.332157
O O1 0.106848 0.784200 0.249499
O O2 0.881971 0.951105 0.211471
O O3 0.146014 0.214274 0.059959
O O4 0.000000 0.000000 0.000000
O O5 0.146355 0.406716 0.356127
O O6 0.105610 0.270599 0.236597
O O7 0.860887 0.313440 0.337152
O O8 0.000000 0.000000 0.500000
O O9 0.634338 0.296613 0.682038
O O10 0.612519 0.211216 0.509974
O O11 0.376514 0.247201 0.612013
O O12 0.504042 0.914393 0.791382
O O13 0.151710 0.457521 0.532499
O O14 0.263733 0.605285 0.965357
O O15 0.000000 0.500000 0.000000
O O16 0.599115 0.334977 0.252990
O O17 0.720348 0.616477 0.264026
O O18 0.500000 0.500000 0.000000
#
# Coordination Sequence:
#
# PCOD8034634 Si02
#       8
#     2   2   2   2   2   2   2   2
#     4  12  24  43  73 101 144 191 236 295 351 417
#     4  12  27  43  76 111 139 184 240 303 349 423
#     4  11  27  47  74 104 142 192 234 300 353 428
#     4  11  24  46  71 106 136 185 241 288 359 415
#     4  12  25  45  68 104 145 186 240 289 353 420
#     4  11  24  48  71 105 142 184 240 294 363 412
#     4  12  27  47  70 102 149 190 233 289 362 432
#     4  11  24  45  73 104 142 180 241 299 352 425
#
# _framework density 22.602720999999999
#
# number of rings (size 3 to 8) (size 9 to 14) (size 15 to 20)
#    0.000    0.500    2.500    6.000    8.750    2.000 
#    0.000    1.875    0.000    0.000    0.000    0.000 
#    0.000    0.000    0.000    0.000    0.000    0.000 
#
# Total GULP energy -198241.278964 kJ/mol
# GULP energy per Si atom -12390.079935 kJ/mol
# Density = 2.255128 g / cm^3
# Si number density = 22.602721 Si / 1000 Ang^3
#
#
#
# Elastic Constant Matrix: (Units=GPa)
#
#
# Indices 1 2 3 4 5 6 
#
# 1 108.4331 30.0484 57.9556 2.8688 0.5823 11.2841
# 2 30.0484 135.7962 54.6632 -9.3596 10.1019 17.7522
# 3 57.9556 54.6632 135.1236 -5.5409 -1.2420 10.2371
# 4 2.8688 -9.3596 -5.5409 43.6202 1.8034 -3.4344
# 5 0.5823 10.1019 -1.2420 1.8034 44.7416 -1.3812
# 6 11.2841 17.7522 10.2371 -3.4344 -1.3812 37.1059
#
#
#
# Elastic Compliance Matrix: (Units=1/GPa)
#
#
# Indices 1 2 3 4 5 6 
#
# 1 0.012307 -0.000533 -0.004962 -0.001727 -0.000179 -0.002285
# 2 -0.000533 0.009557 -0.003338 0.001490 -0.002410 -0.003441
# 3 -0.004962 -0.003338 0.010912 0.000969 0.001089 0.000226
# 4 -0.001727 0.001490 0.000969 0.023664 -0.001189 0.001691
# 5 -0.000179 -0.002410 0.001089 -0.001189 0.023026 0.001654
# 6 -0.002285 -0.003441 0.000226 0.001691 0.001654 0.029447
#
#
# Mechanical properties :
#
#
# Convention : Reuss Voigt Hill
#
# Bulk Modulus (GPa) = 66.18204 73.85414 70.01809
# Shear Modulus (GPa) = 37.98931 40.87259 39.43095
#
# Velocity S-wave (km/s) = 4.10413 4.25703 4.18128
# Velocity P-wave (km/s) = 7.19741 7.54380 7.37264
#
# Compressibility (1/GPa) = 0.01510984
#
# Stress axis : x y z
#
# Youngs Moduli (GPa) = 81.25761 104.63003 91.64164
#
# Poissons Ratio (x) = 0.05573 0.45475
# Poissons Ratio (y) = 0.04328 0.30592
# Poissons Ratio (z) = 0.40322 0.34928
#
# Static dielectric constant tensor:
#      x y z
#    x 4.213020 0.163190 -0.063940 
#    y 0.163190 3.214170 -0.403850 
#    z -0.063940 -0.403850 4.127300 
# 
# 
# High freq. dielectric constant tensor:
#      x y z
#    x 1.895050 0.016110 -0.002150 
#    y 0.016110 1.896900 -0.013500 
#    z -0.002150 -0.013500 1.903960 
# 
# From -- ./inp_files/243505.got.cif
#   From: 2010.06.25/outbox.cif.g09.slc.cpg/sg2_122_cif.got.tgz:243505.got - 2010.06.27 13:26:56.
