data_PCOD8034413
_publ_section_title
;
Structure prediction by ZEFSAII (Michael W. Deem and Ramdas Pophale) SiO2 
 PCOD8034413
Probable space group: P -1
;
_chemical_formula_sum "Si O2"
_cell_formula_units_Z 16
_cell_length_a 16.235780
_cell_length_b 19.007947
_cell_length_c 11.714186
_cell_angle_alpha 134.833701
_cell_angle_beta 145.812505
_cell_angle_gamma 21.795255
_cell_volume 718.984182
_symmetry_space_group_name_H-M "P -1"
_symmetry_group_IT_number 2
_symmetry_cell_setting 'triclinic'
loop_
_space_group_symop_operation_xyz
x,y,z
-x,-y,-z
loop_
_atom_site_type_symbol
_atom_site_label
_atom_site_fract_x
_atom_site_fract_y
_atom_site_fract_z
Si Si1 0.241344 0.595586 0.987966
Si Si2 0.789417 0.365475 0.741882
Si Si3 0.482565 0.202340 0.422745
Si Si4 0.657273 0.821568 0.544862
Si Si5 0.376146 0.964566 0.835376
Si Si6 0.500860 0.249848 0.889232
Si Si7 0.119227 0.872153 0.100091
Si Si8 0.180505 0.423387 0.956274
O O1 0.248589 0.637100 0.170934
O O2 0.228716 0.694673 0.997879
O O3 0.512447 0.362559 0.004752
O O4 0.984493 0.664852 0.762697
O O5 0.500000 0.500000 0.500000
O O6 0.827048 0.460205 0.873426
O O7 0.073957 0.141047 0.762176
O O8 0.490386 0.111648 0.424662
O O9 0.683440 0.047651 0.371386
O O10 0.616540 0.225414 0.649858
O O11 0.151896 0.421471 0.254709
O O12 0.649252 0.723189 0.354608
O O13 0.500000 0.000000 0.500000
O O14 0.633264 0.751324 0.944313
O O15 0.500000 0.000000 0.000000
O O16 0.327505 0.326628 0.891735
O O17 0.839747 0.020189 0.032244
O O18 0.000000 0.000000 0.000000
#
# Coordination Sequence:
#
# PCOD8034413 Si02
#       8
#     2   2   2   2   2   2   2   2
#     4  11  24  45  72 100 137 184 237 283 340 430
#     4  11  26  46  72 104 137 181 240 286 346 421
#     4  12  26  46  70 107 145 183 232 295 356 413
#     4  12  22  45  75 102 138 189 238 284 340 432
#     4  12  26  45  73 102 140 184 232 291 361 404
#     4  11  24  44  74  98 137 185 239 275 355 412
#     4  12  26  46  65 106 148 176 229 300 353 405
#     4  11  26  48  71 103 138 187 242 282 341 441
#
# _framework density 22.253619
#
# number of rings (size 3 to 8) (size 9 to 14) (size 15 to 20)
#    0.000    0.500    6.250    1.500    7.000    1.000 
#    0.000    0.000    0.000    0.000    0.000    0.000 
#    0.000    0.000    0.000    0.000    0.000    0.000 
#
# Total GULP energy -198389.794835 kJ/mol
# GULP energy per Si atom -12399.362177 kJ/mol
# Density = 2.220297 g / cm^3
# Si number density = 22.253619 Si / 1000 Ang^3
#
#
#
# Elastic Constant Matrix: (Units=GPa)
#
#
# Indices 1 2 3 4 5 6 
#
# 1 84.7350 42.2276 38.2654 12.7542 -16.1240 22.7613
# 2 42.2276 101.0119 40.5007 9.6410 -8.9499 12.1982
# 3 38.2654 40.5007 152.6972 -2.3037 7.0973 -1.1540
# 4 12.7542 9.6410 -2.3037 36.6717 -2.5841 4.9784
# 5 -16.1240 -8.9499 7.0973 -2.5841 37.3043 -0.2226
# 6 22.7613 12.1982 -1.1540 4.9784 -0.2226 41.4252
#
#
#
# Elastic Compliance Matrix: (Units=1/GPa)
#
#
# Indices 1 2 3 4 5 6 
#
# 1 0.021102 -0.004612 -0.004603 -0.004488 0.008521 -0.009780
# 2 -0.004612 0.013270 -0.002471 -0.001766 0.001531 -0.001222
# 3 -0.004603 -0.002471 0.008602 0.002067 -0.004056 0.003226
# 4 -0.004488 -0.001766 0.002067 0.029441 -0.000720 -0.000499
# 5 0.008521 0.001531 -0.004056 -0.000720 0.031549 -0.004990
# 6 -0.009780 -0.001222 0.003226 -0.000499 -0.004990 0.029996
#
#
# Mechanical properties :
#
#
# Convention : Reuss Voigt Hill
#
# Bulk Modulus (GPa) = 51.01194 64.49239 57.75217
# Shear Modulus (GPa) = 30.51268 37.57694 34.04481
#
# Velocity S-wave (km/s) = 3.70690 4.11369 3.91558
# Velocity P-wave (km/s) = 6.42606 7.18379 6.81546
#
# Compressibility (1/GPa) = 0.01960325
#
# Stress axis : x y z
#
# Youngs Moduli (GPa) = 47.38809 75.35572 116.25468
#
# Poissons Ratio (x) = 0.34754 0.53507
# Poissons Ratio (y) = 0.21855 0.28727
# Poissons Ratio (z) = 0.21811 0.18621
#
# Static dielectric constant tensor:
#      x y z
#    x 4.261880 0.171780 -0.167510 
#    y 0.171780 4.734470 -0.240380 
#    z -0.167510 -0.240380 4.271620 
# 
# 
# High freq. dielectric constant tensor:
#      x y z
#    x 1.880630 0.003160 -0.002610 
#    y 0.003160 1.886160 -0.000160 
#    z -0.002610 -0.000160 1.881330 
# 
# From -- ./inp_files/467145.got.cif
#   From: 2010.06.25/outbox.cif.g09.slc.cpg/sg2_234_cif.got.tgz:467145.got - 2010.06.27 13:26:56.
