data_PCOD8034355
_publ_section_title
;
Structure prediction by ZEFSAII (Michael W. Deem and Ramdas Pophale) SiO2 
 PCOD8034355
Probable space group: P -1
;
_chemical_formula_sum "Si O2"
_cell_formula_units_Z 16
_cell_length_a 8.955499
_cell_length_b 17.416978
_cell_length_c 11.055189
_cell_angle_alpha 137.856611
_cell_angle_beta 104.208243
_cell_angle_gamma 46.229002
_cell_volume 696.649834
_symmetry_space_group_name_H-M "P -1"
_symmetry_group_IT_number 2
_symmetry_cell_setting 'triclinic'
loop_
_space_group_symop_operation_xyz
x,y,z
-x,-y,-z
loop_
_atom_site_type_symbol
_atom_site_label
_atom_site_fract_x
_atom_site_fract_y
_atom_site_fract_z
Si Si1 0.432790 0.908559 0.415616
Si Si2 0.897212 0.523817 0.137995
Si Si3 0.998176 0.788333 0.149791
Si Si4 0.878103 0.077598 0.194721
Si Si5 0.959089 0.588951 0.468245
Si Si6 0.657911 0.248765 0.944147
Si Si7 0.578607 0.047900 0.169516
Si Si8 0.314640 0.569520 0.442811
O O1 0.630808 0.740077 0.350750
O O2 0.435676 0.820913 0.199089
O O3 0.500000 0.000000 0.500000
O O4 0.164060 0.058265 0.598419
O O5 0.053162 0.467500 0.224024
O O6 0.000000 0.500000 0.000000
O O7 0.886474 0.394232 0.986791
O O8 0.253417 0.711660 0.092959
O O9 0.809413 0.874953 0.099260
O O10 0.643858 0.128692 0.208824
O O11 0.805074 0.246816 0.421724
O O12 0.077697 0.915614 0.135591
O O13 0.000000 0.000000 0.000000
O O14 0.672252 0.782055 0.609217
O O15 0.000000 0.500000 0.500000
O O16 0.109770 0.618850 0.534238
O O17 0.444355 0.423098 0.191064
O O18 0.500000 0.000000 0.000000
O O19 0.500000 0.500000 0.500000
#
# Coordination Sequence:
#
# PCOD8034355 Si02
#       8
#     2   2   2   2   2   2   2   2
#     4  12  26  48  74 107 151 195 259 314 371 453
#     4  12  26  47  76 112 148 201 254 309 379 454
#     4  11  26  47  76 104 152 195 256 312 379 454
#     4  11  24  44  73 105 153 197 246 305 382 455
#     4  12  27  45  75 111 152 193 253 316 377 446
#     4  11  28  46  74 109 149 202 249 312 385 449
#     4  11  24  44  72 112 151 196 247 313 381 450
#     4  12  26  45  72 109 154 196 249 312 383 458
#
# _framework density 22.96706
#
# number of rings (size 3 to 8) (size 9 to 14) (size 15 to 20)
#    0.000    0.500    3.750    3.375    7.000    2.500 
#    0.000    0.000    0.000    0.000    0.000    0.000 
#    0.000    0.000    0.000    0.000    0.000    0.000 
#
# Total GULP energy -198251.515991 kJ/mol
# GULP energy per Si atom -12390.719749 kJ/mol
# Density = 2.291479 g / cm^3
# Si number density = 22.967060 Si / 1000 Ang^3
#
#
#
# Elastic Constant Matrix: (Units=GPa)
#
#
# Indices 1 2 3 4 5 6 
#
# 1 196.6377 43.0851 73.6992 -1.6027 6.4243 13.0778
# 2 43.0851 75.1562 42.9358 -8.6929 6.8844 10.8964
# 3 73.6992 42.9358 149.6602 -7.0632 13.6289 12.1232
# 4 -1.6027 -8.6929 -7.0632 52.7190 0.4625 6.6292
# 5 6.4243 6.8844 13.6289 0.4625 44.5791 0.7912
# 6 13.0778 10.8964 12.1232 6.6292 0.7912 36.7634
#
#
#
# Elastic Compliance Matrix: (Units=1/GPa)
#
#
# Indices 1 2 3 4 5 6 
#
# 1 0.006585 -0.002266 -0.002571 -0.000425 0.000205 -0.000751
# 2 -0.002266 0.017515 -0.003349 0.002856 -0.001317 -0.003768
# 3 -0.002571 -0.003349 0.009220 0.000777 -0.001917 -0.001232
# 4 -0.000425 0.002856 0.000777 0.020111 -0.000745 -0.004562
# 5 0.000205 -0.001317 -0.001917 -0.000745 0.023189 0.000585
# 6 -0.000751 -0.003768 -0.001232 -0.004562 0.000585 0.029801
#
#
# Mechanical properties :
#
#
# Convention : Reuss Voigt Hill
#
# Bulk Modulus (GPa) = 59.00144 82.32159 70.66152
# Shear Modulus (GPa) = 38.92820 44.26123 41.59471
#
# Velocity S-wave (km/s) = 4.12145 4.39471 4.26027
# Velocity P-wave (km/s) = 6.95657 7.85318 7.41843
#
# Compressibility (1/GPa) = 0.01694874
#
# Stress axis : x y z
#
# Youngs Moduli (GPa) = 151.85573 57.09392 108.46402
#
# Poissons Ratio (x) = 0.12935 0.27883
# Poissons Ratio (y) = 0.34403 0.36328
# Poissons Ratio (z) = 0.39038 0.19123
#
# Static dielectric constant tensor:
#      x y z
#    x 4.023540 -0.000190 -0.163040 
#    y -0.000190 4.280900 -0.040610 
#    z -0.163040 -0.040610 4.270090 
# 
# 
# High freq. dielectric constant tensor:
#      x y z
#    x 1.919440 0.002450 -0.000940 
#    y 0.002450 1.907660 -0.000360 
#    z -0.000940 -0.000360 1.921560 
# 
# From -- ./inp_files/333917.got.cif
#   From: 2010.06.25/outbox.cif.g09.slc.cpg/sg2_167_cif.got.tgz:333917.got - 2010.06.27 13:26:56.
