data_PCOD8034749
_publ_section_title
;
Structure prediction by ZEFSAII (Michael W. Deem and Ramdas Pophale) SiO2 
 PCOD8034749
Probable space group: P -1
;
_chemical_formula_sum "Si O2"
_cell_formula_units_Z 12
_cell_length_a 13.627383
_cell_length_b 8.284063
_cell_length_c 7.326712
_cell_angle_alpha 55.896266
_cell_angle_beta 48.278461
_cell_angle_gamma 60.132384
_cell_volume 500.639181
_symmetry_space_group_name_H-M "P -1"
_symmetry_group_IT_number 2
_symmetry_cell_setting 'triclinic'
loop_
_space_group_symop_operation_xyz
x,y,z
-x,-y,-z
loop_
_atom_site_type_symbol
_atom_site_label
_atom_site_fract_x
_atom_site_fract_y
_atom_site_fract_z
Si Si1 0.317868 0.393766 0.380361
Si Si2 0.170541 0.817887 0.752805
Si Si3 0.120671 0.142835 0.902874
Si Si4 0.512017 0.933168 0.823374
Si Si5 0.764467 0.168689 0.761822
Si Si6 0.551840 0.345230 0.378939
O O1 0.226289 0.288813 0.696370
O O2 0.361973 0.253984 0.237920
O O3 0.229077 0.610934 0.310752
O O4 0.459192 0.428109 0.270051
O O5 0.221363 0.845947 0.465695
O O6 0.286727 0.668914 0.818689
O O7 0.142925 0.031379 0.751411
O O8 0.033491 0.731966 0.978007
O O9 0.126266 0.993253 0.164074
O O10 0.533417 0.119059 0.561305
O O11 0.376072 0.873057 0.965356
O O12 0.500000 0.000000 0.000000
O O13 0.500000 0.500000 0.500000
#
# Coordination Sequence:
#
# PCOD8034749 Si02
#       6
#     2   2   2   2   2   2
#     4  12  24  44  70 102 137 180 234 279 345 409
#     4  11  24  46  68  99 142 182 229 282 346 403
#     4  11  25  46  71  95 144 186 221 290 338 409
#     4  12  22  40  67  99 139 174 227 292 337 399
#     4  12  24  43  70 103 134 182 234 278 342 411
#     4  12  22  42  68  99 134 174 226 286 335 397
#
# _framework density 23.969360999999999
#
# number of rings (size 3 to 8) (size 9 to 14) (size 15 to 20)
#    0.000    0.333    6.667    2.500    0.000    2.000 
#    0.000    3.333    0.000    0.000    0.000    0.000 
#    0.000    0.000    0.000    0.000    0.000    0.000 
#
# Total GULP energy -148703.805992 kJ/mol
# GULP energy per Si atom -12391.983833 kJ/mol
# Density = 2.391481 g / cm^3
# Si number density = 23.969361 Si / 1000 Ang^3
#
#
#
# Elastic Constant Matrix: (Units=GPa)
#
#
# Indices 1 2 3 4 5 6 
#
# 1 93.9482 30.6093 46.9032 4.3608 -17.6274 -13.0425
# 2 30.6093 110.2867 45.2927 -2.1995 -16.3353 0.0132
# 3 46.9032 45.2927 82.5671 15.6959 -7.2700 -8.9469
# 4 4.3608 -2.1995 15.6959 33.8586 -9.5531 -5.1074
# 5 -17.6274 -16.3353 -7.2700 -9.5531 38.9671 16.2344
# 6 -13.0425 0.0132 -8.9469 -5.1074 16.2344 38.4559
#
#
#
# Elastic Compliance Matrix: (Units=1/GPa)
#
#
# Indices 1 2 3 4 5 6 
#
# 1 0.016560 0.000481 -0.009819 0.004452 0.006453 0.001199
# 2 0.000481 0.013872 -0.008904 0.006506 0.007770 -0.004329
# 3 -0.009819 -0.008904 0.024671 -0.012478 -0.008428 0.004313
# 4 0.004452 0.006506 -0.012478 0.038457 0.012492 -0.001561
# 5 0.006453 0.007770 -0.008428 0.012492 0.039490 -0.014787
# 6 0.001199 -0.004329 0.004313 -0.001561 -0.014787 0.033450
#
#
# Mechanical properties :
#
#
# Convention : Reuss Voigt Hill
#
# Bulk Modulus (GPa) = 53.71240 59.15694 56.43467
# Shear Modulus (GPa) = 23.90146 33.18943 28.54544
#
# Velocity S-wave (km/s) = 3.16122 3.72514 3.45471
# Velocity P-wave (km/s) = 5.98179 6.57541 6.28561
#
# Compressibility (1/GPa) = 0.01861767
#
# Stress axis : x y z
#
# Youngs Moduli (GPa) = 60.38559 72.08809 40.53311
#
# Poissons Ratio (x) = -0.03466 0.39800
# Poissons Ratio (y) = -0.02903 0.36092
# Poissons Ratio (z) = 0.59293 0.64190
#
# Static dielectric constant tensor:
#      x y z
#    x 4.475960 -0.032270 -0.314970 
#    y -0.032270 4.423070 0.230740 
#    z -0.314970 0.230740 4.451910 
# 
# 
# High freq. dielectric constant tensor:
#      x y z
#    x 1.944810 0.007610 -0.006730 
#    y 0.007610 1.954740 0.016190 
#    z -0.006730 0.016190 1.947760 
# 
# From -- ./inp_files/173235.got.cif
#   From: 2010.06.25/outbox.cif.g09.slc.cpg/sg2_87_cif.got.tgz:173235.got - 2010.06.27 13:26:56.
