data_PCOD8034986
_publ_section_title
;
Structure prediction by ZEFSAII (Michael W. Deem and Ramdas Pophale) SiO2 
 PCOD8034986
Probable space group: P -1
;
_chemical_formula_sum "Si O2"
_cell_formula_units_Z 16
_cell_length_a 19.915977
_cell_length_b 9.484420
_cell_length_c 8.377117
_cell_angle_alpha 87.057171
_cell_angle_beta 91.975889
_cell_angle_gamma 152.970390
_cell_volume 717.938620
_symmetry_space_group_name_H-M "P -1"
_symmetry_group_IT_number 2
_symmetry_cell_setting 'triclinic'
loop_
_space_group_symop_operation_xyz
x,y,z
-x,-y,-z
loop_
_atom_site_type_symbol
_atom_site_label
_atom_site_fract_x
_atom_site_fract_y
_atom_site_fract_z
Si Si1 0.920700 0.242051 0.887612
Si Si2 0.171039 0.616932 0.671910
Si Si3 0.133017 0.039724 0.820725
Si Si4 0.635718 0.677593 0.717187
Si Si5 0.318478 0.649763 0.849147
Si Si6 0.327431 0.192258 0.645580
Si Si7 0.890596 0.693846 0.601465
Si Si8 0.630518 0.340335 0.790713
O O1 0.016872 0.395939 0.728472
O O2 0.761052 0.990706 0.817212
O O3 0.000000 0.500000 0.000000
O O4 0.895154 0.046187 0.990125
O O5 0.214278 0.588520 0.815212
O O6 0.160805 0.526459 0.504785
O O7 0.294875 0.966233 0.638862
O O8 0.247187 0.379473 0.776441
O O9 0.203384 0.030427 0.753668
O O10 0.973780 0.776653 0.750477
O O11 0.488398 0.498994 0.726928
O O12 0.677738 0.742989 0.530466
O O13 0.611690 0.473673 0.791061
O O14 0.475106 0.973977 0.758231
O O15 0.322362 0.633447 0.037674
O O16 0.750596 0.521728 0.658548
O O17 0.000000 0.000000 0.500000
#
# Coordination Sequence:
#
# PCOD8034986 Si02
#       8
#     2   2   2   2   2   2   2   2
#     4  12  26  45  70 102 142 185 233 289 354 422
#     4  12  25  46  69 104 140 187 233 291 354 420
#     4  12  25  46  69 105 138 188 233 292 355 419
#     4  11  25  46  72 101 142 188 231 292 349 423
#     4  11  25  45  73 103 140 182 239 294 348 419
#     4  11  26  47  69 102 144 183 236 286 354 423
#     4  12  26  42  71 104 143 184 233 291 353 420
#     4  11  24  47  70 106 139 185 236 294 353 411
#
# _framework density 22.286028999999999
#
# number of rings (size 3 to 8) (size 9 to 14) (size 15 to 20)
#    0.000    0.500    5.000    3.000    1.750    5.000 
#    4.500    0.000    0.000    0.000    0.000    0.000 
#    0.000    0.000    0.000    0.000    0.000    0.000 
#
# Total GULP energy -198435.988776 kJ/mol
# GULP energy per Si atom -12402.249298 kJ/mol
# Density = 2.223531 g / cm^3
# Si number density = 22.286029 Si / 1000 Ang^3
#
#
#
# Elastic Constant Matrix: (Units=GPa)
#
#
# Indices 1 2 3 4 5 6 
#
# 1 69.2810 37.8987 8.1404 10.2518 2.6569 -0.5215
# 2 37.8987 129.6658 32.5795 10.6032 5.6973 -1.9622
# 3 8.1404 32.5795 63.6179 5.9470 10.8940 7.6539
# 4 10.2518 10.6032 5.9470 42.8949 7.5450 -0.1148
# 5 2.6569 5.6973 10.8940 7.5450 44.0971 -0.9652
# 6 -0.5215 -1.9622 7.6539 -0.1148 -0.9652 39.0734
#
#
#
# Elastic Compliance Matrix: (Units=1/GPa)
#
#
# Indices 1 2 3 4 5 6 
#
# 1 0.017570 -0.005051 0.000649 -0.003032 -0.000051 -0.000156
# 2 -0.005051 0.010483 -0.004876 -0.000760 0.000316 0.001420
# 3 0.000649 -0.004876 0.019427 -0.000926 -0.004141 -0.004147
# 4 -0.003032 -0.000760 -0.000926 0.025017 -0.003769 0.000083
# 5 -0.000051 0.000316 -0.004141 -0.003769 0.024338 0.001416
# 6 -0.000156 0.001420 -0.004147 0.000083 0.001416 0.026510
#
#
# Mechanical properties :
#
#
# Convention : Reuss Voigt Hill
#
# Bulk Modulus (GPa) = 34.57133 46.64465 40.60799
# Shear Modulus (GPa) = 32.99407 37.47618 35.23512
#
# Velocity S-wave (km/s) = 3.85188 4.10518 3.98054
# Velocity P-wave (km/s) = 5.94381 6.59132 6.27592
#
# Compressibility (1/GPa) = 0.02892571
#
# Stress axis : x y z
#
# Youngs Moduli (GPa) = 56.91514 95.39011 51.47361
#
# Poissons Ratio (x) = 0.48178 -0.03342
# Poissons Ratio (y) = 0.28746 0.25099
# Poissons Ratio (z) = -0.03696 0.46514
#
# Static dielectric constant tensor:
#      x y z
#    x 3.910110 0.032890 0.289470 
#    y 0.032890 4.339630 0.040290 
#    z 0.289470 0.040290 3.963210 
# 
# 
# High freq. dielectric constant tensor:
#      x y z
#    x 1.872760 0.002000 0.020040 
#    y 0.002000 1.896190 -0.002130 
#    z 0.020040 -0.002130 1.879260 
# 
# From -- ./inp_files/158726.got.cif
#   From: 2010.06.25/outbox.cif.g09.slc.cpg/sg2_80_cif.got.tgz:158726.got - 2010.06.27 13:26:56.
