data_PCOD8034538
_publ_section_title
;
Structure prediction by ZEFSAII (Michael W. Deem and Ramdas Pophale) SiO2 
 PCOD8034538
Probable space group: P -1
;
_chemical_formula_sum "Si O2"
_cell_formula_units_Z 16
_cell_length_a 17.783988
_cell_length_b 12.054195
_cell_length_c 8.782535
_cell_angle_alpha 97.429090
_cell_angle_beta 132.282641
_cell_angle_gamma 42.952814
_cell_volume 658.356189
_symmetry_space_group_name_H-M "P -1"
_symmetry_group_IT_number 2
_symmetry_cell_setting 'triclinic'
loop_
_space_group_symop_operation_xyz
x,y,z
-x,-y,-z
loop_
_atom_site_type_symbol
_atom_site_label
_atom_site_fract_x
_atom_site_fract_y
_atom_site_fract_z
Si Si1 0.802783 0.154148 0.154221
Si Si2 0.285899 0.936578 0.208622
Si Si3 0.632730 0.151744 0.140190
Si Si4 0.983670 0.625860 0.897576
Si Si5 0.039652 0.616376 0.642214
Si Si6 0.419664 0.413172 0.192077
Si Si7 0.590411 0.810216 0.496295
Si Si8 0.668649 0.756907 0.263796
O O1 0.627459 0.265293 0.043861
O O2 0.864679 0.004000 0.078796
O O3 0.702478 0.353810 0.963552
O O4 0.000000 0.000000 0.500000
O O5 0.466239 0.696097 0.507698
O O6 0.399318 0.905895 0.228865
O O7 0.158952 0.137955 0.187212
O O8 0.858869 0.871064 0.372470
O O9 0.610040 0.214136 0.294113
O O10 0.428054 0.273255 0.848712
O O11 0.229496 0.429847 0.205212
O O12 0.932967 0.655872 0.651766
O O13 0.000000 0.500000 0.000000
O O14 0.116733 0.456583 0.584907
O O15 0.247267 0.481206 0.957004
O O16 0.695422 0.767220 0.479230
O O17 0.500000 0.000000 0.500000
O O18 0.500000 0.000000 0.000000
#
# Coordination Sequence:
#
# PCOD8034538 Si02
#       8
#     2   2   2   2   2   2   2   2
#     4  12  26  48  76 107 146 193 254 313 369 436
#     4  12  26  47  73 108 152 191 246 301 374 443
#     4  11  24  46  71 102 147 188 239 307 368 439
#     4  12  26  43  76 107 148 194 237 302 369 446
#     4  11  24  45  70 106 146 185 247 300 361 443
#     4  11  24  47  74 102 142 195 243 305 370 433
#     4  12  25  45  71 104 148 192 242 294 369 444
#     4  11  27  42  71 107 145 194 241 299 370 440
#
# _framework density 24.302954
#
# number of rings (size 3 to 8) (size 9 to 14) (size 15 to 20)
#    0.000    0.500    6.250    1.500    5.250    0.500 
#    2.250    1.250    0.000    0.000    0.000    0.000 
#    0.000    0.000    0.000    0.000    0.000    0.000 
#
# Total GULP energy -198340.745729 kJ/mol
# GULP energy per Si atom -12396.296608 kJ/mol
# Density = 2.424764 g / cm^3
# Si number density = 24.302954 Si / 1000 Ang^3
#
#
#
# Elastic Constant Matrix: (Units=GPa)
#
#
# Indices 1 2 3 4 5 6 
#
# 1 141.0889 63.0140 18.9315 3.0967 -16.8961 -14.8986
# 2 63.0140 163.2629 49.8323 1.5011 -12.0561 -19.2613
# 3 18.9315 49.8323 100.7600 -1.6652 -20.3245 -1.4392
# 4 3.0967 1.5011 -1.6652 43.5520 -2.4872 -2.5415
# 5 -16.8961 -12.0561 -20.3245 -2.4872 37.1720 -1.8797
# 6 -14.8986 -19.2613 -1.4392 -2.5415 -1.8797 41.8247
#
#
#
# Elastic Compliance Matrix: (Units=1/GPa)
#
#
# Indices 1 2 3 4 5 6 
#
# 1 0.009059 -0.003195 0.000608 -0.000199 0.003498 0.001922
# 2 -0.003195 0.008813 -0.003833 -0.000094 -0.000556 0.002758
# 3 0.000608 -0.003833 0.012947 0.000889 0.006132 -0.000773
# 4 -0.000199 -0.000094 0.000889 0.023209 0.001990 0.001416
# 5 0.003498 -0.000556 0.006132 0.001990 0.031937 0.002757
# 6 0.001922 0.002758 -0.000773 0.001416 0.002757 0.026047
#
#
# Mechanical properties :
#
#
# Convention : Reuss Voigt Hill
#
# Bulk Modulus (GPa) = 55.62125 74.29640 64.95882
# Shear Modulus (GPa) = 38.21291 42.73201 40.47246
#
# Velocity S-wave (km/s) = 3.96960 4.19776 4.08527
# Velocity P-wave (km/s) = 6.62922 7.35746 7.00281
#
# Compressibility (1/GPa) = 0.01797874
#
# Stress axis : x y z
#
# Youngs Moduli (GPa) = 110.38207 113.46329 77.24067
#
# Poissons Ratio (x) = 0.36255 -0.04695
# Poissons Ratio (y) = 0.35271 0.29605
# Poissons Ratio (z) = -0.06710 0.43489
#
# Static dielectric constant tensor:
#      x y z
#    x 4.834210 -0.151890 0.276710 
#    y -0.151890 4.360780 0.158000 
#    z 0.276710 0.158000 5.162030 
# 
# 
# High freq. dielectric constant tensor:
#      x y z
#    x 1.989870 -0.008950 0.000200 
#    y -0.008950 1.962410 0.010590 
#    z 0.000200 0.010590 1.972730 
# 
# From -- ./inp_files/333426.got.cif
#   From: 2010.06.25/outbox.cif.g09.slc.cpg/sg2_167_cif.got.tgz:333426.got - 2010.06.27 13:26:56.
