data_PCOD8034303
_publ_section_title
;
Structure prediction by ZEFSAII (Michael W. Deem and Ramdas Pophale) SiO2 
 PCOD8034303
Probable space group: P -1
;
_chemical_formula_sum "Si O2"
_cell_formula_units_Z 16
_cell_length_a 8.937284
_cell_length_b 9.038030
_cell_length_c 13.601234
_cell_angle_alpha 134.050712
_cell_angle_beta 71.475631
_cell_angle_gamma 118.624306
_cell_volume 692.909736
_symmetry_space_group_name_H-M "P -1"
_symmetry_group_IT_number 2
_symmetry_cell_setting 'triclinic'
loop_
_space_group_symop_operation_xyz
x,y,z
-x,-y,-z
loop_
_atom_site_type_symbol
_atom_site_label
_atom_site_fract_x
_atom_site_fract_y
_atom_site_fract_z
Si Si1 0.239913 0.209288 0.584202
Si Si2 0.310443 0.965441 0.746637
Si Si3 0.019055 0.005059 0.709169
Si Si4 0.523779 0.831970 0.992301
Si Si5 0.682281 0.190039 0.685478
Si Si6 0.218111 0.455357 0.510573
Si Si7 0.404010 0.520773 0.305225
Si Si8 0.168424 0.693468 0.090160
O O1 0.076904 0.144471 0.659682
O O2 0.256751 0.389415 0.580226
O O3 0.402491 0.311336 0.666851
O O4 0.230247 0.982384 0.432549
O O5 0.214972 0.698924 0.634781
O O6 0.175891 0.067898 0.782142
O O7 0.357423 0.040153 0.883222
O O8 0.482511 0.053980 0.687647
O O9 0.865397 0.076636 0.813134
O O10 0.956288 0.739751 0.579494
O O11 0.329844 0.683647 0.993618
O O12 0.619693 0.692315 0.854859
O O13 0.500000 0.000000 0.000000
O O14 0.708133 0.352170 0.661315
O O15 0.787074 0.340417 0.822557
O O16 0.357240 0.460735 0.401336
O O17 0.000000 0.500000 0.000000
#
# Coordination Sequence:
#
# PCOD8034303 Si02
#       8
#     2   2   2   2   2   2   2   2
#     4  12  23  44  73 104 140 182 233 288 349 418
#     4  11  25  45  73 102 143 182 236 286 342 420
#     4  12  25  46  69 105 143 181 229 294 352 409
#     4  11  26  48  71 103 139 186 235 281 348 421
#     4  11  24  44  71 103 136 183 238 283 340 421
#     4  12  25  43  71 108 140 182 231 296 347 406
#     4  12  24  43  76 101 138 185 239 283 345 415
#     4  11  26  45  70  99 142 180 232 287 350 413
#
# _framework density 23.091028999999999
#
# number of rings (size 3 to 8) (size 9 to 14) (size 15 to 20)
#    0.000    0.500    3.750    4.500    3.500    1.000 
#    2.250    1.250    0.000    0.000    0.000    0.000 
#    0.000    0.000    0.000    0.000    0.000    0.000 
#
# Total GULP energy -198346.785355 kJ/mol
# GULP energy per Si atom -12396.674085 kJ/mol
# Density = 2.303847 g / cm^3
# Si number density = 23.091029 Si / 1000 Ang^3
#
#
#
# Elastic Constant Matrix: (Units=GPa)
#
#
# Indices 1 2 3 4 5 6 
#
# 1 87.3459 21.5830 8.6306 0.6327 16.8282 -12.7050
# 2 21.5830 107.2837 35.0154 -0.1029 6.2537 -11.7360
# 3 8.6306 35.0154 86.8476 1.6561 10.9689 -3.2049
# 4 0.6327 -0.1029 1.6561 28.2879 4.8021 2.7047
# 5 16.8282 6.2537 10.9689 4.8021 42.8646 4.6375
# 6 -12.7050 -11.7360 -3.2049 2.7047 4.6375 33.9983
#
#
#
# Elastic Compliance Matrix: (Units=1/GPa)
#
#
# Indices 1 2 3 4 5 6 
#
# 1 0.013787 -0.001971 0.000350 0.000144 -0.005802 0.005285
# 2 -0.001971 0.011435 -0.004299 0.000087 -0.000108 0.002813
# 3 0.000350 -0.004299 0.013611 -0.000347 -0.002994 0.000366
# 4 0.000144 0.000087 -0.000347 0.036233 -0.003789 -0.002315
# 5 -0.005802 -0.000108 -0.002994 -0.003789 0.027455 -0.005932
# 6 0.005285 0.002813 0.000366 -0.002315 -0.005932 0.033387
#
#
# Mechanical properties :
#
#
# Convention : Reuss Voigt Hill
#
# Bulk Modulus (GPa) = 37.04731 45.77058 41.40894
# Shear Modulus (GPa) = 31.89894 35.44671 33.67282
#
# Velocity S-wave (km/s) = 3.72081 3.92227 3.82287
# Velocity P-wave (km/s) = 5.87691 6.35430 6.12026
#
# Compressibility (1/GPa) = 0.02699252
#
# Stress axis : x y z
#
# Youngs Moduli (GPa) = 72.53328 87.45256 73.47001
#
# Poissons Ratio (x) = 0.17239 -0.02570
# Poissons Ratio (y) = 0.14298 0.31581
# Poissons Ratio (z) = -0.02537 0.37592
#
# Static dielectric constant tensor:
#      x y z
#    x 3.970080 -0.106980 0.085180 
#    y -0.106980 4.045610 -0.182450 
#    z 0.085180 -0.182450 4.067790 
# 
# 
# High freq. dielectric constant tensor:
#      x y z
#    x 1.918160 -0.007100 0.011020 
#    y -0.007100 1.912850 -0.003200 
#    z 0.011020 -0.003200 1.916110 
# 
# From -- ./inp_files/343419.got.cif
#   From: 2010.06.25/outbox.cif.g09.slc.cpg/sg2_172_cif.got.tgz:343419.got - 2010.06.27 13:26:56.
