data_PCOD8034905
_publ_section_title
;
Structure prediction by ZEFSAII (Michael W. Deem and Ramdas Pophale) SiO2 
 PCOD8034905
Probable space group: P -1
;
_chemical_formula_sum "Si O2"
_cell_formula_units_Z 12
_cell_length_a 6.747615
_cell_length_b 9.856840
_cell_length_c 18.021329
_cell_angle_alpha 36.772904
_cell_angle_beta 72.688916
_cell_angle_gamma 53.365721
_cell_volume 533.648008
_symmetry_space_group_name_H-M "P -1"
_symmetry_group_IT_number 2
_symmetry_cell_setting 'triclinic'
loop_
_space_group_symop_operation_xyz
x,y,z
-x,-y,-z
loop_
_atom_site_type_symbol
_atom_site_label
_atom_site_fract_x
_atom_site_fract_y
_atom_site_fract_z
Si Si1 0.466791 0.788377 0.888327
Si Si2 0.845012 0.751269 0.749930
Si Si3 0.989642 0.573202 0.382363
Si Si4 0.451808 0.265939 0.927183
Si Si5 0.606185 0.626253 0.699046
Si Si6 0.992371 0.100973 0.538101
O O1 0.707338 0.741808 0.840249
O O2 0.191976 0.079074 0.759282
O O3 0.500000 0.500000 0.000000
O O4 0.488943 0.828639 0.953407
O O5 0.767980 0.678094 0.714322
O O6 0.156323 0.534448 0.823326
O O7 0.797018 0.056395 0.621175
O O8 0.000000 0.500000 0.500000
O O9 0.274751 0.429418 0.373492
O O10 0.864467 0.438251 0.413722
O O11 0.642685 0.339416 0.845711
O O12 0.500000 0.000000 0.000000
O O13 0.299014 0.911171 0.614958
O O14 0.000000 0.000000 0.500000
#
# Coordination Sequence:
#
# PCOD8034905 Si02
#       6
#     2   2   2   2   2   2
#     4  12  27  47  72 108 149 191 238 296 364 424
#     4  11  24  46  75 101 146 189 237 299 357 427
#     4  12  28  45  74 109 146 194 238 297 366 424
#     4  11  26  44  75 107 138 191 245 293 359 430
#     4  11  24  47  75 104 146 187 241 302 360 423
#     4  11  25  45  74 105 139 192 245 290 357 430
#
# _framework density 22.486733000000001
#
# number of rings (size 3 to 8) (size 9 to 14) (size 15 to 20)
#    0.000    0.667    3.333    3.000    9.333    3.333 
#    0.000    0.000    0.000    0.000    0.000    0.000 
#    0.000    0.000    0.000    0.000    0.000    0.000 
#
# Total GULP energy -148718.318585 kJ/mol
# GULP energy per Si atom -12393.193215 kJ/mol
# Density = 2.243555 g / cm^3
# Si number density = 22.486733 Si / 1000 Ang^3
#
#
#
# Elastic Constant Matrix: (Units=GPa)
#
#
# Indices 1 2 3 4 5 6 
#
# 1 102.7018 44.6449 60.0365 9.8077 -27.2338 -10.2732
# 2 44.6449 125.4774 56.9057 25.7917 -25.5718 10.3543
# 3 60.0365 56.9057 129.9033 1.2857 -24.0675 13.2122
# 4 9.8077 25.7917 1.2857 51.6258 9.2691 -7.4762
# 5 -27.2338 -25.5718 -24.0675 9.2691 52.2157 10.4457
# 6 -10.2732 10.3543 13.2122 -7.4762 10.4457 31.8628
#
#
#
# Elastic Compliance Matrix: (Units=1/GPa)
#
#
# Indices 1 2 3 4 5 6 
#
# 1 0.016422 -0.002687 -0.006679 -0.000982 0.002785 0.007794
# 2 -0.002687 0.014427 -0.002546 -0.009429 0.008034 -0.009345
# 3 -0.006679 -0.002546 0.013167 0.000631 0.002734 -0.007534
# 4 -0.000982 -0.009429 0.000631 0.028424 -0.012539 0.013266
# 5 0.002785 0.008034 0.002734 -0.012539 0.031230 -0.016027
# 6 0.007794 -0.009345 -0.007534 0.013266 -0.016027 0.048425
#
#
# Mechanical properties :
#
#
# Convention : Reuss Voigt Hill
#
# Bulk Modulus (GPa) = 49.52763 75.69520 62.61141
# Shear Modulus (GPa) = 27.37493 40.24056 33.80775
#
# Velocity S-wave (km/s) = 3.49288 4.23487 3.88165
# Velocity P-wave (km/s) = 6.19194 7.59259 6.92775
#
# Compressibility (1/GPa) = 0.02019075
#
# Stress axis : x y z
#
# Youngs Moduli (GPa) = 60.89543 69.31580 75.95021
#
# Poissons Ratio (x) = 0.18627 0.50728
# Poissons Ratio (y) = 0.16364 0.19334
# Poissons Ratio (z) = 0.40673 0.17645
#
# Static dielectric constant tensor:
#      x y z
#    x 4.244220 -0.017570 -0.430550 
#    y -0.017570 4.159190 -0.125330 
#    z -0.430550 -0.125330 5.322930 
# 
# 
# High freq. dielectric constant tensor:
#      x y z
#    x 1.894490 0.004930 -0.023100 
#    y 0.004930 1.885920 0.010270 
#    z -0.023100 0.010270 1.906400 
# 
# From -- ./inp_files/21863.got.cif
#   From: 2010.06.25/outbox.cif.g09.slc.cpg/sg2_11_cif.got.tgz:21863.got - 2010.06.27 13:26:56.
