data_PCOD8034490
_publ_section_title
;
Structure prediction by ZEFSAII (Michael W. Deem and Ramdas Pophale) SiO2 
 PCOD8034490
Probable space group: P -1
;
_chemical_formula_sum "Si O2"
_cell_formula_units_Z 16
_cell_length_a 9.252097
_cell_length_b 9.313392
_cell_length_c 16.348883
_cell_angle_alpha 46.192899
_cell_angle_beta 85.401934
_cell_angle_gamma 115.773717
_cell_volume 741.523073
_symmetry_space_group_name_H-M "P -1"
_symmetry_group_IT_number 2
_symmetry_cell_setting 'triclinic'
loop_
_space_group_symop_operation_xyz
x,y,z
-x,-y,-z
loop_
_atom_site_type_symbol
_atom_site_label
_atom_site_fract_x
_atom_site_fract_y
_atom_site_fract_z
Si Si1 0.842891 0.363181 0.990363
Si Si2 0.580559 0.080613 0.737579
Si Si3 0.220437 0.973520 0.375278
Si Si4 0.008817 0.245325 0.895045
Si Si5 0.559451 0.274450 0.360967
Si Si6 0.923259 0.480754 0.679272
Si Si7 0.000524 0.168486 0.312119
Si Si8 0.457271 0.273774 0.535504
O O1 0.621767 0.155852 0.115031
O O2 0.864450 0.591244 0.853687
O O3 0.000000 0.500000 0.000000
O O4 0.883461 0.214115 0.988206
O O5 0.693908 0.990229 0.733892
O O6 0.719035 0.321545 0.702029
O O7 0.540192 0.162230 0.623884
O O8 0.109146 0.670533 0.533715
O O9 0.395341 0.210504 0.333400
O O10 0.055834 0.990453 0.373992
O O11 0.235827 0.531275 0.774978
O O12 0.919606 0.259321 0.810228
O O13 0.000000 0.000000 0.000000
O O14 0.571837 0.415133 0.388431
O O15 0.500000 0.000000 0.500000
O O16 0.953097 0.692333 0.656866
O O17 0.771867 0.977972 0.374408
O O18 0.500000 0.500000 0.500000
#
# Coordination Sequence:
#
# PCOD8034490 Si02
#       8
#     2   2   2   2   2   2   2   2
#     4  11  24  46  68  95 144 185 228 280 345 421
#     4  12  26  42  70 101 140 183 229 290 348 409
#     4  12  24  42  72 103 137 177 240 293 344 402
#     4  11  26  43  70 102 142 185 229 287 351 414
#     4  12  22  45  72  99 139 186 234 283 346 418
#     4  11  24  45  69 101 143 178 232 298 345 406
#     4  11  25  45  70  99 140 187 226 289 353 409
#     4  12  25  42  70 104 133 182 235 280 348 414
#
# _framework density 21.577211999999999
#
# number of rings (size 3 to 8) (size 9 to 14) (size 15 to 20)
#    0.000    0.500    5.000    3.000    3.500    5.500 
#    0.000    0.000    0.000    0.000    0.000    0.000 
#    0.000    0.000    0.000    0.000    0.000    0.000 
#
# Total GULP energy -198403.341346 kJ/mol
# GULP energy per Si atom -12400.208834 kJ/mol
# Density = 2.152810 g / cm^3
# Si number density = 21.577212 Si / 1000 Ang^3
#
#
#
# Elastic Constant Matrix: (Units=GPa)
#
#
# Indices 1 2 3 4 5 6 
#
# 1 112.7431 50.2107 45.1743 3.8280 -8.3287 7.4618
# 2 50.2107 132.2931 46.3975 8.6844 -9.3896 10.8548
# 3 45.1743 46.3975 129.3935 5.8683 -23.8970 -6.5805
# 4 3.8280 8.6844 5.8683 29.1260 -2.3207 -0.8510
# 5 -8.3287 -9.3896 -23.8970 -2.3207 40.1300 -7.1141
# 6 7.4618 10.8548 -6.5805 -0.8510 -7.1141 50.8839
#
#
#
# Elastic Compliance Matrix: (Units=1/GPa)
#
#
# Indices 1 2 3 4 5 6 
#
# 1 0.011598 -0.003246 -0.003036 -0.000021 -0.000420 -0.001460
# 2 -0.003246 0.009954 -0.002504 -0.002122 -0.000322 -0.002052
# 3 -0.003036 -0.002504 0.010951 -0.000502 0.005844 0.003204
# 4 -0.000021 -0.002122 -0.000502 0.035220 0.001447 0.001182
# 5 -0.000420 -0.000322 0.005844 0.001447 0.029206 0.004994
# 6 -0.001460 -0.002052 0.003204 0.001182 0.004994 0.021437
#
#
# Mechanical properties :
#
#
# Convention : Reuss Voigt Hill
#
# Bulk Modulus (GPa) = 66.97081 73.11051 70.04066
# Shear Modulus (GPa) = 35.48266 39.53781 37.51024
#
# Velocity S-wave (km/s) = 4.05958 4.28528 4.17396
# Velocity P-wave (km/s) = 7.28552 7.64471 7.46727
#
# Compressibility (1/GPa) = 0.01493188
#
# Stress axis : x y z
#
# Youngs Moduli (GPa) = 86.22093 100.46487 91.31401
#
# Poissons Ratio (x) = 0.32608 0.27726
# Poissons Ratio (y) = 0.27985 0.22861
# Poissons Ratio (z) = 0.26179 0.25152
#
# Static dielectric constant tensor:
#      x y z
#    x 3.007120 0.167370 0.130090 
#    y 0.167370 3.995210 0.233300 
#    z 0.130090 0.233300 4.026100 
# 
# 
# High freq. dielectric constant tensor:
#      x y z
#    x 1.855680 0.007070 -0.009960 
#    y 0.007070 1.850130 0.014700 
#    z -0.009960 0.014700 1.848970 
# 
# From -- ./inp_files/398376.got.cif
#   From: 2010.06.25/outbox.cif.g09.slc.cpg/sg2_200_cif.got.tgz:398376.got - 2010.06.27 13:26:56.
