data_PCOD8034990
_publ_section_title
;
Structure prediction by ZEFSAII (Michael W. Deem and Ramdas Pophale) SiO2 
 PCOD8034990
Probable space group: P -1
;
_chemical_formula_sum "Si O2"
_cell_formula_units_Z 12
_cell_length_a 15.881884
_cell_length_b 9.122120
_cell_length_c 8.377061
_cell_angle_alpha 86.318738
_cell_angle_beta 121.564833
_cell_angle_gamma 46.001449
_cell_volume 532.683973
_symmetry_space_group_name_H-M "P -1"
_symmetry_group_IT_number 2
_symmetry_cell_setting 'triclinic'
loop_
_space_group_symop_operation_xyz
x,y,z
-x,-y,-z
loop_
_atom_site_type_symbol
_atom_site_label
_atom_site_fract_x
_atom_site_fract_y
_atom_site_fract_z
Si Si1 0.864021 0.688474 0.092433
Si Si2 0.858438 0.007479 0.216869
Si Si3 0.277584 0.095908 0.415491
Si Si4 0.474254 0.550841 0.654970
Si Si5 0.601282 0.789925 0.971857
Si Si6 0.236616 0.672318 0.633476
O O1 0.086372 0.386941 0.295817
O O2 0.839799 0.857923 0.175396
O O3 0.742374 0.864281 0.797736
O O4 0.787993 0.642469 0.112132
O O5 0.840857 0.076217 0.381633
O O6 0.687119 0.313968 0.942022
O O7 0.061745 0.807922 0.366379
O O8 0.323371 0.870204 0.520748
O O9 0.454696 0.967086 0.664954
O O10 0.500000 0.500000 0.500000
O O11 0.392303 0.509129 0.663024
O O12 0.666804 0.548011 0.116642
O O13 0.500000 0.000000 0.000000
#
# Coordination Sequence:
#
# PCOD8034990 Si02
#       6
#     2   2   2   2   2   2
#     4  11  26  47  71 101 141 183 228 281 345 403
#     4  11  24  47  71 103 136 178 231 284 339 411
#     4  11  26  46  69 103 138 185 229 282 340 409
#     4  12  25  46  74  98 138 184 230 284 342 408
#     4  12  26  44  73 103 141 181 227 285 343 410
#     4  11  27  43  71 107 135 177 233 284 343 403
#
# _framework density 22.527429999999999
#
# number of rings (size 3 to 8) (size 9 to 14) (size 15 to 20)
#    0.000    0.667    3.333    3.000    7.000    2.000 
#    6.000    0.000    0.000    0.000    0.000    0.000 
#    0.000    0.000    0.000    0.000    0.000    0.000 
#
# Total GULP energy -148788.306366 kJ/mol
# GULP energy per Si atom -12399.025530 kJ/mol
# Density = 2.247616 g / cm^3
# Si number density = 22.527430 Si / 1000 Ang^3
#
#
#
# Elastic Constant Matrix: (Units=GPa)
#
#
# Indices 1 2 3 4 5 6 
#
# 1 120.0743 55.7402 56.2770 15.7907 3.4417 -4.7373
# 2 55.7402 113.1942 32.2972 1.8891 6.6828 13.0175
# 3 56.2770 32.2972 130.4374 -3.6194 15.3051 1.7457
# 4 15.7907 1.8891 -3.6194 37.5269 7.3623 0.2635
# 5 3.4417 6.6828 15.3051 7.3623 29.1886 -5.3621
# 6 -4.7373 13.0175 1.7457 0.2635 -5.3621 29.3591
#
#
#
# Elastic Compliance Matrix: (Units=1/GPa)
#
#
# Indices 1 2 3 4 5 6 
#
# 1 0.015584 -0.007015 -0.006046 -0.008074 0.006300 0.007208
# 2 -0.007015 0.013289 0.000495 0.003323 -0.004775 -0.007955
# 3 -0.006046 0.000495 0.011169 0.005014 -0.007110 -0.003203
# 4 -0.008074 0.003323 0.005014 0.032695 -0.011696 -0.005504
# 5 0.006300 -0.004775 -0.007110 -0.011696 0.043418 0.011591
# 6 0.007208 -0.007955 -0.003203 -0.005504 0.011591 0.041108
#
#
# Mechanical properties :
#
#
# Convention : Reuss Voigt Hill
#
# Bulk Modulus (GPa) = 67.07271 72.48165 69.77718
# Shear Modulus (GPa) = 26.68595 33.84102 30.26348
#
# Velocity S-wave (km/s) = 3.44553 3.88004 3.66923
# Velocity P-wave (km/s) = 6.75776 7.23310 6.99947
#
# Compressibility (1/GPa) = 0.01490919
#
# Stress axis : x y z
#
# Youngs Moduli (GPa) = 64.16801 75.25163 89.53423
#
# Poissons Ratio (x) = 0.52788 0.54137
# Poissons Ratio (y) = 0.45013 -0.04433
# Poissons Ratio (z) = 0.38799 -0.03726
#
# Static dielectric constant tensor:
#      x y z
#    x 3.983810 0.221190 0.041700 
#    y 0.221190 4.300010 -0.030170 
#    z 0.041700 -0.030170 4.351410 
# 
# 
# High freq. dielectric constant tensor:
#      x y z
#    x 1.873550 0.002170 0.009220 
#    y 0.002170 1.901550 -0.005150 
#    z 0.009220 -0.005150 1.905380 
# 
# From -- ./inp_files/160591.got.cif
#   From: 2010.06.25/outbox.cif.g09.slc.cpg/sg2_81_cif.got.tgz:160591.got - 2010.06.27 13:26:56.
