data_PCOD8034759
_publ_section_title
;
Structure prediction by ZEFSAII (Michael W. Deem and Ramdas Pophale) SiO2 
 PCOD8034759
Probable space group: P -1
;
_chemical_formula_sum "Si O2"
_cell_formula_units_Z 14
_cell_length_a 11.259905
_cell_length_b 16.534589
_cell_length_c 8.400885
_cell_angle_alpha 137.276348
_cell_angle_beta 40.534713
_cell_angle_gamma 140.125420
_cell_volume 607.162624
_symmetry_space_group_name_H-M "P -1"
_symmetry_group_IT_number 2
_symmetry_cell_setting 'triclinic'
loop_
_space_group_symop_operation_xyz
x,y,z
-x,-y,-z
loop_
_atom_site_type_symbol
_atom_site_label
_atom_site_fract_x
_atom_site_fract_y
_atom_site_fract_z
Si Si1 0.590052 0.529096 0.627743
Si Si2 0.207759 0.974618 0.629564
Si Si3 0.863844 0.395837 0.125531
Si Si4 0.815382 0.640412 0.063354
Si Si5 0.536941 0.096371 0.950237
Si Si6 0.132762 0.120601 0.422842
Si Si7 0.861299 0.784562 0.897674
O O1 0.500000 0.500000 0.500000
O O2 0.702816 0.440208 0.423676
O O3 0.407914 0.492400 0.889316
O O4 0.750757 0.687270 0.718344
O O5 0.413664 0.971249 0.352183
O O6 0.011929 0.894255 0.597648
O O7 0.107522 0.887658 0.766662
O O8 0.261751 0.130619 0.819113
O O9 0.739373 0.241422 0.970642
O O10 0.000000 0.500000 0.000000
O O11 0.009558 0.400759 0.129098
O O12 0.799928 0.740085 0.353641
O O13 0.856604 0.697325 0.927234
O O14 0.335587 0.112629 0.143886
O O15 0.500000 0.000000 0.000000
O O16 0.000000 0.000000 0.500000
#
# Coordination Sequence:
#
# PCOD8034759 Si02
#       7
#     2   2   2   2   2   2   2
#     4  12  25  47  73 101 139 190 247 291 355 431
#     4  11  24  46  69 105 148 185 237 295 362 425
#     4  12  25  42  74 110 139 185 244 295 352 427
#     4  12  23  45  71 106 145 187 238 294 358 427
#     4  12  23  41  75 110 134 185 252 291 350 431
#     4  12  21  42  76 102 138 187 240 298 353 427
#     4  11  26  46  69 103 152 192 229 301 367 421
#
# _framework density 23.058071999999999
#
# number of rings (size 3 to 8) (size 9 to 14) (size 15 to 20)
#    0.000    0.286    7.143    2.143    0.000    0.571 
#    0.000    5.714    0.000    0.000    0.000    0.000 
#    0.000    0.000    0.000    0.000    0.000    0.000 
#
# Total GULP energy -173620.130189 kJ/mol
# GULP energy per Si atom -12401.437871 kJ/mol
# Density = 2.300559 g / cm^3
# Si number density = 23.058072 Si / 1000 Ang^3
#
#
#
# Elastic Constant Matrix: (Units=GPa)
#
#
# Indices 1 2 3 4 5 6 
#
# 1 97.6506 32.0809 40.9691 -5.5808 -13.4700 -4.7549
# 2 32.0809 128.9035 21.8935 -3.5085 -0.5452 -17.5202
# 3 40.9691 21.8935 129.1255 -1.1093 -20.6886 4.7595
# 4 -5.5808 -3.5085 -1.1093 48.5368 6.5492 6.0238
# 5 -13.4700 -0.5452 -20.6886 6.5492 43.3691 -4.5237
# 6 -4.7549 -17.5202 4.7595 6.0238 -4.5237 31.6664
#
#
#
# Elastic Compliance Matrix: (Units=1/GPa)
#
#
# Indices 1 2 3 4 5 6 
#
# 1 0.012873 -0.002433 -0.003328 0.000744 0.002402 0.001289
# 2 -0.002433 0.009193 -0.001065 -0.000154 -0.000622 0.004821
# 3 -0.003328 -0.001065 0.009593 -0.000455 0.003393 -0.001960
# 4 0.000744 -0.000154 -0.000455 0.021741 -0.003748 -0.004576
# 5 0.002402 -0.000622 0.003393 -0.003748 0.026397 0.003990
# 6 0.001289 0.004821 -0.001960 -0.004576 0.003990 0.036175
#
#
# Mechanical properties :
#
#
# Convention : Reuss Voigt Hill
#
# Bulk Modulus (GPa) = 55.53807 60.61850 58.07829
# Shear Modulus (GPa) = 36.86607 42.09687 39.48147
#
# Velocity S-wave (km/s) = 4.00288 4.27744 4.14244
# Velocity P-wave (km/s) = 6.74556 7.12334 6.93702
#
# Compressibility (1/GPa) = 0.01800567
#
# Stress axis : x y z
#
# Youngs Moduli (GPa) = 77.68352 108.78250 104.24259
#
# Poissons Ratio (x) = 0.26466 0.34692
# Poissons Ratio (y) = 0.18900 0.11106
# Poissons Ratio (z) = 0.25853 0.11590
#
# Static dielectric constant tensor:
#      x y z
#    x 3.914610 0.170480 -0.220820 
#    y 0.170480 4.167130 0.124920 
#    z -0.220820 0.124920 4.279750 
# 
# 
# High freq. dielectric constant tensor:
#      x y z
#    x 1.900840 -0.006750 -0.005810 
#    y -0.006750 1.935470 -0.003770 
#    z -0.005810 -0.003770 1.912340 
# 
# From -- ./inp_files/280036.got.cif
#   From: 2010.06.25/outbox.cif.g09.slc.cpg/sg2_141_cif.got.tgz:280036.got - 2010.06.27 13:26:56.
