data_PCOD8034186
_publ_section_title
;
Structure prediction by ZEFSAII (Michael W. Deem and Ramdas Pophale) SiO2 
 PCOD8034186
Probable space group: P -1
;
_chemical_formula_sum "Si O2"
_cell_formula_units_Z 16
_cell_length_a 9.138933
_cell_length_b 12.614430
_cell_length_c 8.868628
_cell_angle_alpha 116.099316
_cell_angle_beta 95.414614
_cell_angle_gamma 56.181949
_cell_volume 747.127350
_symmetry_space_group_name_H-M "P -1"
_symmetry_group_IT_number 2
_symmetry_cell_setting 'triclinic'
loop_
_space_group_symop_operation_xyz
x,y,z
-x,-y,-z
loop_
_atom_site_type_symbol
_atom_site_label
_atom_site_fract_x
_atom_site_fract_y
_atom_site_fract_z
Si Si1 0.744891 0.865230 0.782614
Si Si2 0.421911 0.864394 0.863765
Si Si3 0.247175 0.842534 0.547664
Si Si4 0.935726 0.447823 0.331950
Si Si5 0.569854 0.565789 0.249940
Si Si6 0.416418 0.395032 0.059031
Si Si7 0.122560 0.115562 0.517027
Si Si8 0.017342 0.586791 0.185855
O O1 0.573083 0.858376 0.772468
O O2 0.770782 0.890358 0.625800
O O3 0.923886 0.723048 0.780833
O O4 0.713464 0.987161 0.969441
O O5 0.302489 0.841480 0.725045
O O6 0.517325 0.748881 0.934192
O O7 0.392127 0.691456 0.391802
O O8 0.060092 0.859641 0.544178
O O9 0.238132 0.967197 0.528004
O O10 0.732304 0.493385 0.342361
O O11 0.000000 0.500000 0.500000
O O12 0.922128 0.555118 0.278741
O O13 0.601929 0.624302 0.134151
O O14 0.557059 0.434932 0.121414
O O15 0.225635 0.521606 0.189384
O O16 0.085987 0.239078 0.710774
O O17 0.000000 0.500000 0.000000
#
# Coordination Sequence:
#
# PCOD8034186 Si02
#       8
#     2   2   2   2   2   2   2   2
#     4  11  25  45  65 100 137 174 225 279 338 400
#     4  11  26  43  70  99 134 177 226 283 331 404
#     4  11  26  45  68  99 135 181 226 274 341 396
#     4  12  24  42  68 101 131 177 227 274 338 398
#     4  11  25  44  69  99 140 179 219 280 334 406
#     4  11  24  44  67 101 135 178 226 272 343 396
#     4  11  26  47  67  97 139 178 225 278 337 410
#     4  12  24  42  69  99 133 178 225 279 334 398
#
# _framework density 21.41536
#
# number of rings (size 3 to 8) (size 9 to 14) (size 15 to 20)
#    0.000    0.750    5.000    1.500    3.500    1.500 
#    2.250    0.000    0.000    0.000    0.000    0.000 
#    0.000    0.000    0.000    0.000    0.000    0.000 
#
# Total GULP energy -198234.759749 kJ/mol
# GULP energy per Si atom -12389.672484 kJ/mol
# Density = 2.136662 g / cm^3
# Si number density = 21.415360 Si / 1000 Ang^3
#
#
#
# Elastic Constant Matrix: (Units=GPa)
#
#
# Indices 1 2 3 4 5 6 
#
# 1 86.9346 36.9621 37.2882 -1.0580 0.9451 -5.0389
# 2 36.9621 87.5470 56.4293 7.3052 -6.6103 -2.6837
# 3 37.2882 56.4293 107.6461 11.8381 16.5752 -1.8748
# 4 -1.0580 7.3052 11.8381 26.2386 -9.6874 -0.3419
# 5 0.9451 -6.6103 16.5752 -9.6874 31.8361 -1.1668
# 6 -5.0389 -2.6837 -1.8748 -0.3419 -1.1668 37.2925
#
#
#
# Elastic Compliance Matrix: (Units=1/GPa)
#
#
# Indices 1 2 3 4 5 6 
#
# 1 0.014976 -0.003979 -0.003863 0.004249 0.002094 0.001647
# 2 -0.003979 0.021612 -0.012235 0.003849 0.012176 0.000819
# 3 -0.003863 -0.012235 0.021077 -0.012654 -0.017286 -0.001000
# 4 0.004249 0.003849 -0.012654 0.051415 0.022958 0.001405
# 5 0.002094 0.012176 -0.017286 0.022958 0.049938 0.002063
# 6 0.001647 0.000819 -0.001000 0.001405 0.002063 0.027124
#
#
# Mechanical properties :
#
#
# Convention : Reuss Voigt Hill
#
# Bulk Modulus (GPa) = 57.10356 60.38744 58.74550
# Shear Modulus (GPa) = 21.53946 29.16999 25.35472
#
# Velocity S-wave (km/s) = 3.17487 3.69468 3.44459
# Velocity P-wave (km/s) = 6.33738 6.81618 6.58113
#
# Compressibility (1/GPa) = 0.01751204
#
# Stress axis : x y z
#
# Youngs Moduli (GPa) = 66.77395 46.27126 47.44461
#
# Poissons Ratio (x) = 0.18411 0.18326
# Poissons Ratio (y) = 0.26569 0.58047
# Poissons Ratio (z) = 0.25793 0.56611
#
# Static dielectric constant tensor:
#      x y z
#    x 4.038470 0.118870 -0.001070 
#    y 0.118870 3.849960 0.017310 
#    z -0.001070 0.017310 3.773910 
# 
# 
# High freq. dielectric constant tensor:
#      x y z
#    x 1.850640 0.002660 0.000570 
#    y 0.002660 1.844820 0.004020 
#    z 0.000570 0.004020 1.850540 
# 
# From -- ./inp_files/190181.got.cif
#   From: 2010.06.25/outbox.cif.g09.slc.cpg/sg2_96_cif.got.tgz:190181.got - 2010.06.27 13:26:56.
