data_PCOD8034707
_publ_section_title
;
Structure prediction by ZEFSAII (Michael W. Deem and Ramdas Pophale) SiO2 
 PCOD8034707
Probable space group: P -1
;
_chemical_formula_sum "Si O2"
_cell_formula_units_Z 16
_cell_length_a 8.890555
_cell_length_b 11.893583
_cell_length_c 17.952329
_cell_angle_alpha 151.574036
_cell_angle_beta 51.829130
_cell_angle_gamma 128.857205
_cell_volume 692.330707
_symmetry_space_group_name_H-M "P -1"
_symmetry_group_IT_number 2
_symmetry_cell_setting 'triclinic'
loop_
_space_group_symop_operation_xyz
x,y,z
-x,-y,-z
loop_
_atom_site_type_symbol
_atom_site_label
_atom_site_fract_x
_atom_site_fract_y
_atom_site_fract_z
Si Si1 0.486777 0.677475 0.914558
Si Si2 0.147269 0.790341 0.175794
Si Si3 0.177502 0.881171 0.896095
Si Si4 0.746756 0.304495 0.394225
Si Si5 0.831545 0.500558 0.203914
Si Si6 0.308733 0.078382 0.435080
Si Si7 0.336543 0.782717 0.390844
Si Si8 0.002245 0.811211 0.622865
O O1 0.380888 0.630804 0.839903
O O2 0.591483 0.463511 0.777934
O O3 0.327529 0.684771 0.031165
O O4 0.646846 0.927079 0.007608
O O5 0.985567 0.562864 0.124621
O O6 0.224434 0.994900 0.332283
O O7 0.053890 0.930149 0.221199
O O8 0.256436 0.772008 0.735152
O O9 0.098195 0.669143 0.855951
O O10 0.000000 0.000000 0.000000
O O11 0.531866 0.226622 0.449030
O O12 0.808268 0.594728 0.554311
O O13 0.894862 0.176907 0.320871
O O14 0.823977 0.753147 0.391639
O O15 0.289219 0.843106 0.356058
O O16 0.143115 0.746885 0.478656
O O17 0.500000 0.000000 0.500000
#
# Coordination Sequence:
#
# PCOD8034707 Si02
#       8
#     2   2   2   2   2   2   2   2
#     4  12  27  48  74 109 148 194 238 304 367 436
#     4  12  27  46  74 116 144 187 242 315 364 421
#     4  12  29  48  70 106 151 192 243 300 371 431
#     4  11  25  45  71 106 143 199 241 304 350 441
#     4  12  27  48  75 106 148 197 241 297 368 439
#     4  12  25  45  77 106 145 192 247 300 357 435
#     4  12  23  47  75 106 144 192 245 293 364 440
#     4  11  24  45  76 105 148 191 253 291 366 434
#
# _framework density 23.110341999999999
#
# number of rings (size 3 to 8) (size 9 to 14) (size 15 to 20)
#    0.000    0.250    5.000    2.625    7.000    3.500 
#    0.000    0.000    0.000    0.000    0.000    0.000 
#    0.000    0.000    0.000    0.000    0.000    0.000 
#
# Total GULP energy -198546.218912 kJ/mol
# GULP energy per Si atom -12409.138682 kJ/mol
# Density = 2.305774 g / cm^3
# Si number density = 23.110342 Si / 1000 Ang^3
#
#
#
# Elastic Constant Matrix: (Units=GPa)
#
#
# Indices 1 2 3 4 5 6 
#
# 1 77.5402 28.7127 4.6856 19.6863 -6.6590 -12.1937
# 2 28.7127 125.0959 18.0146 17.9851 -18.0938 -12.5077
# 3 4.6856 18.0146 53.0249 7.0174 -14.5694 -3.4351
# 4 19.6863 17.9851 7.0174 31.8796 0.1660 -3.2885
# 5 -6.6590 -18.0938 -14.5694 0.1660 44.6099 5.6497
# 6 -12.1937 -12.5077 -3.4351 -3.2885 5.6497 47.9564
#
#
#
# Elastic Compliance Matrix: (Units=1/GPa)
#
#
# Indices 1 2 3 4 5 6 
#
# 1 0.016482 -0.002132 0.001080 -0.008921 0.001613 0.002910
# 2 -0.002132 0.009827 -0.001766 -0.003721 0.002941 0.001293
# 3 0.001080 -0.001766 0.021769 -0.004466 0.006534 0.000297
# 4 -0.008921 -0.003721 -0.004466 0.039951 -0.004410 -0.000300
# 5 0.001613 0.002941 0.006534 -0.004410 0.026222 -0.001746
# 6 0.002910 0.001293 0.000297 -0.000300 -0.001746 0.022136
#
#
# Mechanical properties :
#
#
# Convention : Reuss Voigt Hill
#
# Bulk Modulus (GPa) = 23.56099 39.83186 31.69642
# Shear Modulus (GPa) = 32.01649 38.50571 35.26110
#
# Velocity S-wave (km/s) = 3.72610 4.08630 3.91035
# Velocity P-wave (km/s) = 5.35993 6.28782 5.84233
#
# Compressibility (1/GPa) = 0.04244305
#
# Stress axis : x y z
#
# Youngs Moduli (GPa) = 60.67307 101.75985 45.93675
#
# Poissons Ratio (x) = 0.21691 -0.04962
# Poissons Ratio (y) = 0.12933 0.08112
# Poissons Ratio (z) = -0.06554 0.17971
#
# Static dielectric constant tensor:
#      x y z
#    x 4.382610 -0.003000 0.096130 
#    y -0.003000 4.365300 -0.040360 
#    z 0.096130 -0.040360 4.133360 
# 
# 
# High freq. dielectric constant tensor:
#      x y z
#    x 1.926430 0.002740 0.005400 
#    y 0.002740 1.926780 0.001950 
#    z 0.005400 0.001950 1.914260 
# 
# From -- ./inp_files/298102.got.cif
#   From: 2010.06.25/outbox.cif.g09.slc.cpg/sg2_150_cif.got.tgz:298102.got - 2010.06.27 13:26:56.
