data_PCOD8034191
_publ_section_title
;
Structure prediction by ZEFSAII (Michael W. Deem and Ramdas Pophale) SiO2 
 PCOD8034191
Probable space group: P -1
;
_chemical_formula_sum "Si O2"
_cell_formula_units_Z 16
_cell_length_a 6.951517
_cell_length_b 12.882723
_cell_length_c 9.210361
_cell_angle_alpha 75.509800
_cell_angle_beta 110.411325
_cell_angle_gamma 79.376871
_cell_volume 714.133728
_symmetry_space_group_name_H-M "P -1"
_symmetry_group_IT_number 2
_symmetry_cell_setting 'triclinic'
loop_
_space_group_symop_operation_xyz
x,y,z
-x,-y,-z
loop_
_atom_site_type_symbol
_atom_site_label
_atom_site_fract_x
_atom_site_fract_y
_atom_site_fract_z
Si Si1 0.698570 0.227357 0.900383
Si Si2 0.527068 0.519969 0.167459
Si Si3 0.999225 0.284519 0.737982
Si Si4 0.602906 0.898309 0.168839
Si Si5 0.034095 0.646301 0.608835
Si Si6 0.709702 0.520669 0.630436
Si Si7 0.124390 0.842432 0.719417
Si Si8 0.303158 0.997840 0.551207
O O1 0.542326 0.350301 0.853586
O O2 0.874160 0.224760 0.828913
O O3 0.579617 0.153078 0.807106
O O4 0.795155 0.161990 0.094229
O O5 0.775079 0.471196 0.299738
O O6 0.372426 0.459002 0.232297
O O7 0.500000 0.500000 0.000000
O O8 0.948825 0.283683 0.554102
O O9 0.928181 0.415627 0.718486
O O10 0.241995 0.205299 0.848134
O O11 0.709093 0.932281 0.327473
O O12 0.500000 0.000000 0.000000
O O13 0.080033 0.723279 0.722253
O O14 0.798375 0.623806 0.566303
O O15 0.500000 0.500000 0.500000
O O16 0.905819 0.943938 0.618796
O O17 0.296800 0.872913 0.643526
O O18 0.500000 0.000000 0.500000
#
# Coordination Sequence:
#
# PCOD8034191 Si02
#       8
#     2   2   2   2   2   2   2   2
#     4  11  26  44  70 104 140 179 233 283 347 408
#     4  11  24  44  67 103 143 185 223 285 345 416
#     4  11  26  43  71 100 137 181 229 286 343 411
#     4  12  26  46  69 102 136 180 232 291 347 410
#     4  12  24  44  70 100 143 183 232 285 343 419
#     4  11  25  43  70 103 137 182 232 281 345 417
#     4  11  25  47  67 103 138 179 231 285 346 418
#     4  11  27  47  72  98 137 182 231 286 353 414
#
# _framework density 22.404765999999999
#
# number of rings (size 3 to 8) (size 9 to 14) (size 15 to 20)
#    0.000    0.750    5.000    1.125    7.000    2.000 
#    2.250    0.000    0.000    0.000    0.000    0.000 
#    0.000    0.000    0.000    0.000    0.000    0.000 
#
# Total GULP energy -198212.600927 kJ/mol
# GULP energy per Si atom -12388.287558 kJ/mol
# Density = 2.235377 g / cm^3
# Si number density = 22.404766 Si / 1000 Ang^3
#
#
#
# Elastic Constant Matrix: (Units=GPa)
#
#
# Indices 1 2 3 4 5 6 
#
# 1 134.9065 52.8074 60.5116 -7.0674 -21.7331 13.9639
# 2 52.8074 59.2945 29.5167 -2.7889 -4.1112 12.2693
# 3 60.5116 29.5167 116.1024 -22.3129 -9.5709 -5.3464
# 4 -7.0674 -2.7889 -22.3129 31.8209 -2.5796 2.7012
# 5 -21.7331 -4.1112 -9.5709 -2.5796 39.1357 -2.8969
# 6 13.9639 12.2693 -5.3464 2.7012 -2.8969 40.6725
#
#
#
# Elastic Compliance Matrix: (Units=1/GPa)
#
#
# Indices 1 2 3 4 5 6 
#
# 1 0.014469 -0.009659 -0.004788 -0.000340 0.005660 -0.002258
# 2 -0.009659 0.027725 -0.002872 -0.001553 -0.003669 -0.005583
# 3 -0.004788 -0.002872 0.013659 0.008032 0.001194 0.003857
# 4 -0.000340 -0.001553 0.008032 0.037219 0.004025 -0.000544
# 5 0.005660 -0.003669 0.001194 0.004025 0.028950 0.001115
# 6 -0.002258 -0.005583 0.003857 -0.000544 0.001115 0.027669
#
#
# Mechanical properties :
#
#
# Convention : Reuss Voigt Hill
#
# Bulk Modulus (GPa) = 47.14032 66.21944 56.67988
# Shear Modulus (GPa) = 26.12359 33.49034 29.80696
#
# Velocity S-wave (km/s) = 3.41835 3.87044 3.65140
# Velocity P-wave (km/s) = 6.05526 7.04229 6.56735
#
# Compressibility (1/GPa) = 0.02121326
#
# Stress axis : x y z
#
# Youngs Moduli (GPa) = 69.11528 36.06911 73.21427
#
# Poissons Ratio (x) = 0.34838 0.35056
# Poissons Ratio (y) = 0.66755 0.21031
# Poissons Ratio (z) = 0.33094 0.10361
#
# Static dielectric constant tensor:
#      x y z
#    x 4.502920 -0.232200 -0.175340 
#    y -0.232200 4.888810 0.172730 
#    z -0.175340 0.172730 4.356770 
# 
# 
# High freq. dielectric constant tensor:
#      x y z
#    x 1.890940 0.003390 -0.007180 
#    y 0.003390 1.875770 -0.014610 
#    z -0.007180 -0.014610 1.890960 
# 
# From -- ./inp_files/135011.got.cif
#   From: 2010.06.25/outbox.cif.g09.slc.cpg/sg2_68_cif.got.tgz:135011.got - 2010.06.27 13:26:56.
