data_PCOD8034185
_publ_section_title
;
Structure prediction by ZEFSAII (Michael W. Deem and Ramdas Pophale) SiO2 
 PCOD8034185
Probable space group: P -1
;
_chemical_formula_sum "Si O2"
_cell_formula_units_Z 14
_cell_length_a 8.446386
_cell_length_b 19.371330
_cell_length_c 11.208983
_cell_angle_alpha 31.649866
_cell_angle_beta 65.301382
_cell_angle_gamma 45.959633
_cell_volume 613.848942
_symmetry_space_group_name_H-M "P -1"
_symmetry_group_IT_number 2
_symmetry_cell_setting 'triclinic'
loop_
_space_group_symop_operation_xyz
x,y,z
-x,-y,-z
loop_
_atom_site_type_symbol
_atom_site_label
_atom_site_fract_x
_atom_site_fract_y
_atom_site_fract_z
Si Si1 0.053465 0.861745 0.310632
Si Si2 0.677554 0.088551 0.526932
Si Si3 0.283712 0.139395 0.954967
Si Si4 0.074600 0.777709 0.692141
Si Si5 0.892702 0.399490 0.501279
Si Si6 0.126292 0.452509 0.157651
Si Si7 0.571011 0.219991 0.840100
O O1 0.076856 0.772566 0.556526
O O2 0.047708 0.766963 0.339722
O O3 0.293990 0.825608 0.263976
O O4 0.792760 0.080328 0.071536
O O5 0.743714 0.207493 0.337187
O O6 0.383406 0.234391 0.393076
O O7 0.800387 0.955475 0.567851
O O8 0.775207 0.960162 0.803232
O O9 0.382274 0.199071 0.924915
O O10 0.039379 0.320217 0.697240
O O11 0.500000 0.000000 0.000000
O O12 0.167083 0.583683 0.986060
O O13 0.599367 0.566954 0.376658
O O14 0.964982 0.481974 0.272514
O O15 0.000000 0.500000 0.000000
#
# Coordination Sequence:
#
# PCOD8034185 Si02
#       7
#     2   2   2   2   2   2   2
#     4  11  24  44  67 100 140 176 223 281 338 401
#     4  11  26  48  69  99 136 184 228 274 340 402
#     4  12  22  46  72  97 138 176 227 283 334 399
#     4  11  26  46  69  98 137 186 224 274 336 411
#     4  12  25  45  70 103 133 177 228 280 342 397
#     4  12  25  44  69 102 137 174 225 280 335 406
#     4  11  25  42  68 103 135 179 223 280 342 398
#
# _framework density 22.806913999999999
#
# number of rings (size 3 to 8) (size 9 to 14) (size 15 to 20)
#    0.000    0.571    4.286    3.000    4.000    0.571 
#    5.143    0.000    0.000    0.000    0.000    0.000 
#    0.000    0.000    0.000    0.000    0.000    0.000 
#
# Total GULP energy -173624.931268 kJ/mol
# GULP energy per Si atom -12401.780805 kJ/mol
# Density = 2.275500 g / cm^3
# Si number density = 22.806914 Si / 1000 Ang^3
#
#
#
# Elastic Constant Matrix: (Units=GPa)
#
#
# Indices 1 2 3 4 5 6 
#
# 1 56.7491 8.6882 25.2337 -7.7462 -2.6318 -1.5643
# 2 8.6882 87.8367 40.9291 -20.8663 16.1252 -4.6568
# 3 25.2337 40.9291 125.8140 -2.8971 8.3738 -8.4001
# 4 -7.7462 -20.8663 -2.8971 42.0903 -9.6682 7.3205
# 5 -2.6318 16.1252 8.3738 -9.6682 42.2786 -2.0531
# 6 -1.5643 -4.6568 -8.4001 7.3205 -2.0531 25.8571
#
#
#
# Elastic Compliance Matrix: (Units=1/GPa)
#
#
# Indices 1 2 3 4 5 6 
#
# 1 0.020219 0.000534 -0.004396 0.004555 0.002910 -0.001167
# 2 0.000534 0.015891 -0.004948 0.007002 -0.003494 -0.000973
# 3 -0.004396 -0.004948 0.010647 -0.003332 -0.001104 0.003157
# 4 0.004555 0.007002 -0.003332 0.030293 0.004824 -0.007739
# 5 0.002910 -0.003494 -0.001104 0.004824 0.026484 -0.000075
# 6 -0.001167 -0.000973 0.003157 -0.007739 -0.000075 0.041639
#
#
# Mechanical properties :
#
#
# Convention : Reuss Voigt Hill
#
# Bulk Modulus (GPa) = 34.31965 46.67798 40.49882
# Shear Modulus (GPa) = 28.98482 35.08176 32.03329
#
# Velocity S-wave (km/s) = 3.56881 3.92625 3.75179
# Velocity P-wave (km/s) = 5.66237 6.40820 6.04679
#
# Compressibility (1/GPa) = 0.02913783
#
# Stress axis : x y z
#
# Youngs Moduli (GPa) = 49.45915 62.93001 93.92305
#
# Poissons Ratio (x) = -0.03362 0.41285
# Poissons Ratio (y) = -0.02642 0.46471
# Poissons Ratio (z) = 0.21741 0.31137
#
# Static dielectric constant tensor:
#      x y z
#    x 4.202040 -0.066740 -0.228290 
#    y -0.066740 4.332900 0.021380 
#    z -0.228290 0.021380 4.182930 
# 
# 
# High freq. dielectric constant tensor:
#      x y z
#    x 1.894380 -0.009310 -0.016670 
#    y -0.009310 1.909020 -0.003040 
#    z -0.016670 -0.003040 1.907950 
# 
# From -- ./inp_files/273435.got.cif
#   From: 2010.06.25/outbox.cif.g09.slc.cpg/sg2_137_cif.got.tgz:273435.got - 2010.06.27 13:26:56.
