data_PCOD8034748
_publ_section_title
;
Structure prediction by ZEFSAII (Michael W. Deem and Ramdas Pophale) SiO2 
 PCOD8034748
Probable space group: P -1
;
_chemical_formula_sum "Si O2"
_cell_formula_units_Z 16
_cell_length_a 17.858541
_cell_length_b 9.139248
_cell_length_c 12.304086
_cell_angle_alpha 60.240390
_cell_angle_beta 32.202709
_cell_angle_gamma 46.031076
_cell_volume 748.195653
_symmetry_space_group_name_H-M "P -1"
_symmetry_group_IT_number 2
_symmetry_cell_setting 'triclinic'
loop_
_space_group_symop_operation_xyz
x,y,z
-x,-y,-z
loop_
_atom_site_type_symbol
_atom_site_label
_atom_site_fract_x
_atom_site_fract_y
_atom_site_fract_z
Si Si1 0.686198 0.073790 0.104811
Si Si2 0.144768 0.761884 0.880814
Si Si3 0.892856 0.686953 0.150129
Si Si4 0.173833 0.481698 0.314808
Si Si5 0.956784 0.079194 0.643427
Si Si6 0.340505 0.166502 0.417019
Si Si7 0.270790 0.869913 0.496871
Si Si8 0.615495 0.480345 0.130036
O O1 0.545052 0.050321 0.232518
O O2 0.592723 0.319249 0.154575
O O3 0.769980 0.916417 0.161911
O O4 0.846745 0.001611 0.854807
O O5 0.220358 0.742892 0.675719
O O6 0.303628 0.636958 0.813359
O O7 0.049738 0.651495 0.039842
O O8 0.000000 0.000000 0.000000
O O9 0.770567 0.689040 0.393676
O O10 0.000000 0.500000 0.000000
O O11 0.148815 0.675489 0.334201
O O12 0.300193 0.291572 0.309387
O O13 0.000000 0.500000 0.500000
O O14 0.263855 0.465398 0.095941
O O15 0.000000 0.000000 0.500000
O O16 0.116230 0.019047 0.548017
O O17 0.306659 0.994222 0.493704
O O18 0.434953 0.704443 0.283731
#
# Coordination Sequence:
#
# PCOD8034748 Si02
#       8
#     2   2   2   2   2   2   2   2
#     4  11  26  47  66 101 139 177 229 286 340 406
#     4  12  21  46  72  96 137 184 230 282 337 410
#     4  12  27  43  71 102 140 179 229 281 354 403
#     4  11  24  46  68  99 139 183 228 278 342 408
#     4  11  26  45  72  97 138 185 229 277 344 409
#     4  12  27  44  70 102 142 177 229 291 338 404
#     4  12  25  45  72 104 133 184 233 281 341 408
#     4  11  26  42  71 101 138 181 232 281 343 402
#
# _framework density 21.384779999999999
#
# number of rings (size 3 to 8) (size 9 to 14) (size 15 to 20)
#    0.000    0.500    5.000    2.250    8.750    2.500 
#    0.000    0.000    0.000    0.000    0.000    0.000 
#    0.000    0.000    0.000    0.000    0.000    0.000 
#
# Total GULP energy -198302.263083 kJ/mol
# GULP energy per Si atom -12393.891443 kJ/mol
# Density = 2.133611 g / cm^3
# Si number density = 21.384780 Si / 1000 Ang^3
#
#
#
# Elastic Constant Matrix: (Units=GPa)
#
#
# Indices 1 2 3 4 5 6 
#
# 1 105.7535 9.6814 40.1830 0.2356 -8.2436 1.2131
# 2 9.6814 64.1094 31.7729 4.5501 6.4967 -3.0955
# 3 40.1830 31.7729 114.1478 6.3897 -2.0946 8.7941
# 4 0.2356 4.5501 6.3897 36.1956 1.5446 8.5970
# 5 -8.2436 6.4967 -2.0946 1.5446 43.7969 -0.7821
# 6 1.2131 -3.0955 8.7941 8.5970 -0.7821 32.9884
#
#
#
# Elastic Compliance Matrix: (Units=1/GPa)
#
#
# Indices 1 2 3 4 5 6 
#
# 1 0.011093 0.000102 -0.003967 0.000392 0.001880 0.000601
# 2 0.000102 0.018955 -0.005532 -0.002172 -0.002914 0.003747
# 3 -0.003967 -0.005532 0.012005 -0.000617 0.000609 -0.003398
# 4 0.000392 -0.002172 -0.000617 0.029911 -0.000829 -0.007869
# 5 0.001880 -0.002914 0.000609 -0.000829 0.023682 0.000272
# 6 0.000601 0.003747 -0.003398 -0.007869 0.000272 0.033606
#
#
# Mechanical properties :
#
#
# Convention : Reuss Voigt Hill
#
# Bulk Modulus (GPa) = 42.99815 49.69836 46.34825
# Shear Modulus (GPa) = 32.09238 36.08773 34.09005
#
# Velocity S-wave (km/s) = 3.87810 4.11243 3.99698
# Velocity P-wave (km/s) = 6.34062 6.77052 6.55909
#
# Compressibility (1/GPa) = 0.02325682
#
# Stress axis : x y z
#
# Youngs Moduli (GPa) = 90.14887 52.75566 83.30186
#
# Poissons Ratio (x) = -0.00536 0.33046
# Poissons Ratio (y) = -0.00916 0.46087
# Poissons Ratio (z) = 0.35762 0.29187
#
# Static dielectric constant tensor:
#      x y z
#    x 3.521840 -0.671610 -0.106000 
#    y -0.671610 2.330360 -0.404540 
#    z -0.106000 -0.404540 3.910100 
# 
# 
# High freq. dielectric constant tensor:
#      x y z
#    x 1.845440 -0.004150 -0.000660 
#    y -0.004150 1.835480 -0.006000 
#    z -0.000660 -0.006000 1.853320 
# 
# From -- ./inp_files/207522.got.cif
#   From: 2010.06.25/outbox.cif.g09.slc.cpg/sg2_104_cif.got.tgz:207522.got - 2010.06.27 13:26:56.
