data_PCOD8034898
_publ_section_title
;
Structure prediction by ZEFSAII (Michael W. Deem and Ramdas Pophale) SiO2 
 PCOD8034898
Probable space group: P -1
;
_chemical_formula_sum "Si O2"
_cell_formula_units_Z 16
_cell_length_a 9.980704
_cell_length_b 15.740573
_cell_length_c 15.715634
_cell_angle_alpha 146.764937
_cell_angle_beta 144.139288
_cell_angle_gamma 34.317697
_cell_volume 703.412349
_symmetry_space_group_name_H-M "P -1"
_symmetry_group_IT_number 2
_symmetry_cell_setting 'triclinic'
loop_
_space_group_symop_operation_xyz
x,y,z
-x,-y,-z
loop_
_atom_site_type_symbol
_atom_site_label
_atom_site_fract_x
_atom_site_fract_y
_atom_site_fract_z
Si Si1 0.862212 0.687641 0.628674
Si Si2 0.022316 0.764637 0.378511
Si Si3 0.671641 0.314556 0.045034
Si Si4 0.504099 0.181680 0.305613
Si Si5 0.258508 0.695884 0.119726
Si Si6 0.366761 0.198718 0.916356
Si Si7 0.769267 0.629692 0.836209
Si Si8 0.411182 0.946923 0.494985
O O1 0.710559 0.675202 0.623766
O O2 0.663514 0.833668 0.585979
O O3 0.000000 0.500000 0.500000
O O4 0.077045 0.742814 0.815334
O O5 0.920419 0.759574 0.226854
O O6 0.217355 0.847508 0.544263
O O7 0.162744 0.566716 0.319190
O O8 0.778561 0.879400 0.407878
O O9 0.520374 0.523277 0.131663
O O10 0.744932 0.237582 0.922919
O O11 0.501426 0.238009 0.938605
O O12 0.457542 0.246727 0.239640
O O13 0.480365 0.003398 0.148376
O O14 0.250675 0.842255 0.302652
O O15 0.014170 0.663883 0.982350
O O16 0.345343 0.323663 0.088667
O O17 0.500000 0.000000 0.500000
#
# Coordination Sequence:
#
# PCOD8034898 Si02
#       8
#     2   2   2   2   2   2   2   2
#     4  12  27  45  75 107 150 193 245 302 375 434
#     4  12  27  49  74 109 149 194 250 304 370 444
#     4  11  25  46  76 106 150 191 251 303 366 444
#     4  12  28  49  73 110 154 192 245 316 365 437
#     4  11  24  46  74 106 150 196 240 309 368 440
#     4  12  26  47  77 109 141 199 252 302 371 438
#     4  12  27  47  77 108 148 199 250 299 375 442
#     4  12  28  46  75 109 147 196 246 304 374 440
#
# _framework density 22.746259999999999
#
# number of rings (size 3 to 8) (size 9 to 14) (size 15 to 20)
#    0.000    0.250    5.000    3.000    7.000    2.500 
#    0.000    0.000    0.000    0.000    0.000    0.000 
#    0.000    0.000    0.000    0.000    0.000    0.000 
#
# Total GULP energy -198499.481663 kJ/mol
# GULP energy per Si atom -12406.217604 kJ/mol
# Density = 2.269449 g / cm^3
# Si number density = 22.746260 Si / 1000 Ang^3
#
#
#
# Elastic Constant Matrix: (Units=GPa)
#
#
# Indices 1 2 3 4 5 6 
#
# 1 104.1741 27.1700 33.4563 8.4819 -7.2288 -3.3567
# 2 27.1700 104.7419 47.1643 9.7232 -9.9513 1.5999
# 3 33.4563 47.1643 119.8843 -5.1749 -7.2651 -1.2998
# 4 8.4819 9.7232 -5.1749 43.4658 -1.2657 0.6666
# 5 -7.2288 -9.9513 -7.2651 -1.2657 35.5085 -2.3457
# 6 -3.3567 1.5999 -1.2998 0.6666 -2.3457 37.0127
#
#
#
# Elastic Compliance Matrix: (Units=1/GPa)
#
#
# Indices 1 2 3 4 5 6 
#
# 1 0.011086 -0.001429 -0.002530 -0.002123 0.001336 0.001101
# 2 -0.001429 0.012430 -0.004497 -0.002966 0.002125 -0.000637
# 3 -0.002530 -0.004497 0.010978 0.002819 0.000593 0.000337
# 4 -0.002123 -0.002966 0.002819 0.024430 0.000158 -0.000395
# 5 0.001336 0.002125 0.000593 0.000158 0.029282 0.001903
# 6 0.001101 -0.000637 0.000337 -0.000395 0.001903 0.027285
#
#
# Mechanical properties :
#
#
# Convention : Reuss Voigt Hill
#
# Bulk Modulus (GPa) = 56.88220 60.48684 58.68452
# Shear Modulus (GPa) = 36.16239 37.93138 37.04688
#
# Velocity S-wave (km/s) = 3.99158 4.08804 4.04010
# Velocity P-wave (km/s) = 6.80479 6.99518 6.90064
#
# Compressibility (1/GPa) = 0.01758019
#
# Stress axis : x y z
#
# Youngs Moduli (GPa) = 90.20675 80.45021 91.09001
#
# Poissons Ratio (x) = 0.11498 0.23047
# Poissons Ratio (y) = 0.12892 0.40968
# Poissons Ratio (z) = 0.22824 0.36182
#
# Static dielectric constant tensor:
#      x y z
#    x 4.085140 -0.014430 -0.138970 
#    y -0.014430 4.179140 -0.101140 
#    z -0.138970 -0.101140 4.345740 
# 
# 
# High freq. dielectric constant tensor:
#      x y z
#    x 1.899050 0.001850 -0.007220 
#    y 0.001850 1.903730 -0.004560 
#    z -0.007220 -0.004560 1.911940 
# 
# From -- ./inp_files/505644.got.cif
#   From: 2010.06.25/outbox.cif.g09.slc.cpg/sg2_253_cif.got.tgz:505644.got - 2010.06.27 13:26:56.
