data_PCOD8034833
_publ_section_title
;
Structure prediction by ZEFSAII (Michael W. Deem and Ramdas Pophale) SiO2 
 PCOD8034833
Probable space group: P -1
;
_chemical_formula_sum "Si O2"
_cell_formula_units_Z 16
_cell_length_a 11.275547
_cell_length_b 12.273489
_cell_length_c 8.862000
_cell_angle_alpha 128.693896
_cell_angle_beta 61.115749
_cell_angle_gamma 88.057319
_cell_volume 729.921041
_symmetry_space_group_name_H-M "P -1"
_symmetry_group_IT_number 2
_symmetry_cell_setting 'triclinic'
loop_
_space_group_symop_operation_xyz
x,y,z
-x,-y,-z
loop_
_atom_site_type_symbol
_atom_site_label
_atom_site_fract_x
_atom_site_fract_y
_atom_site_fract_z
Si Si1 0.394499 0.452240 0.625131
Si Si2 0.387581 0.187164 0.212400
Si Si3 0.061533 0.942348 0.748494
Si Si4 0.610848 0.636268 0.923364
Si Si5 0.054728 0.255569 0.539807
Si Si6 0.383448 0.672091 0.343789
Si Si7 0.043717 0.737287 0.064546
Si Si8 0.080714 0.419904 0.221179
O O1 0.500000 0.500000 0.500000
O O2 0.384369 0.297197 0.446260
O O3 0.473675 0.388593 0.681898
O O4 0.223113 0.607944 0.876641
O O5 0.442185 0.256499 0.100536
O O6 0.219386 0.203357 0.315482
O O7 0.500000 0.000000 0.000000
O O8 0.247036 0.855780 0.591887
O O9 0.025230 0.815082 0.580980
O O10 0.979874 0.090668 0.813904
O O11 0.000000 0.000000 0.000000
O O12 0.693549 0.442963 0.679682
O O13 0.732454 0.680635 0.965263
O O14 0.455926 0.669270 0.134010
O O15 0.061882 0.220563 0.683590
O O16 0.952271 0.445925 0.765121
O O17 0.980913 0.689667 0.912849
O O18 0.000000 0.500000 0.500000
#
# Coordination Sequence:
#
# PCOD8034833 Si02
#       8
#     2   2   2   2   2   2   2   2
#     4  12  25  47  73 103 145 190 238 290 361 435
#     4  12  29  45  72 105 148 187 235 297 367 426
#     4  12  28  47  73 106 143 190 245 296 358 426
#     4  11  24  46  72 102 142 187 236 293 360 429
#     4  12  26  47  71 102 145 189 241 295 360 424
#     4  11  26  44  75 105 139 190 239 295 354 429
#     4  12  28  45  74 107 143 191 242 300 353 430
#     4  12  22  45  74 103 137 187 241 291 353 427
#
# _framework density 21.920178
#
# number of rings (size 3 to 8) (size 9 to 14) (size 15 to 20)
#    0.000    0.250    5.000    3.000    8.750    0.000 
#    0.000    1.250    0.000    0.000    0.000    0.000 
#    0.000    0.000    0.000    0.000    0.000    0.000 
#
# Total GULP energy -198231.669257 kJ/mol
# GULP energy per Si atom -12389.479329 kJ/mol
# Density = 2.187029 g / cm^3
# Si number density = 21.920178 Si / 1000 Ang^3
#
#
#
# Elastic Constant Matrix: (Units=GPa)
#
#
# Indices 1 2 3 4 5 6 
#
# 1 110.8328 23.2377 33.3370 7.4284 -11.1625 -9.8457
# 2 23.2377 131.3331 54.6572 -7.0543 -14.2256 -7.2365
# 3 33.3370 54.6572 91.8061 10.3806 -13.5683 -13.9045
# 4 7.4284 -7.0543 10.3806 45.7976 -10.8672 -0.2388
# 5 -11.1625 -14.2256 -13.5683 -10.8672 24.3428 -4.4618
# 6 -9.8457 -7.2365 -13.9045 -0.2388 -4.4618 30.6731
#
#
#
# Elastic Compliance Matrix: (Units=1/GPa)
#
#
# Indices 1 2 3 4 5 6 
#
# 1 0.010493 -0.000204 -0.002748 -0.000262 0.003517 0.002584
# 2 -0.000204 0.011004 -0.006165 0.004292 0.004906 0.000483
# 3 -0.002748 -0.006165 0.017566 -0.003367 0.004574 0.006266
# 4 -0.000262 0.004292 -0.003367 0.026276 0.012502 0.001425
# 5 0.003517 0.004906 0.004574 0.012502 0.056001 0.012603
# 6 0.002584 0.000483 0.006266 0.001425 0.012603 0.038230
#
#
# Mechanical properties :
#
#
# Convention : Reuss Voigt Hill
#
# Bulk Modulus (GPa) = 48.00539 61.82622 54.91580
# Shear Modulus (GPa) = 27.06399 35.01204 31.03801
#
# Velocity S-wave (km/s) = 3.51759 4.00090 3.76700
# Velocity P-wave (km/s) = 6.20044 7.04339 6.63532
#
# Compressibility (1/GPa) = 0.02083100
#
# Stress axis : x y z
#
# Youngs Moduli (GPa) = 95.29873 90.87317 56.92737
#
# Poissons Ratio (x) = 0.01850 0.15645
# Poissons Ratio (y) = 0.01940 0.35093
# Poissons Ratio (z) = 0.26191 0.56019
#
# Static dielectric constant tensor:
#      x y z
#    x 3.345210 0.941640 0.338610 
#    y 0.941640 3.202070 -0.212370 
#    z 0.338610 -0.212370 3.797920 
# 
# 
# High freq. dielectric constant tensor:
#      x y z
#    x 1.872760 -0.003770 -0.000150 
#    y -0.003770 1.877970 -0.003680 
#    z -0.000150 -0.003680 1.856600 
# 
# From -- ./inp_files/263329.got.cif
#   From: 2010.06.25/outbox.cif.g09.slc.cpg/sg2_132_cif.got.tgz:263329.got - 2010.06.27 13:26:56.
