data_PCOD8034962
_publ_section_title
;
Structure prediction by ZEFSAII (Michael W. Deem and Ramdas Pophale) SiO2 
 PCOD8034962
Probable space group: P -1
;
_chemical_formula_sum "Si O2"
_cell_formula_units_Z 14
_cell_length_a 13.660218
_cell_length_b 11.823767
_cell_length_c 14.688867
_cell_angle_alpha 28.044465
_cell_angle_beta 138.444288
_cell_angle_gamma 119.353411
_cell_volume 619.947497
_symmetry_space_group_name_H-M "P -1"
_symmetry_group_IT_number 2
_symmetry_cell_setting 'triclinic'
loop_
_space_group_symop_operation_xyz
x,y,z
-x,-y,-z
loop_
_atom_site_type_symbol
_atom_site_label
_atom_site_fract_x
_atom_site_fract_y
_atom_site_fract_z
Si Si1 0.423749 0.274957 0.313038
Si Si2 0.991541 0.757511 0.259804
Si Si3 0.102678 0.883987 0.891963
Si Si4 0.146643 0.867872 0.621030
Si Si5 0.473664 0.809478 0.187391
Si Si6 0.309696 0.240475 0.458925
Si Si7 0.293982 0.713208 0.399155
O O1 0.359489 0.226767 0.398452
O O2 0.569718 0.347313 0.383249
O O3 0.500000 0.000000 0.500000
O O4 0.271105 0.532173 0.965715
O O5 0.163300 0.625236 0.410018
O O6 0.000000 0.500000 0.500000
O O7 0.979596 0.992317 0.154463
O O8 0.814761 0.946073 0.942403
O O9 0.273404 0.897229 0.981559
O O10 0.147666 0.562222 0.141759
O O11 0.945136 0.094397 0.565792
O O12 0.254554 0.017819 0.595192
O O13 0.000000 0.000000 0.500000
O O14 0.524592 0.846098 0.298728
O O15 0.604763 0.476207 0.485501
O O16 0.500000 0.000000 0.000000
#
# Coordination Sequence:
#
# PCOD8034962 Si02
#       7
#     2   2   2   2   2   2   2
#     4  12  29  48  72 104 152 195 245 301 367 442
#     4  11  26  43  70 105 144 183 237 296 372 427
#     4  12  24  46  73 106 142 190 243 302 360 434
#     4  12  27  47  72 109 145 189 252 300 364 442
#     4  12  23  46  79 108 140 184 245 306 360 437
#     4  12  25  47  78 104 145 195 246 302 367 435
#     4  11  24  47  68 105 141 183 237 297 360 434
#
# _framework density 22.582557000000001
#
# number of rings (size 3 to 8) (size 9 to 14) (size 15 to 20)
#    0.000    0.286    4.286    4.286    4.000    1.714 
#    0.000    0.000    0.000    0.000    0.000    0.000 
#    0.000    0.000    0.000    0.000    0.000    0.000 
#
# Total GULP energy -173658.111044 kJ/mol
# GULP energy per Si atom -12404.150789 kJ/mol
# Density = 2.253116 g / cm^3
# Si number density = 22.582557 Si / 1000 Ang^3
#
#
#
# Elastic Constant Matrix: (Units=GPa)
#
#
# Indices 1 2 3 4 5 6 
#
# 1 79.2322 45.4788 36.8916 -5.9089 -3.5852 3.0084
# 2 45.4788 110.9325 47.8343 1.3133 8.8700 -7.1016
# 3 36.8916 47.8343 145.8719 1.8270 -8.2417 5.2018
# 4 -5.9089 1.3133 1.8270 42.6637 3.4111 -0.0206
# 5 -3.5852 8.8700 -8.2417 3.4111 41.0549 -3.2984
# 6 3.0084 -7.1016 5.2018 -0.0206 -3.2984 43.2460
#
#
#
# Elastic Compliance Matrix: (Units=1/GPa)
#
#
# Indices 1 2 3 4 5 6 
#
# 1 0.017844 -0.006719 -0.002149 0.002593 0.002209 -0.001917
# 2 -0.006719 0.013583 -0.003059 -0.000910 -0.003837 0.002773
# 3 -0.002149 -0.003059 0.008577 -0.000744 0.002159 -0.001220
# 4 0.002593 -0.000910 -0.000744 0.023998 -0.001749 -0.000362
# 5 0.002209 -0.003837 0.002159 -0.001749 0.026034 0.000941
# 6 -0.001917 0.002773 -0.001220 -0.000362 0.000941 0.023931
#
#
# Mechanical properties :
#
#
# Convention : Reuss Voigt Hill
#
# Bulk Modulus (GPa) = 61.91911 66.27177 64.09544
# Shear Modulus (GPa) = 34.91501 39.11505 37.01503
#
# Velocity S-wave (km/s) = 3.93632 4.16636 4.05297
# Velocity P-wave (km/s) = 6.93816 7.24947 7.09552
#
# Compressibility (1/GPa) = 0.01615010
#
# Stress axis : x y z
#
# Youngs Moduli (GPa) = 56.03972 73.61952 116.59350
#
# Poissons Ratio (x) = 0.49465 0.25055
# Poissons Ratio (y) = 0.37653 0.35669
# Poissons Ratio (z) = 0.12043 0.22522
#
# Static dielectric constant tensor:
#      x y z
#    x 3.412940 -0.511370 -0.899320 
#    y -0.511370 3.934430 -0.476810 
#    z -0.899320 -0.476810 3.106530 
# 
# 
# High freq. dielectric constant tensor:
#      x y z
#    x 1.898660 -0.004620 -0.004450 
#    y -0.004620 1.887510 0.006440 
#    z -0.004450 0.006440 1.909630 
# 
# From -- ./inp_files/451734.got.cif
#   From: 2010.06.25/outbox.cif.g09.slc.cpg/sg2_226_cif.got.tgz:451734.got - 2010.06.27 13:26:56.
