data_PCOD8034414
_publ_section_title
;
Structure prediction by ZEFSAII (Michael W. Deem and Ramdas Pophale) SiO2 
 PCOD8034414
Probable space group: P -1
;
_chemical_formula_sum "Si O2"
_cell_formula_units_Z 16
_cell_length_a 11.938336
_cell_length_b 8.282683
_cell_length_c 13.378703
_cell_angle_alpha 49.279583
_cell_angle_beta 102.636684
_cell_angle_gamma 130.643207
_cell_volume 710.217269
_symmetry_space_group_name_H-M "P -1"
_symmetry_group_IT_number 2
_symmetry_cell_setting 'triclinic'
loop_
_space_group_symop_operation_xyz
x,y,z
-x,-y,-z
loop_
_atom_site_type_symbol
_atom_site_label
_atom_site_fract_x
_atom_site_fract_y
_atom_site_fract_z
Si Si1 0.872750 0.659844 0.136200
Si Si2 0.804152 0.005538 0.667458
Si Si3 0.710399 0.758703 0.371101
Si Si4 0.395322 0.482972 0.341624
Si Si5 0.000208 0.581786 0.857782
Si Si6 0.677276 0.746408 0.962277
Si Si7 0.343923 0.838124 0.103552
Si Si8 0.160050 0.476991 0.582929
O O1 0.846957 0.587483 0.276114
O O2 0.931459 0.510988 0.164635
O O3 0.718172 0.569485 0.092158
O O4 0.000000 0.000000 0.000000
O O5 0.764774 0.197196 0.553823
O O6 0.991884 0.222076 0.597661
O O7 0.689657 0.711901 0.696605
O O8 0.780806 0.925415 0.812267
O O9 0.586526 0.706870 0.290108
O O10 0.664529 0.729412 0.489941
O O11 0.712343 0.512131 0.447536
O O12 0.885077 0.070793 0.264573
O O13 0.362223 0.694909 0.256837
O O14 0.823002 0.441780 0.864317
O O15 0.000000 0.500000 0.000000
O O16 0.686004 0.956398 0.954799
O O17 0.500000 0.500000 0.000000
O O18 0.500000 0.000000 0.000000
#
# Coordination Sequence:
#
# PCOD8034414 Si02
#       8
#     2   2   2   2   2   2   2   2
#     4  12  24  46  70 104 139 182 233 282 348 411
#     4  11  24  46  70 102 134 181 235 284 347 407
#     4  11  26  45  68 101 138 184 228 283 348 410
#     4  11  26  45  67 100 143 178 230 285 345 415
#     4  12  26  43  72 100 138 183 231 284 341 413
#     4  12  28  44  70 103 143 184 226 288 346 412
#     4  12  26  45  69 102 141 180 228 285 347 410
#     4  11  24  44  74  99 135 181 236 286 340 416
#
# _framework density 22.528317999999999
#
# number of rings (size 3 to 8) (size 9 to 14) (size 15 to 20)
#    0.000    0.500    2.500    4.500    8.750    4.500 
#    0.000    0.000    0.000    0.000    0.000    0.000 
#    0.000    0.000    0.000    0.000    0.000    0.000 
#
# Total GULP energy -198305.844249 kJ/mol
# GULP energy per Si atom -12394.115266 kJ/mol
# Density = 2.247704 g / cm^3
# Si number density = 22.528318 Si / 1000 Ang^3
#
#
#
# Elastic Constant Matrix: (Units=GPa)
#
#
# Indices 1 2 3 4 5 6 
#
# 1 124.7004 42.2381 21.7622 5.1841 18.4540 15.5384
# 2 42.2381 97.8772 29.6272 8.3561 -1.4537 18.7868
# 3 21.7622 29.6272 94.0642 5.8713 15.1331 7.3029
# 4 5.1841 8.3561 5.8713 36.5026 4.4297 -3.2578
# 5 18.4540 -1.4537 15.1331 4.4297 42.2575 3.0184
# 6 15.5384 18.7868 7.3029 -3.2578 3.0184 49.7293
#
#
#
# Elastic Compliance Matrix: (Units=1/GPa)
#
#
# Indices 1 2 3 4 5 6 
#
# 1 0.010305 -0.004179 -0.000244 -0.000046 -0.004456 -0.001338
# 2 -0.004179 0.014215 -0.003700 -0.002933 0.004230 -0.003970
# 3 -0.000244 -0.003700 0.012621 -0.000620 -0.004465 -0.000149
# 4 -0.000046 -0.002933 -0.000620 0.028845 -0.003118 0.003293
# 5 -0.004456 0.004230 -0.004465 -0.003118 0.027785 -0.001441
# 6 -0.001338 -0.003970 -0.000149 0.003293 -0.001441 0.022352
#
#
# Mechanical properties :
#
#
# Convention : Reuss Voigt Hill
#
# Bulk Modulus (GPa) = 47.85474 55.98853 51.92163
# Shear Modulus (GPa) = 35.88471 40.56549 38.22510
#
# Velocity S-wave (km/s) = 3.99541 4.24800 4.12364
# Velocity P-wave (km/s) = 6.52476 6.99766 6.76534
#
# Compressibility (1/GPa) = 0.02089657
#
# Stress axis : x y z
#
# Youngs Moduli (GPa) = 97.03702 70.34646 79.23007
#
# Poissons Ratio (x) = 0.29395 0.01936
# Poissons Ratio (y) = 0.40548 0.29314
# Poissons Ratio (z) = 0.02371 0.26027
#
# Static dielectric constant tensor:
#      x y z
#    x 3.339360 0.361320 -0.313680 
#    y 0.361320 4.067190 0.144650 
#    z -0.313680 0.144650 3.562770 
# 
# 
# High freq. dielectric constant tensor:
#      x y z
#    x 1.902300 0.012580 0.011250 
#    y 0.012580 1.890470 0.001600 
#    z 0.011250 0.001600 1.901080 
# 
# From -- ./inp_files/405611.got.cif
#   From: 2010.06.25/outbox.cif.g09.slc.cpg/sg2_203_cif.got.tgz:405611.got - 2010.06.27 13:26:56.
