data_PCOD8034421
_publ_section_title
;
Structure prediction by ZEFSAII (Michael W. Deem and Ramdas Pophale) SiO2 
 PCOD8034421
Probable space group: P -1
;
_chemical_formula_sum "Si O2"
_cell_formula_units_Z 16
_cell_length_a 19.502204
_cell_length_b 8.377948
_cell_length_c 14.398784
_cell_angle_alpha 124.441938
_cell_angle_beta 20.292268
_cell_angle_gamma 126.118402
_cell_volume 658.408105
_symmetry_space_group_name_H-M "P -1"
_symmetry_group_IT_number 2
_symmetry_cell_setting 'triclinic'
loop_
_space_group_symop_operation_xyz
x,y,z
-x,-y,-z
loop_
_atom_site_type_symbol
_atom_site_label
_atom_site_fract_x
_atom_site_fract_y
_atom_site_fract_z
Si Si1 0.692284 0.482771 0.356730
Si Si2 0.900212 0.914078 0.306758
Si Si3 0.178053 0.781845 0.617468
Si Si4 0.232828 0.460904 0.926794
Si Si5 0.279923 0.899136 0.716726
Si Si6 0.575035 0.554468 0.822261
Si Si7 0.810328 0.396601 0.771894
Si Si8 0.150426 0.034010 0.406972
O O1 0.771040 0.706733 0.364700
O O2 0.451268 0.416479 0.655274
O O3 0.751051 0.433468 0.160131
O O4 0.783753 0.336940 0.258477
O O5 0.946900 0.906595 0.354156
O O6 0.781168 0.091002 0.488475
O O7 0.115110 0.990447 0.010303
O O8 0.276437 0.932762 0.622263
O O9 0.267006 0.583228 0.445919
O O10 0.939342 0.734569 0.929174
O O11 0.152976 0.570286 0.152973
O O12 0.500000 0.000000 0.500000
O O13 0.668567 0.785954 0.785350
O O14 0.500000 0.500000 0.000000
O O15 0.386895 0.518863 0.978158
O O16 0.000000 0.500000 0.500000
O O17 0.766374 0.161302 0.739126
O O18 0.000000 0.000000 0.500000
#
# Coordination Sequence:
#
# PCOD8034421 Si02
#       8
#     2   2   2   2   2   2   2   2
#     4  11  26  45  75 108 147 198 242 316 369 448
#     4  12  26  48  74 109 149 195 252 301 373 438
#     4  12  26  47  73 106 149 196 243 307 366 443
#     4  11  24  44  75 105 150 188 251 299 381 432
#     4  12  27  44  70 107 150 193 247 301 374 437
#     4  12  27  49  74 106 151 198 248 305 374 440
#     4  12  26  49  77 111 149 196 251 313 372 448
#     4  12  27  46  77 112 146 197 247 309 370 445
#
# _framework density 24.301037000000001
#
# number of rings (size 3 to 8) (size 9 to 14) (size 15 to 20)
#    0.000    0.250    1.250    7.875    7.000    3.000 
#    0.000    1.250    0.000    0.000    0.000    0.000 
#    0.000    0.000    0.000    0.000    0.000    0.000 
#
# Total GULP energy -198281.960123 kJ/mol
# GULP energy per Si atom -12392.622508 kJ/mol
# Density = 2.424573 g / cm^3
# Si number density = 24.301037 Si / 1000 Ang^3
#
#
#
# Elastic Constant Matrix: (Units=GPa)
#
#
# Indices 1 2 3 4 5 6 
#
# 1 174.0354 47.3022 60.6542 -7.6353 19.7794 12.6084
# 2 47.3022 129.8780 50.7944 -3.6506 -4.3571 -14.0658
# 3 60.6542 50.7944 112.7079 -12.2815 5.9803 5.6104
# 4 -7.6353 -3.6506 -12.2815 33.1742 2.7330 -5.6399
# 5 19.7794 -4.3571 5.9803 2.7330 53.9141 -1.7564
# 6 12.6084 -14.0658 5.6104 -5.6399 -1.7564 45.5157
#
#
#
# Elastic Compliance Matrix: (Units=1/GPa)
#
#
# Indices 1 2 3 4 5 6 
#
# 1 0.007864 -0.002048 -0.003004 0.000276 -0.002813 -0.002515
# 2 -0.002048 0.010558 -0.004017 -0.000233 0.002205 0.004381
# 3 -0.003004 -0.004017 0.012796 0.003403 -0.000866 -0.001598
# 4 0.000276 -0.000233 0.003403 0.032176 -0.002020 0.003341
# 5 -0.002813 0.002205 -0.000866 -0.002020 0.020025 0.002090
# 6 -0.002515 0.004381 -0.001598 0.003341 0.002090 0.024713
#
#
# Mechanical properties :
#
#
# Convention : Reuss Voigt Hill
#
# Bulk Modulus (GPa) = 76.45374 81.56922 79.01148
# Shear Modulus (GPa) = 38.27615 43.71216 40.99416
#
# Velocity S-wave (km/s) = 3.97304 4.24580 4.11168
# Velocity P-wave (km/s) = 7.25094 7.59439 7.42465
#
# Compressibility (1/GPa) = 0.01307981
#
# Stress axis : x y z
#
# Youngs Moduli (GPa) = 127.16606 94.71263 78.15042
#
# Poissons Ratio (x) = 0.19398 0.23479
# Poissons Ratio (y) = 0.26044 0.31390
# Poissons Ratio (z) = 0.38204 0.38043
#
# Static dielectric constant tensor:
#      x y z
#    x 4.404590 0.838040 1.086800 
#    y 0.838040 1.847580 -2.742870 
#    z 1.086800 -2.742870 1.482750 
# 
# 
# High freq. dielectric constant tensor:
#      x y z
#    x 1.990600 -0.005960 0.002880 
#    y -0.005960 1.970210 -0.004880 
#    z 0.002880 -0.004880 1.962890 
# 
# From -- ./inp_files/540552.got.cif
#   From: 2010.06.25/outbox.cif.g09.slc.cpg/sg2_271_cif.got.tgz:540552.got - 2010.06.27 13:26:56.
