data_PCOD8034644
_publ_section_title
;
Structure prediction by ZEFSAII (Michael W. Deem and Ramdas Pophale) SiO2 
 PCOD8034644
Probable space group: P -1
;
_chemical_formula_sum "Si O2"
_cell_formula_units_Z 12
_cell_length_a 8.371725
_cell_length_b 11.192332
_cell_length_c 7.737330
_cell_angle_alpha 94.473748
_cell_angle_beta 53.915582
_cell_angle_gamma 66.379830
_cell_volume 486.153473
_symmetry_space_group_name_H-M "P -1"
_symmetry_group_IT_number 2
_symmetry_cell_setting 'triclinic'
loop_
_space_group_symop_operation_xyz
x,y,z
-x,-y,-z
loop_
_atom_site_type_symbol
_atom_site_label
_atom_site_fract_x
_atom_site_fract_y
_atom_site_fract_z
Si Si1 0.170590 0.442261 0.136030
Si Si2 0.882884 0.137481 0.906102
Si Si3 0.794497 0.183236 0.340051
Si Si4 0.071659 0.703843 0.409694
Si Si5 0.334033 0.446489 0.662238
Si Si6 0.574648 0.846508 0.866165
O O1 0.182678 0.533720 0.296829
O O2 0.336270 0.272600 0.051065
O O3 0.898454 0.488872 0.299427
O O4 0.255818 0.483772 0.915904
O O5 0.833060 0.250860 0.805324
O O6 0.919707 0.182839 0.078491
O O7 0.653596 0.131076 0.078380
O O8 0.106071 0.980317 0.687923
O O9 0.854600 0.264269 0.452066
O O10 0.508096 0.272227 0.514994
O O11 0.786680 0.791231 0.587581
O O12 0.500000 0.500000 0.500000
O O13 0.500000 0.000000 0.000000
#
# Coordination Sequence:
#
# PCOD8034644 Si02
#       6
#     2   2   2   2   2   2
#     4  11  27  46  73 116 145 192 257 298 374 443
#     4  11  26  47  72 111 146 196 248 303 375 441
#     4  11  24  45  73 108 147 191 246 301 370 441
#     4  12  25  47  77 107 149 196 241 313 371 435
#     4  11  24  46  75 105 153 194 240 310 370 439
#     4  12  26  46  75 105 148 197 249 304 365 445
#
# _framework density 24.683561999999998
#
# number of rings (size 3 to 8) (size 9 to 14) (size 15 to 20)
#    0.000    0.667    1.667    5.000    2.333    5.333 
#    0.000    5.833    0.000    0.000    0.000    0.000 
#    0.000    0.000    0.000    0.000    0.000    0.000 
#
# Total GULP energy -148774.566846 kJ/mol
# GULP energy per Si atom -12397.880571 kJ/mol
# Density = 2.462738 g / cm^3
# Si number density = 24.683562 Si / 1000 Ang^3
#
#
#
# Elastic Constant Matrix: (Units=GPa)
#
#
# Indices 1 2 3 4 5 6 
#
# 1 94.3278 62.0723 44.1317 0.0598 22.6350 -0.7543
# 2 62.0723 134.7486 51.0598 15.2823 12.8950 5.0023
# 3 44.1317 51.0598 108.9582 5.6927 5.2386 13.9823
# 4 0.0598 15.2823 5.6927 55.5803 -0.6433 -9.0316
# 5 22.6350 12.8950 5.2386 -0.6433 54.7613 8.4531
# 6 -0.7543 5.0023 13.9823 -9.0316 8.4531 31.4100
#
#
#
# Elastic Compliance Matrix: (Units=1/GPa)
#
#
# Indices 1 2 3 4 5 6 
#
# 1 0.019300 -0.006858 -0.005320 0.003428 -0.006856 0.006755
# 2 -0.006858 0.011886 -0.002372 -0.003355 0.000550 -0.002115
# 3 -0.005320 -0.002372 0.013297 -0.001790 0.002524 -0.006863
# 4 0.003428 -0.003355 -0.001790 0.020318 -0.001395 0.007631
# 5 -0.006856 0.000550 0.002524 -0.001395 0.021891 -0.007668
# 6 0.006755 -0.002115 -0.006863 0.007631 -0.007668 0.039649
#
#
# Mechanical properties :
#
#
# Convention : Reuss Voigt Hill
#
# Bulk Modulus (GPa) = 65.00572 72.50691 68.75632
# Shear Modulus (GPa) = 31.13937 40.40171 35.77054
#
# Velocity S-wave (km/s) = 3.55567 4.05011 3.81092
# Velocity P-wave (km/s) = 6.57647 7.16307 6.87602
#
# Compressibility (1/GPa) = 0.01538326
#
# Stress axis : x y z
#
# Youngs Moduli (GPa) = 51.81253 84.13477 75.20627
#
# Poissons Ratio (x) = 0.57704 0.40006
# Poissons Ratio (y) = 0.35536 0.17837
# Poissons Ratio (z) = 0.27562 0.19955
#
# Static dielectric constant tensor:
#      x y z
#    x 4.507460 -0.162730 -0.181980 
#    y -0.162730 4.546000 0.297050 
#    z -0.181980 0.297050 4.828170 
# 
# 
# High freq. dielectric constant tensor:
#      x y z
#    x 1.977550 -0.008130 0.001140 
#    y -0.008130 1.986950 0.012890 
#    z 0.001140 0.012890 1.998980 
# 
# From -- ./inp_files/164558.got.cif
#   From: 2010.06.25/outbox.cif.g09.slc.cpg/sg2_83_cif.got.tgz:164558.got - 2010.06.27 13:26:56.
