data_PCOD8034348
_publ_section_title
;
Structure prediction by ZEFSAII (Michael W. Deem and Ramdas Pophale) SiO2 
 PCOD8034348
Probable space group: P -1
;
_chemical_formula_sum "Si O2"
_cell_formula_units_Z 16
_cell_length_a 11.432491
_cell_length_b 9.377851
_cell_length_c 15.757828
_cell_angle_alpha 28.623688
_cell_angle_beta 107.769148
_cell_angle_gamma 116.936726
_cell_volume 704.412476
_symmetry_space_group_name_H-M "P -1"
_symmetry_group_IT_number 2
_symmetry_cell_setting 'triclinic'
loop_
_space_group_symop_operation_xyz
x,y,z
-x,-y,-z
loop_
_atom_site_type_symbol
_atom_site_label
_atom_site_fract_x
_atom_site_fract_y
_atom_site_fract_z
Si Si1 0.545037 0.163046 0.337380
Si Si2 0.637355 0.808167 0.848477
Si Si3 0.758183 0.755152 0.155174
Si Si4 0.081652 0.689071 0.588210
Si Si5 0.756022 0.937561 0.422125
Si Si6 0.215355 0.688364 0.246910
Si Si7 0.871857 0.783125 0.816358
Si Si8 0.830149 0.071652 0.171952
O O1 0.401954 0.066376 0.312055
O O2 0.629032 0.546095 0.177500
O O3 0.500000 0.000000 0.500000
O O4 0.630615 0.017961 0.376643
O O5 0.769149 0.738338 0.895621
O O6 0.672262 0.075558 0.788725
O O7 0.500000 0.500000 0.000000
O O8 0.860324 0.582129 0.268988
O O9 0.729765 0.810224 0.219142
O O10 0.819061 0.113577 0.939071
O O11 0.922726 0.521559 0.624648
O O12 0.112847 0.826476 0.619654
O O13 0.146630 0.985975 0.381142
O O14 0.724490 0.567662 0.637174
O O15 0.780616 0.983772 0.302922
O O16 0.023690 0.934994 0.805648
O O17 0.837198 0.422756 0.961828
#
# Coordination Sequence:
#
# PCOD8034348 Si02
#       8
#     2   2   2   2   2   2   2   2
#     4  11  26  49  71  95 141 192 237 284 342 416
#     4  12  25  47  69 101 142 194 239 279 342 421
#     4  11  25  44  67 102 141 185 233 290 346 420
#     4  11  24  44  72 105 144 180 228 293 366 415
#     4  11  25  45  74 105 141 180 229 298 351 418
#     4  12  25  42  73 104 140 183 240 289 351 417
#     4  11  25  43  73 102 147 182 223 301 355 414
#     4  11  25  43  71 110 139 175 231 294 367 408
#
# _framework density 22.713964000000001
#
# number of rings (size 3 to 8) (size 9 to 14) (size 15 to 20)
#    0.000    0.750    2.500    4.500    8.750    1.500 
#    2.250    1.250    0.000    0.000    0.000    0.000 
#    0.000    0.000    0.000    0.000    0.000    0.000 
#
# Total GULP energy -198332.900379 kJ/mol
# GULP energy per Si atom -12395.806274 kJ/mol
# Density = 2.266227 g / cm^3
# Si number density = 22.713964 Si / 1000 Ang^3
#
#
#
# Elastic Constant Matrix: (Units=GPa)
#
#
# Indices 1 2 3 4 5 6 
#
# 1 100.5655 40.0586 34.4760 -2.9665 -7.2626 -7.9925
# 2 40.0586 149.0889 48.2294 -12.6453 9.8085 -13.2410
# 3 34.4760 48.2294 140.6519 2.7824 12.6777 -16.8913
# 4 -2.9665 -12.6453 2.7824 32.9180 -1.6064 -2.4084
# 5 -7.2626 9.8085 12.6777 -1.6064 33.8745 4.0542
# 6 -7.9925 -13.2410 -16.8913 -2.4084 4.0542 29.0305
#
#
#
# Elastic Compliance Matrix: (Units=1/GPa)
#
#
# Indices 1 2 3 4 5 6 
#
# 1 0.012201 -0.002720 -0.002441 0.000482 0.004324 0.000134
# 2 -0.002720 0.008732 -0.001820 0.003342 -0.002609 0.002817
# 3 -0.002441 -0.001820 0.009246 -0.001583 -0.004048 0.004312
# 4 0.000482 0.003342 -0.001583 0.032121 0.000859 0.003281
# 5 0.004324 -0.002609 -0.004048 0.000859 0.033594 -0.006975
# 6 0.000134 0.002817 0.004312 0.003281 -0.006975 0.039523
#
#
# Mechanical properties :
#
#
# Convention : Reuss Voigt Hill
#
# Bulk Modulus (GPa) = 61.66524 70.64826 66.15675
# Shear Modulus (GPa) = 32.30240 37.00075 34.65157
#
# Velocity S-wave (km/s) = 3.77522 4.04045 3.91008
# Velocity P-wave (km/s) = 6.79783 7.27585 7.04090
#
# Compressibility (1/GPa) = 0.01621659
#
# Stress axis : x y z
#
# Youngs Moduli (GPa) = 81.95780 114.51558 108.15244
#
# Poissons Ratio (x) = 0.31153 0.26401
# Poissons Ratio (y) = 0.22296 0.19686
# Poissons Ratio (z) = 0.20007 0.20844
#
# Static dielectric constant tensor:
#      x y z
#    x 3.514030 -0.211410 0.211390 
#    y -0.211410 4.060600 0.072970 
#    z 0.211390 0.072970 4.330290 
# 
# 
# High freq. dielectric constant tensor:
#      x y z
#    x 1.883760 -0.001040 0.012350 
#    y -0.001040 1.907020 0.001470 
#    z 0.012350 0.001470 1.911550 
# 
# From -- ./inp_files/514834.got.cif
#   From: 2010.06.25/outbox.cif.g09.slc.cpg/sg2_258_cif.got.tgz:514834.got - 2010.06.27 13:26:56.
