data_PCOD8034712
_publ_section_title
;
Structure prediction by ZEFSAII (Michael W. Deem and Ramdas Pophale) SiO2 
 PCOD8034712
Probable space group: P -1
;
_chemical_formula_sum "Si O2"
_cell_formula_units_Z 16
_cell_length_a 19.125399
_cell_length_b 12.600214
_cell_length_c 8.345849
_cell_angle_alpha 133.908146
_cell_angle_beta 68.375400
_cell_angle_gamma 146.777344
_cell_volume 670.153832
_symmetry_space_group_name_H-M "P -1"
_symmetry_group_IT_number 2
_symmetry_cell_setting 'triclinic'
loop_
_space_group_symop_operation_xyz
x,y,z
-x,-y,-z
loop_
_atom_site_type_symbol
_atom_site_label
_atom_site_fract_x
_atom_site_fract_y
_atom_site_fract_z
Si Si1 0.856907 0.334824 0.627147
Si Si2 0.685182 0.563747 0.224723
Si Si3 0.832830 0.274724 0.208058
Si Si4 0.912545 0.771336 0.074922
Si Si5 0.218128 0.344641 0.264048
Si Si6 0.589978 0.089192 0.166597
Si Si7 0.604323 0.702820 0.278043
Si Si8 0.661931 0.696753 0.707589
O O1 0.814833 0.259880 0.397847
O O2 0.988254 0.440920 0.677301
O O3 0.706664 0.022784 0.515509
O O4 0.906039 0.582599 0.896976
O O5 0.829803 0.701024 0.226022
O O6 0.704541 0.727514 0.250513
O O7 0.681802 0.613116 0.461759
O O8 0.526791 0.211342 0.950794
O O9 0.748790 0.270121 0.188758
O O10 0.753124 0.997885 0.909975
O O11 0.822488 0.675534 0.898193
O O12 0.081065 0.120908 0.275420
O O13 0.363247 0.688648 0.542563
O O14 0.272945 0.267833 0.146383
O O15 0.500000 0.000000 0.000000
O O16 0.511740 0.559876 0.374766
O O17 0.500000 0.500000 0.000000
#
# Coordination Sequence:
#
# PCOD8034712 Si02
#       8
#     2   2   2   2   2   2   2   2
#     4  11  24  45  76 108 140 185 244 307 348 426
#     4  12  28  44  68 107 147 189 233 296 360 441
#     4  11  24  46  75 104 144 186 246 297 360 416
#     4  11  26  46  72 111 143 183 250 295 363 422
#     4  11  25  46  75 104 142 194 236 305 356 423
#     4  12  25  46  71 107 145 195 233 293 367 433
#     4  12  25  45  72 106 139 187 244 295 356 422
#     4  12  24  48  69 102 148 191 237 293 363 428
#
# _framework density 23.875115000000001
#
# number of rings (size 3 to 8) (size 9 to 14) (size 15 to 20)
#    0.000    0.500    6.250    1.125    3.500    1.000 
#    0.000    0.625    0.000    0.000    0.000    0.000 
#    0.000    0.000    0.000    0.000    0.000    0.000 
#
# Total GULP energy -198316.285287 kJ/mol
# GULP energy per Si atom -12394.767830 kJ/mol
# Density = 2.382077 g / cm^3
# Si number density = 23.875115 Si / 1000 Ang^3
#
#
#
# Elastic Constant Matrix: (Units=GPa)
#
#
# Indices 1 2 3 4 5 6 
#
# 1 130.1713 3.6443 10.1687 -0.9574 11.5876 0.6846
# 2 3.6443 90.5610 38.4052 5.3593 -13.6481 11.3503
# 3 10.1687 38.4052 80.2769 7.2806 -0.7543 1.6929
# 4 -0.9574 5.3593 7.2806 23.7709 5.9235 -6.6152
# 5 11.5876 -13.6481 -0.7543 5.9235 32.1293 2.6868
# 6 0.6846 11.3503 1.6929 -6.6152 2.6868 39.4032
#
#
#
# Elastic Compliance Matrix: (Units=1/GPa)
#
#
# Indices 1 2 3 4 5 6 
#
# 1 0.008106 -0.000673 -0.000920 0.001844 -0.003625 0.000649
# 2 -0.000673 0.016407 -0.007077 -0.005319 0.008519 -0.005884
# 3 -0.000920 -0.007077 0.016157 -0.002625 -0.001899 0.001049
# 4 0.001844 -0.005319 -0.002625 0.050497 -0.013215 0.010992
# 5 -0.003625 0.008519 -0.001899 -0.013215 0.039043 -0.007190
# 6 0.000649 -0.005884 0.001049 0.010992 -0.007190 0.029353
#
#
# Mechanical properties :
#
#
# Convention : Reuss Voigt Hill
#
# Bulk Modulus (GPa) = 42.86407 45.04952 43.95680
# Shear Modulus (GPa) = 27.07384 35.64676 31.36030
#
# Velocity S-wave (km/s) = 3.37111 3.86819 3.62818
# Velocity P-wave (km/s) = 5.75717 6.23381 6.00022
#
# Compressibility (1/GPa) = 0.02332956
#
# Stress axis : x y z
#
# Youngs Moduli (GPa) = 123.36964 60.95044 61.89121
#
# Poissons Ratio (x) = 0.04102 0.05693
# Poissons Ratio (y) = 0.08302 0.43803
# Poissons Ratio (z) = 0.11348 0.43137
#
# Static dielectric constant tensor:
#      x y z
#    x 4.696210 0.083150 0.032250 
#    y 0.083150 4.263080 0.086540 
#    z 0.032250 0.086540 4.532670 
# 
# 
# High freq. dielectric constant tensor:
#      x y z
#    x 1.970580 0.003210 0.002490 
#    y 0.003210 1.926940 0.015510 
#    z 0.002490 0.015510 1.945790 
# 
# From -- ./inp_files/333759.got.cif
#   From: 2010.06.25/outbox.cif.g09.slc.cpg/sg2_167_cif.got.tgz:333759.got - 2010.06.27 13:26:56.
