data_PCOD8034197
_publ_section_title
;
Structure prediction by ZEFSAII (Michael W. Deem and Ramdas Pophale) SiO2 
 PCOD8034197
Probable space group: P -1
;
_chemical_formula_sum "Si O2"
_cell_formula_units_Z 16
_cell_length_a 13.391023
_cell_length_b 12.080857
_cell_length_c 11.994214
_cell_angle_alpha 110.559107
_cell_angle_beta 149.815847
_cell_angle_gamma 57.879758
_cell_volume 799.012735
_symmetry_space_group_name_H-M "P -1"
_symmetry_group_IT_number 2
_symmetry_cell_setting 'triclinic'
loop_
_space_group_symop_operation_xyz
x,y,z
-x,-y,-z
loop_
_atom_site_type_symbol
_atom_site_label
_atom_site_fract_x
_atom_site_fract_y
_atom_site_fract_z
Si Si1 0.234293 0.602452 0.296421
Si Si2 0.230118 0.095139 0.788284
Si Si3 0.564441 0.221293 0.408811
Si Si4 0.459978 0.148542 0.522177
Si Si5 0.869144 0.118583 0.008627
Si Si6 0.046389 0.649604 0.893730
Si Si7 0.861924 0.627512 0.098685
Si Si8 0.956548 0.982770 0.615555
O O1 0.500000 0.500000 0.500000
O O2 0.235188 0.739203 0.377566
O O3 0.114879 0.564749 0.267588
O O4 0.077487 0.625161 0.046966
O O5 0.189829 0.244506 0.830277
O O6 0.065949 0.116842 0.530821
O O7 0.136569 0.032252 0.770809
O O8 0.500000 0.000000 0.000000
O O9 0.525520 0.187250 0.482716
O O10 0.688987 0.094153 0.402318
O O11 0.326386 0.330737 0.165827
O O12 0.612979 0.146713 0.772311
O O13 0.210750 0.255165 0.355131
O O14 0.500000 0.000000 0.500000
O O15 0.828409 0.268331 0.994286
O O16 0.977220 0.080166 0.220428
O O17 0.000000 0.000000 0.000000
O O18 0.137340 0.497799 0.875959
#
# Coordination Sequence:
#
# PCOD8034197 Si02
#       8
#     2   2   2   2   2   2   2   2
#     4  12  22  37  59  96 139 172 204 263 334 399
#     4  11  25  44  71  95 126 170 228 284 318 377
#     4  12  21  37  64  94 134 167 213 270 322 388
#     4  12  24  36  59  95 132 177 211 251 323 399
#     4  12  24  42  65  95 136 175 213 267 327 400
#     4  12  24  39  59  96 137 173 212 262 330 394
#     4  12  25  39  65  99 132 174 223 269 329 390
#     4  11  24  44  67  97 126 171 225 274 329 380
#
# _framework density 20.024711
#
# number of rings (size 3 to 8) (size 9 to 14) (size 15 to 20)
#    0.000    0.250    8.750    1.125    1.750    1.000 
#    0.000    0.625    0.000    1.500    0.000    0.000 
#    0.000    0.000    0.000    0.000    0.000    0.000 
#
# Total GULP energy -198222.061303 kJ/mol
# GULP energy per Si atom -12388.878831 kJ/mol
# Density = 1.997913 g / cm^3
# Si number density = 20.024711 Si / 1000 Ang^3
#
#
#
# Elastic Constant Matrix: (Units=GPa)
#
#
# Indices 1 2 3 4 5 6 
#
# 1 52.1136 27.0946 16.6839 0.4840 -8.2343 4.2272
# 2 27.0946 153.4929 45.2629 11.6688 -6.3173 13.3368
# 3 16.6839 45.2629 118.7440 -4.5923 0.7731 -2.0953
# 4 0.4840 11.6688 -4.5923 39.0786 -1.5062 4.4166
# 5 -8.2343 -6.3173 0.7731 -1.5062 34.1412 -0.9026
# 6 4.2272 13.3368 -2.0953 4.4166 -0.9026 29.1434
#
#
#
# Elastic Compliance Matrix: (Units=1/GPa)
#
#
# Indices 1 2 3 4 5 6 
#
# 1 0.022332 -0.003039 -0.002015 0.000803 0.004853 -0.001965
# 2 -0.003039 0.008410 -0.002934 -0.002427 0.000697 -0.003230
# 3 -0.002015 -0.002934 0.009936 0.001795 -0.001121 0.002043
# 4 0.000803 -0.002427 0.001795 0.026877 0.000812 -0.002925
# 5 0.004853 0.000697 -0.001121 0.000812 0.030644 -0.000278
# 6 -0.001965 -0.003230 0.002043 -0.002925 -0.000278 0.036658
#
#
# Mechanical properties :
#
#
# Convention : Reuss Voigt Hill
#
# Bulk Modulus (GPa) = 40.48034 55.82592 48.15313
# Shear Modulus (GPa) = 31.43340 36.15991 33.79665
#
# Velocity S-wave (km/s) = 3.96628 4.25404 4.11268
# Velocity P-wave (km/s) = 6.42139 7.21583 6.83017
#
# Compressibility (1/GPa) = 0.02470335
#
# Stress axis : x y z
#
# Youngs Moduli (GPa) = 44.77795 118.90007 100.64594
#
# Poissons Ratio (x) = 0.36129 0.20278
# Poissons Ratio (y) = 0.13606 0.29533
# Poissons Ratio (z) = 0.09022 0.34889
#
# Static dielectric constant tensor:
#      x y z
#    x 3.364910 0.072840 0.146130 
#    y 0.072840 4.136750 0.216280 
#    z 0.146130 0.216280 4.042950 
# 
# 
# High freq. dielectric constant tensor:
#      x y z
#    x 1.745670 0.009900 0.013320 
#    y 0.009900 1.791860 0.010120 
#    z 0.013320 0.010120 1.804830 
# 
# From -- ./inp_files/428616.got.cif
#   From: 2010.06.25/outbox.cif.g09.slc.cpg/sg2_215_cif.got.tgz:428616.got - 2010.06.27 13:26:56.
