data_PCOD8034927
_publ_section_title
;
Structure prediction by ZEFSAII (Michael W. Deem and Ramdas Pophale) SiO2 
 PCOD8034927
Probable space group: P -1
;
_chemical_formula_sum "Si O2"
_cell_formula_units_Z 12
_cell_length_a 9.256006
_cell_length_b 12.813493
_cell_length_c 15.396501
_cell_angle_alpha 27.430865
_cell_angle_beta 36.941569
_cell_angle_gamma 45.816423
_cell_volume 505.065099
_symmetry_space_group_name_H-M "P -1"
_symmetry_group_IT_number 2
_symmetry_cell_setting 'triclinic'
loop_
_space_group_symop_operation_xyz
x,y,z
-x,-y,-z
loop_
_atom_site_type_symbol
_atom_site_label
_atom_site_fract_x
_atom_site_fract_y
_atom_site_fract_z
Si Si1 0.662745 0.922991 0.400166
Si Si2 0.852733 0.906734 0.750387
Si Si3 0.018980 0.183669 0.931939
Si Si4 0.057574 0.694557 0.477247
Si Si5 0.614371 0.709536 0.182269
Si Si6 0.696073 0.224344 0.459922
O O1 0.506030 0.779110 0.513346
O O2 0.874854 0.754181 0.444729
O O3 0.500000 0.000000 0.500000
O O4 0.785879 0.149218 0.131198
O O5 0.040775 0.748003 0.730704
O O6 0.004560 0.136779 0.538372
O O7 0.665827 0.997632 0.701475
O O8 0.729161 0.770444 0.988898
O O9 0.015181 0.432364 0.710602
O O10 0.256657 0.157098 0.897636
O O11 0.000000 0.000000 0.000000
O O12 0.335675 0.767067 0.267520
O O13 0.651423 0.443292 0.379404
#
# Coordination Sequence:
#
# PCOD8034927 Si02
#       6
#     2   2   2   2   2   2
#     4  12  27  50  71 110 151 188 240 303 362 432
#     4  11  24  46  76 106 138 194 241 292 360 434
#     4  12  28  46  75 109 148 189 242 305 362 425
#     4  12  26  47  73 104 146 190 239 295 365 426
#     4  12  25  46  76 105 145 190 243 299 357 431
#     4  11  25  46  75 105 146 187 244 294 359 435
#
# _framework density 23.759315000000001
#
# number of rings (size 3 to 8) (size 9 to 14) (size 15 to 20)
#    0.000    0.333    5.000    2.500    2.333    4.667 
#    0.000    0.000    0.000    0.000    0.000    0.000 
#    0.000    0.000    0.000    0.000    0.000    0.000 
#
# Total GULP energy -148800.444574 kJ/mol
# GULP energy per Si atom -12400.037048 kJ/mol
# Density = 2.370524 g / cm^3
# Si number density = 23.759315 Si / 1000 Ang^3
#
#
#
# Elastic Constant Matrix: (Units=GPa)
#
#
# Indices 1 2 3 4 5 6 
#
# 1 174.6388 54.5940 37.1637 10.2008 -7.6532 -6.7375
# 2 54.5940 93.3039 19.2577 4.5405 -19.1309 -6.3303
# 3 37.1637 19.2577 92.8098 19.5195 -2.8394 0.8566
# 4 10.2008 4.5405 19.5195 36.3404 4.8283 -3.9571
# 5 -7.6532 -19.1309 -2.8394 4.8283 31.9440 -4.5862
# 6 -6.7375 -6.3303 0.8566 -3.9571 -4.5862 36.7174
#
#
#
# Elastic Compliance Matrix: (Units=1/GPa)
#
#
# Indices 1 2 3 4 5 6 
#
# 1 0.007436 -0.003996 -0.002112 -0.000299 -0.000667 0.000609
# 2 -0.003996 0.015316 -0.001123 -0.001026 0.008688 0.002908
# 3 -0.002112 -0.001123 0.013296 -0.006679 0.000796 -0.001512
# 4 -0.000299 -0.001026 -0.006679 0.032379 -0.005788 0.002691
# 5 -0.000667 0.008688 0.000796 -0.005788 0.038082 0.005490
# 6 0.000609 0.002908 -0.001512 0.002691 0.005490 0.028859
#
#
# Mechanical properties :
#
#
# Convention : Reuss Voigt Hill
#
# Bulk Modulus (GPa) = 46.32363 64.75372 55.53867
# Shear Modulus (GPa) = 31.84155 37.64952 34.74553
#
# Velocity S-wave (km/s) = 3.66481 3.98505 3.82828
# Velocity P-wave (km/s) = 6.11940 6.96329 6.55494
#
# Compressibility (1/GPa) = 0.02158726
#
# Stress axis : x y z
#
# Youngs Moduli (GPa) = 134.47188 65.28957 75.20833
#
# Poissons Ratio (x) = 0.26091 0.15882
# Poissons Ratio (y) = 0.53737 0.08446
# Poissons Ratio (z) = 0.28397 0.07333
#
# Static dielectric constant tensor:
#      x y z
#    x 4.629540 -0.003190 0.046980 
#    y -0.003190 4.358610 0.050950 
#    z 0.046980 0.050950 4.362550 
# 
# 
# High freq. dielectric constant tensor:
#      x y z
#    x 1.960050 -0.000770 0.011630 
#    y -0.000770 1.946070 0.005490 
#    z 0.011630 0.005490 1.939890 
# 
# From -- ./inp_files/302243.got.cif
#   From: 2010.06.25/outbox.cif.g09.slc.cpg/sg2_152_cif.got.tgz:302243.got - 2010.06.27 13:26:56.
