data_PCOD8034752
_publ_section_title
;
Structure prediction by ZEFSAII (Michael W. Deem and Ramdas Pophale) SiO2 
 PCOD8034752
Probable space group: P -1
;
_chemical_formula_sum "Si O2"
_cell_formula_units_Z 14
_cell_length_a 8.712177
_cell_length_b 14.551544
_cell_length_c 14.575413
_cell_angle_alpha 44.965779
_cell_angle_beta 40.993967
_cell_angle_gamma 33.158168
_cell_volume 648.067054
_symmetry_space_group_name_H-M "P -1"
_symmetry_group_IT_number 2
_symmetry_cell_setting 'triclinic'
loop_
_space_group_symop_operation_xyz
x,y,z
-x,-y,-z
loop_
_atom_site_type_symbol
_atom_site_label
_atom_site_fract_x
_atom_site_fract_y
_atom_site_fract_z
Si Si1 0.846567 0.549026 0.392666
Si Si2 0.138377 0.974490 0.856187
Si Si3 0.846869 0.125330 0.566357
Si Si4 0.136391 0.275773 0.306349
Si Si5 0.139495 0.589634 0.858399
Si Si6 0.838288 0.920274 0.875068
Si Si7 0.141154 0.650993 0.306699
O O1 0.485527 0.699750 0.435302
O O2 0.909995 0.414802 0.533252
O O3 0.004287 0.447905 0.298231
O O4 0.002112 0.627063 0.298398
O O5 0.505428 0.833984 0.795966
O O6 0.019863 0.904889 0.892315
O O7 0.040986 0.149382 0.737680
O O8 0.000000 0.000000 0.000000
O O9 0.063069 0.168027 0.469508
O O10 0.816503 0.040126 0.724821
O O11 0.000000 0.000000 0.500000
O O12 0.958245 0.322343 0.258341
O O13 0.505038 0.445827 0.803586
O O14 0.021766 0.729648 0.890347
O O15 0.000000 0.500000 0.000000
O O16 0.500000 0.000000 0.000000
#
# Coordination Sequence:
#
# PCOD8034752 Si02
#       7
#     2   2   2   2   2   2   2
#     4  11  25  42  74 104 140 182 236 301 350 419
#     4  12  28  47  71 105 146 190 238 298 356 426
#     4  12  24  45  75 107 146 185 240 296 353 428
#     4  12  25  44  72 104 142 186 240 292 359 415
#     4  12  26  45  68 102 142 189 235 291 355 428
#     4  12  27  46  73 105 145 190 237 293 364 424
#     4  11  24  46  69 101 143 183 238 289 359 417
#
# _framework density 21.602703999999999
#
# number of rings (size 3 to 8) (size 9 to 14) (size 15 to 20)
#    0.000    0.286    2.857    5.571    6.000    4.571 
#    0.000    2.857    0.000    0.000    0.000    0.000 
#    0.000    0.000    0.000    0.000    0.000    0.000 
#
# Total GULP energy -173707.607170 kJ/mol
# GULP energy per Si atom -12407.686226 kJ/mol
# Density = 2.155354 g / cm^3
# Si number density = 21.602704 Si / 1000 Ang^3
#
#
#
# Elastic Constant Matrix: (Units=GPa)
#
#
# Indices 1 2 3 4 5 6 
#
# 1 149.3506 60.4119 45.3398 16.4892 -12.1290 17.5109
# 2 60.4119 151.8322 31.5910 21.9831 -3.5405 11.0156
# 3 45.3398 31.5910 113.3298 8.0360 -9.7000 0.9514
# 4 16.4892 21.9831 8.0360 43.8716 -2.6532 -8.8725
# 5 -12.1290 -3.5405 -9.7000 -2.6532 41.8629 4.0379
# 6 17.5109 11.0156 0.9514 -8.8725 4.0379 43.7422
#
#
#
# Elastic Compliance Matrix: (Units=1/GPa)
#
#
# Indices 1 2 3 4 5 6 
#
# 1 0.009403 -0.002512 -0.002679 -0.002418 0.002100 -0.003758
# 2 -0.002512 0.008439 -0.001115 -0.003457 -0.000321 -0.001767
# 3 -0.002679 -0.001115 0.010323 -0.000039 0.001424 0.000989
# 4 -0.002418 -0.003457 -0.000039 0.026918 0.000000 0.007299
# 5 0.002100 -0.000321 0.001424 0.000000 0.025099 -0.003108
# 6 -0.003758 -0.001767 0.000989 0.007299 -0.003108 0.026556
#
#
# Mechanical properties :
#
#
# Convention : Reuss Voigt Hill
#
# Bulk Modulus (GPa) = 64.29757 76.57758 70.43757
# Shear Modulus (GPa) = 40.14975 44.37335 42.26155
#
# Velocity S-wave (km/s) = 4.31577 4.53710 4.42782
# Velocity P-wave (km/s) = 7.39343 7.93549 7.66925
#
# Compressibility (1/GPa) = 0.01555269
#
# Stress axis : x y z
#
# Youngs Moduli (GPa) = 106.34663 118.49731 96.87485
#
# Poissons Ratio (x) = 0.29771 0.25951
# Poissons Ratio (y) = 0.26719 0.10800
# Poissons Ratio (z) = 0.28489 0.13210
#
# Static dielectric constant tensor:
#      x y z
#    x 3.754490 -0.015370 -0.398850 
#    y -0.015370 3.991960 -0.119970 
#    z -0.398850 -0.119970 3.836510 
# 
# 
# High freq. dielectric constant tensor:
#      x y z
#    x 1.864620 0.005370 -0.009120 
#    y 0.005370 1.863830 0.002730 
#    z -0.009120 0.002730 1.861420 
# 
# From -- ./inp_files/157711.got.cif
#   From: 2010.06.25/outbox.cif.g09.slc.cpg/sg2_79_cif.got.tgz:157711.got - 2010.06.27 13:26:56.
