data_PCOD8034742
_publ_section_title
;
Structure prediction by ZEFSAII (Michael W. Deem and Ramdas Pophale) SiO2 
 PCOD8034742
Probable space group: P -1
;
_chemical_formula_sum "Si O2"
_cell_formula_units_Z 14
_cell_length_a 11.950031
_cell_length_b 6.237677
_cell_length_c 11.419825
_cell_angle_alpha 129.832455
_cell_angle_beta 112.594510
_cell_angle_gamma 68.154035
_cell_volume 593.902826
_symmetry_space_group_name_H-M "P -1"
_symmetry_group_IT_number 2
_symmetry_cell_setting 'triclinic'
loop_
_space_group_symop_operation_xyz
x,y,z
-x,-y,-z
loop_
_atom_site_type_symbol
_atom_site_label
_atom_site_fract_x
_atom_site_fract_y
_atom_site_fract_z
Si Si1 0.513029 0.437563 0.785489
Si Si2 0.857074 0.601084 0.466126
Si Si3 0.270732 0.765420 0.353045
Si Si4 0.857750 0.294386 0.125891
Si Si5 0.327885 0.704732 0.611349
Si Si6 0.917589 0.646348 0.913425
Si Si7 0.640832 0.705313 0.115721
O O1 0.635983 0.230838 0.716652
O O2 0.440972 0.538194 0.672820
O O3 0.434959 0.275800 0.785274
O O4 0.548973 0.699547 0.966682
O O5 0.813239 0.488420 0.287394
O O6 0.789736 0.450643 0.486027
O O7 0.000000 0.500000 0.500000
O O8 0.824409 0.939342 0.579502
O O9 0.353297 0.718327 0.487731
O O10 0.191051 0.518015 0.219884
O O11 0.746949 0.425320 0.039608
O O12 0.993179 0.337724 0.155972
O O13 0.855677 0.965979 0.035728
O O14 0.295947 0.018163 0.765041
O O15 0.000000 0.500000 0.000000
#
# Coordination Sequence:
#
# PCOD8034742 Si02
#       7
#     2   2   2   2   2   2   2
#     4  11  26  46  72 107 147 191 247 295 363 434
#     4  12  27  45  72 105 148 190 242 296 366 430
#     4  12  27  45  72 112 147 188 239 307 363 430
#     4  11  24  46  68 105 140 186 245 295 352 433
#     4  12  25  46  72 106 146 197 236 300 368 430
#     4  11  26  44  73 103 144 191 241 299 360 425
#     4  11  25  46  75 105 146 192 244 300 359 432
#
# _framework density 23.572879
#
# number of rings (size 3 to 8) (size 9 to 14) (size 15 to 20)
#    0.000    0.571    2.857    3.429    6.000   10.286 
#    0.000    0.000    0.000    0.000    0.000    0.000 
#    0.000    0.000    0.000    0.000    0.000    0.000 
#
# Total GULP energy -173589.035088 kJ/mol
# GULP energy per Si atom -12399.216792 kJ/mol
# Density = 2.351923 g / cm^3
# Si number density = 23.572879 Si / 1000 Ang^3
#
#
#
# Elastic Constant Matrix: (Units=GPa)
#
#
# Indices 1 2 3 4 5 6 
#
# 1 124.7435 42.9254 44.7120 15.2595 -3.0383 -10.8229
# 2 42.9254 102.1936 48.3295 16.4515 4.8142 -11.2014
# 3 44.7120 48.3295 105.6637 12.7160 8.4399 -5.6203
# 4 15.2595 16.4515 12.7160 50.3909 1.1465 3.9853
# 5 -3.0383 4.8142 8.4399 1.1465 44.6737 0.7654
# 6 -10.8229 -11.2014 -5.6203 3.9853 0.7654 30.6474
#
#
#
# Elastic Compliance Matrix: (Units=1/GPa)
#
#
# Indices 1 2 3 4 5 6 
#
# 1 0.010428 -0.002443 -0.003073 -0.001812 0.001558 0.002423
# 2 -0.002443 0.013973 -0.004746 -0.002905 -0.000765 0.003771
# 3 -0.003073 -0.004746 0.013189 -0.000779 -0.002165 -0.000246
# 4 -0.001812 -0.002905 -0.000779 0.021913 -0.000145 -0.004691
# 5 0.001558 -0.000765 -0.002165 -0.000145 0.022997 -0.000682
# 6 0.002423 0.003771 -0.000246 -0.004691 -0.000682 0.035445
#
#
# Mechanical properties :
#
#
# Convention : Reuss Voigt Hill
#
# Bulk Modulus (GPa) = 58.59555 67.17050 62.88303
# Shear Modulus (GPa) = 34.68405 38.25132 36.46768
#
# Velocity S-wave (km/s) = 3.83998 4.03262 3.93748
# Velocity P-wave (km/s) = 6.67621 7.08798 6.88517
#
# Compressibility (1/GPa) = 0.01706614
#
# Stress axis : x y z
#
# Youngs Moduli (GPa) = 95.89183 71.56576 75.82262
#
# Poissons Ratio (x) = 0.17486 0.23299
# Poissons Ratio (y) = 0.23429 0.35985
# Poissons Ratio (z) = 0.29466 0.33965
#
# Static dielectric constant tensor:
#      x y z
#    x 4.289240 0.076890 0.068130 
#    y 0.076890 4.257960 -0.215110 
#    z 0.068130 -0.215110 4.532230 
# 
# 
# High freq. dielectric constant tensor:
#      x y z
#    x 1.941020 -0.000900 0.003390 
#    y -0.000900 1.930580 -0.007240 
#    z 0.003390 -0.007240 1.945350 
# 
# From -- ./inp_files/27560.got.cif
#   From: 2010.06.25/outbox.cif.g09.slc.cpg/sg2_14_cif.got.tgz:27560.got - 2010.06.27 13:26:56.
