data_PCOD8034606
_publ_section_title
;
Structure prediction by ZEFSAII (Michael W. Deem and Ramdas Pophale) SiO2 
 PCOD8034606
Probable space group: P -1
;
_chemical_formula_sum "Si O2"
_cell_formula_units_Z 16
_cell_length_a 14.373516
_cell_length_b 13.755215
_cell_length_c 9.232777
_cell_angle_alpha 102.853667
_cell_angle_beta 83.120705
_cell_angle_gamma 30.390376
_cell_volume 697.773326
_symmetry_space_group_name_H-M "P -1"
_symmetry_group_IT_number 2
_symmetry_cell_setting 'triclinic'
loop_
_space_group_symop_operation_xyz
x,y,z
-x,-y,-z
loop_
_atom_site_type_symbol
_atom_site_label
_atom_site_fract_x
_atom_site_fract_y
_atom_site_fract_z
Si Si1 0.647825 0.797028 0.735769
Si Si2 0.768462 0.450795 0.910406
Si Si3 0.661410 0.077224 0.031151
Si Si4 0.125880 0.965568 0.547435
Si Si5 0.016795 0.576200 0.707034
Si Si6 0.799066 0.136290 0.170918
Si Si7 0.543107 0.517817 0.145565
Si Si8 0.229342 0.340473 0.881044
O O1 0.497540 0.851872 0.839020
O O2 0.804919 0.698405 0.799359
O O3 0.845702 0.561641 0.513857
O O4 0.477005 0.046512 0.777378
O O5 0.503689 0.701695 0.976730
O O6 0.766980 0.372836 0.020010
O O7 0.818552 0.513121 0.970651
O O8 0.963321 0.223440 0.682666
O O9 0.776954 0.039304 0.113012
O O10 0.882998 0.812399 0.818891
O O11 0.197922 0.852314 0.654032
O O12 0.336008 0.791406 0.339978
O O13 0.000000 0.000000 0.500000
O O14 0.222556 0.368161 0.720154
O O15 0.568587 0.415168 0.238845
O O16 0.000000 0.000000 0.000000
O O17 0.500000 0.500000 0.000000
O O18 0.000000 0.500000 0.000000
#
# Coordination Sequence:
#
# PCOD8034606 Si02
#       8
#     2   2   2   2   2   2   2   2
#     4  11  25  46  71 105 143 187 242 297 363 432
#     4  12  26  45  71 106 138 189 239 296 362 434
#     4  12  24  46  70 102 143 187 240 297 363 429
#     4  12  25  46  72 103 140 184 237 295 364 431
#     4  11  24  45  72 104 143 187 238 300 362 430
#     4  12  25  46  74 101 143 192 241 297 370 433
#     4  12  24  48  69  99 143 183 232 301 359 426
#     4  12  24  46  74  99 148 191 236 300 362 428
#
# _framework density 22.930081000000001
#
# number of rings (size 3 to 8) (size 9 to 14) (size 15 to 20)
#    0.000    0.250    6.250    2.625    0.000    2.000 
#    4.500    0.000    0.000    0.000    0.000    0.000 
#    0.000    0.000    0.000    0.000    0.000    0.000 
#
# Total GULP energy -198306.756651 kJ/mol
# GULP energy per Si atom -12394.172291 kJ/mol
# Density = 2.287789 g / cm^3
# Si number density = 22.930081 Si / 1000 Ang^3
#
#
#
# Elastic Constant Matrix: (Units=GPa)
#
#
# Indices 1 2 3 4 5 6 
#
# 1 138.2103 33.0625 65.3853 3.3395 25.7323 -6.7776
# 2 33.0625 111.3702 46.8212 -4.5991 23.4918 -1.3696
# 3 65.3853 46.8212 156.8451 12.5603 18.9905 -1.8208
# 4 3.3395 -4.5991 12.5603 38.2793 -2.4159 7.3688
# 5 25.7323 23.4918 18.9905 -2.4159 33.6927 -2.1958
# 6 -6.7776 -1.3696 -1.8208 7.3688 -2.1958 38.2158
#
#
#
# Elastic Compliance Matrix: (Units=1/GPa)
#
#
# Indices 1 2 3 4 5 6 
#
# 1 0.009999 -0.000428 -0.003336 -0.000434 -0.005400 0.001373
# 2 -0.000428 0.011620 -0.002718 0.002041 -0.006132 -0.000535
# 3 -0.003336 -0.002718 0.008922 -0.003067 -0.000788 0.000282
# 4 -0.000434 0.002041 -0.003067 0.028626 0.002329 -0.005536
# 5 -0.005400 -0.006132 -0.000788 0.002329 0.038726 0.000561
# 6 0.001373 -0.000535 0.000282 -0.005536 0.000561 0.027505
#
#
# Mechanical properties :
#
#
# Convention : Reuss Voigt Hill
#
# Bulk Modulus (GPa) = 56.89129 77.44039 67.16584
# Shear Modulus (GPa) = 34.66920 39.44799 37.05859
#
# Velocity S-wave (km/s) = 3.89260 4.15222 4.02451
# Velocity P-wave (km/s) = 6.71325 7.53881 7.13798
#
# Compressibility (1/GPa) = 0.01757738
#
# Stress axis : x y z
#
# Youngs Moduli (GPa) = 100.00863 86.06093 112.08283
#
# Poissons Ratio (x) = 0.03683 0.37393
# Poissons Ratio (y) = 0.04280 0.30459
# Poissons Ratio (z) = 0.33365 0.23387
#
# Static dielectric constant tensor:
#      x y z
#    x 4.290250 -0.099920 0.025450 
#    y -0.099920 5.353730 0.125370 
#    z 0.025450 0.125370 5.348870 
# 
# 
# High freq. dielectric constant tensor:
#      x y z
#    x 1.906200 -0.006300 0.012180 
#    y -0.006300 1.923250 0.007600 
#    z 0.012180 0.007600 1.911830 
# 
# From -- ./inp_files/315613.got.cif
#   From: 2010.06.25/outbox.cif.g09.slc.cpg/sg2_158_cif.got.tgz:315613.got - 2010.06.27 13:26:56.
