data_PCOD8034198
_publ_section_title
;
Structure prediction by ZEFSAII (Michael W. Deem and Ramdas Pophale) SiO2 
 PCOD8034198
Probable space group: P -1
;
_chemical_formula_sum "Si O2"
_cell_formula_units_Z 16
_cell_length_a 6.689743
_cell_length_b 13.457798
_cell_length_c 28.364503
_cell_angle_alpha 27.098093
_cell_angle_beta 137.268689
_cell_angle_gamma 138.749680
_cell_volume 748.656796
_symmetry_space_group_name_H-M "P -1"
_symmetry_group_IT_number 2
_symmetry_cell_setting 'triclinic'
loop_
_space_group_symop_operation_xyz
x,y,z
-x,-y,-z
loop_
_atom_site_type_symbol
_atom_site_label
_atom_site_fract_x
_atom_site_fract_y
_atom_site_fract_z
Si Si1 0.576537 0.202865 0.464817
Si Si2 0.795500 0.070705 0.653650
Si Si3 0.498677 0.542381 0.841340
Si Si4 0.297520 0.742386 0.082223
Si Si5 0.780195 0.400248 0.597082
Si Si6 0.591793 0.674590 0.984249
Si Si7 0.487870 0.137966 0.745198
Si Si8 0.226423 0.544040 0.253622
O O1 0.587549 0.099613 0.561896
O O2 0.286848 0.300915 0.371990
O O3 0.897230 0.398301 0.425128
O O4 0.500000 0.000000 0.500000
O O5 0.785798 0.248335 0.617146
O O6 0.148774 0.131587 0.671509
O O7 0.665948 0.813333 0.759221
O O8 0.653111 0.431329 0.874832
O O9 0.136066 0.489918 0.790003
O O10 0.560739 0.439655 0.945136
O O11 0.369997 0.654265 0.182413
O O12 0.957341 0.760482 0.016090
O O13 0.500000 0.000000 0.000000
O O14 0.500000 0.500000 0.500000
O O15 0.730875 0.240291 0.702367
O O16 0.467530 0.882210 0.863005
O O17 0.500000 0.500000 0.000000
O O18 0.581028 0.289936 0.743341
#
# Coordination Sequence:
#
# PCOD8034198 Si02
#       8
#     2   2   2   2   2   2   2   2
#     4  12  27  46  71 102 137 178 230 280 338 410
#     4  12  26  47  69 102 139 180 228 282 335 407
#     4  11  26  44  69  99 141 180 225 286 336 396
#     4  11  24  44  67  98 138 177 227 281 338 399
#     4  12  26  46  71  99 138 180 224 284 343 397
#     4  11  25  43  67 102 134 176 231 277 335 405
#     4  12  25  44  73  99 137 180 227 276 341 406
#     4  11  26  44  66 103 136 175 231 276 338 407
#
# _framework density 21.371608999999999
#
# number of rings (size 3 to 8) (size 9 to 14) (size 15 to 20)
#    0.000    0.500    2.500    4.875    7.000    8.500 
#    0.000    0.000    0.000    0.000    0.000    0.000 
#    0.000    0.000    0.000    0.000    0.000    0.000 
#
# Total GULP energy -198507.184242 kJ/mol
# GULP energy per Si atom -12406.699015 kJ/mol
# Density = 2.132297 g / cm^3
# Si number density = 21.371609 Si / 1000 Ang^3
#
#
#
# Elastic Constant Matrix: (Units=GPa)
#
#
# Indices 1 2 3 4 5 6 
#
# 1 101.8334 27.3255 47.8079 -0.3810 -16.2645 -17.2034
# 2 27.3255 108.0915 43.3180 -13.3669 -13.5556 -24.7991
# 3 47.8079 43.3180 108.1015 -13.3628 -1.8083 -29.6764
# 4 -0.3810 -13.3669 -13.3628 42.9829 -2.7459 -5.1698
# 5 -16.2645 -13.5556 -1.8083 -2.7459 45.3654 0.6772
# 6 -17.2034 -24.7991 -29.6764 -5.1698 0.6772 38.3746
#
#
#
# Elastic Compliance Matrix: (Units=1/GPa)
#
#
# Indices 1 2 3 4 5 6 
#
# 1 0.013430 -0.000550 -0.005495 -0.001344 0.004333 0.001158
# 2 -0.000550 0.012924 -0.002514 0.004273 0.003723 0.006671
# 3 -0.005495 -0.002514 0.015666 0.004967 -0.001926 0.008731
# 4 -0.001344 0.004273 0.004967 0.027448 0.002510 0.009654
# 5 0.004333 0.003723 -0.001926 0.002510 0.024743 0.002761
# 6 0.001158 0.006671 0.008731 0.009654 0.002761 0.038893
#
#
# Mechanical properties :
#
#
# Convention : Reuss Voigt Hill
#
# Bulk Modulus (GPa) = 40.15498 61.65879 50.90689
# Shear Modulus (GPa) = 31.54142 38.64958 35.09550
#
# Velocity S-wave (km/s) = 3.84585 4.25721 4.05675
# Velocity P-wave (km/s) = 6.20891 7.28550 6.76864
#
# Compressibility (1/GPa) = 0.02490351
#
# Stress axis : x y z
#
# Youngs Moduli (GPa) = 74.46113 77.37703 63.83086
#
# Poissons Ratio (x) = 0.04257 0.35072
# Poissons Ratio (y) = 0.04097 0.16044
# Poissons Ratio (z) = 0.40913 0.19449
#
# Static dielectric constant tensor:
#      x y z
#    x 3.828630 0.110270 -0.188970 
#    y 0.110270 4.137170 0.574160 
#    z -0.188970 0.574160 4.624060 
# 
# 
# High freq. dielectric constant tensor:
#      x y z
#    x 1.851690 -0.003500 -0.000200 
#    y -0.003500 1.852340 0.001140 
#    z -0.000200 0.001140 1.860920 
# 
# From -- ./inp_files/90823.got.cif
#   From: 2010.06.25/outbox.cif.g09.slc.cpg/sg2_46_cif.got.tgz:90823.got - 2010.06.27 13:26:56.
