data_PCOD8034816
_publ_section_title
;
Structure prediction by ZEFSAII (Michael W. Deem and Ramdas Pophale) SiO2 
 PCOD8034816
Probable space group: P -1
;
_chemical_formula_sum "Si O2"
_cell_formula_units_Z 14
_cell_length_a 20.492736
_cell_length_b 7.944437
_cell_length_c 6.749040
_cell_angle_alpha 85.537139
_cell_angle_beta 112.591050
_cell_angle_gamma 44.973704
_cell_volume 605.440011
_symmetry_space_group_name_H-M "P -1"
_symmetry_group_IT_number 2
_symmetry_cell_setting 'triclinic'
loop_
_space_group_symop_operation_xyz
x,y,z
-x,-y,-z
loop_
_atom_site_type_symbol
_atom_site_label
_atom_site_fract_x
_atom_site_fract_y
_atom_site_fract_z
Si Si1 0.667774 0.223028 0.239330
Si Si2 0.177214 0.534532 0.765803
Si Si3 0.118035 0.173900 0.216602
Si Si4 0.256274 0.049077 0.052492
Si Si5 0.032451 0.982695 0.255215
Si Si6 0.588359 0.723153 0.990755
Si Si7 0.454087 0.729624 0.579142
O O1 0.564572 0.317756 0.221028
O O2 0.791120 0.921724 0.507554
O O3 0.664847 0.193188 0.001797
O O4 0.646290 0.464818 0.218050
O O5 0.170341 0.347568 0.817898
O O6 0.087988 0.802848 0.781100
O O7 0.129257 0.664016 0.477023
O O8 0.310303 0.345904 0.962830
O O9 0.088311 0.059325 0.303090
O O10 0.185740 0.038869 0.094318
O O11 0.000000 0.500000 0.000000
O O12 0.332408 0.014297 0.301943
O O13 0.000000 0.000000 0.000000
O O14 0.528653 0.755336 0.718442
O O15 0.500000 0.000000 0.000000
O O16 0.500000 0.500000 0.500000
#
# Coordination Sequence:
#
# PCOD8034816 Si02
#       7
#     2   2   2   2   2   2   2
#     4  11  25  46  72 103 148 188 247 298 367 441
#     4  11  26  46  67 108 140 190 237 299 369 428
#     4  11  24  46  71 108 136 191 243 299 367 441
#     4  11  25  44  75 103 143 189 245 296 364 444
#     4  11  26  45  71 100 150 180 239 304 366 427
#     4  12  26  46  73 104 150 195 240 302 372 428
#     4  11  25  45  72 103 141 191 245 296 351 437
#
# _framework density 23.123678999999999
#
# number of rings (size 3 to 8) (size 9 to 14) (size 15 to 20)
#    0.000    0.857    4.286    1.286    6.000    2.286 
#    0.000    0.000    0.000    0.000    0.000    0.000 
#    0.000    0.000    0.000    0.000    0.000    0.000 
#
# Total GULP energy -173469.212214 kJ/mol
# GULP energy per Si atom -12390.658015 kJ/mol
# Density = 2.307105 g / cm^3
# Si number density = 23.123679 Si / 1000 Ang^3
#
#
#
# Elastic Constant Matrix: (Units=GPa)
#
#
# Indices 1 2 3 4 5 6 
#
# 1 94.4028 30.9401 35.4250 2.3429 -7.4055 -23.2436
# 2 30.9401 108.6822 52.1396 7.1160 6.4826 -10.1677
# 3 35.4250 52.1396 139.7195 8.6118 -11.0630 -3.0520
# 4 2.3429 7.1160 8.6118 41.9754 6.4137 -9.4928
# 5 -7.4055 6.4826 -11.0630 6.4137 40.0906 -2.4453
# 6 -23.2436 -10.1677 -3.0520 -9.4928 -2.4453 41.1100
#
#
#
# Elastic Compliance Matrix: (Units=1/GPa)
#
#
# Indices 1 2 3 4 5 6 
#
# 1 0.014422 -0.002445 -0.002457 0.001492 0.002623 0.007868
# 2 -0.002445 0.012226 -0.004175 -0.000312 -0.003466 0.001053
# 3 -0.002457 -0.004175 0.009667 -0.002063 0.003097 -0.001996
# 4 0.001492 -0.000312 -0.002063 0.026293 -0.004057 0.006444
# 5 0.002623 -0.003466 0.003097 -0.004057 0.027587 0.001560
# 6 0.007868 0.001053 -0.001996 0.006444 0.001560 0.030466
#
#
# Mechanical properties :
#
#
# Convention : Reuss Voigt Hill
#
# Bulk Modulus (GPa) = 55.06130 64.42376 59.74253
# Shear Modulus (GPa) = 34.51421 39.58853 37.05137
#
# Velocity S-wave (km/s) = 3.86760 4.14216 4.00723
# Velocity P-wave (km/s) = 6.61874 7.12725 6.87770
#
# Compressibility (1/GPa) = 0.01816158
#
# Stress axis : x y z
#
# Youngs Moduli (GPa) = 69.33849 81.79483 103.44837
#
# Poissons Ratio (x) = 0.20001 0.25412
# Poissons Ratio (y) = 0.16955 0.43185
# Poissons Ratio (z) = 0.17033 0.34146
#
# Static dielectric constant tensor:
#      x y z
#    x 4.102020 -0.244610 -0.104760 
#    y -0.244610 4.013130 -0.182950 
#    z -0.104760 -0.182950 4.570560 
# 
# 
# High freq. dielectric constant tensor:
#      x y z
#    x 1.913730 -0.020070 -0.008220 
#    y -0.020070 1.900100 -0.017090 
#    z -0.008220 -0.017090 1.939480 
# 
# From -- ./inp_files/38709.got.cif
#   From: 2010.06.25/outbox.cif.g09.slc.cpg/sg2_20_cif.got.tgz:38709.got - 2010.06.27 13:26:56.
