data_PCOD8034553
_publ_section_title
;
Structure prediction by ZEFSAII (Michael W. Deem and Ramdas Pophale) SiO2 
 PCOD8034553
Probable space group: P -1
;
_chemical_formula_sum "Si O2"
_cell_formula_units_Z 14
_cell_length_a 16.930533
_cell_length_b 20.234005
_cell_length_c 9.329409
_cell_angle_alpha 141.736317
_cell_angle_beta 48.357907
_cell_angle_gamma 160.851552
_cell_volume 600.438720
_symmetry_space_group_name_H-M "P -1"
_symmetry_group_IT_number 2
_symmetry_cell_setting 'triclinic'
loop_
_space_group_symop_operation_xyz
x,y,z
-x,-y,-z
loop_
_atom_site_type_symbol
_atom_site_label
_atom_site_fract_x
_atom_site_fract_y
_atom_site_fract_z
Si Si1 0.958077 0.866612 0.714391
Si Si2 0.245682 0.221079 0.474783
Si Si3 0.172927 0.478375 0.280302
Si Si4 0.429391 0.045006 0.588542
Si Si5 0.377277 0.099945 0.035490
Si Si6 0.853887 0.545219 0.397962
Si Si7 0.506452 0.422500 0.986016
O O1 0.803651 0.756546 0.570604
O O2 0.823579 0.643222 0.572084
O O3 0.260217 0.116044 0.740273
O O4 0.000000 0.000000 0.000000
O O5 0.322626 0.171837 0.262183
O O6 0.485752 0.502871 0.746195
O O7 0.000000 0.000000 0.500000
O O8 0.342032 0.718449 0.396087
O O9 0.216800 0.545424 0.507872
O O10 0.241697 0.419212 0.061215
O O11 0.865870 0.200735 0.139252
O O12 0.500000 0.000000 0.500000
O O13 0.417531 0.128517 0.863846
O O14 0.143910 0.771866 0.393336
O O15 0.632381 0.287201 0.125881
O O16 0.500000 0.500000 0.000000
#
# Coordination Sequence:
#
# PCOD8034553 Si02
#       7
#     2   2   2   2   2   2   2
#     4  12  24  39  61  98 149 190 236 283 335 420
#     4  12  24  37  66 104 146 196 230 274 344 418
#     4  11  24  45  70  98 143 183 229 288 352 417
#     4  11  27  52  76  99 134 182 239 305 363 410
#     4  11  25  45  68 107 143 180 239 285 343 427
#     4  11  26  43  71 104 140 182 234 291 353 419
#     4  12  22  39  65  99 142 192 231 271 339 415
#
# _framework density 23.316282999999999
#
# number of rings (size 3 to 8) (size 9 to 14) (size 15 to 20)
#    0.000    0.571    4.286    4.286    2.000    5.143 
#    0.000    1.429    0.000    0.000    0.000    0.000 
#    0.000    0.000    0.000    0.000    0.000    0.000 
#
# Total GULP energy -173605.292969 kJ/mol
# GULP energy per Si atom -12400.378069 kJ/mol
# Density = 2.326321 g / cm^3
# Si number density = 23.316283 Si / 1000 Ang^3
#
#
#
# Elastic Constant Matrix: (Units=GPa)
#
#
# Indices 1 2 3 4 5 6 
#
# 1 123.9034 58.7941 36.7601 23.2537 20.3836 -8.9872
# 2 58.7941 131.8329 34.9762 32.6413 18.9691 -16.4016
# 3 36.7601 34.9762 66.3760 18.5956 35.1427 5.0419
# 4 23.2537 32.6413 18.5956 38.3934 12.6544 8.4488
# 5 20.3836 18.9691 35.1427 12.6544 43.3802 6.1760
# 6 -8.9872 -16.4016 5.0419 8.4488 6.1760 47.2449
#
#
#
# Elastic Compliance Matrix: (Units=1/GPa)
#
#
# Indices 1 2 3 4 5 6 
#
# 1 0.011406 -0.003063 -0.003904 -0.002752 -0.000348 0.002060
# 2 -0.003063 0.012575 -0.002968 -0.008662 0.000069 0.005640
# 3 -0.003904 -0.002968 0.030606 -0.002738 -0.020599 -0.001857
# 4 -0.002752 -0.008662 -0.002738 0.039518 -0.002814 -0.009938
# 5 -0.000348 0.000069 -0.020599 -0.002814 0.041079 -0.002711
# 6 0.002060 0.005640 -0.001857 -0.009938 -0.002711 0.025846
#
#
# Mechanical properties :
#
#
# Convention : Reuss Voigt Hill
#
# Bulk Modulus (GPa) = 28.80476 64.79699 46.80088
# Shear Modulus (GPa) = 25.97772 38.57583 32.27678
#
# Velocity S-wave (km/s) = 3.34150 4.07192 3.72466
# Velocity P-wave (km/s) = 5.22190 7.06811 6.21395
#
# Compressibility (1/GPa) = 0.03471649
#
# Stress axis : x y z
#
# Youngs Moduli (GPa) = 87.67564 79.52016 32.67350
#
# Poissons Ratio (x) = 0.24358 0.12756
# Poissons Ratio (y) = 0.26857 0.09698
# Poissons Ratio (z) = 0.34228 0.23603
#
# Static dielectric constant tensor:
#      x y z
#    x 4.130080 0.678440 0.546000 
#    y 0.678440 5.568710 0.022310 
#    z 0.546000 0.022310 4.342980 
# 
# 
# High freq. dielectric constant tensor:
#      x y z
#    x 1.913040 0.008890 0.019900 
#    y 0.008890 1.951850 0.013100 
#    z 0.019900 0.013100 1.909650 
# 
# From -- ./inp_files/337421.got.cif
#   From: 2010.06.25/outbox.cif.g09.slc.cpg/sg2_169_cif.got.tgz:337421.got - 2010.06.27 13:26:56.
