data_PCOD8034895
_publ_section_title
;
Structure prediction by ZEFSAII (Michael W. Deem and Ramdas Pophale) SiO2 
 PCOD8034895
Probable space group: P -1
;
_chemical_formula_sum "Si O2"
_cell_formula_units_Z 16
_cell_length_a 8.479421
_cell_length_b 18.573725
_cell_length_c 11.711752
_cell_angle_alpha 39.760185
_cell_angle_beta 53.693321
_cell_angle_gamma 85.326545
_cell_volume 654.743109
_symmetry_space_group_name_H-M "P -1"
_symmetry_group_IT_number 2
_symmetry_cell_setting 'triclinic'
loop_
_space_group_symop_operation_xyz
x,y,z
-x,-y,-z
loop_
_atom_site_type_symbol
_atom_site_label
_atom_site_fract_x
_atom_site_fract_y
_atom_site_fract_z
Si Si1 0.367051 0.479027 0.466074
Si Si2 0.387039 0.889822 0.073928
Si Si3 0.290612 0.065858 0.759696
Si Si4 0.310132 0.029935 0.536557
Si Si5 0.182891 0.636988 0.156258
Si Si6 0.957543 0.548338 0.772744
Si Si7 0.232643 0.150180 0.136382
Si Si8 0.370293 0.597861 0.690749
O O1 0.500000 0.500000 0.500000
O O2 0.399652 0.397719 0.453417
O O3 0.030551 0.347941 0.792711
O O4 0.536843 0.666483 0.129866
O O5 0.094343 0.712578 0.453493
O O6 0.602933 0.881565 0.957282
O O7 0.500000 0.000000 0.000000
O O8 0.327018 0.950825 0.921627
O O9 0.321910 0.092740 0.578572
O O10 0.525655 0.236539 0.516257
O O11 0.000000 0.000000 0.000000
O O12 0.500000 0.000000 0.500000
O O13 0.494089 0.183601 0.176705
O O14 0.979862 0.874244 0.833005
O O15 0.000000 0.500000 0.500000
O O16 0.226194 0.582546 0.089767
O O17 0.170600 0.540007 0.738051
O O18 0.781584 0.521249 0.989321
O O19 0.000000 0.000000 0.500000
#
# Coordination Sequence:
#
# PCOD8034895 Si02
#       8
#     2   2   2   2   2   2   2   2
#     4  12  25  46  79 102 144 195 254 296 360 454
#     4  12  25  46  74 103 146 194 246 307 368 451
#     4  12  28  48  74 110 151 195 246 318 386 443
#     4  12  28  46  73 110 154 193 245 312 385 439
#     4  12  26  47  69 107 149 191 240 313 370 433
#     4  11  24  46  74 105 147 193 255 304 367 448
#     4  12  27  47  73 110 144 195 251 299 370 453
#     4  11  25  48  75 109 144 198 254 305 371 449
#
# _framework density 24.437062999999998
#
# number of rings (size 3 to 8) (size 9 to 14) (size 15 to 20)
#    0.000    0.250    5.000    3.000    7.000    0.000 
#    2.250    1.250    0.000    0.000    0.000    0.000 
#    0.000    0.000    0.000    0.000    0.000    0.000 
#
# Total GULP energy -198267.481492 kJ/mol
# GULP energy per Si atom -12391.717593 kJ/mol
# Density = 2.438144 g / cm^3
# Si number density = 24.437063 Si / 1000 Ang^3
#
#
#
# Elastic Constant Matrix: (Units=GPa)
#
#
# Indices 1 2 3 4 5 6 
#
# 1 43.4501 -5.2959 1.4661 6.4159 -1.1970 -18.8402
# 2 -5.2959 114.3534 9.8024 7.8000 -3.9972 -14.6913
# 3 1.4661 9.8024 115.7931 4.1365 1.4385 -9.1840
# 4 6.4159 7.8000 4.1365 32.3868 4.8821 -2.0093
# 5 -1.1970 -3.9972 1.4385 4.8821 48.6556 0.4939
# 6 -18.8402 -14.6913 -9.1840 -2.0093 0.4939 40.0768
#
#
#
# Elastic Compliance Matrix: (Units=1/GPa)
#
#
# Indices 1 2 3 4 5 6 
#
# 1 0.031438 0.003953 0.000754 -0.006516 0.001567 0.016055
# 2 0.003953 0.009875 -0.000380 -0.002964 0.001164 0.005228
# 3 0.000754 -0.000380 0.008872 -0.001025 -0.000194 0.002199
# 4 -0.006516 -0.002964 -0.001025 0.033405 -0.003698 -0.002665
# 5 0.001567 0.001164 -0.000194 -0.003698 0.021057 0.000674
# 6 0.016055 0.005228 0.002199 -0.002665 0.000674 0.034778
#
#
# Mechanical properties :
#
#
# Convention : Reuss Voigt Hill
#
# Bulk Modulus (GPa) = 16.99525 31.72690 24.36107
# Shear Modulus (GPa) = 33.24822 42.06544 37.65683
#
# Velocity S-wave (km/s) = 3.69259 4.15345 3.92978
# Velocity P-wave (km/s) = 5.01498 6.00107 5.53005
#
# Compressibility (1/GPa) = 0.05883998
#
# Stress axis : x y z
#
# Youngs Moduli (GPa) = 31.80841 101.26557 112.71177
#
# Poissons Ratio (x) = -0.40032 -0.08498
# Poissons Ratio (y) = -0.12574 0.04282
# Poissons Ratio (z) = -0.02398 0.03847
#
# Static dielectric constant tensor:
#      x y z
#    x 4.306390 0.113410 0.724580 
#    y 0.113410 3.957920 0.051630 
#    z 0.724580 0.051630 4.229870 
# 
# 
# High freq. dielectric constant tensor:
#      x y z
#    x 1.979890 0.005660 0.006310 
#    y 0.005660 1.975430 0.005360 
#    z 0.006310 0.005360 1.991260 
# 
# From -- ./inp_files/402819.got.cif
#   From: 2010.06.25/outbox.cif.g09.slc.cpg/sg2_202_cif.got.tgz:402819.got - 2010.06.27 13:26:56.
