data_PCOD8034849
_publ_section_title
;
Structure prediction by ZEFSAII (Michael W. Deem and Ramdas Pophale) SiO2 
 PCOD8034849
Probable space group: P -1
;
_chemical_formula_sum "Si O2"
_cell_formula_units_Z 16
_cell_length_a 9.191807
_cell_length_b 7.498054
_cell_length_c 11.898536
_cell_angle_alpha 74.649146
_cell_angle_beta 118.797539
_cell_angle_gamma 100.978653
_cell_volume 691.074242
_symmetry_space_group_name_H-M "P -1"
_symmetry_group_IT_number 2
_symmetry_cell_setting 'triclinic'
loop_
_space_group_symop_operation_xyz
x,y,z
-x,-y,-z
loop_
_atom_site_type_symbol
_atom_site_label
_atom_site_fract_x
_atom_site_fract_y
_atom_site_fract_z
Si Si1 0.681101 0.582570 0.012240
Si Si2 0.115443 0.544330 0.690099
Si Si3 0.257185 0.437871 0.376615
Si Si4 0.319933 0.045489 0.378895
Si Si5 0.662548 0.344472 0.840031
Si Si6 0.820793 0.062464 0.437612
Si Si7 0.200830 0.017973 0.085068
Si Si8 0.310920 0.316346 0.642617
O O1 0.734008 0.500078 0.926372
O O2 0.705590 0.803528 0.969037
O O3 0.500000 0.500000 0.000000
O O4 0.820055 0.525223 0.157548
O O5 0.213673 0.740972 0.662356
O O6 0.148594 0.391656 0.631065
O O7 0.924213 0.577499 0.630313
O O8 0.290608 0.261573 0.342932
O O9 0.284856 0.614444 0.277252
O O10 0.367473 0.439814 0.531827
O O11 0.270573 0.994368 0.241571
O O12 0.500000 0.000000 0.500000
O O13 0.199940 0.922680 0.438140
O O14 0.463000 0.336920 0.782632
O O15 0.735452 0.152529 0.933267
O O16 0.703131 0.898981 0.363572
O O17 0.000000 0.000000 0.500000
O O18 0.000000 0.000000 0.000000
#
# Coordination Sequence:
#
# PCOD8034849 Si02
#       8
#     2   2   2   2   2   2   2   2
#     4  12  29  51  74 108 153 204 245 310 381 450
#     4  12  26  46  75 104 154 190 240 307 376 447
#     4  11  24  46  72 109 145 189 242 308 371 443
#     4  11  25  46  76 108 151 193 249 311 376 441
#     4  12  27  47  77 104 148 195 254 302 366 452
#     4  11  25  44  72 109 146 188 241 311 374 437
#     4  12  29  50  78 112 149 201 258 311 376 451
#     4  11  25  44  70 112 141 189 245 301 374 443
#
# _framework density 23.152360000000002
#
# number of rings (size 3 to 8) (size 9 to 14) (size 15 to 20)
#    0.000    0.500    5.000    3.000    8.750    3.500 
#    0.000    0.000    0.000    0.000    0.000    0.000 
#    0.000    0.000    0.000    0.000    0.000    0.000 
#
# Total GULP energy -198315.061691 kJ/mol
# GULP energy per Si atom -12394.691356 kJ/mol
# Density = 2.309966 g / cm^3
# Si number density = 23.152360 Si / 1000 Ang^3
#
#
#
# Elastic Constant Matrix: (Units=GPa)
#
#
# Indices 1 2 3 4 5 6 
#
# 1 90.9773 25.2996 19.4073 -13.9116 -2.7786 -3.5303
# 2 25.2996 117.4054 36.1569 -31.0646 0.2406 -0.2300
# 3 19.4073 36.1569 126.2120 -9.7662 -3.7548 3.5259
# 4 -13.9116 -31.0646 -9.7662 40.4450 4.5404 -1.4580
# 5 -2.7786 0.2406 -3.7548 4.5404 27.6606 -9.4120
# 6 -3.5303 -0.2300 3.5259 -1.4580 -9.4120 34.0667
#
#
#
# Elastic Compliance Matrix: (Units=1/GPa)
#
#
# Indices 1 2 3 4 5 6 
#
# 1 0.012200 -0.001549 -0.001242 0.002631 0.001266 0.001845
# 2 -0.001549 0.011797 -0.002570 0.008125 -0.001942 -0.000004
# 3 -0.001242 -0.002570 0.008870 -0.000389 0.000880 -0.000838
# 4 0.002631 0.008125 -0.000389 0.032356 -0.005049 0.000358
# 5 0.001266 -0.001942 0.000880 -0.005049 0.041038 0.011149
# 6 0.001845 -0.000004 -0.000838 0.000358 0.011149 0.032728
#
#
# Mechanical properties :
#
#
# Convention : Reuss Voigt Hill
#
# Bulk Modulus (GPa) = 45.16093 55.14694 50.15394
# Shear Modulus (GPa) = 31.82807 37.34987 34.58897
#
# Velocity S-wave (km/s) = 3.71175 4.02085 3.86939
# Velocity P-wave (km/s) = 6.15774 6.73997 6.45542
#
# Compressibility (1/GPa) = 0.02214303
#
# Stress axis : x y z
#
# Youngs Moduli (GPa) = 81.96610 84.76955 112.73891
#
# Poissons Ratio (x) = 0.13133 0.14007
# Poissons Ratio (y) = 0.12699 0.28976
# Poissons Ratio (z) = 0.10184 0.21788
#
# Static dielectric constant tensor:
#      x y z
#    x 4.355400 0.715930 0.015950 
#    y 0.715930 7.056730 0.123890 
#    z 0.015950 0.123890 4.287850 
# 
# 
# High freq. dielectric constant tensor:
#      x y z
#    x 1.922020 -0.010510 -0.001970 
#    y -0.010510 1.920660 -0.006140 
#    z -0.001970 -0.006140 1.925520 
# 
# From -- ./inp_files/381774.got.cif
#   From: 2010.06.25/outbox.cif.g09.slc.cpg/sg2_191_cif.got.tgz:381774.got - 2010.06.27 13:26:56.
