data_PCOD8034970
_publ_section_title
;
Structure prediction by ZEFSAII (Michael W. Deem and Ramdas Pophale) SiO2 
 PCOD8034970
Probable space group: P -1
;
_chemical_formula_sum "Si O2"
_cell_formula_units_Z 16
_cell_length_a 11.538172
_cell_length_b 12.981544
_cell_length_c 14.637388
_cell_angle_alpha 45.124629
_cell_angle_beta 151.833717
_cell_angle_gamma 124.113445
_cell_volume 721.003612
_symmetry_space_group_name_H-M "P -1"
_symmetry_group_IT_number 2
_symmetry_cell_setting 'triclinic'
loop_
_space_group_symop_operation_xyz
x,y,z
-x,-y,-z
loop_
_atom_site_type_symbol
_atom_site_label
_atom_site_fract_x
_atom_site_fract_y
_atom_site_fract_z
Si Si1 0.583520 0.782975 0.527793
Si Si2 0.792294 0.633103 0.079250
Si Si3 0.012240 0.065907 0.234309
Si Si4 0.483104 0.228738 0.724084
Si Si5 0.205039 0.040374 0.183398
Si Si6 0.024222 0.867022 0.530928
Si Si7 0.371209 0.502223 0.587570
Si Si8 0.529011 0.393512 0.958266
O O1 0.874520 0.794909 0.732703
O O2 0.497184 0.789862 0.359029
O O3 0.526362 0.633667 0.624707
O O4 0.456360 0.925197 0.409436
O O5 0.634982 0.539388 0.967020
O O6 0.083658 0.564049 0.326796
O O7 0.751997 0.794155 0.905805
O O8 0.689202 0.638571 0.106867
O O9 0.116233 0.017823 0.237510
O O10 0.085656 0.921190 0.439213
O O11 0.714928 0.116752 0.997149
O O12 0.490792 0.397117 0.653276
O O13 0.230927 0.193955 0.613247
O O14 0.000000 0.000000 0.000000
O O15 0.246019 0.743764 0.798006
O O16 0.000000 0.000000 0.500000
O O17 0.402967 0.410008 0.761040
#
# Coordination Sequence:
#
# PCOD8034970 Si02
#       8
#     2   2   2   2   2   2   2   2
#     4  12  26  47  71 106 143 182 234 291 348 419
#     4  11  24  47  69 102 144 181 232 293 348 414
#     4  12  26  45  75 103 140 187 231 289 358 405
#     4  12  26  46  70 106 140 187 232 287 353 415
#     4  12  24  46  74 105 138 180 236 291 347 415
#     4  12  25  48  72 102 146 182 236 287 340 421
#     4  12  25  44  72 102 141 186 235 284 353 414
#     4  11  26  46  71 102 140 188 234 289 344 417
#
# _framework density 22.191289999999999
#
# number of rings (size 3 to 8) (size 9 to 14) (size 15 to 20)
#    0.000    0.250    5.000    3.750    0.000    3.500 
#    0.000    0.000    0.000    0.000    0.000    0.000 
#    0.000    0.000    0.000    0.000    0.000    0.000 
#
# Total GULP energy -198492.892645 kJ/mol
# GULP energy per Si atom -12405.805790 kJ/mol
# Density = 2.214078 g / cm^3
# Si number density = 22.191290 Si / 1000 Ang^3
#
#
#
# Elastic Constant Matrix: (Units=GPa)
#
#
# Indices 1 2 3 4 5 6 
#
# 1 106.1763 40.1842 27.5697 -21.5801 -14.4803 0.6697
# 2 40.1842 82.7986 29.7038 -23.5499 -0.2895 -8.5720
# 3 27.5697 29.7038 78.9593 -10.7883 -6.3183 -7.4664
# 4 -21.5801 -23.5499 -10.7883 36.9839 -0.4257 2.7956
# 5 -14.4803 -0.2895 -6.3183 -0.4257 32.4100 -2.2778
# 6 0.6697 -8.5720 -7.4664 2.7956 -2.2778 35.6343
#
#
#
# Elastic Compliance Matrix: (Units=1/GPa)
#
#
# Indices 1 2 3 4 5 6 
#
# 1 0.013372 -0.004662 -0.002041 0.004437 0.005466 -0.001799
# 2 -0.004662 0.018227 -0.004136 0.007435 -0.002428 0.002867
# 3 -0.002041 -0.004136 0.015407 0.000515 0.002228 0.002374
# 4 0.004437 0.007435 0.000515 0.034597 0.002552 -0.000738
# 5 0.005466 -0.002428 0.002228 0.002552 0.033866 0.001745
# 6 -0.001799 0.002867 0.002374 -0.000738 0.001745 0.029453
#
#
# Mechanical properties :
#
#
# Convention : Reuss Voigt Hill
#
# Bulk Modulus (GPa) = 39.48633 51.42771 45.45702
# Shear Modulus (GPa) = 28.56433 32.37073 30.46753
#
# Velocity S-wave (km/s) = 3.59163 3.82345 3.70935
# Velocity P-wave (km/s) = 5.91878 6.53581 6.23493
#
# Compressibility (1/GPa) = 0.02532522
#
# Stress axis : x y z
#
# Youngs Moduli (GPa) = 74.78533 54.86351 64.90676
#
# Poissons Ratio (x) = 0.25580 0.13250
# Poissons Ratio (y) = 0.34868 0.26847
# Poissons Ratio (z) = 0.15267 0.22693
#
# Static dielectric constant tensor:
#      x y z
#    x 4.156850 0.027060 0.049820 
#    y 0.027060 4.285840 -0.084560 
#    z 0.049820 -0.084560 4.200020 
# 
# 
# High freq. dielectric constant tensor:
#      x y z
#    x 1.885470 -0.000920 0.000110 
#    y -0.000920 1.886610 0.007610 
#    z 0.000110 0.007610 1.883330 
# 
# From -- ./inp_files/518797.got.cif
#   From: 2010.06.25/outbox.cif.g09.slc.cpg/sg2_260_cif.got.tgz:518797.got - 2010.06.27 13:26:56.
