data_PCOD8034117
_publ_section_title
;
Structure prediction by ZEFSAII (Michael W. Deem and Ramdas Pophale) SiO2 
 PCOD8034117
Probable space group: P -1
;
_chemical_formula_sum "Si O2"
_cell_formula_units_Z 16
_cell_length_a 9.353703
_cell_length_b 19.254734
_cell_length_c 12.266600
_cell_angle_alpha 30.470088
_cell_angle_beta 143.086976
_cell_angle_gamma 141.856157
_cell_volume 637.557117
_symmetry_space_group_name_H-M "P -1"
_symmetry_group_IT_number 2
_symmetry_cell_setting 'triclinic'
loop_
_space_group_symop_operation_xyz
x,y,z
-x,-y,-z
loop_
_atom_site_type_symbol
_atom_site_label
_atom_site_fract_x
_atom_site_fract_y
_atom_site_fract_z
Si Si1 0.348330 0.937955 0.784589
Si Si2 0.644606 0.380385 0.769934
Si Si3 0.189348 0.791770 0.358383
Si Si4 0.891402 0.748719 0.439975
Si Si5 0.190338 0.258892 0.991363
Si Si6 0.150745 0.488384 0.825372
Si Si7 0.288499 0.611197 0.957340
Si Si8 0.944082 0.973505 0.338975
O O1 0.284043 0.984884 0.801670
O O2 0.569745 0.067376 0.691868
O O3 0.089038 0.900881 0.608717
O O4 0.422739 0.793225 0.028576
O O5 0.365132 0.390157 0.551700
O O6 0.847092 0.443714 0.711577
O O7 0.751013 0.448422 0.862048
O O8 0.266466 0.652789 0.630946
O O9 0.001211 0.821613 0.293186
O O10 0.056551 0.753185 0.212789
O O11 0.100170 0.699673 0.695654
O O12 0.817385 0.864913 0.310843
O O13 0.239841 0.386455 0.938026
O O14 0.425845 0.283731 0.021366
O O15 0.155169 0.112660 0.232200
O O16 0.248798 0.481858 0.018722
#
# Coordination Sequence:
#
# PCOD8034117 Si02
#       8
#     2   2   2   2   2   2   2   2
#     4  11  25  45  71 107 140 185 236 291 352 420
#     4  12  24  48  74 105 144 182 238 289 354 416
#     4  11  26  45  69 107 142 185 238 286 353 419
#     4  11  25  44  73 107 140 188 227 297 349 417
#     4  12  24  46  72 103 143 189 233 292 349 416
#     4  11  26  48  70 103 142 192 233 288 352 416
#     4  11  25  46  71 105 142 186 237 286 351 422
#     4  11  24  43  73 106 142 182 236 293 353 416
#
# _framework density 25.095791999999999
#
# number of rings (size 3 to 8) (size 9 to 14) (size 15 to 20)
#    0.000    0.750    3.750    3.375    3.500    5.000 
#    2.250    0.000    0.000    0.000    0.000    0.000 
#    0.000    0.000    0.000    0.000    0.000    0.000 
#
# Total GULP energy -198464.793523 kJ/mol
# GULP energy per Si atom -12404.049595 kJ/mol
# Density = 2.503867 g / cm^3
# Si number density = 25.095792 Si / 1000 Ang^3
#
#
#
# Elastic Constant Matrix: (Units=GPa)
#
#
# Indices 1 2 3 4 5 6 
#
# 1 117.8082 31.3657 14.2482 -1.7396 -0.9438 -4.4111
# 2 31.3657 114.7518 14.2879 -5.9634 -0.0012 -9.4566
# 3 14.2482 14.2879 77.5789 7.4007 -2.7649 -8.0105
# 4 -1.7396 -5.9634 7.4007 33.5857 5.3827 -6.9820
# 5 -0.9438 -0.0012 -2.7649 5.3827 30.2067 2.7366
# 6 -4.4111 -9.4566 -8.0105 -6.9820 2.7366 67.5187
#
#
#
# Elastic Compliance Matrix: (Units=1/GPa)
#
#
# Indices 1 2 3 4 5 6 
#
# 1 0.009280 -0.002344 -0.001288 0.000367 0.000092 0.000159
# 2 -0.002344 0.009769 -0.001482 0.002331 -0.000743 0.001310
# 3 -0.001288 -0.001482 0.013890 -0.003482 0.001768 0.000925
# 4 0.000367 0.002331 -0.003482 0.032757 -0.006469 0.003587
# 5 0.000092 -0.000743 0.001768 -0.006469 0.034600 -0.001960
# 6 0.000159 0.001310 0.000925 0.003587 -0.001960 0.015565
#
#
# Mechanical properties :
#
#
# Convention : Reuss Voigt Hill
#
# Bulk Modulus (GPa) = 44.03152 47.77138 45.90145
# Shear Modulus (GPa) = 37.40824 42.94469 40.17646
#
# Velocity S-wave (km/s) = 3.86504 4.14119 4.00550
# Velocity P-wave (km/s) = 6.12385 6.47633 6.30255
#
# Compressibility (1/GPa) = 0.02271101
#
# Stress axis : x y z
#
# Youngs Moduli (GPa) = 107.75431 102.36604 71.99298
#
# Poissons Ratio (x) = 0.23996 0.09272
# Poissons Ratio (y) = 0.25259 0.10671
# Poissons Ratio (z) = 0.13878 0.15172
#
# Static dielectric constant tensor:
#      x y z
#    x 4.750520 -0.128930 -0.055740 
#    y -0.128930 4.655630 0.032100 
#    z -0.055740 0.032100 4.376340 
# 
# 
# High freq. dielectric constant tensor:
#      x y z
#    x 2.011280 0.003490 -0.001180 
#    y 0.003490 2.019140 0.004780 
#    z -0.001180 0.004780 1.999640 
# 
# From -- ./inp_files/402909.got.cif
#   From: 2010.06.25/outbox.cif.g09.slc.cpg/sg2_202_cif.got.tgz:402909.got - 2010.06.27 13:26:56.
