data_PCOD8034660
_publ_section_title
;
Structure prediction by ZEFSAII (Michael W. Deem and Ramdas Pophale) SiO2 
 PCOD8034660
Probable space group: P -1
;
_chemical_formula_sum "Si O2"
_cell_formula_units_Z 16
_cell_length_a 9.480108
_cell_length_b 10.340221
_cell_length_c 9.392086
_cell_angle_alpha 100.370343
_cell_angle_beta 127.105422
_cell_angle_gamma 77.068734
_cell_volume 714.439012
_symmetry_space_group_name_H-M "P -1"
_symmetry_group_IT_number 2
_symmetry_cell_setting 'triclinic'
loop_
_space_group_symop_operation_xyz
x,y,z
-x,-y,-z
loop_
_atom_site_type_symbol
_atom_site_label
_atom_site_fract_x
_atom_site_fract_y
_atom_site_fract_z
Si Si1 0.323155 0.448640 0.427982
Si Si2 0.136732 0.948220 0.454835
Si Si3 0.002820 0.327560 0.730013
Si Si4 0.796368 0.747550 0.882674
Si Si5 0.705149 0.581144 0.265509
Si Si6 0.024872 0.889872 0.871700
Si Si7 0.356512 0.704056 0.914753
Si Si8 0.478720 0.907111 0.834702
O O1 0.500000 0.500000 0.500000
O O2 0.148168 0.550813 0.311466
O O3 0.333501 0.331977 0.297729
O O4 0.316342 0.399554 0.575699
O O5 0.098595 0.800423 0.366824
O O6 0.333145 0.962208 0.637884
O O7 0.000000 0.000000 0.500000
O O8 0.099922 0.046550 0.319205
O O9 0.124877 0.351590 0.671648
O O10 0.130210 0.323965 0.942817
O O11 0.674542 0.886909 0.878026
O O12 0.953450 0.764366 0.872589
O O13 0.735786 0.424254 0.210237
O O14 0.521264 0.659198 0.109542
O O15 0.222801 0.826214 0.928481
O O16 0.000000 0.000000 0.000000
O O17 0.429487 0.764939 0.828396
O O18 0.500000 0.000000 0.000000
#
# Coordination Sequence:
#
# PCOD8034660 Si02
#       8
#     2   2   2   2   2   2   2   2
#     4  12  28  43  70 108 147 179 235 301 360 416
#     4  12  26  44  76 102 140 187 238 289 353 424
#     4  12  25  48  72 102 143 190 241 284 358 434
#     4  12  26  45  71 103 144 185 233 297 364 412
#     4  11  26  45  75 105 138 197 239 293 353 426
#     4  12  26  46  70 110 144 186 235 303 361 415
#     4  11  24  45  74 102 148 185 245 289 354 429
#     4  12  25  48  73 105 143 190 238 291 347 437
#
# _framework density 22.395192000000002
#
# number of rings (size 3 to 8) (size 9 to 14) (size 15 to 20)
#    0.000    0.250    3.750    5.250    5.250    1.500 
#    0.000    0.000    0.000    0.000    0.000    0.000 
#    0.000    0.000    0.000    0.000    0.000    0.000 
#
# Total GULP energy -198348.671695 kJ/mol
# GULP energy per Si atom -12396.791981 kJ/mol
# Density = 2.234422 g / cm^3
# Si number density = 22.395192 Si / 1000 Ang^3
#
#
#
# Elastic Constant Matrix: (Units=GPa)
#
#
# Indices 1 2 3 4 5 6 
#
# 1 120.8149 21.3856 49.8552 -14.5276 -8.9220 -0.6475
# 2 21.3856 77.7359 36.4284 -10.1401 -5.5071 -9.2093
# 3 49.8552 36.4284 140.4514 -10.8099 -10.4997 -20.3215
# 4 -14.5276 -10.1401 -10.8099 43.3761 -1.3893 4.4068
# 5 -8.9220 -5.5071 -10.4997 -1.3893 39.6639 -0.6614
# 6 -0.6475 -9.2093 -20.3215 4.4068 -0.6614 41.3781
#
#
#
# Elastic Compliance Matrix: (Units=1/GPa)
#
#
# Indices 1 2 3 4 5 6 
#
# 1 0.010245 -0.001049 -0.003351 0.002594 0.001330 -0.001974
# 2 -0.001049 0.015163 -0.003060 0.002302 0.001167 0.001629
# 3 -0.003351 -0.003060 0.009826 0.000243 0.001499 0.004090
# 4 0.002594 0.002302 0.000243 0.024776 0.001803 -0.001937
# 5 0.001330 0.001167 0.001499 0.001803 0.026154 0.001243
# 6 -0.001974 0.001629 0.004090 -0.001937 0.001243 0.026734
#
#
# Mechanical properties :
#
#
# Convention : Reuss Voigt Hill
#
# Bulk Modulus (GPa) = 49.23072 61.59339 55.41205
# Shear Modulus (GPa) = 37.14992 40.30583 38.72788
#
# Velocity S-wave (km/s) = 4.07730 4.24695 4.16299
# Velocity P-wave (km/s) = 6.64803 7.18411 6.92126
#
# Compressibility (1/GPa) = 0.02031252
#
# Stress axis : x y z
#
# Youngs Moduli (GPa) = 97.60597 65.95107 101.77410
#
# Poissons Ratio (x) = 0.06921 0.34105
# Poissons Ratio (y) = 0.10243 0.31144
# Poissons Ratio (z) = 0.32708 0.20181
#
# Static dielectric constant tensor:
#      x y z
#    x 4.271770 -0.021820 -0.084770 
#    y -0.021820 4.010870 -0.131410 
#    z -0.084770 -0.131410 4.010790 
# 
# 
# High freq. dielectric constant tensor:
#      x y z
#    x 1.896570 -0.003120 -0.001030 
#    y -0.003120 1.890160 -0.001860 
#    z -0.001030 -0.001860 1.895550 
# 
# From -- ./inp_files/185713.got.cif
#   From: 2010.06.25/outbox.cif.g09.slc.cpg/sg2_93_cif.got.tgz:185713.got - 2010.06.27 13:26:56.
