data_PCOD8034045
_publ_section_title
;
Structure prediction by ZEFSAII (Michael W. Deem and Ramdas Pophale) SiO2 
 PCOD8034045
Probable space group: P -1
;
_chemical_formula_sum "Si O2"
_cell_formula_units_Z 16
_cell_length_a 8.945549
_cell_length_b 11.265676
_cell_length_c 16.613813
_cell_angle_alpha 123.367781
_cell_angle_beta 33.482197
_cell_angle_gamma 110.247774
_cell_volume 747.996673
_symmetry_space_group_name_H-M "P -1"
_symmetry_group_IT_number 2
_symmetry_cell_setting 'triclinic'
loop_
_space_group_symop_operation_xyz
x,y,z
-x,-y,-z
loop_
_atom_site_type_symbol
_atom_site_label
_atom_site_fract_x
_atom_site_fract_y
_atom_site_fract_z
Si Si1 0.608411 0.456320 0.522632
Si Si2 0.920545 0.563603 0.161843
Si Si3 0.270072 0.260102 0.345500
Si Si4 0.821148 0.158094 0.613703
Si Si5 0.155558 0.947063 0.993489
Si Si6 0.176824 0.230396 0.186746
Si Si7 0.617766 0.343969 0.927191
Si Si8 0.202650 0.265698 0.879775
O O1 0.500000 0.500000 0.500000
O O2 0.368922 0.393283 0.645837
O O3 0.690951 0.580673 0.587534
O O4 0.867698 0.321360 0.344686
O O5 0.825280 0.616976 0.135293
O O6 0.125473 0.662606 0.131541
O O7 0.074329 0.391413 0.050756
O O8 0.247621 0.240123 0.252444
O O9 0.996697 0.236157 0.504447
O O10 0.541555 0.139313 0.206109
O O11 0.751035 0.235010 0.757741
O O12 0.519377 0.168630 0.711680
O O13 0.000000 0.000000 0.500000
O O14 0.996310 0.845143 0.076769
O O15 0.190957 0.068049 0.087269
O O16 0.000000 0.000000 0.000000
O O17 0.383101 0.296103 0.065184
O O18 0.500000 0.500000 0.000000
#
# Coordination Sequence:
#
# PCOD8034045 Si02
#       8
#     2   2   2   2   2   2   2   2
#     4  12  25  43  69 105 136 181 236 286 345 406
#     4  11  24  43  71 101 136 179 233 288 339 409
#     4  12  25  46  68 101 141 182 234 286 343 415
#     4  12  26  45  69 103 141 184 230 287 354 415
#     4  12  25  46  71 102 143 186 230 283 352 423
#     4  12  27  44  71 104 140 185 229 290 350 414
#     4  12  24  44  71 102 139 184 237 282 344 422
#     4  11  24  44  70 100 137 183 228 283 350 409
#
# _framework density 21.390467999999998
#
# number of rings (size 3 to 8) (size 9 to 14) (size 15 to 20)
#    0.000    0.250    2.500    7.500    1.750    2.000 
#    0.000    1.875    0.000    0.000    0.000    0.000 
#    0.000    0.000    0.000    0.000    0.000    0.000 
#
# Total GULP energy -198302.000897 kJ/mol
# GULP energy per Si atom -12393.875056 kJ/mol
# Density = 2.134178 g / cm^3
# Si number density = 21.390468 Si / 1000 Ang^3
#
#
#
# Elastic Constant Matrix: (Units=GPa)
#
#
# Indices 1 2 3 4 5 6 
#
# 1 38.2975 -42.9408 3.5461 9.9307 -46.1031 -22.5883
# 2 -42.9408 24.0690 30.2595 12.8035 -61.8261 -24.4924
# 3 3.5461 30.2595 151.4167 -8.4284 -34.9872 -10.6088
# 4 9.9307 12.8035 -8.4284 47.2988 14.9045 11.0705
# 5 -46.1031 -61.8261 -34.9872 14.9045 8.4955 -17.2794
# 6 -22.5883 -24.4924 -10.6088 11.0705 -17.2794 30.4126
#
#
#
# Elastic Compliance Matrix: (Units=1/GPa)
#
#
# Indices 1 2 3 4 5 6 
#
# 1 0.008887 -0.005681 -0.000774 0.002475 -0.007011 -0.003129
# 2 -0.005681 0.007178 -0.003495 0.002562 -0.008474 -0.005405
# 3 -0.000774 -0.003495 0.008184 0.001391 0.003170 0.000759
# 4 0.002475 0.002562 0.001391 0.018979 0.003990 -0.000255
# 5 -0.007011 -0.008474 0.003170 0.003990 0.007225 -0.008273
# 6 -0.003129 -0.005405 0.000759 -0.000255 -0.008273 0.021862
#
#
# Mechanical properties :
#
#
# Convention : Reuss Voigt Hill
#
# Bulk Modulus (GPa) = 229.99835 21.72366 125.86100
# Shear Modulus (GPa) = 53.38174 32.10260 42.74217
#
# Velocity S-wave (km/s) = 5.00100 3.87821 4.47496
# Velocity P-wave (km/s) = 11.87872 5.49834 9.25569
#
# Compressibility (1/GPa) = 0.00434786
#
# Stress axis : x y z
#
# Youngs Moduli (GPa) = 112.52670 139.31464 122.19060
#
# Poissons Ratio (x) = 0.79142 0.09460
# Poissons Ratio (y) = 0.63924 0.42711
# Poissons Ratio (z) = 0.08712 0.48697
#
# Static dielectric constant tensor:
#      x y z
#    x 3.957580 0.001780 -0.268770 
#    y 0.001780 3.904300 -0.195670 
#    z -0.268770 -0.195670 3.663630 
# 
# 
# High freq. dielectric constant tensor:
#      x y z
#    x 1.853760 -0.000180 -0.006250 
#    y -0.000180 1.844740 -0.006030 
#    z -0.006250 -0.006030 1.863940 
# 
# From -- ./inp_files/298025.got.cif
#   From: 2010.06.25/outbox.cif.g09.slc.cpg/sg2_150_cif.got.tgz:298025.got - 2010.06.27 13:26:56.
