data_PCOD8034049
_publ_section_title
;
Structure prediction by ZEFSAII (Michael W. Deem and Ramdas Pophale) SiO2 
 PCOD8034049
Probable space group: P -1
;
_chemical_formula_sum "Si O2"
_cell_formula_units_Z 16
_cell_length_a 14.897668
_cell_length_b 8.837832
_cell_length_c 20.379603
_cell_angle_alpha 131.759733
_cell_angle_beta 22.256892
_cell_angle_gamma 131.909462
_cell_volume 745.371850
_symmetry_space_group_name_H-M "P -1"
_symmetry_group_IT_number 2
_symmetry_cell_setting 'triclinic'
loop_
_space_group_symop_operation_xyz
x,y,z
-x,-y,-z
loop_
_atom_site_type_symbol
_atom_site_label
_atom_site_fract_x
_atom_site_fract_y
_atom_site_fract_z
Si Si1 0.757976 0.633509 0.851359
Si Si2 0.830232 0.527383 0.403743
Si Si3 0.707807 0.167823 0.284308
Si Si4 0.829245 0.871718 0.403875
Si Si5 0.505470 0.648874 0.768880
Si Si6 0.889219 0.702087 0.637116
Si Si7 0.123160 0.909521 0.082490
Si Si8 0.867316 0.754799 0.083145
O O1 0.759416 0.699521 0.793873
O O2 0.953255 0.495429 0.699863
O O3 0.816127 0.851658 0.914042
O O4 0.500000 0.500000 0.000000
O O5 0.730528 0.308524 0.374282
O O6 0.920439 0.700662 0.338010
O O7 0.618511 0.596087 0.608600
O O8 0.458963 0.182843 0.421320
O O9 0.708882 0.933307 0.236053
O O10 0.929159 0.242726 0.108199
O O11 0.949313 0.871551 0.251620
O O12 0.902841 0.096188 0.451977
O O13 0.703249 0.711419 0.708261
O O14 0.311950 0.456842 0.868589
O O15 0.379681 0.846035 0.903249
O O16 0.000000 0.500000 0.500000
O O17 0.988174 0.765266 0.075450
#
# Coordination Sequence:
#
# PCOD8034049 Si02
#       8
#     2   2   2   2   2   2   2   2
#     4  11  27  44  72  96 141 179 225 276 338 405
#     4  12  25  46  68 104 132 182 224 281 339 393
#     4  11  24  43  71 102 137 175 225 282 338 400
#     4  11  26  43  71  98 142 174 228 276 338 402
#     4  12  26  42  73  97 141 174 232 277 333 401
#     4  11  25  47  67 102 134 184 224 270 341 399
#     4  11  25  46  68 104 133 180 224 280 338 398
#     4  11  24  43  71 103 135 177 226 280 338 397
#
# _framework density 21.465795
#
# number of rings (size 3 to 8) (size 9 to 14) (size 15 to 20)
#    0.000    0.750    2.500    3.750    7.000    4.500 
#    0.000    0.000    0.000    0.000    0.000    0.000 
#    0.000    0.000    0.000    0.000    0.000    0.000 
#
# Total GULP energy -198498.013461 kJ/mol
# GULP energy per Si atom -12406.125841 kJ/mol
# Density = 2.141694 g / cm^3
# Si number density = 21.465795 Si / 1000 Ang^3
#
#
#
# Elastic Constant Matrix: (Units=GPa)
#
#
# Indices 1 2 3 4 5 6 
#
# 1 96.6707 10.7854 19.1411 1.0481 -8.5670 4.1283
# 2 10.7854 90.4343 27.5422 -2.9062 -4.6970 -1.8087
# 3 19.1411 27.5422 91.8896 7.7376 -14.9166 0.3696
# 4 1.0481 -2.9062 7.7376 37.3661 -2.6192 -3.8332
# 5 -8.5670 -4.6970 -14.9166 -2.6192 25.6642 3.9828
# 6 4.1283 -1.8087 0.3696 -3.8332 3.9828 39.6591
#
#
#
# Elastic Compliance Matrix: (Units=1/GPa)
#
#
# Indices 1 2 3 4 5 6 
#
# 1 0.011059 -0.000704 -0.001627 0.000022 0.002845 -0.001452
# 2 -0.000704 0.012348 -0.003726 0.001834 -0.000087 0.000857
# 3 -0.001627 -0.003726 0.013641 -0.002715 0.006590 -0.001052
# 4 0.000022 0.001834 -0.002715 0.027824 0.001189 0.002676
# 5 0.002845 -0.000087 0.006590 0.001189 0.044583 -0.004724
# 6 -0.001452 0.000857 -0.001052 0.002676 -0.004724 0.026148
#
#
# Mechanical properties :
#
#
# Convention : Reuss Voigt Hill
#
# Bulk Modulus (GPa) = 40.10680 43.77024 41.93852
# Shear Modulus (GPa) = 32.04530 35.30627 33.67579
#
# Velocity S-wave (km/s) = 3.86794 4.05997 3.96512
# Velocity P-wave (km/s) = 6.21873 6.51251 6.36731
#
# Compressibility (1/GPa) = 0.02493343
#
# Stress axis : x y z
#
# Youngs Moduli (GPa) = 90.42481 80.98363 73.30845
#
# Poissons Ratio (x) = 0.05701 0.11926
# Poissons Ratio (y) = 0.06366 0.27318
# Poissons Ratio (z) = 0.14711 0.30178
#
# Static dielectric constant tensor:
#      x y z
#    x 4.528110 -0.019400 -0.213030 
#    y -0.019400 4.092220 0.214440 
#    z -0.213030 0.214440 3.982900 
# 
# 
# High freq. dielectric constant tensor:
#      x y z
#    x 1.854010 0.000510 -0.002360 
#    y 0.000510 1.854910 0.008270 
#    z -0.002360 0.008270 1.848250 
# 
# From -- ./inp_files/188786.got.cif
#   From: 2010.06.25/outbox.cif.g09.slc.cpg/sg2_95_cif.got.tgz:188786.got - 2010.06.27 13:26:56.
