data_PCOD8034633
_publ_section_title
;
Structure prediction by ZEFSAII (Michael W. Deem and Ramdas Pophale) SiO2 
 PCOD8034633
Probable space group: P -1
;
_chemical_formula_sum "Si O2"
_cell_formula_units_Z 16
_cell_length_a 11.789128
_cell_length_b 9.251543
_cell_length_c 15.462551
_cell_angle_alpha 132.980166
_cell_angle_beta 104.474234
_cell_angle_gamma 112.737707
_cell_volume 738.271257
_symmetry_space_group_name_H-M "P -1"
_symmetry_group_IT_number 2
_symmetry_cell_setting 'triclinic'
loop_
_space_group_symop_operation_xyz
x,y,z
-x,-y,-z
loop_
_atom_site_type_symbol
_atom_site_label
_atom_site_fract_x
_atom_site_fract_y
_atom_site_fract_z
Si Si1 0.785611 0.790886 0.563446
Si Si2 0.676360 0.106805 0.102492
Si Si3 0.637961 0.755619 0.811439
Si Si4 0.672324 0.089012 0.458411
Si Si5 0.037588 0.828975 0.408056
Si Si6 0.807106 0.363934 0.410368
Si Si7 0.739341 0.475979 0.776589
Si Si8 0.923573 0.208626 0.916681
O O1 0.572565 0.538997 0.386254
O O2 0.845451 0.641808 0.505945
O O3 0.927099 0.112277 0.663985
O O4 0.810929 0.905411 0.710980
O O5 0.677787 0.090796 0.200263
O O6 0.867677 0.459125 0.247730
O O7 0.500000 0.000000 0.000000
O O8 0.645311 0.853190 0.949460
O O9 0.737522 0.674839 0.802871
O O10 0.765847 0.062146 0.897750
O O11 0.770665 0.003683 0.442894
O O12 0.702669 0.224464 0.425400
O O13 0.767706 0.341333 0.656608
O O14 0.450111 0.787988 0.310278
O O15 0.000000 0.000000 0.500000
O O16 0.000000 0.500000 0.500000
O O17 0.907099 0.686170 0.963079
O O18 0.000000 0.500000 0.000000
#
# Coordination Sequence:
#
# PCOD8034633 Si02
#       8
#     2   2   2   2   2   2   2   2
#     4  12  25  45  71 102 137 185 236 286 358 418
#     4  12  25  44  70 104 140 184 236 287 352 416
#     4  12  25  47  71  98 144 187 234 285 358 428
#     4  11  24  45  73 104 140 186 237 290 352 425
#     4  12  22  46  71 100 141 188 232 284 353 426
#     4  12  25  43  71 103 140 182 233 293 349 412
#     4  11  26  46  73 101 143 188 234 289 360 418
#     4  12  28  43  70 108 138 179 234 299 347 415
#
# _framework density 21.672250999999999
#
# number of rings (size 3 to 8) (size 9 to 14) (size 15 to 20)
#    0.000    0.250    5.000    3.750    5.250    1.000 
#    0.000    0.625    0.000    0.000    0.000    0.000 
#    0.000    0.000    0.000    0.000    0.000    0.000 
#
# Total GULP energy -198422.190486 kJ/mol
# GULP energy per Si atom -12401.386905 kJ/mol
# Density = 2.162292 g / cm^3
# Si number density = 21.672251 Si / 1000 Ang^3
#
#
#
# Elastic Constant Matrix: (Units=GPa)
#
#
# Indices 1 2 3 4 5 6 
#
# 1 116.7466 32.7593 53.0586 -11.5563 8.4445 -7.7064
# 2 32.7593 128.1367 39.3129 -7.7387 11.2126 12.0588
# 3 53.0586 39.3129 141.5746 -25.9633 -0.1823 2.9353
# 4 -11.5563 -7.7387 -25.9633 34.2860 -1.9931 1.4816
# 5 8.4445 11.2126 -0.1823 -1.9931 34.6877 -1.7243
# 6 -7.7064 12.0588 2.9353 1.4816 -1.7243 44.3799
#
#
#
# Elastic Compliance Matrix: (Units=1/GPa)
#
#
# Indices 1 2 3 4 5 6 
#
# 1 0.011064 -0.001752 -0.003653 0.000341 -0.002000 0.002550
# 2 -0.001752 0.009335 -0.001869 0.000064 -0.002737 -0.002826
# 3 -0.003653 -0.001869 0.010099 0.006143 0.001853 -0.000928
# 4 0.000341 0.000064 0.006143 0.034115 0.001817 -0.001433
# 5 -0.002000 -0.002737 0.001853 0.001817 0.030384 0.001394
# 6 0.002550 -0.002826 -0.000928 -0.001433 0.001394 0.023907
#
#
# Mechanical properties :
#
#
# Convention : Reuss Voigt Hill
#
# Bulk Modulus (GPa) = 62.69231 70.74661 66.71946
# Shear Modulus (GPa) = 36.03129 40.09251 38.06190
#
# Velocity S-wave (km/s) = 4.08187 4.30577 4.19531
# Velocity P-wave (km/s) = 7.15582 7.57854 7.37021
#
# Compressibility (1/GPa) = 0.01595092
#
# Stress axis : x y z
#
# Youngs Moduli (GPa) = 90.38208 107.12632 99.01577
#
# Poissons Ratio (x) = 0.18772 0.36169
# Poissons Ratio (y) = 0.15838 0.18501
# Poissons Ratio (z) = 0.33015 0.20017
#
# Static dielectric constant tensor:
#      x y z
#    x 4.025170 0.076260 -0.062100 
#    y 0.076260 4.292300 -0.081130 
#    z -0.062100 -0.081130 3.906670 
# 
# 
# High freq. dielectric constant tensor:
#      x y z
#    x 1.868060 0.006280 0.004130 
#    y 0.006280 1.862710 -0.006970 
#    z 0.004130 -0.006970 1.850130 
# 
# From -- ./inp_files/185701.got.cif
#   From: 2010.06.25/outbox.cif.g09.slc.cpg/sg2_93_cif.got.tgz:185701.got - 2010.06.27 13:26:56.
