data_PCOD8034347
_publ_section_title
;
Structure prediction by ZEFSAII (Michael W. Deem and Ramdas Pophale) SiO2 
 PCOD8034347
Probable space group: P -1
;
_chemical_formula_sum "Si O2"
_cell_formula_units_Z 16
_cell_length_a 8.789229
_cell_length_b 15.249119
_cell_length_c 5.324889
_cell_angle_alpha 73.394303
_cell_angle_beta 100.099113
_cell_angle_gamma 94.447406
_cell_volume 673.038028
_symmetry_space_group_name_H-M "P -1"
_symmetry_group_IT_number 2
_symmetry_cell_setting 'triclinic'
loop_
_space_group_symop_operation_xyz
x,y,z
-x,-y,-z
loop_
_atom_site_type_symbol
_atom_site_label
_atom_site_fract_x
_atom_site_fract_y
_atom_site_fract_z
Si Si1 0.769928 0.868673 0.668540
Si Si2 0.738479 0.610150 0.464796
Si Si3 0.672192 0.964725 0.069591
Si Si4 0.380289 0.320564 0.135582
Si Si5 0.018767 0.713512 0.337570
Si Si6 0.110156 0.557667 0.166151
Si Si7 0.274264 0.706083 0.803821
Si Si8 0.897427 0.134090 0.105369
O O1 0.687340 0.893015 0.361973
O O2 0.745018 0.762108 0.815650
O O3 0.954013 0.890223 0.662972
O O4 0.700505 0.924611 0.835138
O O5 0.631262 0.613306 0.679342
O O6 0.818410 0.511516 0.554057
O O7 0.865770 0.694192 0.475433
O O8 0.641749 0.622381 0.172838
O O9 0.799100 0.045338 0.076482
O O10 0.500000 0.000000 0.000000
O O11 0.547456 0.276042 0.221188
O O12 0.000597 0.635080 0.182793
O O13 0.179813 0.693770 0.531703
O O14 0.024916 0.817719 0.157581
O O15 0.252100 0.611783 0.027712
O O16 0.000000 0.500000 0.000000
O O17 0.214763 0.794935 0.856130
#
# Coordination Sequence:
#
# PCOD8034347 Si02
#       8
#     2   2   2   2   2   2   2   2
#     4  12  26  48  74 105 145 187 240 287 353 425
#     4  12  25  46  72 100 143 189 243 289 357 422
#     4  12  28  47  75 109 147 185 230 296 359 422
#     4  12  28  46  71 105 148 190 233 299 362 421
#     4  11  24  44  74 101 140 191 243 291 352 424
#     4  11  24  44  72 105 139 188 245 300 348 420
#     4  11  27  44  72 104 144 188 238 296 360 418
#     4  11  26  46  74 106 142 189 242 290 349 430
#
# _framework density 23.772798999999999
#
# number of rings (size 3 to 8) (size 9 to 14) (size 15 to 20)
#    0.000    0.500    2.500    4.500   10.500    1.000 
#    0.000    0.000    0.000    0.000    0.000    0.000 
#    0.000    0.000    0.000    0.000    0.000    0.000 
#
# Total GULP energy -198428.314529 kJ/mol
# GULP energy per Si atom -12401.769658 kJ/mol
# Density = 2.371869 g / cm^3
# Si number density = 23.772799 Si / 1000 Ang^3
#
#
#
# Elastic Constant Matrix: (Units=GPa)
#
#
# Indices 1 2 3 4 5 6 
#
# 1 93.5898 -14.2777 13.5725 5.8925 6.4136 -11.4481
# 2 -14.2777 52.3239 12.2037 -2.4693 -15.3355 -2.2311
# 3 13.5725 12.2037 131.9153 -0.0896 6.4462 -8.2365
# 4 5.8925 -2.4693 -0.0896 36.5770 -2.8525 -0.1630
# 5 6.4136 -15.3355 6.4462 -2.8525 35.7518 -2.6383
# 6 -11.4481 -2.2311 -8.2365 -0.1630 -2.6383 33.7348
#
#
#
# Elastic Compliance Matrix: (Units=1/GPa)
#
#
# Indices 1 2 3 4 5 6 
#
# 1 0.012036 0.003619 -0.001316 -0.001697 -0.000212 0.003978
# 2 0.003619 0.024099 -0.002934 0.001875 0.010584 0.002942
# 3 -0.001316 -0.002934 0.008179 -0.000150 -0.002423 0.001166
# 4 -0.001697 0.001875 -0.000150 0.028001 0.003363 -0.000090
# 5 -0.000212 0.010584 -0.002423 0.003363 0.033451 0.002669
# 6 0.003978 0.002942 0.001166 -0.000090 0.002669 0.031680
#
#
# Mechanical properties :
#
#
# Convention : Reuss Voigt Hill
#
# Bulk Modulus (GPa) = 23.22795 33.42509 28.32652
# Shear Modulus (GPa) = 32.66731 38.96809 35.81770
#
# Velocity S-wave (km/s) = 3.71097 4.05308 3.88579
# Velocity P-wave (km/s) = 5.30601 5.99950 5.66338
#
# Compressibility (1/GPa) = 0.04305158
#
# Stress axis : x y z
#
# Youngs Moduli (GPa) = 83.08670 41.49482 122.27156
#
# Poissons Ratio (x) = -0.15015 0.16085
# Poissons Ratio (y) = -0.30065 0.35874
# Poissons Ratio (z) = 0.10930 0.12175
#
# Static dielectric constant tensor:
#      x y z
#    x 4.341510 -0.043600 -0.100130 
#    y -0.043600 4.292300 -0.083710 
#    z -0.100130 -0.083710 4.443120 
# 
# 
# High freq. dielectric constant tensor:
#      x y z
#    x 1.947190 -0.004880 -0.001510 
#    y -0.004880 1.943810 -0.003520 
#    z -0.001510 -0.003520 1.951270 
# 
# From -- ./inp_files/37580.got.cif
#   From: 2010.06.25/outbox.cif.g09.slc.cpg/sg2_19_cif.got.tgz:37580.got - 2010.06.27 13:26:56.
