data_PCOD8034471
_publ_section_title
;
Structure prediction by ZEFSAII (Michael W. Deem and Ramdas Pophale) SiO2 
 PCOD8034471
Probable space group: P -1
;
_chemical_formula_sum "Si O2"
_cell_formula_units_Z 16
_cell_length_a 11.333963
_cell_length_b 11.584809
_cell_length_c 11.770400
_cell_angle_alpha 104.289210
_cell_angle_beta 117.042595
_cell_angle_gamma 128.944020
_cell_volume 684.585744
_symmetry_space_group_name_H-M "P -1"
_symmetry_group_IT_number 2
_symmetry_cell_setting 'triclinic'
loop_
_space_group_symop_operation_xyz
x,y,z
-x,-y,-z
loop_
_atom_site_type_symbol
_atom_site_label
_atom_site_fract_x
_atom_site_fract_y
_atom_site_fract_z
Si Si1 0.814610 0.926818 0.532213
Si Si2 0.932254 0.078758 0.861210
Si Si3 0.655893 0.054829 0.986124
Si Si4 0.341821 0.203122 0.104731
Si Si5 0.969620 0.464070 0.793300
Si Si6 0.181582 0.727279 0.563306
Si Si7 0.100916 0.260617 0.542549
Si Si8 0.255874 0.558051 0.127886
O O1 0.878472 0.835440 0.557930
O O2 0.544320 0.728940 0.297740
O O3 0.787229 0.973555 0.651411
O O4 0.047569 0.165039 0.621014
O O5 0.728845 0.869581 0.811086
O O6 0.171034 0.174370 0.969021
O O7 0.044998 0.293026 0.002415
O O8 0.714698 0.964491 0.025147
O O9 0.479329 0.922758 0.762589
O O10 0.922709 0.327991 0.154478
O O11 0.500000 0.000000 0.000000
O O12 0.638261 0.462726 0.279494
O O13 0.854502 0.305095 0.596830
O O14 0.761073 0.343090 0.767918
O O15 0.191401 0.554669 0.971645
O O16 0.000000 0.500000 0.500000
O O17 0.125555 0.819248 0.604225
#
# Coordination Sequence:
#
# PCOD8034471 Si02
#       8
#     2   2   2   2   2   2   2   2
#     4  11  26  45  73  96 134 185 227 281 339 409
#     4  11  25  45  71 101 137 177 229 286 338 404
#     4  12  24  42  67 100 141 179 219 278 341 407
#     4  11  24  45  68 103 138 176 227 283 342 403
#     4  11  25  43  70  99 135 178 226 282 337 409
#     4  12  24  41  66 101 138 177 222 276 340 406
#     4  11  24  47  64 102 135 175 230 276 337 408
#     4  11  24  47  70 100 135 178 232 281 340 403
#
# _framework density 23.371798999999999
#
# number of rings (size 3 to 8) (size 9 to 14) (size 15 to 20)
#    0.000    0.750    5.000    1.500    3.500    1.000 
#    4.500    3.125    0.000    0.000    0.000    0.000 
#    0.000    0.000    0.000    0.000    0.000    0.000 
#
# Total GULP energy -198408.238185 kJ/mol
# GULP energy per Si atom -12400.514887 kJ/mol
# Density = 2.331860 g / cm^3
# Si number density = 23.371799 Si / 1000 Ang^3
#
#
#
# Elastic Constant Matrix: (Units=GPa)
#
#
# Indices 1 2 3 4 5 6 
#
# 1 111.2952 3.6532 17.7842 -13.1028 -6.7473 -16.8079
# 2 3.6532 82.2290 9.2929 9.1420 -5.8226 -5.1172
# 3 17.7842 9.2929 75.4122 -6.8840 -7.6833 7.7158
# 4 -13.1028 9.1420 -6.8840 38.2674 5.2545 -3.5378
# 5 -6.7473 -5.8226 -7.6833 5.2545 31.5924 -10.1831
# 6 -16.8079 -5.1172 7.7158 -3.5378 -10.1831 41.0598
#
#
#
# Elastic Compliance Matrix: (Units=1/GPa)
#
#
# Indices 1 2 3 4 5 6 
#
# 1 0.010885 0.000019 -0.002559 0.003394 0.003073 0.005994
# 2 0.000019 0.013185 -0.001880 -0.003716 0.003410 0.002530
# 3 -0.002559 -0.001880 0.014748 0.001722 0.001248 -0.003595
# 4 0.003394 -0.003716 0.001722 0.029202 -0.003688 0.002204
# 5 0.003073 0.003410 0.001248 -0.003688 0.037193 0.010355
# 6 0.005994 0.002530 -0.003595 0.002204 0.010355 0.030557
#
#
# Mechanical properties :
#
#
# Convention : Reuss Voigt Hill
#
# Bulk Modulus (GPa) = 33.35940 36.71076 35.03508
# Shear Modulus (GPa) = 32.34123 38.06433 35.20278
#
# Velocity S-wave (km/s) = 3.72394 4.04002 3.88520
# Velocity P-wave (km/s) = 5.72666 6.12403 5.92868
#
# Compressibility (1/GPa) = 0.02997656
#
# Stress axis : x y z
#
# Youngs Moduli (GPa) = 91.87364 75.84491 67.80616
#
# Poissons Ratio (x) = -0.00144 0.17355
# Poissons Ratio (y) = -0.00174 0.12746
# Poissons Ratio (z) = 0.23515 0.14257
#
# Static dielectric constant tensor:
#      x y z
#    x 4.283020 -0.387670 -0.025090 
#    y -0.387670 4.064780 -0.092680 
#    z -0.025090 -0.092680 4.105500 
# 
# 
# High freq. dielectric constant tensor:
#      x y z
#    x 1.941730 -0.009940 0.002450 
#    y -0.009940 1.929890 0.000780 
#    z 0.002450 0.000780 1.903420 
# 
# From -- ./inp_files/428429.got.cif
#   From: 2010.06.25/outbox.cif.g09.slc.cpg/sg2_215_cif.got.tgz:428429.got - 2010.06.27 13:26:56.
