data_PCOD8034876
_publ_section_title
;
Structure prediction by ZEFSAII (Michael W. Deem and Ramdas Pophale) SiO2 
 PCOD8034876
Probable space group: P -1
;
_chemical_formula_sum "Si O2"
_cell_formula_units_Z 16
_cell_length_a 10.970540
_cell_length_b 14.134758
_cell_length_c 9.855741
_cell_angle_alpha 112.944564
_cell_angle_beta 111.976664
_cell_angle_gamma 126.096986
_cell_volume 664.361789
_symmetry_space_group_name_H-M "P -1"
_symmetry_group_IT_number 2
_symmetry_cell_setting 'triclinic'
loop_
_space_group_symop_operation_xyz
x,y,z
-x,-y,-z
loop_
_atom_site_type_symbol
_atom_site_label
_atom_site_fract_x
_atom_site_fract_y
_atom_site_fract_z
Si Si1 0.836501 0.042646 0.198188
Si Si2 0.234660 0.840155 0.222145
Si Si3 0.726547 0.562776 0.982761
Si Si4 0.987667 0.534401 0.732897
Si Si5 0.367907 0.332224 0.451959
Si Si6 0.591143 0.864067 0.723202
Si Si7 0.589043 0.694584 0.038637
Si Si8 0.902179 0.589026 0.455604
O O1 0.100423 0.197318 0.316453
O O2 0.880157 0.181105 0.370473
O O3 0.778584 0.918361 0.218459
O O4 0.609293 0.902654 0.913649
O O5 0.009369 0.703356 0.163366
O O6 0.500000 0.000000 0.500000
O O7 0.238443 0.944900 0.189990
O O8 0.171564 0.699953 0.021285
O O9 0.754745 0.701680 0.113770
O O10 0.572534 0.443870 0.714938
O O11 0.569161 0.396083 0.939219
O O12 0.703134 0.319859 0.551608
O O13 0.960633 0.600815 0.641191
O O14 0.109160 0.513519 0.709533
O O15 0.500000 0.500000 0.500000
O O16 0.302597 0.179809 0.269399
O O17 0.381077 0.548497 0.747229
#
# Coordination Sequence:
#
# PCOD8034876 Si02
#       8
#     2   2   2   2   2   2   2   2
#     4  12  23  43  77 112 141 195 247 299 381 439
#     4  12  28  50  76 108 150 201 251 306 380 451
#     4  11  25  49  72 105 153 193 245 310 379 441
#     4  11  25  47  74 107 150 193 247 312 368 437
#     4  12  23  43  78 108 153 188 238 314 376 446
#     4  12  24  43  74 111 143 188 252 303 368 455
#     4  11  25  47  73 108 148 195 246 312 374 443
#     4  11  24  46  73 109 150 192 249 311 363 443
#
# _framework density 24.083261
#
# number of rings (size 3 to 8) (size 9 to 14) (size 15 to 20)
#    0.000    0.500    5.000    3.375    1.750    3.500 
#    2.250    0.000    0.000    0.000    0.000    0.000 
#    0.000    0.000    0.000    0.000    0.000    0.000 
#
# Total GULP energy -198472.086967 kJ/mol
# GULP energy per Si atom -12404.505435 kJ/mol
# Density = 2.402845 g / cm^3
# Si number density = 24.083261 Si / 1000 Ang^3
#
#
#
# Elastic Constant Matrix: (Units=GPa)
#
#
# Indices 1 2 3 4 5 6 
#
# 1 86.7921 42.4661 50.2078 -0.0237 -4.2534 7.4899
# 2 42.4661 167.5280 33.3834 14.4148 -14.2058 0.9373
# 3 50.2078 33.3834 134.1177 6.2420 0.3670 5.0232
# 4 -0.0237 14.4148 6.2420 34.0343 -7.3193 -3.1758
# 5 -4.2534 -14.2058 0.3670 -7.3193 37.2334 6.2570
# 6 7.4899 0.9373 5.0232 -3.1758 6.2570 35.4120
#
#
#
# Elastic Compliance Matrix: (Units=1/GPa)
#
#
# Indices 1 2 3 4 5 6 
#
# 1 0.016517 -0.003162 -0.005413 0.002450 0.001672 -0.002718
# 2 -0.003162 0.007255 -0.000507 -0.002573 0.001909 -0.000019
# 3 -0.005413 -0.000507 0.009705 -0.001852 -0.001244 -0.000165
# 4 0.002450 -0.002573 -0.001852 0.032124 0.005337 0.001751
# 5 0.001672 0.001909 -0.001244 0.005337 0.029678 -0.004993
# 6 -0.002718 -0.000019 -0.000165 0.001751 -0.004993 0.029877
#
#
# Mechanical properties :
#
#
# Convention : Reuss Voigt Hill
#
# Bulk Modulus (GPa) = 65.30418 71.17250 68.23834
# Shear Modulus (GPa) = 33.68714 38.82795 36.25755
#
# Velocity S-wave (km/s) = 3.74408 4.01962 3.88430
# Velocity P-wave (km/s) = 6.77242 7.15262 6.96512
#
# Compressibility (1/GPa) = 0.01531296
#
# Stress axis : x y z
#
# Youngs Moduli (GPa) = 60.54188 137.83367 103.04495
#
# Poissons Ratio (x) = 0.43584 0.55780
# Poissons Ratio (y) = 0.19144 0.05223
# Poissons Ratio (z) = 0.32772 0.06986
#
# Static dielectric constant tensor:
#      x y z
#    x 4.392930 -0.306080 -0.016020 
#    y -0.306080 4.621570 0.027870 
#    z -0.016020 0.027870 4.434380 
# 
# 
# High freq. dielectric constant tensor:
#      x y z
#    x 1.954040 -0.010050 -0.002320 
#    y -0.010050 1.964220 0.005390 
#    z -0.002320 0.005390 1.959010 
# 
# From -- ./inp_files/273853.got.cif
#   From: 2010.06.25/outbox.cif.g09.slc.cpg/sg2_137_cif.got.tgz:273853.got - 2010.06.27 13:26:56.
