data_PCOD8034305
_publ_section_title
;
Structure prediction by ZEFSAII (Michael W. Deem and Ramdas Pophale) SiO2 
 PCOD8034305
Probable space group: P -1
;
_chemical_formula_sum "Si O2"
_cell_formula_units_Z 16
_cell_length_a 14.672888
_cell_length_b 9.540741
_cell_length_c 9.262258
_cell_angle_alpha 69.568272
_cell_angle_beta 69.537124
_cell_angle_gamma 36.035931
_cell_volume 709.458894
_symmetry_space_group_name_H-M "P -1"
_symmetry_group_IT_number 2
_symmetry_cell_setting 'triclinic'
loop_
_space_group_symop_operation_xyz
x,y,z
-x,-y,-z
loop_
_atom_site_type_symbol
_atom_site_label
_atom_site_fract_x
_atom_site_fract_y
_atom_site_fract_z
Si Si1 0.316279 0.205267 0.506442
Si Si2 0.591600 0.537043 0.909578
Si Si3 0.855104 0.743096 0.180227
Si Si4 0.779644 0.356879 0.585148
Si Si5 0.851198 0.086215 0.090553
Si Si6 0.179258 0.224281 0.301209
Si Si7 0.620637 0.976650 0.998675
Si Si8 0.130042 0.971757 0.572443
O O1 0.249044 0.149692 0.656791
O O2 0.237949 0.450586 0.522589
O O3 0.261767 0.243989 0.356938
O O4 0.500000 0.000000 0.500000
O O5 0.651250 0.477920 0.734092
O O6 0.500000 0.500000 0.000000
O O7 0.731115 0.355999 0.008447
O O8 0.478939 0.807268 0.912492
O O9 0.030882 0.478306 0.213085
O O10 0.853836 0.920391 0.069962
O O11 0.772133 0.745937 0.095740
O O12 0.955185 0.116131 0.628953
O O13 0.755140 0.275438 0.492468
O O14 0.810027 0.097923 0.273695
O O15 0.000000 0.000000 0.000000
O O16 0.127216 0.139612 0.444837
O O17 0.307875 0.026736 0.180123
O O18 0.500000 0.000000 0.000000
#
# Coordination Sequence:
#
# PCOD8034305 Si02
#       8
#     2   2   2   2   2   2   2   2
#     4  12  25  45  74 106 150 192 236 299 373 430
#     4  12  25  48  70  99 150 192 234 297 370 433
#     4  12  25  47  74 107 144 193 249 296 367 436
#     4  11  24  44  71 103 145 184 236 302 353 427
#     4  12  26  44  75 106 142 193 242 295 364 436
#     4  12  25  48  75 103 146 192 250 300 350 439
#     4  12  28  48  71 110 148 191 242 303 372 433
#     4  11  24  45  72 108 136 182 249 295 350 423
#
# _framework density 22.552399000000001
#
# number of rings (size 3 to 8) (size 9 to 14) (size 15 to 20)
#    0.000    0.250    5.000    4.500    1.750    2.000 
#    0.000    1.875    0.000    0.000    0.000    0.000 
#    0.000    0.000    0.000    0.000    0.000    0.000 
#
# Total GULP energy -198287.728754 kJ/mol
# GULP energy per Si atom -12392.983047 kJ/mol
# Density = 2.250107 g / cm^3
# Si number density = 22.552399 Si / 1000 Ang^3
#
#
#
# Elastic Constant Matrix: (Units=GPa)
#
#
# Indices 1 2 3 4 5 6 
#
# 1 134.2793 45.2197 41.3558 3.5794 10.0614 -10.8917
# 2 45.2197 105.9171 33.6981 13.2939 5.7632 0.7445
# 3 41.3558 33.6981 120.0698 15.9400 -3.7568 -6.6178
# 4 3.5794 13.2939 15.9400 42.9814 -7.1807 -0.2921
# 5 10.0614 5.7632 -3.7568 -7.1807 47.0314 -1.3135
# 6 -10.8917 0.7445 -6.6178 -0.2921 -1.3135 42.7852
#
#
#
# Elastic Compliance Matrix: (Units=1/GPa)
#
#
# Indices 1 2 3 4 5 6 
#
# 1 0.009591 -0.003363 -0.002413 0.000876 -0.001641 0.002083
# 2 -0.003363 0.011944 -0.001925 -0.002942 -0.001387 -0.001424
# 3 -0.002413 -0.001925 0.010160 -0.002769 0.001169 0.001008
# 4 0.000876 -0.002942 -0.002769 0.025781 0.003892 0.000141
# 5 -0.001641 -0.001387 0.001169 0.003892 0.022485 0.000504
# 6 0.002083 -0.001424 0.001008 0.000141 0.000504 0.024100
#
#
# Mechanical properties :
#
#
# Convention : Reuss Voigt Hill
#
# Bulk Modulus (GPa) = 61.37322 66.75705 64.06514
# Shear Modulus (GPa) = 40.03431 42.55909 41.29670
#
# Velocity S-wave (km/s) = 4.21785 4.34881 4.28383
# Velocity P-wave (km/s) = 7.14094 7.40820 7.27579
#
# Compressibility (1/GPa) = 0.01629375
#
# Stress axis : x y z
#
# Youngs Moduli (GPa) = 104.26387 83.72275 98.42914
#
# Poissons Ratio (x) = 0.28152 0.23747
# Poissons Ratio (y) = 0.35059 0.18952
# Poissons Ratio (z) = 0.25155 0.16120
#
# Static dielectric constant tensor:
#      x y z
#    x 4.241490 -0.090130 -0.031020 
#    y -0.090130 4.030280 0.047910 
#    z -0.031020 0.047910 4.205320 
# 
# 
# High freq. dielectric constant tensor:
#      x y z
#    x 1.901040 -0.010870 -0.005370 
#    y -0.010870 1.885700 0.006040 
#    z -0.005370 0.006040 1.899160 
# 
# From -- ./inp_files/297825.got.cif
#   From: 2010.06.25/outbox.cif.g09.slc.cpg/sg2_149_cif.got.tgz:297825.got - 2010.06.27 13:26:56.
