data_PCOD8034870
_publ_section_title
;
Structure prediction by ZEFSAII (Michael W. Deem and Ramdas Pophale) SiO2 
 PCOD8034870
Probable space group: P -1
;
_chemical_formula_sum "Si O2"
_cell_formula_units_Z 16
_cell_length_a 9.365507
_cell_length_b 30.552687
_cell_length_c 10.977231
_cell_angle_alpha 146.642721
_cell_angle_beta 51.522927
_cell_angle_gamma 149.793206
_cell_volume 810.635486
_symmetry_space_group_name_H-M "P -1"
_symmetry_group_IT_number 2
_symmetry_cell_setting 'triclinic'
loop_
_space_group_symop_operation_xyz
x,y,z
-x,-y,-z
loop_
_atom_site_type_symbol
_atom_site_label
_atom_site_fract_x
_atom_site_fract_y
_atom_site_fract_z
Si Si1 0.193520 0.845449 0.315005
Si Si2 0.238349 0.060605 0.408746
Si Si3 0.320336 0.742296 0.177088
Si Si4 0.129528 0.534016 0.315423
Si Si5 0.805098 0.784511 0.943399
Si Si6 0.651025 0.757499 0.390649
Si Si7 0.257101 0.332361 0.055826
Si Si8 0.379654 0.552736 0.469468
O O1 0.238254 0.784167 0.228544
O O2 0.934328 0.812267 0.434596
O O3 0.500000 0.000000 0.500000
O O4 0.079234 0.779046 0.086174
O O5 0.577207 0.184288 0.576302
O O6 0.230104 0.116328 0.427389
O O7 0.000000 0.000000 0.500000
O O8 0.149607 0.941118 0.127432
O O9 0.594950 0.787993 0.081640
O O10 0.026250 0.582011 0.966729
O O11 0.374091 0.671550 0.431378
O O12 0.298568 0.542306 0.349127
O O13 0.885516 0.508975 0.443311
O O14 0.768635 0.703129 0.874041
O O15 0.700932 0.707613 0.692963
O O16 0.549151 0.667760 0.119540
O O17 0.426141 0.475418 0.286525
#
# Coordination Sequence:
#
# PCOD8034870 Si02
#       8
#     2   2   2   2   2   2   2   2
#     4  10  18  30  56  89 111 139 184 240 287 325
#     4  10  17  35  56  86 111 146 186 238 291 330
#     4  10  17  31  54  80 114 145 178 241 282 326
#     4  10  21  38  54  87 115 152 193 230 290 333
#     4  10  19  34  58  80 114 151 193 221 285 351
#     4  10  21  35  60  88 114 139 198 248 275 330
#     4  10  19  35  57  89 108 143 194 235 283 331
#     4  10  21  37  58  79 119 160 185 225 284 352
#
# _framework density 19.7376
#
# number of rings (size 3 to 8) (size 9 to 14) (size 15 to 20)
#    0.750    1.250    3.750    2.625    0.000    2.500 
#    0.000    0.625    2.750    0.750    0.000    0.000 
#    0.000    0.000    0.000    0.000    0.000    0.000 
#
# Total GULP energy -198242.136100 kJ/mol
# GULP energy per Si atom -12390.133506 kJ/mol
# Density = 1.969268 g / cm^3
# Si number density = 19.737600 Si / 1000 Ang^3
#
#
#
# Elastic Constant Matrix: (Units=GPa)
#
#
# Indices 1 2 3 4 5 6 
#
# 1 81.2092 10.7286 16.8608 1.8725 5.9012 -19.4338
# 2 10.7286 61.9977 24.3132 22.3559 -3.3205 -10.3257
# 3 16.8608 24.3132 134.3027 11.8740 17.8622 -6.3047
# 4 1.8725 22.3559 11.8740 18.9406 -4.1670 -3.9585
# 5 5.9012 -3.3205 17.8622 -4.1670 36.4644 8.6823
# 6 -19.4338 -10.3257 -6.3047 -3.9585 8.6823 16.6259
#
#
#
# Elastic Compliance Matrix: (Units=1/GPa)
#
#
# Indices 1 2 3 4 5 6 
#
# 1 0.019898 0.000289 -0.000011 0.001576 -0.009909 0.028984
# 2 0.000289 0.030613 -0.001620 -0.033244 -0.003245 0.012516
# 3 -0.000011 -0.001620 0.009164 -0.004220 -0.006239 0.004709
# 4 0.001576 -0.033244 -0.004220 0.096211 0.010488 -0.002976
# 5 -0.009909 -0.003245 -0.006239 0.010488 0.041333 -0.035051
# 6 0.028984 0.012516 0.004709 -0.002976 -0.035051 0.121181
#
#
# Mechanical properties :
#
#
# Convention : Reuss Voigt Hill
#
# Bulk Modulus (GPa) = 17.54633 42.36833 29.95733
# Shear Modulus (GPa) = 14.70239 29.44666 22.07452
#
# Velocity S-wave (km/s) = 2.73223 3.86671 3.34788
# Velocity P-wave (km/s) = 4.34310 6.43799 5.49137
#
# Compressibility (1/GPa) = 0.05699198
#
# Stress axis : x y z
#
# Youngs Moduli (GPa) = 50.25708 32.66561 109.11720
#
# Poissons Ratio (x) = -0.00946 0.00122
# Poissons Ratio (y) = -0.01455 0.17677
# Poissons Ratio (z) = 0.00056 0.05292
#
# Static dielectric constant tensor:
#      x y z
#    x 3.615890 0.005740 0.388670 
#    y 0.005740 2.931350 0.040730 
#    z 0.388670 0.040730 4.021740 
# 
# 
# High freq. dielectric constant tensor:
#      x y z
#    x 1.776370 -0.018280 0.006850 
#    y -0.018280 1.709860 0.019040 
#    z 0.006850 0.019040 1.782320 
# 
# From -- ./inp_files/407268.got.cif
#   From: 2010.06.25/outbox.cif.g09.slc.cpg/sg2_204_cif.got.tgz:407268.got - 2010.06.27 13:26:56.
