data_PCOD8034988
_publ_section_title
;
Structure prediction by ZEFSAII (Michael W. Deem and Ramdas Pophale) SiO2 
 PCOD8034988
Probable space group: P -1
;
_chemical_formula_sum "Si O2"
_cell_formula_units_Z 14
_cell_length_a 17.575597
_cell_length_b 8.594336
_cell_length_c 9.019899
_cell_angle_alpha 73.634019
_cell_angle_beta 62.849678
_cell_angle_gamma 127.086122
_cell_volume 599.595254
_symmetry_space_group_name_H-M "P -1"
_symmetry_group_IT_number 2
_symmetry_cell_setting 'triclinic'
loop_
_space_group_symop_operation_xyz
x,y,z
-x,-y,-z
loop_
_atom_site_type_symbol
_atom_site_label
_atom_site_fract_x
_atom_site_fract_y
_atom_site_fract_z
Si Si1 0.556185 0.885379 0.839019
Si Si2 0.708672 0.462451 0.610350
Si Si3 0.035009 0.952047 0.338514
Si Si4 0.229461 0.242798 0.811234
Si Si5 0.117487 0.697448 0.980600
Si Si6 0.532960 0.863722 0.528858
Si Si7 0.882753 0.229344 0.559577
O O1 0.508096 0.760157 0.747856
O O2 0.593904 0.138332 0.728403
O O3 0.711554 0.037576 0.721758
O O4 0.401173 0.603523 0.163481
O O5 0.791498 0.705675 0.343088
O O6 0.853239 0.605233 0.534049
O O7 0.157526 0.010556 0.271164
O O8 0.000000 0.000000 0.500000
O O9 0.130155 0.179016 0.047876
O O10 0.421669 0.568732 0.600671
O O11 0.160489 0.947557 0.936451
O O12 0.006015 0.410081 0.265298
O O13 0.000000 0.500000 0.000000
O O14 0.280453 0.861258 0.760246
O O15 0.500000 0.000000 0.500000
O O16 0.000000 0.500000 0.500000
#
# Coordination Sequence:
#
# PCOD8034988 Si02
#       7
#     2   2   2   2   2   2   2
#     4  11  24  47  70 111 144 197 239 305 369 438
#     4  11  25  43  76 105 150 188 248 302 367 433
#     4  12  28  46  74 110 145 194 246 308 373 440
#     4  12  27  48  74 112 150 192 252 307 366 446
#     4  12  28  49  76 106 149 201 247 303 374 433
#     4  12  27  46  75 111 150 192 247 306 371 441
#     4  12  25  47  75 102 149 193 249 300 367 443
#
# _framework density 23.349086
#
# number of rings (size 3 to 8) (size 9 to 14) (size 15 to 20)
#    0.000    0.286    5.714    1.714    8.000    1.143 
#    0.000    2.143    0.000    0.000    0.000    0.000 
#    0.000    0.000    0.000    0.000    0.000    0.000 
#
# Total GULP energy -173483.491060 kJ/mol
# GULP energy per Si atom -12391.677933 kJ/mol
# Density = 2.329594 g / cm^3
# Si number density = 23.349086 Si / 1000 Ang^3
#
#
#
# Elastic Constant Matrix: (Units=GPa)
#
#
# Indices 1 2 3 4 5 6 
#
# 1 132.7649 37.2743 58.8979 9.0502 -11.6377 20.5363
# 2 37.2743 94.7042 22.0404 2.3915 -4.6767 23.4073
# 3 58.8979 22.0404 170.0591 27.5789 -3.5420 12.3729
# 4 9.0502 2.3915 27.5789 45.8478 7.7314 0.0807
# 5 -11.6377 -4.6767 -3.5420 7.7314 44.4748 -0.4763
# 6 20.5363 23.4073 12.3729 0.0807 -0.4763 38.2086
#
#
#
# Elastic Compliance Matrix: (Units=1/GPa)
#
#
# Indices 1 2 3 4 5 6 
#
# 1 0.010194 -0.002480 -0.002857 -0.000537 0.002240 -0.003005
# 2 -0.002480 0.013307 -0.000349 -0.000095 0.000667 -0.006698
# 3 -0.002857 -0.000349 0.007643 -0.004104 0.000530 -0.000711
# 4 -0.000537 -0.000095 -0.004104 0.025205 -0.004842 0.001562
# 5 0.002240 0.000667 0.000530 -0.004842 0.024009 -0.001475
# 6 -0.003005 -0.006698 -0.000711 0.001562 -0.001475 0.032099
#
#
# Mechanical properties :
#
#
# Convention : Reuss Voigt Hill
#
# Bulk Modulus (GPa) = 50.57561 70.43927 60.50744
# Shear Modulus (GPa) = 38.33789 44.32726 41.33257
#
# Velocity S-wave (km/s) = 4.05649 4.36186 4.21194
# Velocity P-wave (km/s) = 6.60665 7.45662 7.04446
#
# Compressibility (1/GPa) = 0.01977238
#
# Stress axis : x y z
#
# Youngs Moduli (GPa) = 98.10143 75.14609 130.83652
#
# Poissons Ratio (x) = 0.18638 0.37374
# Poissons Ratio (y) = 0.24332 0.04567
# Poissons Ratio (z) = 0.28023 0.02623
#
# Static dielectric constant tensor:
#      x y z
#    x 3.840850 0.372140 0.011290 
#    y 0.372140 4.308340 0.132920 
#    z 0.011290 0.132920 4.341760 
# 
# 
# High freq. dielectric constant tensor:
#      x y z
#    x 1.921080 0.024850 -0.000940 
#    y 0.024850 1.931900 0.008330 
#    z -0.000940 0.008330 1.941410 
# 
# From -- ./inp_files/244854.got.cif
#   From: 2010.06.25/outbox.cif.g09.slc.cpg/sg2_123_cif.got.tgz:244854.got - 2010.06.27 13:26:56.
