data_PCOD8034573
_publ_section_title
;
Structure prediction by ZEFSAII (Michael W. Deem and Ramdas Pophale) SiO2 
 PCOD8034573
Probable space group: P -1
;
_chemical_formula_sum "Si O2"
_cell_formula_units_Z 16
_cell_length_a 9.165155
_cell_length_b 9.265257
_cell_length_c 15.590181
_cell_angle_alpha 36.897746
_cell_angle_beta 109.083908
_cell_angle_gamma 110.003124
_cell_volume 743.540015
_symmetry_space_group_name_H-M "P -1"
_symmetry_group_IT_number 2
_symmetry_cell_setting 'triclinic'
loop_
_space_group_symop_operation_xyz
x,y,z
-x,-y,-z
loop_
_atom_site_type_symbol
_atom_site_label
_atom_site_fract_x
_atom_site_fract_y
_atom_site_fract_z
Si Si1 0.097730 0.754607 0.423528
Si Si2 0.871686 0.017691 0.859480
Si Si3 0.567928 0.263717 0.909197
Si Si4 0.913085 0.343781 0.872909
Si Si5 0.591358 0.330946 0.382565
Si Si6 0.459521 0.235725 0.082196
Si Si7 0.057057 0.902291 0.644356
Si Si8 0.587424 0.008903 0.369809
O O1 0.161723 0.888946 0.285669
O O2 0.235615 0.694193 0.540586
O O3 0.000000 0.500000 0.500000
O O4 0.001515 0.943718 0.362385
O O5 0.915540 0.252454 0.818022
O O6 0.718128 0.842400 0.947359
O O7 0.010698 0.851987 0.962549
O O8 0.737465 0.357641 0.860644
O O9 0.435877 0.402049 0.775141
O O10 0.579513 0.260622 0.015108
O O11 0.500000 0.000000 0.000000
O O12 0.004931 0.612903 0.777514
O O13 0.555572 0.190214 0.353371
O O14 0.467538 0.251924 0.473181
O O15 0.483384 0.039720 0.252244
O O16 0.500000 0.500000 0.000000
O O17 0.241524 0.957409 0.651350
O O18 0.000000 0.000000 0.500000
#
# Coordination Sequence:
#
# PCOD8034573 Si02
#       8
#     2   2   2   2   2   2   2   2
#     4  12  28  46  74 106 144 185 238 301 359 423
#     4  11  26  49  69 106 146 190 235 297 360 414
#     4  12  27  45  71 107 141 187 237 293 356 423
#     4  11  27  47  73 101 148 188 236 294 357 431
#     4  11  25  47  73  99 146 187 233 292 363 419
#     4  12  24  43  71 105 143 186 239 287 353 421
#     4  12  25  45  73 104 140 189 241 285 358 432
#     4  11  24  45  71 105 139 188 236 293 346 425
#
# _framework density 21.51868
#
# number of rings (size 3 to 8) (size 9 to 14) (size 15 to 20)
#    0.000    0.500    5.000    2.250    7.000    0.500 
#    0.000    1.875    0.000    0.000    0.000    0.000 
#    0.000    0.000    0.000    0.000    0.000    0.000 
#
# Total GULP energy -198314.147733 kJ/mol
# GULP energy per Si atom -12394.634233 kJ/mol
# Density = 2.146970 g / cm^3
# Si number density = 21.518680 Si / 1000 Ang^3
#
#
#
# Elastic Constant Matrix: (Units=GPa)
#
#
# Indices 1 2 3 4 5 6 
#
# 1 123.0488 36.5239 37.5196 -2.0551 -4.7371 -4.7658
# 2 36.5239 117.8043 45.3830 -13.8105 -5.1166 -13.0879
# 3 37.5196 45.3830 131.9571 8.7536 0.4424 -16.4331
# 4 -2.0551 -13.8105 8.7536 42.4695 4.2457 -2.4595
# 5 -4.7371 -5.1166 0.4424 4.2457 32.2788 2.1116
# 6 -4.7658 -13.0879 -16.4331 -2.4595 2.1116 37.2989
#
#
#
# Elastic Compliance Matrix: (Units=1/GPa)
#
#
# Indices 1 2 3 4 5 6 
#
# 1 0.009398 -0.002146 -0.002001 0.000031 0.001095 -0.000494
# 2 -0.002146 0.011204 -0.003221 0.004269 0.000782 0.002476
# 3 -0.002001 -0.003221 0.009798 -0.002929 -0.000735 0.002779
# 4 0.000031 0.004269 -0.002929 0.025943 -0.002827 0.002082
# 5 0.001095 0.000782 -0.000735 -0.002827 0.031771 -0.001895
# 6 -0.000494 0.002476 0.002779 0.002082 -0.001895 0.029085
#
#
# Mechanical properties :
#
#
# Convention : Reuss Voigt Hill
#
# Bulk Modulus (GPa) = 63.84310 67.96257 65.90283
# Shear Modulus (GPa) = 36.45499 39.30169 37.87834
#
# Velocity S-wave (km/s) = 4.12042 4.27828 4.20009
# Velocity P-wave (km/s) = 7.23673 7.48709 7.36297
#
# Compressibility (1/GPa) = 0.01566340
#
# Stress axis : x y z
#
# Youngs Moduli (GPa) = 106.40942 89.25205 102.06447
#
# Poissons Ratio (x) = 0.19157 0.20424
# Poissons Ratio (y) = 0.22840 0.32871
# Poissons Ratio (z) = 0.21294 0.28744
#
# Static dielectric constant tensor:
#      x y z
#    x 3.724200 -0.194520 -0.103370 
#    y -0.194520 3.909810 -0.088940 
#    z -0.103370 -0.088940 3.881430 
# 
# 
# High freq. dielectric constant tensor:
#      x y z
#    x 1.853600 0.001110 -0.005030 
#    y 0.001110 1.851270 0.003730 
#    z -0.005030 0.003730 1.859820 
# 
# From -- ./inp_files/263046.got.cif
#   From: 2010.06.25/outbox.cif.g09.slc.cpg/sg2_132_cif.got.tgz:263046.got - 2010.06.27 13:26:56.
