data_PCOD8034113
_publ_section_title
;
Structure prediction by ZEFSAII (Michael W. Deem and Ramdas Pophale) SiO2 
 PCOD8034113
Probable space group: P -1
;
_chemical_formula_sum "Si O2"
_cell_formula_units_Z 16
_cell_length_a 12.285919
_cell_length_b 8.907120
_cell_length_c 18.919293
_cell_angle_alpha 30.291406
_cell_angle_beta 133.688112
_cell_angle_gamma 137.312616
_cell_volume 698.463732
_symmetry_space_group_name_H-M "P -1"
_symmetry_group_IT_number 2
_symmetry_cell_setting 'triclinic'
loop_
_space_group_symop_operation_xyz
x,y,z
-x,-y,-z
loop_
_atom_site_type_symbol
_atom_site_label
_atom_site_fract_x
_atom_site_fract_y
_atom_site_fract_z
Si Si1 0.203563 0.724505 0.214242
Si Si2 0.698438 0.536170 0.389773
Si Si3 0.228334 0.640989 0.652497
Si Si4 0.136631 0.798961 0.765114
Si Si5 0.659112 0.668776 0.643323
Si Si6 0.116908 0.727093 0.329151
Si Si7 0.969005 0.775498 0.835233
Si Si8 0.316769 0.419109 0.929378
O O1 0.349286 0.612100 0.302591
O O2 0.215225 0.818499 0.263259
O O3 0.037152 0.410592 0.260250
O O4 0.211139 0.034652 0.045421
O O5 0.764087 0.584792 0.318352
O O6 0.505338 0.431620 0.344523
O O7 0.752694 0.254490 0.559107
O O8 0.774189 0.820775 0.368309
O O9 0.309591 0.545478 0.795867
O O10 0.043678 0.605848 0.604743
O O11 0.319025 0.011267 0.520730
O O12 0.253292 0.609800 0.880234
O O13 0.119948 0.878375 0.807453
O O14 0.800321 0.682051 0.755394
O O15 0.027941 0.972109 0.205962
O O16 0.000000 0.500000 0.000000
O O17 0.500000 0.500000 0.000000
#
# Coordination Sequence:
#
# PCOD8034113 Si02
#       8
#     2   2   2   2   2   2   2   2
#     4  11  26  46  73 105 145 193 245 293 357 440
#     4  12  26  45  74 110 147 188 241 308 363 426
#     4  12  26  47  72 106 145 191 245 299 355 439
#     4  11  24  45  70 104 144 189 247 290 359 429
#     4  11  27  47  70 110 147 189 244 299 372 424
#     4  12  24  44  75 104 146 188 247 296 362 429
#     4  11  24  43  73 104 142 192 245 294 358 436
#     4  12  28  48  73 108 151 192 242 299 371 426
#
# _framework density 22.907418
#
# number of rings (size 3 to 8) (size 9 to 14) (size 15 to 20)
#    0.000    0.500    3.750    4.125    7.000    2.500 
#    0.000    1.875    0.000    0.000    0.000    0.000 
#    0.000    0.000    0.000    0.000    0.000    0.000 
#
# Total GULP energy -198221.263396 kJ/mol
# GULP energy per Si atom -12388.828962 kJ/mol
# Density = 2.285528 g / cm^3
# Si number density = 22.907418 Si / 1000 Ang^3
#
#
#
# Elastic Constant Matrix: (Units=GPa)
#
#
# Indices 1 2 3 4 5 6 
#
# 1 133.1693 28.0448 48.0529 8.3425 14.6216 -15.5163
# 2 28.0448 71.3480 50.4644 0.0019 1.7695 -11.7432
# 3 48.0529 50.4644 130.9206 9.9779 1.2294 -7.4965
# 4 8.3425 0.0019 9.9779 43.2989 -5.5718 8.1188
# 5 14.6216 1.7695 1.2294 -5.5718 40.0622 -0.6461
# 6 -15.5163 -11.7432 -7.4965 8.1188 -0.6461 43.1549
#
#
#
# Elastic Compliance Matrix: (Units=1/GPa)
#
#
# Indices 1 2 3 4 5 6 
#
# 1 0.009639 -0.001332 -0.002643 -0.002283 -0.003647 0.003019
# 2 -0.001332 0.020209 -0.007195 0.001257 0.000046 0.003535
# 3 -0.002643 -0.007195 0.011494 -0.001955 0.000649 -0.000534
# 4 -0.002283 0.001257 -0.001955 0.025584 0.004306 -0.005567
# 5 -0.003647 0.000046 0.000649 0.004306 0.026843 -0.001594
# 6 0.003019 0.003535 -0.000534 -0.005567 -0.001594 0.026150
#
#
# Mechanical properties :
#
#
# Convention : Reuss Voigt Hill
#
# Bulk Modulus (GPa) = 52.62579 65.39580 59.01079
# Shear Modulus (GPa) = 33.64912 39.22825 36.43868
#
# Velocity S-wave (km/s) = 3.83680 4.14269 3.99268
# Velocity P-wave (km/s) = 6.53079 7.17582 6.86089
#
# Compressibility (1/GPa) = 0.01900209
#
# Stress axis : x y z
#
# Youngs Moduli (GPa) = 103.74840 49.48378 87.00172
#
# Poissons Ratio (x) = 0.06590 0.22998
# Poissons Ratio (y) = 0.13816 0.62595
# Poissons Ratio (z) = 0.27424 0.35602
#
# Static dielectric constant tensor:
#      x y z
#    x 4.614870 -0.229810 0.191590 
#    y -0.229810 4.263830 -0.089380 
#    z 0.191590 -0.089380 4.175190 
# 
# 
# High freq. dielectric constant tensor:
#      x y z
#    x 1.925130 -0.010700 0.008140 
#    y -0.010700 1.899360 -0.016400 
#    z 0.008140 -0.016400 1.900030 
# 
# From -- ./inp_files/206973.got.cif
#   From: 2010.06.25/outbox.cif.g09.slc.cpg/sg2_104_cif.got.tgz:206973.got - 2010.06.27 13:26:56.
