data_PCOD8034453
_publ_section_title
;
Structure prediction by ZEFSAII (Michael W. Deem and Ramdas Pophale) SiO2 
 PCOD8034453
Probable space group: P -1
;
_chemical_formula_sum "Si O2"
_cell_formula_units_Z 12
_cell_length_a 14.941517
_cell_length_b 8.494695
_cell_length_c 6.947006
_cell_angle_alpha 37.973666
_cell_angle_beta 81.009629
_cell_angle_gamma 77.876690
_cell_volume 530.370613
_symmetry_space_group_name_H-M "P -1"
_symmetry_group_IT_number 2
_symmetry_cell_setting 'triclinic'
loop_
_space_group_symop_operation_xyz
x,y,z
-x,-y,-z
loop_
_atom_site_type_symbol
_atom_site_label
_atom_site_fract_x
_atom_site_fract_y
_atom_site_fract_z
Si Si1 0.273466 0.383203 0.151443
Si Si2 0.092364 0.488111 0.859031
Si Si3 0.423166 0.824276 0.190695
Si Si4 0.910335 0.026552 0.879687
Si Si5 0.448282 0.484649 0.835104
Si Si6 0.265307 0.898230 0.891178
O O1 0.261391 0.137339 0.518667
O O2 0.181198 0.461060 0.989074
O O3 0.364977 0.312847 0.054345
O O4 0.295860 0.628355 0.031882
O O5 0.087786 0.758999 0.490658
O O6 0.000000 0.500000 0.000000
O O7 0.102023 0.248671 0.941050
O O8 0.399842 0.747433 0.492478
O O9 0.468249 0.593946 0.261719
O O10 0.330868 0.951363 0.994603
O O11 0.500000 0.000000 0.000000
O O12 0.832369 0.118855 0.969715
O O13 0.000000 0.000000 0.000000
O O14 0.500000 0.500000 0.000000
#
# Coordination Sequence:
#
# PCOD8034453 Si02
#       6
#     2   2   2   2   2   2
#     4  12  26  44  71  98 139 179 230 282 344 410
#     4  12  25  45  71 102 135 179 229 279 346 411
#     4  11  26  41  70  97 139 181 234 285 345 410
#     4  12  25  45  71 100 140 176 226 285 344 407
#     4  11  24  45  66 100 136 184 230 286 345 403
#     4  12  26  45  68 102 136 181 227 283 348 404
#
# _framework density 22.625686999999999
#
# number of rings (size 3 to 8) (size 9 to 14) (size 15 to 20)
#    0.000    0.333    1.667    7.000    7.000    1.333 
#    0.000    0.000    0.000    0.000    0.000    0.000 
#    0.000    0.000    0.000    0.000    0.000    0.000 
#
# Total GULP energy -148732.711289 kJ/mol
# GULP energy per Si atom -12394.392607 kJ/mol
# Density = 2.257419 g / cm^3
# Si number density = 22.625687 Si / 1000 Ang^3
#
#
#
# Elastic Constant Matrix: (Units=GPa)
#
#
# Indices 1 2 3 4 5 6 
#
# 1 168.5614 0.3328 60.7611 17.1830 7.5557 7.3411
# 2 0.3328 58.2174 14.6370 -5.3893 6.7269 16.5405
# 3 60.7611 14.6370 167.7956 13.4250 5.5870 3.5994
# 4 17.1830 -5.3893 13.4250 38.8342 2.0352 -4.2427
# 5 7.5557 6.7269 5.5870 2.0352 46.9136 10.3061
# 6 7.3411 16.5405 3.5994 -4.2427 10.3061 43.1504
#
#
#
# Elastic Compliance Matrix: (Units=1/GPa)
#
#
# Indices 1 2 3 4 5 6 
#
# 1 0.007127 0.000820 -0.002417 -0.002330 -0.000565 -0.001419
# 2 0.000820 0.020084 -0.002046 0.002423 -0.001310 -0.007116
# 3 -0.002417 -0.002046 0.007139 -0.001618 -0.000205 0.000490
# 4 -0.002330 0.002423 -0.001618 0.028061 -0.001600 0.002744
# 5 -0.000565 -0.001310 -0.000205 -0.001600 0.022783 -0.004984
# 6 -0.001419 -0.007116 0.000490 0.002744 -0.004984 0.027563
#
#
# Mechanical properties :
#
#
# Convention : Reuss Voigt Hill
#
# Bulk Modulus (GPa) = 36.95016 60.67067 48.81041
# Shear Modulus (GPa) = 38.74025 47.03588 42.88806
#
# Velocity S-wave (km/s) = 4.14239 4.56441 4.35851
# Velocity P-wave (km/s) = 6.26464 7.39267 6.85191
#
# Compressibility (1/GPa) = 0.02706348
#
# Stress axis : x y z
#
# Youngs Moduli (GPa) = 140.31903 49.78995 140.07571
#
# Poissons Ratio (x) = -0.04081 0.33849
# Poissons Ratio (y) = -0.11501 0.28665
# Poissons Ratio (z) = 0.33908 0.10189
#
# Static dielectric constant tensor:
#      x y z
#    x 4.107460 0.095140 0.615530 
#    y 0.095140 3.874250 0.004820 
#    z 0.615530 0.004820 4.136170 
# 
# 
# High freq. dielectric constant tensor:
#      x y z
#    x 1.919840 -0.000850 0.001640 
#    y -0.000850 1.889980 0.008770 
#    z 0.001640 0.008770 1.916470 
# 
# From -- ./inp_files/3058.got.cif
#   From: 2010.06.25/outbox.cif.g09.slc.cpg/sg2_2_cif.got.tgz:3058.got - 2010.06.27 13:26:56.
