data_PCOD8034966
_publ_section_title
;
Structure prediction by ZEFSAII (Michael W. Deem and Ramdas Pophale) SiO2 
 PCOD8034966
Probable space group: P -1
;
_chemical_formula_sum "Si O2"
_cell_formula_units_Z 14
_cell_length_a 9.862370
_cell_length_b 11.296548
_cell_length_c 5.385428
_cell_angle_alpha 86.754024
_cell_angle_beta 90.948255
_cell_angle_gamma 96.423046
_cell_volume 595.240221
_symmetry_space_group_name_H-M "P -1"
_symmetry_group_IT_number 2
_symmetry_cell_setting 'triclinic'
loop_
_space_group_symop_operation_xyz
x,y,z
-x,-y,-z
loop_
_atom_site_type_symbol
_atom_site_label
_atom_site_fract_x
_atom_site_fract_y
_atom_site_fract_z
Si Si1 0.449452 0.690726 0.880601
Si Si2 0.982892 0.795674 0.016302
Si Si3 0.766806 0.292460 0.730375
Si Si4 0.368805 0.912183 0.564153
Si Si5 0.281954 0.509166 0.613222
Si Si6 0.113215 0.016523 0.706377
Si Si7 0.741037 0.634176 0.879067
O O1 0.409611 0.818878 0.780468
O O2 0.426984 0.583548 0.688577
O O3 0.609212 0.698627 0.953215
O O4 0.348151 0.652039 0.112576
O O5 0.088484 0.708636 0.130859
O O6 0.886266 0.848445 0.212093
O O7 0.876626 0.726830 0.827613
O O8 0.077052 0.909971 0.909208
O O9 0.701885 0.160916 0.660934
O O10 0.803944 0.381929 0.487346
O O11 0.265986 0.004308 0.632617
O O12 0.500000 0.000000 0.500000
O O13 0.289885 0.426216 0.382236
O O14 0.220498 0.443542 0.869276
O O15 0.000000 0.000000 0.500000
#
# Coordination Sequence:
#
# PCOD8034966 Si02
#       7
#     2   2   2   2   2   2   2
#     4  11  25  46  71 103 149 186 237 300 366 418
#     4  11  27  45  70 104 141 195 238 292 362 433
#     4  11  24  47  69 103 147 190 232 299 370 419
#     4  11  26  41  75 108 141 187 244 298 355 434
#     4  11  26  48  73 106 144 190 237 305 363 415
#     4  11  24  47  68  98 150 188 230 296 367 421
#     4  12  28  44  77 107 141 189 250 293 350 442
#
# _framework density 23.519915999999998
#
# number of rings (size 3 to 8) (size 9 to 14) (size 15 to 20)
#    0.000    0.857    4.286    0.857   10.000    1.714 
#    0.000    0.000    0.000    0.000    0.000    0.000 
#    0.000    0.000    0.000    0.000    0.000    0.000 
#
# Total GULP energy -173436.563128 kJ/mol
# GULP energy per Si atom -12388.325938 kJ/mol
# Density = 2.346638 g / cm^3
# Si number density = 23.519916 Si / 1000 Ang^3
#
#
#
# Elastic Constant Matrix: (Units=GPa)
#
#
# Indices 1 2 3 4 5 6 
#
# 1 143.1243 31.6484 20.5092 19.0419 9.8797 -6.4118
# 2 31.6484 54.3450 13.1801 17.6460 -0.6301 -1.9181
# 3 20.5092 13.1801 95.6733 9.7746 0.6395 -3.6362
# 4 19.0419 17.6460 9.7746 35.0114 -2.6205 -1.4630
# 5 9.8797 -0.6301 0.6395 -2.6205 32.9462 0.9991
# 6 -6.4118 -1.9181 -3.6362 -1.4630 0.9991 25.1280
#
#
#
# Elastic Compliance Matrix: (Units=1/GPa)
#
#
# Indices 1 2 3 4 5 6 
#
# 1 0.008611 -0.003915 -0.000957 -0.002588 -0.002897 0.001724
# 2 -0.003915 0.024164 -0.001518 -0.009557 0.000905 0.000033
# 3 -0.000957 -0.001518 0.011092 -0.001773 -0.000133 0.001147
# 4 -0.002588 -0.009557 -0.001773 0.035551 0.003447 0.000287
# 5 -0.002897 0.000905 -0.000133 0.003447 0.031568 -0.001744
# 6 0.001724 0.000033 0.001147 0.000287 -0.001744 0.040491
#
#
# Mechanical properties :
#
#
# Convention : Reuss Voigt Hill
#
# Bulk Modulus (GPa) = 32.16846 47.09088 39.62967
# Shear Modulus (GPa) = 28.63351 33.80411 31.21881
#
# Velocity S-wave (km/s) = 3.49293 3.79523 3.64721
# Velocity P-wave (km/s) = 5.47487 6.26659 5.88406
#
# Compressibility (1/GPa) = 0.03108635
#
# Stress axis : x y z
#
# Youngs Moduli (GPa) = 116.12571 41.38405 90.15337
#
# Poissons Ratio (x) = 0.16203 0.08631
# Poissons Ratio (y) = 0.45466 0.13685
# Poissons Ratio (z) = 0.11117 0.06282
#
# Static dielectric constant tensor:
#      x y z
#    x 3.884420 -0.270490 0.432980 
#    y -0.270490 4.545410 0.402080 
#    z 0.432980 0.402080 3.659250 
# 
# 
# High freq. dielectric constant tensor:
#      x y z
#    x 1.924420 -0.005600 0.014270 
#    y -0.005600 1.939750 -0.000880 
#    z 0.014270 -0.000880 1.931910 
# 
# From -- ./inp_files/27845.got.cif
#   From: 2010.06.25/outbox.cif.g09.slc.cpg/sg2_14_cif.got.tgz:27845.got - 2010.06.27 13:26:56.
