data_PCOD8034726
_publ_section_title
;
Structure prediction by ZEFSAII (Michael W. Deem and Ramdas Pophale) SiO2 
 PCOD8034726
Probable space group: P -1
;
_chemical_formula_sum "Si O2"
_cell_formula_units_Z 16
_cell_length_a 15.126364
_cell_length_b 8.712962
_cell_length_c 20.524747
_cell_angle_alpha 113.463094
_cell_angle_beta 19.707478
_cell_angle_gamma 123.134303
_cell_volume 695.917213
_symmetry_space_group_name_H-M "P -1"
_symmetry_group_IT_number 2
_symmetry_cell_setting 'triclinic'
loop_
_space_group_symop_operation_xyz
x,y,z
-x,-y,-z
loop_
_atom_site_type_symbol
_atom_site_label
_atom_site_fract_x
_atom_site_fract_y
_atom_site_fract_z
Si Si1 0.831233 0.660109 0.767351
Si Si2 0.907286 0.999486 0.259677
Si Si3 0.207691 0.263135 0.522086
Si Si4 0.324242 0.662874 0.678174
Si Si5 0.918042 0.834001 0.976575
Si Si6 0.760771 0.505431 0.577944
Si Si7 0.806411 0.835806 0.684474
Si Si8 0.847433 0.225487 0.887045
O O1 0.773892 0.779240 0.773020
O O2 0.981448 0.547854 0.613413
O O3 0.500000 0.500000 0.000000
O O4 0.056840 0.817540 0.692712
O O5 0.560529 0.802353 0.480284
O O6 0.168848 0.955453 0.092895
O O7 0.943437 0.056379 0.169247
O O8 0.494954 0.299400 0.372730
O O9 0.323074 0.457986 0.430329
O O10 0.912111 0.215300 0.763852
O O11 0.082985 0.072536 0.527550
O O12 0.066572 0.713529 0.876757
O O13 0.150911 0.432549 0.738470
O O14 0.544219 0.675509 0.204534
O O15 0.000000 0.000000 0.000000
O O16 0.907134 0.708484 0.552610
O O17 0.473172 0.788090 0.881741
#
# Coordination Sequence:
#
# PCOD8034726 Si02
#       8
#     2   2   2   2   2   2   2   2
#     4  12  26  47  75 101 144 194 243 290 356 436
#     4  11  25  47  74 107 138 194 246 292 344 433
#     4  11  25  44  75 103 144 189 242 298 353 426
#     4  11  24  49  74 105 140 191 247 295 346 425
#     4  12  28  45  71 106 152 188 231 297 370 426
#     4  12  28  46  70 109 147 189 236 301 363 428
#     4  12  24  49  69 110 143 189 240 302 361 416
#     4  11  24  45  79 105 140 185 254 294 350 422
#
# _framework density 22.991242
#
# number of rings (size 3 to 8) (size 9 to 14) (size 15 to 20)
#    0.000    0.500    3.750    5.250    7.000    1.500 
#    0.000    0.000    0.000    0.000    0.000    0.000 
#    0.000    0.000    0.000    0.000    0.000    0.000 
#
# Total GULP energy -198511.757896 kJ/mol
# GULP energy per Si atom -12406.984868 kJ/mol
# Density = 2.293891 g / cm^3
# Si number density = 22.991242 Si / 1000 Ang^3
#
#
#
# Elastic Constant Matrix: (Units=GPa)
#
#
# Indices 1 2 3 4 5 6 
#
# 1 80.4665 17.8360 14.5102 -5.6740 -4.1642 2.1050
# 2 17.8360 123.0400 33.4030 5.7592 -7.3326 21.8839
# 3 14.5102 33.4030 103.5774 7.6458 -15.9606 -1.1805
# 4 -5.6740 5.7592 7.6458 44.0339 -0.3518 2.9435
# 5 -4.1642 -7.3326 -15.9606 -0.3518 25.7492 -4.1628
# 6 2.1050 21.8839 -1.1805 2.9435 -4.1628 43.0762
#
#
#
# Elastic Compliance Matrix: (Units=1/GPa)
#
#
# Indices 1 2 3 4 5 6 
#
# 1 0.013224 -0.001610 -0.001356 0.002152 0.000881 0.000073
# 2 -0.001610 0.010128 -0.003068 -0.000658 -0.000114 -0.005117
# 3 -0.001356 -0.003068 0.012060 -0.001997 0.006800 0.002749
# 4 0.002152 -0.000658 -0.001997 0.023514 -0.001003 -0.001529
# 5 0.000881 -0.000114 0.006800 -0.001003 0.043876 0.004510
# 6 0.000073 -0.005117 0.002749 -0.001529 0.004510 0.026426
#
#
# Mechanical properties :
#
#
# Convention : Reuss Voigt Hill
#
# Bulk Modulus (GPa) = 42.83524 48.73136 45.78330
# Shear Modulus (GPa) = 33.53942 38.66086 36.10014
#
# Velocity S-wave (km/s) = 3.82356 4.10512 3.96683
# Velocity P-wave (km/s) = 6.17773 6.61142 6.39825
#
# Compressibility (1/GPa) = 0.02334526
#
# Stress axis : x y z
#
# Youngs Moduli (GPa) = 75.61819 98.73840 82.91562
#
# Poissons Ratio (x) = 0.15898 0.11240
# Poissons Ratio (y) = 0.12176 0.25437
# Poissons Ratio (z) = 0.10251 0.30292
#
# Static dielectric constant tensor:
#      x y z
#    x 4.030440 0.098220 -0.015730 
#    y 0.098220 4.116590 0.167550 
#    z -0.015730 0.167550 3.924730 
# 
# 
# High freq. dielectric constant tensor:
#      x y z
#    x 1.913360 -0.002420 0.001770 
#    y -0.002420 1.930030 0.001700 
#    z 0.001770 0.001700 1.902410 
# 
# From -- ./inp_files/589690.got.cif
#   From: 2010.06.25/outbox.cif.g09.slc.cpg/sg2_295_cif.got.tgz:589690.got - 2010.06.27 13:26:56.
