data_PCOD8034935
_publ_section_title
;
Structure prediction by ZEFSAII (Michael W. Deem and Ramdas Pophale) SiO2 
 PCOD8034935
Probable space group: P -1
;
_chemical_formula_sum "Si O2"
_cell_formula_units_Z 12
_cell_length_a 17.353382
_cell_length_b 4.895474
_cell_length_c 9.731613
_cell_angle_alpha 96.511024
_cell_angle_beta 41.823635
_cell_angle_gamma 113.288332
_cell_volume 483.708239
_symmetry_space_group_name_H-M "P -1"
_symmetry_group_IT_number 2
_symmetry_cell_setting 'triclinic'
loop_
_space_group_symop_operation_xyz
x,y,z
-x,-y,-z
loop_
_atom_site_type_symbol
_atom_site_label
_atom_site_fract_x
_atom_site_fract_y
_atom_site_fract_z
Si Si1 0.332779 0.593690 0.395476
Si Si2 0.271047 0.991423 0.306024
Si Si3 0.050790 0.284545 0.850832
Si Si4 0.284481 0.705417 0.991207
Si Si5 0.435472 0.332586 0.717246
Si Si6 0.008805 0.121401 0.341193
O O1 0.339441 0.897409 0.331796
O O2 0.207618 0.447776 0.652769
O O3 0.457988 0.680860 0.325429
O O4 0.321896 0.359663 0.273174
O O5 0.113594 0.814536 0.524693
O O6 0.310982 0.918413 0.102508
O O7 0.993738 0.153193 0.767214
O O8 0.000000 0.500000 0.000000
O O9 0.000000 0.000000 0.000000
O O10 0.369122 0.525177 0.881610
O O11 0.329396 0.962009 0.821309
O O12 0.134124 0.449768 0.162755
O O13 0.500000 0.500000 0.500000
O O14 0.000000 0.000000 0.500000
#
# Coordination Sequence:
#
# PCOD8034935 Si02
#       6
#     2   2   2   2   2   2
#     4  11  25  48  71 103 154 187 249 316 363 447
#     4  11  24  46  77 112 143 186 246 319 384 433
#     4  11  25  45  73 108 143 201 245 303 381 443
#     4  12  26  46  78 110 147 201 248 305 385 449
#     4  12  29  50  69 105 153 209 253 304 360 452
#     4  11  25  49  79 120 157 189 251 327 385 455
#
# _framework density 24.808344999999999
#
# number of rings (size 3 to 8) (size 9 to 14) (size 15 to 20)
#    0.000    0.667    0.000    8.000    2.333    9.333 
#    0.000    0.000    0.000    0.000    0.000    0.000 
#    0.000    0.000    0.000    0.000    0.000    0.000 
#
# Total GULP energy -148803.054665 kJ/mol
# GULP energy per Si atom -12400.254555 kJ/mol
# Density = 2.475188 g / cm^3
# Si number density = 24.808345 Si / 1000 Ang^3
#
#
#
# Elastic Constant Matrix: (Units=GPa)
#
#
# Indices 1 2 3 4 5 6 
#
# 1 125.5498 47.8363 51.7102 6.6449 -4.1253 -10.2400
# 2 47.8363 143.8142 68.2218 6.2375 -2.0207 -18.0222
# 3 51.7102 68.2218 126.6840 -7.8162 -0.9498 0.8141
# 4 6.6449 6.2375 -7.8162 59.2819 -5.6538 2.1946
# 5 -4.1253 -2.0207 -0.9498 -5.6538 34.2124 2.1559
# 6 -10.2400 -18.0222 0.8141 2.1946 2.1559 44.1670
#
#
#
# Elastic Compliance Matrix: (Units=1/GPa)
#
#
# Indices 1 2 3 4 5 6 
#
# 1 0.010201 -0.001427 -0.003492 -0.001458 0.000689 0.001886
# 2 -0.001427 0.010494 -0.005209 -0.001809 -0.000257 0.004150
# 3 -0.003492 -0.005209 0.012315 0.002711 0.000270 -0.003310
# 4 -0.001458 -0.001809 0.002711 0.017936 0.002893 -0.002159
# 5 0.000689 -0.000257 0.000270 0.002893 0.029880 -0.001553
# 6 0.001886 0.004150 -0.003310 -0.002159 -0.001553 0.025016
#
#
# Mechanical properties :
#
#
# Convention : Reuss Voigt Hill
#
# Bulk Modulus (GPa) = 78.41252 81.28720 79.84986
# Shear Modulus (GPa) = 38.35880 42.75090 40.55485
#
# Velocity S-wave (km/s) = 3.93645 4.15570 4.04756
# Velocity P-wave (km/s) = 7.23441 7.47420 7.35529
#
# Compressibility (1/GPa) = 0.01275307
#
# Stress axis : x y z
#
# Youngs Moduli (GPa) = 98.03324 95.29309 81.20400
#
# Poissons Ratio (x) = 0.13601 0.28356
# Poissons Ratio (y) = 0.13992 0.42298
# Poissons Ratio (z) = 0.34233 0.49636
#
# Static dielectric constant tensor:
#      x y z
#    x 4.556820 -0.149420 -0.012000 
#    y -0.149420 4.733190 -0.056190 
#    z -0.012000 -0.056190 5.006480 
# 
# 
# High freq. dielectric constant tensor:
#      x y z
#    x 1.981870 -0.013730 -0.006830 
#    y -0.013730 2.004240 -0.000990 
#    z -0.006830 -0.000990 2.007840 
# 
# From -- ./inp_files/38677.got.cif
#   From: 2010.06.25/outbox.cif.g09.slc.cpg/sg2_20_cif.got.tgz:38677.got - 2010.06.27 13:26:56.
