data_PCOD8034061
_publ_section_title
;
Structure prediction by ZEFSAII (Michael W. Deem and Ramdas Pophale) SiO2 
 PCOD8034061
Probable space group: P -1
;
_chemical_formula_sum "Si O2"
_cell_formula_units_Z 16
_cell_length_a 18.433356
_cell_length_b 9.601074
_cell_length_c 13.506940
_cell_angle_alpha 152.430972
_cell_angle_beta 139.051355
_cell_angle_gamma 42.960943
_cell_volume 709.628745
_symmetry_space_group_name_H-M "P -1"
_symmetry_group_IT_number 2
_symmetry_cell_setting 'triclinic'
loop_
_space_group_symop_operation_xyz
x,y,z
-x,-y,-z
loop_
_atom_site_type_symbol
_atom_site_label
_atom_site_fract_x
_atom_site_fract_y
_atom_site_fract_z
Si Si1 0.028869 0.688276 0.894763
Si Si2 0.220059 0.739173 0.419078
Si Si3 0.525765 0.894778 0.350301
Si Si4 0.588549 0.412769 0.623636
Si Si5 0.324548 0.572487 0.908693
Si Si6 0.720598 0.675996 0.080912
Si Si7 0.984865 0.071010 0.413557
Si Si8 0.150161 0.136509 0.015936
O O1 0.163095 0.569632 0.977180
O O2 0.979488 0.433558 0.620283
O O3 0.965352 0.729500 0.960586
O O4 0.000000 0.000000 0.000000
O O5 0.292169 0.747301 0.400309
O O6 0.259524 0.974633 0.686390
O O7 0.091836 0.877541 0.343045
O O8 0.228339 0.393812 0.254053
O O9 0.647472 0.670125 0.307431
O O10 0.500000 0.000000 0.500000
O O11 0.523715 0.207358 0.490048
O O12 0.424979 0.751500 0.117505
O O13 0.500000 0.500000 0.500000
O O14 0.621417 0.666209 0.892417
O O15 0.321668 0.395525 0.897967
O O16 0.210113 0.823740 0.935147
O O17 0.000000 0.000000 0.500000
O O18 0.877253 0.961820 0.186165
#
# Coordination Sequence:
#
# PCOD8034061 Si02
#       8
#     2   2   2   2   2   2   2   2
#     4  11  24  43  71 105 142 185 231 282 354 414
#     4  11  25  45  69 100 144 185 233 288 353 408
#     4  11  24  48  73  99 140 184 230 299 361 416
#     4  12  26  45  71 104 137 188 237 294 358 419
#     4  11  24  46  72 104 135 181 239 287 359 418
#     4  11  24  45  73 105 142 184 236 293 346 427
#     4  11  25  44  67 100 143 191 228 278 353 423
#     4  12  25  44  70 106 142 182 236 286 344 432
#
# _framework density 22.546999
#
# number of rings (size 3 to 8) (size 9 to 14) (size 15 to 20)
#    0.000    0.750    5.000    1.875    3.500    3.000 
#    2.250    0.000    0.000    0.000    0.000    0.000 
#    0.000    0.000    0.000    0.000    0.000    0.000 
#
# Total GULP energy -198245.537435 kJ/mol
# GULP energy per Si atom -12390.346090 kJ/mol
# Density = 2.249568 g / cm^3
# Si number density = 22.546999 Si / 1000 Ang^3
#
#
#
# Elastic Constant Matrix: (Units=GPa)
#
#
# Indices 1 2 3 4 5 6 
#
# 1 136.3023 34.5140 45.8047 -6.2833 -11.1528 5.9103
# 2 34.5140 94.5887 79.6607 -2.9911 -2.6555 13.5970
# 3 45.8047 79.6607 155.2811 -1.8498 6.6334 10.3075
# 4 -6.2833 -2.9911 -1.8498 31.3511 2.5361 0.7776
# 5 -11.1528 -2.6555 6.6334 2.5361 46.6410 7.4289
# 6 5.9103 13.5970 10.3075 0.7776 7.4289 32.5493
#
#
#
# Elastic Compliance Matrix: (Units=1/GPa)
#
#
# Indices 1 2 3 4 5 6 
#
# 1 0.008594 -0.001296 -0.001889 0.001323 0.002335 -0.000985
# 2 -0.001296 0.020172 -0.009698 0.000987 0.003096 -0.005850
# 3 -0.001889 -0.009698 0.012007 -0.000393 -0.002891 0.001261
# 4 0.001323 0.000987 -0.000393 0.032353 -0.001166 -0.001035
# 5 0.002335 0.003096 -0.002891 -0.001166 0.023632 -0.006167
# 6 -0.000985 -0.005850 0.001261 -0.001035 -0.006167 0.034378
#
#
# Mechanical properties :
#
#
# Convention : Reuss Voigt Hill
#
# Bulk Modulus (GPa) = 66.63422 78.45900 72.54661
# Shear Modulus (GPa) = 30.88230 37.18780 34.03505
#
# Velocity S-wave (km/s) = 3.70494 4.06562 3.88946
# Velocity P-wave (km/s) = 6.92241 7.54404 7.23990
#
# Compressibility (1/GPa) = 0.01500730
#
# Stress axis : x y z
#
# Youngs Moduli (GPa) = 116.35551 49.57456 83.28205
#
# Poissons Ratio (x) = 0.06426 0.15730
# Poissons Ratio (y) = 0.15083 0.80767
# Poissons Ratio (z) = 0.21976 0.48078
#
# Static dielectric constant tensor:
#      x y z
#    x 4.782100 -0.083360 -0.162480 
#    y -0.083360 3.774390 0.149920 
#    z -0.162480 0.149920 4.756150 
# 
# 
# High freq. dielectric constant tensor:
#      x y z
#    x 1.910160 -0.001550 0.001900 
#    y -0.001550 1.857560 0.015180 
#    z 0.001900 0.015180 1.905520 
# 
# From -- ./inp_files/462631.got.cif
#   From: 2010.06.25/outbox.cif.g09.slc.cpg/sg2_232_cif.got.tgz:462631.got - 2010.06.27 13:26:56.
