data_PCOD8034902
_publ_section_title
;
Structure prediction by ZEFSAII (Michael W. Deem and Ramdas Pophale) SiO2 
 PCOD8034902
Probable space group: P -1
;
_chemical_formula_sum "Si O2"
_cell_formula_units_Z 14
_cell_length_a 8.979993
_cell_length_b 10.984498
_cell_length_c 8.731911
_cell_angle_alpha 120.660840
_cell_angle_beta 50.201045
_cell_angle_gamma 113.353427
_cell_volume 566.037242
_symmetry_space_group_name_H-M "P -1"
_symmetry_group_IT_number 2
_symmetry_cell_setting 'triclinic'
loop_
_space_group_symop_operation_xyz
x,y,z
-x,-y,-z
loop_
_atom_site_type_symbol
_atom_site_label
_atom_site_fract_x
_atom_site_fract_y
_atom_site_fract_z
Si Si1 0.613387 0.875751 0.410767
Si Si2 0.469295 0.590291 0.261140
Si Si3 0.241651 0.600335 0.132648
Si Si4 0.256191 0.825855 0.008978
Si Si5 0.959967 0.832944 0.950177
Si Si6 0.880038 0.644348 0.581570
Si Si7 0.295095 0.119310 0.317235
O O1 0.468985 0.732881 0.456854
O O2 0.730139 0.929477 0.520338
O O3 0.500000 0.000000 0.500000
O O4 0.749730 0.816082 0.155756
O O5 0.425938 0.644014 0.151290
O O6 0.307095 0.467767 0.344648
O O7 0.687096 0.535378 0.091253
O O8 0.197297 0.722117 0.122824
O O9 0.055248 0.561177 0.343370
O O10 0.216206 0.985524 0.180706
O O11 0.482393 0.823532 0.825181
O O12 0.125343 0.780128 0.918271
O O13 0.951568 0.734215 0.742385
O O14 0.000000 0.000000 0.000000
O O15 0.833804 0.754628 0.551846
#
# Coordination Sequence:
#
# PCOD8034902 Si02
#       7
#     2   2   2   2   2   2   2
#     4  12  28  47  78 109 147 198 248 317 386 436
#     4  11  26  50  73 111 154 195 256 305 374 462
#     4  11  24  46  78 103 151 204 242 309 377 437
#     4  11  24  46  74 110 155 193 253 314 365 446
#     4  12  26  45  74 120 149 189 258 313 365 456
#     4  12  26  49  78 112 150 204 249 306 382 440
#     4  11  25  45  74 110 148 203 248 307 379 439
#
# _framework density 24.733355
#
# number of rings (size 3 to 8) (size 9 to 14) (size 15 to 20)
#    0.000    0.571    2.857    4.714    8.000    1.714 
#    0.000    3.571    0.000    0.000    0.000    0.000 
#    0.000    0.000    0.000    0.000    0.000    0.000 
#
# Total GULP energy -173570.341728 kJ/mol
# GULP energy per Si atom -12397.881552 kJ/mol
# Density = 2.467706 g / cm^3
# Si number density = 24.733355 Si / 1000 Ang^3
#
#
#
# Elastic Constant Matrix: (Units=GPa)
#
#
# Indices 1 2 3 4 5 6 
#
# 1 131.6657 50.5094 47.4820 5.7116 3.4847 -17.2763
# 2 50.5094 113.4534 61.1499 12.9801 1.3473 3.5544
# 3 47.4820 61.1499 126.4595 -2.4931 -17.0228 1.1348
# 4 5.7116 12.9801 -2.4931 32.0933 -10.0150 3.3372
# 5 3.4847 1.3473 -17.0228 -10.0150 32.7308 -0.4708
# 6 -17.2763 3.5544 1.1348 3.3372 -0.4708 39.3451
#
#
#
# Elastic Compliance Matrix: (Units=1/GPa)
#
#
# Indices 1 2 3 4 5 6 
#
# 1 0.010748 -0.002889 -0.003196 -0.002602 -0.003408 0.005253
# 2 -0.002889 0.015027 -0.007200 -0.007968 -0.006520 -0.001820
# 3 -0.003196 -0.007200 0.014167 0.008016 0.010433 -0.001716
# 4 -0.002602 -0.007968 0.008016 0.041293 0.017352 -0.003949
# 5 -0.003408 -0.006520 0.010433 0.017352 0.041888 -0.002179
# 6 0.005253 -0.001820 -0.001716 -0.003949 -0.002179 0.028245
#
#
# Mechanical properties :
#
#
# Convention : Reuss Voigt Hill
#
# Bulk Modulus (GPa) = 74.78055 76.65125 75.71590
# Shear Modulus (GPa) = 27.41290 34.99633 31.20461
#
# Velocity S-wave (km/s) = 3.33278 3.76566 3.55581
# Velocity P-wave (km/s) = 6.71642 7.06861 6.89476
#
# Compressibility (1/GPa) = 0.01337246
#
# Stress axis : x y z
#
# Youngs Moduli (GPa) = 93.04035 66.54583 70.58588
#
# Poissons Ratio (x) = 0.19224 0.22559
# Poissons Ratio (y) = 0.26877 0.50824
# Poissons Ratio (z) = 0.29735 0.47915
#
# Static dielectric constant tensor:
#      x y z
#    x 4.647890 0.300790 0.033510 
#    y 0.300790 5.668570 0.249270 
#    z 0.033510 0.249270 4.632870 
# 
# 
# High freq. dielectric constant tensor:
#      x y z
#    x 1.989160 -0.009740 -0.008370 
#    y -0.009740 1.993080 0.003590 
#    z -0.008370 0.003590 1.989820 
# 
# From -- ./inp_files/189686.got.cif
#   From: 2010.06.25/outbox.cif.g09.slc.cpg/sg2_95_cif.got.tgz:189686.got - 2010.06.27 13:26:56.
