data_PCOD8034600
_publ_section_title
;
Structure prediction by ZEFSAII (Michael W. Deem and Ramdas Pophale) SiO2 
 PCOD8034600
Probable space group: P -1
;
_chemical_formula_sum "Si O2"
_cell_formula_units_Z 14
_cell_length_a 14.868553
_cell_length_b 11.645587
_cell_length_c 8.995079
_cell_angle_alpha 121.571177
_cell_angle_beta 148.782861
_cell_angle_gamma 48.919557
_cell_volume 605.537592
_symmetry_space_group_name_H-M "P -1"
_symmetry_group_IT_number 2
_symmetry_cell_setting 'triclinic'
loop_
_space_group_symop_operation_xyz
x,y,z
-x,-y,-z
loop_
_atom_site_type_symbol
_atom_site_label
_atom_site_fract_x
_atom_site_fract_y
_atom_site_fract_z
Si Si1 0.229885 0.841423 0.543645
Si Si2 0.100346 0.597862 0.653329
Si Si3 0.787667 0.911604 0.526091
Si Si4 0.412629 0.906867 0.100595
Si Si5 0.696604 0.611157 0.467916
Si Si6 0.512869 0.507725 0.697456
Si Si7 0.138647 0.168552 0.092460
O O1 0.432278 0.684945 0.742825
O O2 0.050990 0.802186 0.251699
O O3 0.233450 0.931590 0.462689
O O4 0.227149 0.931039 0.751707
O O5 0.193675 0.538364 0.582884
O O6 0.000000 0.500000 0.500000
O O7 0.934892 0.774813 0.533164
O O8 0.264748 0.585534 0.994309
O O9 0.573959 0.920279 0.233908
O O10 0.875838 0.887152 0.800253
O O11 0.509999 0.742411 0.206710
O O12 0.334058 0.038547 0.202819
O O13 0.619950 0.562144 0.469988
O O14 0.846299 0.674746 0.771931
O O15 0.500000 0.500000 0.500000
#
# Coordination Sequence:
#
# PCOD8034600 Si02
#       7
#     2   2   2   2   2   2   2
#     4  12  26  45  66 111 139 182 237 285 353 413
#     4  12  23  49  75 103 141 189 235 284 351 427
#     4  11  24  45  75 103 141 187 231 287 350 419
#     4  11  24  45  72 102 143 185 232 289 351 417
#     4  11  25  48  70 100 146 190 234 281 360 417
#     4  12  29  46  73 104 145 184 235 297 350 415
#     4  11  25  44  72 104 143 185 233 288 351 415
#
# _framework density 23.119952000000001
#
# number of rings (size 3 to 8) (size 9 to 14) (size 15 to 20)
#    0.000    0.571    4.286    4.286    6.000    1.714 
#    0.000    0.000    0.000    0.000    0.000    0.000 
#    0.000    0.000    0.000    0.000    0.000    0.000 
#
# Total GULP energy -173656.113985 kJ/mol
# GULP energy per Si atom -12404.008142 kJ/mol
# Density = 2.306733 g / cm^3
# Si number density = 23.119952 Si / 1000 Ang^3
#
#
#
# Elastic Constant Matrix: (Units=GPa)
#
#
# Indices 1 2 3 4 5 6 
#
# 1 134.6151 46.5914 39.2360 7.4338 -0.6380 3.3626
# 2 46.5914 103.5091 24.1961 -2.1623 6.5021 -1.7814
# 3 39.2360 24.1961 139.1239 22.3734 6.3900 -2.7710
# 4 7.4338 -2.1623 22.3734 26.9697 -10.9843 0.7593
# 5 -0.6380 6.5021 6.3900 -10.9843 23.4344 5.4028
# 6 3.3626 -1.7814 -2.7710 0.7593 5.4028 51.9202
#
#
#
# Elastic Compliance Matrix: (Units=1/GPa)
#
#
# Indices 1 2 3 4 5 6 
#
# 1 0.009434 -0.003923 -0.002021 -0.000417 0.001943 -0.001050
# 2 -0.003923 0.011902 -0.001168 0.002035 -0.002324 0.000812
# 3 -0.002021 -0.001168 0.010208 -0.011409 -0.008245 0.001660
# 4 -0.000417 0.002035 -0.011409 0.059852 0.031669 -0.004683
# 5 0.001943 -0.002324 -0.008245 0.031669 0.062210 -0.007582
# 6 -0.001050 0.000812 0.001660 -0.004683 -0.007582 0.020302
#
#
# Mechanical properties :
#
#
# Convention : Reuss Voigt Hill
#
# Bulk Modulus (GPa) = 57.73882 66.36611 62.05246
# Shear Modulus (GPa) = 25.78580 38.27983 32.03282
#
# Velocity S-wave (km/s) = 3.34324 4.07345 3.72628
# Velocity P-wave (km/s) = 6.31908 7.13382 6.73878
#
# Compressibility (1/GPa) = 0.01731937
#
# Stress axis : x y z
#
# Youngs Moduli (GPa) = 106.00084 84.01822 97.96593
#
# Poissons Ratio (x) = 0.32958 0.19803
# Poissons Ratio (y) = 0.41581 0.11443
# Poissons Ratio (z) = 0.21427 0.09814
#
# Static dielectric constant tensor:
#      x y z
#    x 4.213520 -0.354420 -0.075390 
#    y -0.354420 4.540400 0.265440 
#    z -0.075390 0.265440 4.509840 
# 
# 
# High freq. dielectric constant tensor:
#      x y z
#    x 1.914190 -0.007440 0.000560 
#    y -0.007440 1.917750 0.006340 
#    z 0.000560 0.006340 1.922490 
# 
# From -- ./inp_files/308420.got.cif
#   From: 2010.06.25/outbox.cif.g09.slc.cpg/sg2_155_cif.got.tgz:308420.got - 2010.06.27 13:26:56.
