data_PCOD8034758
_publ_section_title
;
Structure prediction by ZEFSAII (Michael W. Deem and Ramdas Pophale) SiO2 
 PCOD8034758
Probable space group: P -1
;
_chemical_formula_sum "Si O2"
_cell_formula_units_Z 14
_cell_length_a 12.405948
_cell_length_b 8.953223
_cell_length_c 11.402499
_cell_angle_alpha 152.694296
_cell_angle_beta 81.013700
_cell_angle_gamma 96.501062
_cell_volume 572.951373
_symmetry_space_group_name_H-M "P -1"
_symmetry_group_IT_number 2
_symmetry_cell_setting 'triclinic'
loop_
_space_group_symop_operation_xyz
x,y,z
-x,-y,-z
loop_
_atom_site_type_symbol
_atom_site_label
_atom_site_fract_x
_atom_site_fract_y
_atom_site_fract_z
Si Si1 0.021159 0.542379 0.389585
Si Si2 0.176440 0.696476 0.862492
Si Si3 0.523377 0.615468 0.707229
Si Si4 0.349044 0.236120 0.604178
Si Si5 0.295724 0.543551 0.079100
Si Si6 0.735178 0.712461 0.854116
Si Si7 0.081946 0.785972 0.184533
O O1 0.148242 0.478754 0.303819
O O2 0.000000 0.500000 0.500000
O O3 0.942321 0.291336 0.168353
O O4 0.990977 0.878912 0.559794
O O5 0.242170 0.346041 0.619701
O O6 0.155059 0.837943 0.093355
O O7 0.256211 0.916399 0.929269
O O8 0.500000 0.500000 0.500000
O O9 0.454330 0.414517 0.669572
O O10 0.651302 0.537788 0.661046
O O11 0.500000 0.000000 0.000000
O O12 0.370446 0.848542 0.309168
O O13 0.329455 0.340273 0.815540
O O14 0.308668 0.287839 0.005321
O O15 0.170333 0.697096 0.208310
O O16 0.000000 0.500000 0.000000
#
# Coordination Sequence:
#
# PCOD8034758 Si02
#       7
#     2   2   2   2   2   2   2
#     4  12  26  41  73 108 150 194 250 311 371 449
#     4  11  24  46  69 105 147 196 249 304 373 455
#     4  12  28  50  81 111 148 200 257 315 374 449
#     4  11  25  50  78 104 153 199 249 304 382 443
#     4  11  27  47  76 112 150 197 247 313 379 449
#     4  12  28  46  74 115 144 199 259 315 374 449
#     4  11  25  44  69 104 153 201 238 301 384 449
#
# _framework density 24.434882000000002
#
# number of rings (size 3 to 8) (size 9 to 14) (size 15 to 20)
#    0.000    0.571    4.286    2.143   10.000    3.429 
#    0.000    0.000    0.000    0.000    0.000    0.000 
#    0.000    0.000    0.000    0.000    0.000    0.000 
#
# Total GULP energy -173553.678388 kJ/mol
# GULP energy per Si atom -12396.691313 kJ/mol
# Density = 2.437927 g / cm^3
# Si number density = 24.434882 Si / 1000 Ang^3
#
#
#
# Elastic Constant Matrix: (Units=GPa)
#
#
# Indices 1 2 3 4 5 6 
#
# 1 137.7983 37.1120 11.3294 -15.1813 31.2564 2.3594
# 2 37.1120 156.7586 35.3902 -2.0912 21.8859 3.0743
# 3 11.3294 35.3902 82.5599 -11.2251 25.7009 0.7605
# 4 -15.1813 -2.0912 -11.2251 35.5772 2.1987 10.4945
# 5 31.2564 21.8859 25.7009 2.1987 30.9001 0.1557
# 6 2.3594 3.0743 0.7605 10.4945 0.1557 38.7142
#
#
#
# Elastic Compliance Matrix: (Units=1/GPa)
#
#
# Indices 1 2 3 4 5 6 
#
# 1 0.011772 -0.001590 0.005080 0.008349 -0.015587 -0.002892
# 2 -0.001590 0.007556 -0.002703 -0.000943 -0.001428 -0.000189
# 3 0.005080 -0.002703 0.020666 0.010825 -0.021166 -0.003350
# 4 0.008349 -0.000943 0.010825 0.039570 -0.019540 -0.011295
# 5 -0.015587 -0.001428 -0.021166 -0.019540 0.068102 0.006502
# 6 -0.002892 -0.000189 -0.003350 -0.011295 0.006502 0.029123
#
#
# Mechanical properties :
#
#
# Convention : Reuss Voigt Hill
#
# Bulk Modulus (GPa) = 24.05658 60.53110 42.29384
# Shear Modulus (GPa) = 26.44512 40.59064 33.51788
#
# Velocity S-wave (km/s) = 3.29335 4.08017 3.70770
# Velocity P-wave (km/s) = 4.93236 6.85735 5.97291
#
# Compressibility (1/GPa) = 0.04156866
#
# Stress axis : x y z
#
# Youngs Moduli (GPa) = 84.94537 132.34063 48.38959
#
# Poissons Ratio (x) = 0.21038 -0.24581
# Poissons Ratio (y) = 0.13503 0.13080
# Poissons Ratio (z) = -0.43151 0.35771
#
# Static dielectric constant tensor:
#      x y z
#    x 9.252010 -0.635020 -2.415190 
#    y -0.635020 4.935720 0.472390 
#    z -2.415190 0.472390 5.664010 
# 
# 
# High freq. dielectric constant tensor:
#      x y z
#    x 1.985510 -0.003460 0.008780 
#    y -0.003460 1.992270 0.008970 
#    z 0.008780 0.008970 1.954450 
# 
# From -- ./inp_files/46715.got.cif
#   From: 2010.06.25/outbox.cif.g09.slc.cpg/sg2_24_cif.got.tgz:46715.got - 2010.06.27 13:26:56.
