data_PCOD8034651
_publ_section_title
;
Structure prediction by ZEFSAII (Michael W. Deem and Ramdas Pophale) SiO2 
 PCOD8034651
Probable space group: P -1
;
_chemical_formula_sum "Si O2"
_cell_formula_units_Z 14
_cell_length_a 9.658370
_cell_length_b 8.433970
_cell_length_c 8.716551
_cell_angle_alpha 83.199358
_cell_angle_beta 99.801201
_cell_angle_gamma 121.031122
_cell_volume 599.145486
_symmetry_space_group_name_H-M "P -1"
_symmetry_group_IT_number 2
_symmetry_cell_setting 'triclinic'
loop_
_space_group_symop_operation_xyz
x,y,z
-x,-y,-z
loop_
_atom_site_type_symbol
_atom_site_label
_atom_site_fract_x
_atom_site_fract_y
_atom_site_fract_z
Si Si1 0.470332 0.839573 0.893778
Si Si2 0.615635 0.444579 0.836897
Si Si3 0.982070 0.218127 0.654030
Si Si4 0.271912 0.161284 0.262430
Si Si5 0.699826 0.762211 0.389559
Si Si6 0.936340 0.487465 0.821340
Si Si7 0.817820 0.167476 0.321225
O O1 0.620081 0.908979 0.797039
O O2 0.313580 0.779568 0.765455
O O3 0.444152 0.656949 0.999150
O O4 0.500000 0.000000 0.000000
O O5 0.716670 0.667569 0.851968
O O6 0.465501 0.393185 0.701639
O O7 0.739995 0.386937 0.792361
O O8 0.003394 0.375846 0.753908
O O9 0.848713 0.195493 0.505659
O O10 0.155952 0.282844 0.601377
O O11 0.910952 0.017242 0.745971
O O12 0.335437 0.230850 0.438863
O O13 0.754896 0.955323 0.291018
O O14 0.011456 0.695081 0.745467
O O15 0.000000 0.500000 0.000000
#
# Coordination Sequence:
#
# PCOD8034651 Si02
#       7
#     2   2   2   2   2   2   2
#     4  12  25  45  69 109 144 184 231 294 351 414
#     4  12  25  46  72 104 145 181 233 290 351 419
#     4  11  26  47  74 103 140 185 237 292 347 418
#     4  11  26  44  74 102 142 185 236 283 357 415
#     4  11  25  47  75 103 140 183 237 293 347 417
#     4  12  26  45  71 108 141 184 232 289 355 419
#     4  11  24  45  73  98 148 179 238 282 355 410
#
# _framework density 23.366612
#
# number of rings (size 3 to 8) (size 9 to 14) (size 15 to 20)
#    0.000    0.571    2.857    5.571    4.000    2.286 
#    0.000    2.143    0.000    0.000    0.000    0.000 
#    0.000    0.000    0.000    0.000    0.000    0.000 
#
# Total GULP energy -173630.646787 kJ/mol
# GULP energy per Si atom -12402.189056 kJ/mol
# Density = 2.331343 g / cm^3
# Si number density = 23.366612 Si / 1000 Ang^3
#
#
#
# Elastic Constant Matrix: (Units=GPa)
#
#
# Indices 1 2 3 4 5 6 
#
# 1 137.5745 24.7721 59.0838 15.8067 -12.7473 9.2089
# 2 24.7721 109.1699 39.4845 -14.0829 -2.7162 2.8179
# 3 59.0838 39.4845 100.0660 -3.1836 -7.5957 -4.2548
# 4 15.8067 -14.0829 -3.1836 40.3179 -0.4950 -3.4852
# 5 -12.7473 -2.7162 -7.5957 -0.4950 42.0852 -0.5688
# 6 9.2089 2.8179 -4.2548 -3.4852 -0.5688 32.8578
#
#
#
# Elastic Compliance Matrix: (Units=1/GPa)
#
#
# Indices 1 2 3 4 5 6 
#
# 1 0.011404 -0.000736 -0.006658 -0.005622 0.002077 -0.004556
# 2 -0.000736 0.011264 -0.003938 0.003835 -0.000173 -0.000866
# 3 -0.006658 -0.003938 0.015816 0.002887 0.000679 0.004570
# 4 -0.005622 0.003835 0.002887 0.028973 -0.000530 0.004685
# 5 0.002077 -0.000173 0.000679 -0.000530 0.024494 -0.000112
# 6 -0.004556 -0.000866 0.004570 0.004685 -0.000112 0.032872
#
#
# Mechanical properties :
#
#
# Convention : Reuss Voigt Hill
#
# Bulk Modulus (GPa) = 63.20886 65.94346 64.57616
# Shear Modulus (GPa) = 32.73081 37.95018 35.34050
#
# Velocity S-wave (km/s) = 3.74672 4.03441 3.89322
# Velocity P-wave (km/s) = 6.76956 7.06997 6.92139
#
# Compressibility (1/GPa) = 0.01582057
#
# Stress axis : x y z
#
# Youngs Moduli (GPa) = 87.68802 88.77766 63.22545
#
# Poissons Ratio (x) = 0.06530 0.42096
# Poissons Ratio (y) = 0.06450 0.24900
# Poissons Ratio (z) = 0.58384 0.34963
#
# Static dielectric constant tensor:
#      x y z
#    x 4.311550 0.204150 -0.171930 
#    y 0.204150 4.512400 -0.457630 
#    z -0.171930 -0.457630 4.298930 
# 
# 
# High freq. dielectric constant tensor:
#      x y z
#    x 1.924970 0.006840 -0.004090 
#    y 0.006840 1.934670 -0.017090 
#    z -0.004090 -0.017090 1.922610 
# 
# From -- ./inp_files/158102.got.cif
#   From: 2010.06.25/outbox.cif.g09.slc.cpg/sg2_80_cif.got.tgz:158102.got - 2010.06.27 13:26:56.
