data_PCOD8034275
_publ_section_title
;
Structure prediction by ZEFSAII (Michael W. Deem and Ramdas Pophale) SiO2 
 PCOD8034275
Probable space group: P -1
;
_chemical_formula_sum "Si O2"
_cell_formula_units_Z 16
_cell_length_a 20.762950
_cell_length_b 9.007559
_cell_length_c 12.527689
_cell_angle_alpha 50.061207
_cell_angle_beta 28.275838
_cell_angle_gamma 42.456086
_cell_volume 748.991478
_symmetry_space_group_name_H-M "P -1"
_symmetry_group_IT_number 2
_symmetry_cell_setting 'triclinic'
loop_
_space_group_symop_operation_xyz
x,y,z
-x,-y,-z
loop_
_atom_site_type_symbol
_atom_site_label
_atom_site_fract_x
_atom_site_fract_y
_atom_site_fract_z
Si Si1 0.596867 0.411193 0.007775
Si Si2 0.118460 0.009398 0.610024
Si Si3 0.937246 0.743808 0.026102
Si Si4 0.042209 0.787309 0.465230
Si Si5 0.632537 0.979932 0.238991
Si Si6 0.658166 0.603829 0.238037
Si Si7 0.003218 0.615599 0.213084
Si Si8 0.549722 0.350488 0.670963
O O1 0.533645 0.568932 0.130429
O O2 0.572034 0.205947 0.163087
O O3 0.500000 0.500000 0.000000
O O4 0.775562 0.345868 0.762421
O O5 0.302374 0.880736 0.412836
O O6 0.065142 0.116691 0.524118
O O7 0.057129 0.218285 0.678939
O O8 0.062693 0.828844 0.796446
O O9 0.785361 0.925599 0.107504
O O10 0.894311 0.733308 0.216455
O O11 0.000000 0.500000 0.000000
O O12 0.994551 0.616182 0.665790
O O13 0.000000 0.000000 0.500000
O O14 0.676651 0.804465 0.162973
O O15 0.500000 0.000000 0.500000
O O16 0.587749 0.525526 0.473915
O O17 0.557350 0.689159 0.238664
O O18 0.826997 0.415154 0.046616
#
# Coordination Sequence:
#
# PCOD8034275 Si02
#       8
#     2   2   2   2   2   2   2   2
#     4  12  27  47  70 103 145 188 235 291 359 426
#     4  12  25  45  70 106 140 186 236 291 358 424
#     4  12  24  44  71 104 141 181 242 296 345 421
#     4  12  26  48  72  99 144 187 238 291 354 428
#     4  12  25  43  72 104 138 184 239 292 353 420
#     4  11  24  44  70 105 141 179 235 293 357 419
#     4  12  26  43  72 105 138 185 238 291 357 421
#     4  11  25  44  70 103 145 184 227 297 357 422
#
# _framework density 21.36206
#
# number of rings (size 3 to 8) (size 9 to 14) (size 15 to 20)
#    0.000    0.250    5.000    3.750    3.500    0.000 
#    0.000    1.875    0.000    0.000    0.000    0.000 
#    0.000    0.000    0.000    0.000    0.000    0.000 
#
# Total GULP energy -198387.963849 kJ/mol
# GULP energy per Si atom -12399.247741 kJ/mol
# Density = 2.131344 g / cm^3
# Si number density = 21.362060 Si / 1000 Ang^3
#
#
#
# Elastic Constant Matrix: (Units=GPa)
#
#
# Indices 1 2 3 4 5 6 
#
# 1 181.2550 57.6343 48.2067 12.1177 15.5327 -18.6187
# 2 57.6343 102.2332 31.3633 4.7599 3.0641 -6.7352
# 3 48.2067 31.3633 102.6546 14.6181 4.5296 -8.5072
# 4 12.1177 4.7599 14.6181 48.0765 -1.8383 4.2501
# 5 15.5327 3.0641 4.5296 -1.8383 37.4084 0.7548
# 6 -18.6187 -6.7352 -8.5072 4.2501 0.7548 48.3292
#
#
#
# Elastic Compliance Matrix: (Units=1/GPa)
#
#
# Indices 1 2 3 4 5 6 
#
# 1 0.007717 -0.003417 -0.002085 -0.001281 -0.002781 0.002286
# 2 -0.003417 0.012360 -0.002255 0.000353 0.000698 -0.000033
# 3 -0.002085 -0.002255 0.011971 -0.003025 -0.000573 0.001264
# 4 -0.001281 0.000353 -0.003025 0.022348 0.002027 -0.002974
# 5 -0.002781 0.000698 -0.000573 0.002027 0.028033 -0.001691
# 6 0.002286 -0.000033 0.001264 -0.002974 -0.001691 0.022078
#
#
# Mechanical properties :
#
#
# Convention : Reuss Voigt Hill
#
# Bulk Modulus (GPa) = 60.48840 73.39461 66.94150
# Shear Modulus (GPa) = 39.83005 43.35871 41.59438
#
# Velocity S-wave (km/s) = 4.32270 4.51011 4.41740
# Velocity P-wave (km/s) = 7.30011 7.84561 7.57777
#
# Compressibility (1/GPa) = 0.01653210
#
# Stress axis : x y z
#
# Youngs Moduli (GPa) = 129.58347 80.90339 83.53851
#
# Poissons Ratio (x) = 0.27646 0.17421
# Poissons Ratio (y) = 0.44281 0.18842
# Poissons Ratio (z) = 0.27023 0.18247
#
# Static dielectric constant tensor:
#      x y z
#    x 4.184580 -0.102090 -0.156530 
#    y -0.102090 4.186310 0.294770 
#    z -0.156530 0.294770 4.415910 
# 
# 
# High freq. dielectric constant tensor:
#      x y z
#    x 1.862640 -0.004420 0.004000 
#    y -0.004420 1.847770 0.004400 
#    z 0.004000 0.004400 1.841160 
# 
# From -- ./inp_files/184337.got.cif
#   From: 2010.06.25/outbox.cif.g09.slc.cpg/sg2_93_cif.got.tgz:184337.got - 2010.06.27 13:26:56.
