data_PCOD8034915
_publ_section_title
;
Structure prediction by ZEFSAII (Michael W. Deem and Ramdas Pophale) SiO2 
 PCOD8034915
Probable space group: P -1
;
_chemical_formula_sum "Si O2"
_cell_formula_units_Z 14
_cell_length_a 8.204392
_cell_length_b 11.349470
_cell_length_c 17.158212
_cell_angle_alpha 31.627963
_cell_angle_beta 40.822991
_cell_angle_gamma 53.920730
_cell_volume 540.504747
_symmetry_space_group_name_H-M "P -1"
_symmetry_group_IT_number 2
_symmetry_cell_setting 'triclinic'
loop_
_space_group_symop_operation_xyz
x,y,z
-x,-y,-z
loop_
_atom_site_type_symbol
_atom_site_label
_atom_site_fract_x
_atom_site_fract_y
_atom_site_fract_z
Si Si1 0.290426 0.285402 0.168358
Si Si2 0.493808 0.739635 0.058387
Si Si3 0.133823 0.277242 0.447766
Si Si4 0.739860 0.107901 0.479667
Si Si5 0.208510 0.449009 0.643220
Si Si6 0.804257 0.810967 0.357309
Si Si7 0.798230 0.846142 0.038495
O O1 0.991561 0.305109 0.281057
O O2 0.319859 0.057090 0.332103
O O3 0.500000 0.500000 0.000000
O O4 0.309889 0.222718 0.105615
O O5 0.331907 0.499417 0.231590
O O6 0.624146 0.711899 0.110249
O O7 0.334916 0.946455 0.999278
O O8 0.056441 0.263693 0.574171
O O9 0.897781 0.310293 0.457641
O O10 0.240999 0.049422 0.514391
O O11 0.496337 0.234816 0.491737
O O12 0.500000 0.500000 0.500000
O O13 0.101862 0.323504 0.673476
O O14 0.138502 0.307186 0.826370
O O15 0.927151 0.070846 0.147189
#
# Coordination Sequence:
#
# PCOD8034915 Si02
#       7
#     2   2   2   2   2   2   2
#     4  11  24  47  77 110 149 202 250 312 373 451
#     4  11  24  46  75 107 150 196 255 309 381 446
#     4  12  26  48  73 111 151 198 249 316 376 448
#     4  11  27  46  77 109 155 200 251 306 383 451
#     4  12  28  44  74 108 147 196 258 313 378 447
#     4  12  26  48  73 107 152 196 250 307 383 448
#     4  11  26  46  75 107 151 199 251 312 379 450
#
# _framework density 25.901714999999999
#
# number of rings (size 3 to 8) (size 9 to 14) (size 15 to 20)
#    0.000    0.571    2.857    3.857   12.000    0.000 
#    2.571    1.429    0.000    0.000    0.000    0.000 
#    0.000    0.000    0.000    0.000    0.000    0.000 
#
# Total GULP energy -173479.380764 kJ/mol
# GULP energy per Si atom -12391.384340 kJ/mol
# Density = 2.584276 g / cm^3
# Si number density = 25.901715 Si / 1000 Ang^3
#
#
#
# Elastic Constant Matrix: (Units=GPa)
#
#
# Indices 1 2 3 4 5 6 
#
# 1 123.4240 52.1381 64.0564 14.8682 27.2900 4.6220
# 2 52.1381 97.6397 31.2017 8.1421 1.9232 15.5564
# 3 64.0564 31.2017 155.0170 21.8344 6.8639 1.5610
# 4 14.8682 8.1421 21.8344 37.3056 9.1447 -4.9820
# 5 27.2900 1.9232 6.8639 9.1447 68.5039 14.3981
# 6 4.6220 15.5564 1.5610 -4.9820 14.3981 43.7417
#
#
#
# Elastic Compliance Matrix: (Units=1/GPa)
#
#
# Indices 1 2 3 4 5 6 
#
# 1 0.014292 -0.006587 -0.004367 0.000074 -0.005683 0.002868
# 2 -0.006587 0.014868 -0.000048 -0.002341 0.003808 -0.006110
# 3 -0.004367 -0.000048 0.008747 -0.003851 0.001543 -0.000780
# 4 0.000074 -0.002341 -0.003851 0.031629 -0.005113 0.006248
# 5 -0.005683 0.003808 0.001543 -0.005113 0.018882 -0.007606
# 6 0.002868 -0.006110 -0.000780 0.006248 -0.007606 0.027975
#
#
# Mechanical properties :
#
#
# Convention : Reuss Voigt Hill
#
# Bulk Modulus (GPa) = 62.88508 74.54146 68.71327
# Shear Modulus (GPa) = 34.79518 45.15588 39.97553
#
# Velocity S-wave (km/s) = 3.66916 4.17988 3.93282
# Velocity P-wave (km/s) = 6.50241 7.22054 6.87087
#
# Compressibility (1/GPa) = 0.01590202
#
# Stress axis : x y z
#
# Youngs Moduli (GPa) = 69.97029 67.25763 114.32138
#
# Poissons Ratio (x) = 0.44303 0.49930
# Poissons Ratio (y) = 0.46090 0.00550
# Poissons Ratio (z) = 0.30559 0.00323
#
# Static dielectric constant tensor:
#      x y z
#    x 4.935080 0.496870 -1.005780 
#    y 0.496870 5.091010 -0.742600 
#    z -1.005780 -0.742600 5.794340 
# 
# 
# High freq. dielectric constant tensor:
#      x y z
#    x 2.048320 0.019840 -0.003810 
#    y 0.019840 2.034720 0.012080 
#    z -0.003810 0.012080 2.050190 
# 
# From -- ./inp_files/559475.got.cif
#   From: 2010.06.25/outbox.cif.g09.slc.cpg/sg2_280_cif.got.tgz:559475.got - 2010.06.27 13:26:56.
