data_PCOD8034958
_publ_section_title
;
Structure prediction by ZEFSAII (Michael W. Deem and Ramdas Pophale) SiO2 
 PCOD8034958
Probable space group: P -1
;
_chemical_formula_sum "Si O2"
_cell_formula_units_Z 16
_cell_length_a 12.087593
_cell_length_b 8.301553
_cell_length_c 11.109811
_cell_angle_alpha 57.595002
_cell_angle_beta 50.583592
_cell_angle_gamma 63.192816
_cell_volume 716.591481
_symmetry_space_group_name_H-M "P -1"
_symmetry_group_IT_number 2
_symmetry_cell_setting 'triclinic'
loop_
_space_group_symop_operation_xyz
x,y,z
-x,-y,-z
loop_
_atom_site_type_symbol
_atom_site_label
_atom_site_fract_x
_atom_site_fract_y
_atom_site_fract_z
Si Si1 0.425508 0.707378 0.929812
Si Si2 0.541156 0.651364 0.316238
Si Si3 0.780292 0.422859 0.070866
Si Si4 0.548173 0.017165 0.595818
Si Si5 0.891382 0.778806 0.747887
Si Si6 0.992372 0.285022 0.559179
Si Si7 0.303947 0.836443 0.213248
Si Si8 0.132298 0.906626 0.685424
O O1 0.300485 0.679819 0.934042
O O2 0.548188 0.808969 0.740104
O O3 0.500000 0.500000 0.000000
O O4 0.366627 0.829694 0.038164
O O5 0.500000 0.500000 0.500000
O O6 0.679927 0.547581 0.189316
O O7 0.569957 0.830403 0.308865
O O8 0.418700 0.734766 0.270766
O O9 0.880424 0.240501 0.138213
O O10 0.879550 0.564863 0.888685
O O11 0.701512 0.092033 0.468020
O O12 0.500000 0.000000 0.500000
O O13 0.897916 0.776334 0.601404
O O14 0.041650 0.838625 0.664674
O O15 0.748882 0.934788 0.817574
O O16 0.000000 0.500000 0.500000
O O17 0.827184 0.282038 0.640936
O O18 0.052986 0.127059 0.684899
#
# Coordination Sequence:
#
# PCOD8034958 Si02
#       8
#     2   2   2   2   2   2   2   2
#     4  12  26  44  70 107 144 182 230 293 348 417
#     4  12  24  41  70 103 141 185 233 287 351 417
#     4  12  25  45  71 106 142 181 233 290 355 411
#     4  12  25  45  69 102 145 180 229 291 353 416
#     4  11  25  47  72 100 140 186 238 290 337 423
#     4  11  25  44  72 100 137 188 234 289 342 419
#     4  11  25  46  70 104 139 187 239 281 355 415
#     4  11  24  47  68 100 138 182 230 281 353 409
#
# _framework density 22.327922999999998
#
# number of rings (size 3 to 8) (size 9 to 14) (size 15 to 20)
#    0.000    0.500    3.750    4.875    5.250    1.000 
#    0.000    5.625    0.000    0.000    0.000    0.000 
#    0.000    0.000    0.000    0.000    0.000    0.000 
#
# Total GULP energy -198364.915300 kJ/mol
# GULP energy per Si atom -12397.807206 kJ/mol
# Density = 2.227710 g / cm^3
# Si number density = 22.327923 Si / 1000 Ang^3
#
#
#
# Elastic Constant Matrix: (Units=GPa)
#
#
# Indices 1 2 3 4 5 6 
#
# 1 87.6172 52.0879 25.7077 -2.3764 15.2060 0.1515
# 2 52.0879 106.4832 36.8330 -25.0215 17.2246 -4.4455
# 3 25.7077 36.8330 121.1865 -24.0865 3.4792 -1.9901
# 4 -2.3764 -25.0215 -24.0865 54.1334 3.6590 6.4274
# 5 15.2060 17.2246 3.4792 3.6590 39.4686 -4.0722
# 6 0.1515 -4.4455 -1.9901 6.4274 -4.0722 32.6370
#
#
#
# Elastic Compliance Matrix: (Units=1/GPa)
#
#
# Indices 1 2 3 4 5 6 
#
# 1 0.017204 -0.008246 -0.001791 -0.003563 -0.002638 -0.000940
# 2 -0.008246 0.016317 -0.001756 0.006659 -0.004376 0.000296
# 3 -0.001791 -0.001756 0.009852 0.003512 0.000232 -0.000293
# 4 -0.003563 0.006659 0.003512 0.023746 -0.004467 -0.004096
# 5 -0.002638 -0.004376 0.000232 -0.004467 0.029063 0.003936
# 6 -0.000940 0.000296 -0.000293 -0.004096 0.003936 0.031965
#
#
# Mechanical properties :
#
#
# Convention : Reuss Voigt Hill
#
# Bulk Modulus (GPa) = 50.53805 60.50489 55.52147
# Shear Modulus (GPa) = 31.58012 38.62503 35.10257
#
# Velocity S-wave (km/s) = 3.76490 4.16372 3.96932
# Velocity P-wave (km/s) = 6.44848 7.09031 6.77700
#
# Compressibility (1/GPa) = 0.01978707
#
# Stress axis : x y z
#
# Youngs Moduli (GPa) = 58.12720 61.28525 101.50110
#
# Poissons Ratio (x) = 0.50533 0.18181
# Poissons Ratio (y) = 0.47929 0.17825
# Poissons Ratio (z) = 0.10412 0.10762
#
# Static dielectric constant tensor:
#      x y z
#    x 3.938050 -0.025270 0.162670 
#    y -0.025270 4.350670 -0.312370 
#    z 0.162670 -0.312370 4.170650 
# 
# 
# High freq. dielectric constant tensor:
#      x y z
#    x 1.877240 0.004690 0.008920 
#    y 0.004690 1.888870 -0.018670 
#    z 0.008920 -0.018670 1.893400 
# 
# From -- ./inp_files/418822.got.cif
#   From: 2010.06.25/outbox.cif.g09.slc.cpg/sg2_210_cif.got.tgz:418822.got - 2010.06.27 13:26:56.
