data_PCOD8034511
_publ_section_title
;
Structure prediction by ZEFSAII (Michael W. Deem and Ramdas Pophale) SiO2 
 PCOD8034511
Probable space group: P -1
;
_chemical_formula_sum "Si O2"
_cell_formula_units_Z 16
_cell_length_a 12.832384
_cell_length_b 14.324550
_cell_length_c 9.484450
_cell_angle_alpha 131.791017
_cell_angle_beta 33.255480
_cell_angle_gamma 130.388911
_cell_volume 695.047846
_symmetry_space_group_name_H-M "P -1"
_symmetry_group_IT_number 2
_symmetry_cell_setting 'triclinic'
loop_
_space_group_symop_operation_xyz
x,y,z
-x,-y,-z
loop_
_atom_site_type_symbol
_atom_site_label
_atom_site_fract_x
_atom_site_fract_y
_atom_site_fract_z
Si Si1 0.423799 0.351842 0.531357
Si Si2 0.789726 0.085068 0.097486
Si Si3 0.445016 0.063588 0.267967
Si Si4 0.123009 0.711849 0.562465
Si Si5 0.833589 0.417099 0.015389
Si Si6 0.968238 0.776218 0.291817
Si Si7 0.027533 0.898173 0.628530
Si Si8 0.779484 0.518187 0.895604
O O1 0.469230 0.215510 0.378182
O O2 0.611912 0.431891 0.312872
O O3 0.224570 0.332040 0.643138
O O4 0.400328 0.429102 0.781342
O O5 0.579488 0.035420 0.215448
O O6 0.769501 0.183377 0.342950
O O7 0.950206 0.148652 0.864475
O O8 0.871061 0.966692 0.952696
O O9 0.225161 0.003430 0.494186
O O10 0.500000 0.000000 0.000000
O O11 0.069516 0.777874 0.546273
O O12 0.268927 0.612302 0.276601
O O13 0.917082 0.634575 0.777096
O O14 0.893633 0.463927 0.837536
O O15 0.000000 0.500000 0.000000
O O16 0.853777 0.273826 0.885295
O O17 0.921009 0.863751 0.561177
#
# Coordination Sequence:
#
# PCOD8034511 Si02
#       8
#     2   2   2   2   2   2   2   2
#     4  12  24  42  74 109 138 180 238 287 354 415
#     4  12  23  44  71 100 140 187 224 292 352 410
#     4  12  24  41  72 106 141 173 232 297 348 414
#     4  11  25  46  70  97 147 190 233 283 350 418
#     4  12  23  42  73 103 141 181 233 296 347 402
#     4  12  22  41  72 105 139 179 232 293 350 405
#     4  12  24  44  72 103 137 187 233 285 355 416
#     4  11  24  45  69  97 141 190 230 289 339 414
#
# _framework density 23.019995999999999
#
# number of rings (size 3 to 8) (size 9 to 14) (size 15 to 20)
#    0.000    0.250    7.500    1.875    0.000    0.500 
#    0.000    0.625    2.750    0.000    0.000    0.000 
#    0.000    0.000    0.000    0.000    0.000    0.000 
#
# Total GULP energy -198292.303258 kJ/mol
# GULP energy per Si atom -12393.268954 kJ/mol
# Density = 2.296760 g / cm^3
# Si number density = 23.019996 Si / 1000 Ang^3
#
#
#
# Elastic Constant Matrix: (Units=GPa)
#
#
# Indices 1 2 3 4 5 6 
#
# 1 83.6619 13.3906 29.7430 0.1413 -5.0846 10.7491
# 2 13.3906 61.0785 31.6244 4.5063 6.1078 8.4119
# 3 29.7430 31.6244 114.1150 24.1425 2.8958 15.2862
# 4 0.1413 4.5063 24.1425 47.2315 1.4670 1.2058
# 5 -5.0846 6.1078 2.8958 1.4670 42.6467 2.1286
# 6 10.7491 8.4119 15.2862 1.2058 2.1286 42.0331
#
#
#
# Elastic Compliance Matrix: (Units=1/GPa)
#
#
# Indices 1 2 3 4 5 6 
#
# 1 0.013766 -0.001318 -0.003362 0.001794 0.002106 -0.002192
# 2 -0.001318 0.019674 -0.004987 0.000799 -0.002580 -0.001679
# 3 -0.003362 -0.004987 0.012615 -0.005890 -0.000213 -0.002550
# 4 0.001794 0.000799 -0.005890 0.024091 -0.000372 0.000851
# 5 0.002106 -0.002580 -0.000213 -0.000372 0.024154 -0.001157
# 6 -0.002192 -0.001679 -0.002550 0.000851 -0.001157 0.025649
#
#
# Mechanical properties :
#
#
# Convention : Reuss Voigt Hill
#
# Bulk Modulus (GPa) = 37.42621 45.37459 41.40040
# Shear Modulus (GPa) = 33.74055 38.65543 36.19799
#
# Velocity S-wave (km/s) = 3.83261 4.10226 3.96973
# Velocity P-wave (km/s) = 5.98987 6.49552 6.24782
#
# Compressibility (1/GPa) = 0.02671924
#
# Stress axis : x y z
#
# Youngs Moduli (GPa) = 72.64459 50.82891 79.27320
#
# Poissons Ratio (x) = 0.06701 0.26650
# Poissons Ratio (y) = 0.09577 0.39536
# Poissons Ratio (z) = 0.24422 0.25350
#
# Static dielectric constant tensor:
#      x y z
#    x 4.810290 -0.834690 -0.632310 
#    y -0.834690 5.006460 0.991410 
#    z -0.632310 0.991410 5.032420 
# 
# 
# High freq. dielectric constant tensor:
#      x y z
#    x 1.897970 -0.013720 -0.000690 
#    y -0.013720 1.924740 0.026970 
#    z -0.000690 0.026970 1.917980 
# 
# From -- ./inp_files/274245.got.cif
#   From: 2010.06.25/outbox.cif.g09.slc.cpg/sg2_138_cif.got.tgz:274245.got - 2010.06.27 13:26:56.
