data_PCOD8034165
_publ_section_title
;
Structure prediction by ZEFSAII (Michael W. Deem and Ramdas Pophale) SiO2 
 PCOD8034165
Probable space group: P -1
;
_chemical_formula_sum "Si O2"
_cell_formula_units_Z 10
_cell_length_a 4.920489
_cell_length_b 6.884815
_cell_length_c 17.476347
_cell_angle_alpha 44.582540
_cell_angle_beta 102.943407
_cell_angle_gamma 111.201590
_cell_volume 386.934888
_symmetry_space_group_name_H-M "P -1"
_symmetry_group_IT_number 2
_symmetry_cell_setting 'triclinic'
loop_
_space_group_symop_operation_xyz
x,y,z
-x,-y,-z
loop_
_atom_site_type_symbol
_atom_site_label
_atom_site_fract_x
_atom_site_fract_y
_atom_site_fract_z
Si Si1 0.283117 0.719989 0.996187
Si Si2 0.778882 0.987711 0.321860
Si Si3 0.861699 0.624036 0.120601
Si Si4 0.639232 0.925511 0.606018
Si Si5 0.650238 0.721484 0.232846
O O1 0.138252 0.831804 0.031145
O O2 0.443739 0.995564 0.876264
O O3 0.537101 0.586281 0.075603
O O4 0.000000 0.500000 0.000000
O O5 0.897087 0.303883 0.202479
O O6 0.487418 0.954874 0.361121
O O7 0.014714 0.926721 0.412692
O O8 0.745603 0.751173 0.318921
O O9 0.899175 0.710285 0.188968
O O10 0.598095 0.581908 0.706492
O O11 0.500000 0.000000 0.500000
#
# Coordination Sequence:
#
# PCOD8034165 Si02
#       5
#     2   2   2   2   2
#     4  12  24  41  67  97 143 182 218 267 326 396
#     4  11  25  45  72 101 135 173 227 277 333 405
#     4  11  24  44  63 102 141 178 221 268 323 403
#     4  11  27  49  70 100 133 170 229 287 337 400
#     4  11  26  42  73  98 137 182 223 271 340 386
#
# _framework density 25.844142000000002
#
# number of rings (size 3 to 8) (size 9 to 14) (size 15 to 20)
#    0.000    0.800    2.000    4.800    0.000    9.600 
#    0.000    0.000    0.000    0.000    0.000    0.000 
#    0.000    0.000    0.000    0.000    0.000    0.000 
#
# Total GULP energy -123935.667606 kJ/mol
# GULP energy per Si atom -12393.566761 kJ/mol
# Density = 2.578532 g / cm^3
# Si number density = 25.844142 Si / 1000 Ang^3
#
#
#
# Elastic Constant Matrix: (Units=GPa)
#
#
# Indices 1 2 3 4 5 6 
#
# 1 99.8663 14.3176 14.7350 5.5837 23.5379 5.0181
# 2 14.3176 126.8397 3.4975 23.7613 5.0781 -9.7556
# 3 14.7350 3.4975 43.7162 9.9849 0.0584 -1.2315
# 4 5.5837 23.7613 9.9849 30.9518 3.2052 0.2815
# 5 23.5379 5.0781 0.0584 3.2052 39.5124 8.9987
# 6 5.0181 -9.7556 -1.2315 0.2815 8.9987 25.6990
#
#
#
# Elastic Compliance Matrix: (Units=1/GPa)
#
#
# Indices 1 2 3 4 5 6 
#
# 1 0.012508 -0.001200 -0.004312 0.000809 -0.007223 -0.000584
# 2 -0.001200 0.009807 0.001515 -0.007745 -0.000931 0.004441
# 3 -0.004312 0.001515 0.026352 -0.009178 0.002658 0.001850
# 4 0.000809 -0.007745 -0.009178 0.041314 -0.002082 -0.003262
# 5 -0.007223 -0.000931 0.002658 -0.002082 0.032188 -0.010063
# 6 -0.000584 0.004441 0.001850 -0.003262 -0.010063 0.044360
#
#
# Mechanical properties :
#
#
# Convention : Reuss Voigt Hill
#
# Bulk Modulus (GPa) = 24.58565 37.28025 30.93295
# Shear Modulus (GPa) = 26.58428 35.09080 30.83754
#
# Velocity S-wave (km/s) = 3.21072 3.68881 3.45804
# Velocity P-wave (km/s) = 4.82480 5.70959 5.28574
#
# Compressibility (1/GPa) = 0.04067414
#
# Stress axis : x y z
#
# Youngs Moduli (GPa) = 79.94737 101.96331 37.94813
#
# Poissons Ratio (x) = 0.12239 0.16362
# Poissons Ratio (y) = 0.09597 -0.05750
# Poissons Ratio (z) = 0.34470 -0.15451
#
# Static dielectric constant tensor:
#      x y z
#    x 4.463020 -0.240890 -0.137750 
#    y -0.240890 4.922590 0.067760 
#    z -0.137750 0.067760 4.638360 
# 
# 
# High freq. dielectric constant tensor:
#      x y z
#    x 2.023510 -0.011680 0.001080 
#    y -0.011680 2.046990 0.008790 
#    z 0.001080 0.008790 2.028750 
# 
# From -- ./inp_files/2258.got.cif
#   From: 2010.06.25/outbox.cif.g09.slc.cpg/sg2_2_cif.got.tgz:2258.got - 2010.06.27 13:26:56.
