data_PCOD8034646
_publ_section_title
;
Structure prediction by ZEFSAII (Michael W. Deem and Ramdas Pophale) SiO2 
 PCOD8034646
Probable space group: P -1
;
_chemical_formula_sum "Si O2"
_cell_formula_units_Z 14
_cell_length_a 8.873180
_cell_length_b 11.474352
_cell_length_c 9.446291
_cell_angle_alpha 61.337840
_cell_angle_beta 46.709839
_cell_angle_gamma 85.675679
_cell_volume 563.825766
_symmetry_space_group_name_H-M "P -1"
_symmetry_group_IT_number 2
_symmetry_cell_setting 'triclinic'
loop_
_space_group_symop_operation_xyz
x,y,z
-x,-y,-z
loop_
_atom_site_type_symbol
_atom_site_label
_atom_site_fract_x
_atom_site_fract_y
_atom_site_fract_z
Si Si1 0.183397 0.972120 0.996426
Si Si2 0.864619 0.762007 0.545573
Si Si3 0.735390 0.452896 0.713356
Si Si4 0.363964 0.635014 0.689923
Si Si5 0.607582 0.721540 0.208499
Si Si6 0.446569 0.800020 0.805757
Si Si7 0.923402 0.655829 0.862291
O O1 0.062610 0.850215 0.260907
O O2 0.344809 0.917443 0.833334
O O3 0.358068 0.113327 0.881468
O O4 0.000000 0.000000 0.000000
O O5 0.705506 0.605584 0.667849
O O6 0.714432 0.852828 0.632415
O O7 0.970463 0.739087 0.636243
O O8 0.590190 0.358402 0.730714
O O9 0.000000 0.500000 0.500000
O O10 0.675924 0.352024 0.947622
O O11 0.547034 0.641987 0.447467
O O12 0.437615 0.777149 0.655113
O O13 0.138233 0.620046 0.763968
O O14 0.305869 0.491867 0.906722
O O15 0.857795 0.738493 0.985624
#
# Coordination Sequence:
#
# PCOD8034646 Si02
#       7
#     2   2   2   2   2   2   2
#     4  12  30  51  74 112 158 204 251 310 382 463
#     4  12  25  49  82 109 149 199 258 314 380 450
#     4  12  24  48  80 113 147 194 258 318 375 440
#     4  11  25  42  75 109 151 194 248 317 373 442
#     4  12  27  47  72 111 154 195 249 309 375 447
#     4  12  25  48  79 105 150 201 254 312 382 443
#     4  11  24  45  73 113 146 194 255 314 374 441
#
# _framework density 24.830365
#
# number of rings (size 3 to 8) (size 9 to 14) (size 15 to 20)
#    0.000    0.286    4.286    4.286    2.000    5.714 
#    0.000    0.000    0.000    0.000    0.000    0.000 
#    0.000    0.000    0.000    0.000    0.000    0.000 
#
# Total GULP energy -173501.735490 kJ/mol
# GULP energy per Si atom -12392.981106 kJ/mol
# Density = 2.477385 g / cm^3
# Si number density = 24.830365 Si / 1000 Ang^3
#
#
#
# Elastic Constant Matrix: (Units=GPa)
#
#
# Indices 1 2 3 4 5 6 
#
# 1 59.0777 30.7776 23.7368 0.4744 7.3455 4.6747
# 2 30.7776 155.9467 28.0701 18.2122 2.7595 -3.9899
# 3 23.7368 28.0701 91.8819 14.0655 20.9664 8.2354
# 4 0.4744 18.2122 14.0655 38.0422 2.6242 -2.6431
# 5 7.3455 2.7595 20.9664 2.6242 39.6780 4.3639
# 6 4.6747 -3.9899 8.2354 -2.6431 4.3639 34.3630
#
#
#
# Elastic Compliance Matrix: (Units=1/GPa)
#
#
# Indices 1 2 3 4 5 6 
#
# 1 0.020869 -0.003736 -0.004243 0.003062 -0.001361 -0.001848
# 2 -0.003736 0.007763 -0.001239 -0.003178 0.000868 0.001352
# 3 -0.004243 -0.001239 0.014734 -0.004549 -0.006322 -0.002645
# 4 0.003062 -0.003178 -0.004549 0.029646 -0.000190 0.002609
# 5 -0.001361 0.000868 -0.006322 -0.000190 0.028956 -0.001891
# 6 -0.001848 0.001352 -0.002645 0.002609 -0.001891 0.030584
#
#
# Mechanical properties :
#
#
# Convention : Reuss Voigt Hill
#
# Bulk Modulus (GPa) = 40.11119 52.45281 46.28200
# Shear Modulus (GPa) = 31.38781 37.37142 34.37961
#
# Velocity S-wave (km/s) = 3.55926 3.88373 3.72503
# Velocity P-wave (km/s) = 5.75155 6.42507 6.09761
#
# Compressibility (1/GPa) = 0.02493070
#
# Stress axis : x y z
#
# Youngs Moduli (GPa) = 47.91907 128.81369 67.86859
#
# Poissons Ratio (x) = 0.48122 0.28793
# Poissons Ratio (y) = 0.17902 0.08411
# Poissons Ratio (z) = 0.20330 0.15965
#
# Static dielectric constant tensor:
#      x y z
#    x 4.251340 -0.110980 0.004380 
#    y -0.110980 4.776430 0.192010 
#    z 0.004380 0.192010 4.814890 
# 
# 
# High freq. dielectric constant tensor:
#      x y z
#    x 1.985210 -0.009120 0.001630 
#    y -0.009120 1.992880 0.017860 
#    z 0.001630 0.017860 2.004410 
# 
# From -- ./inp_files/184724.got.cif
#   From: 2010.06.25/outbox.cif.g09.slc.cpg/sg2_93_cif.got.tgz:184724.got - 2010.06.27 13:26:56.
