data_PCOD8034559
_publ_section_title
;
Structure prediction by ZEFSAII (Michael W. Deem and Ramdas Pophale) SiO2 
 PCOD8034559
Probable space group: P -1
;
_chemical_formula_sum "Si O2"
_cell_formula_units_Z 16
_cell_length_a 11.613988
_cell_length_b 11.838410
_cell_length_c 8.901313
_cell_angle_alpha 45.620339
_cell_angle_beta 119.242822
_cell_angle_gamma 94.626182
_cell_volume 693.170726
_symmetry_space_group_name_H-M "P -1"
_symmetry_group_IT_number 2
_symmetry_cell_setting 'triclinic'
loop_
_space_group_symop_operation_xyz
x,y,z
-x,-y,-z
loop_
_atom_site_type_symbol
_atom_site_label
_atom_site_fract_x
_atom_site_fract_y
_atom_site_fract_z
Si Si1 0.607330 0.229472 0.404833
Si Si2 0.911013 0.936576 0.886173
Si Si3 0.148407 0.483643 0.039495
Si Si4 0.427792 0.146678 0.599015
Si Si5 0.605017 0.151009 0.992049
Si Si6 0.143757 0.383777 0.785554
Si Si7 0.419212 0.424166 0.824566
Si Si8 0.900177 0.160450 0.188441
O O1 0.512597 0.136641 0.506418
O O2 0.618759 0.371548 0.394915
O O3 0.770400 0.100059 0.584999
O O4 0.529248 0.328380 0.115993
O O5 0.010735 0.830214 0.910171
O O6 0.847526 0.809712 0.037156
O O7 0.000000 0.000000 0.000000
O O8 0.283131 0.325920 0.349092
O O9 0.149265 0.455245 0.888651
O O10 0.159345 0.663905 0.914098
O O11 0.000000 0.500000 0.000000
O O12 0.384220 0.984485 0.739297
O O13 0.541351 0.116946 0.830783
O O14 0.764960 0.127842 0.074708
O O15 0.501795 0.345924 0.795813
O O16 0.276479 0.388164 0.772655
O O17 0.000000 0.500000 0.500000
O O18 0.000000 0.000000 0.500000
#
# Coordination Sequence:
#
# PCOD8034559 Si02
#       8
#     2   2   2   2   2   2   2   2
#     4  11  24  45  71 101 140 179 235 285 347 417
#     4  12  27  46  71 104 144 188 232 293 351 420
#     4  12  26  48  73 102 143 188 238 289 357 421
#     4  11  25  47  71 105 142 182 235 287 351 421
#     4  11  26  44  72 106 142 183 230 292 348 417
#     4  12  28  47  72 105 141 187 237 295 353 419
#     4  11  25  43  72 104 137 183 230 289 347 414
#     4  12  27  45  73 106 144 189 236 291 351 418
#
# _framework density 23.082336999999999
#
# number of rings (size 3 to 8) (size 9 to 14) (size 15 to 20)
#    0.000    0.500    2.500    4.500    8.750    5.000 
#    0.000    0.000    0.000    0.000    0.000    0.000 
#    0.000    0.000    0.000    0.000    0.000    0.000 
#
# Total GULP energy -198468.228733 kJ/mol
# GULP energy per Si atom -12404.264296 kJ/mol
# Density = 2.302980 g / cm^3
# Si number density = 23.082337 Si / 1000 Ang^3
#
#
#
# Elastic Constant Matrix: (Units=GPa)
#
#
# Indices 1 2 3 4 5 6 
#
# 1 105.8847 -1.8941 20.4044 -5.1091 27.0675 7.9246
# 2 -1.8941 89.0134 23.0981 -17.5223 10.2807 7.8352
# 3 20.4044 23.0981 111.4281 -8.6639 26.3226 12.5277
# 4 -5.1091 -17.5223 -8.6639 35.0341 1.0993 -0.1887
# 5 27.0675 10.2807 26.3226 1.0993 43.5688 -0.2453
# 6 7.9246 7.8352 12.5277 -0.1887 -0.2453 40.1361
#
#
#
# Elastic Compliance Matrix: (Units=1/GPa)
#
#
# Indices 1 2 3 4 5 6 
#
# 1 0.011860 0.002022 -0.000217 0.002918 -0.007803 -0.002703
# 2 0.002022 0.013681 -0.001489 0.006874 -0.003773 -0.002596
# 3 -0.000217 -0.001489 0.011390 0.002226 -0.006470 -0.003251
# 4 0.002918 0.006874 0.002226 0.033121 -0.005629 -0.002491
# 5 -0.007803 -0.003773 -0.006470 -0.005629 0.032766 0.004470
# 6 -0.002703 -0.002596 -0.003251 -0.002491 0.004470 0.026986
#
#
# Mechanical properties :
#
#
# Convention : Reuss Voigt Hill
#
# Bulk Modulus (GPa) = 26.62144 43.28256 34.95200
# Shear Modulus (GPa) = 35.28804 41.39567 38.34186
#
# Velocity S-wave (km/s) = 3.91422 4.23944 4.08007
# Velocity P-wave (km/s) = 5.65565 6.53880 6.11319
#
# Compressibility (1/GPa) = 0.03756370
#
# Stress axis : x y z
#
# Youngs Moduli (GPa) = 84.31735 73.09433 87.79986
#
# Poissons Ratio (x) = -0.14780 0.01905
# Poissons Ratio (y) = -0.17050 0.13069
# Poissons Ratio (z) = 0.01829 0.10880
#
# Static dielectric constant tensor:
#      x y z
#    x 4.305750 -0.044920 0.008580 
#    y -0.044920 4.247680 -0.272250 
#    z 0.008580 -0.272250 4.273170 
# 
# 
# High freq. dielectric constant tensor:
#      x y z
#    x 1.926710 0.008420 0.010200 
#    y 0.008420 1.919310 -0.005050 
#    z 0.010200 -0.005050 1.921020 
# 
# From -- ./inp_files/243415.got.cif
#   From: 2010.06.25/outbox.cif.g09.slc.cpg/sg2_122_cif.got.tgz:243415.got - 2010.06.27 13:26:56.
