data_PCOD8034690
_publ_section_title
;
Structure prediction by ZEFSAII (Michael W. Deem and Ramdas Pophale) SiO2 
 PCOD8034690
Probable space group: P -1
;
_chemical_formula_sum "Si O2"
_cell_formula_units_Z 16
_cell_length_a 9.155916
_cell_length_b 4.993880
_cell_length_c 20.776130
_cell_angle_alpha 64.630301
_cell_angle_beta 118.942375
_cell_angle_gamma 85.032629
_cell_volume 697.318415
_symmetry_space_group_name_H-M "P -1"
_symmetry_group_IT_number 2
_symmetry_cell_setting 'triclinic'
loop_
_space_group_symop_operation_xyz
x,y,z
-x,-y,-z
loop_
_atom_site_type_symbol
_atom_site_label
_atom_site_fract_x
_atom_site_fract_y
_atom_site_fract_z
Si Si1 0.895904 0.442313 0.073024
Si Si2 0.376039 0.452569 0.534657
Si Si3 0.658868 0.603637 0.890927
Si Si4 0.128684 0.098290 0.470723
Si Si5 0.132445 0.786656 0.133345
Si Si6 0.194677 0.457162 0.716362
Si Si7 0.468751 0.724615 0.275411
Si Si8 0.280147 0.727884 0.830066
O O1 0.783406 0.301168 0.108977
O O2 0.981904 0.630300 0.119602
O O3 0.764087 0.670453 0.967999
O O4 0.049838 0.159449 0.096441
O O5 0.500000 0.500000 0.500000
O O6 0.280458 0.201756 0.525479
O O7 0.497342 0.313135 0.637624
O O8 0.224575 0.797947 0.476942
O O9 0.788035 0.280762 0.915574
O O10 0.491931 0.521504 0.889746
O O11 0.591958 0.908042 0.798098
O O12 0.000565 0.397116 0.372034
O O13 0.000000 0.000000 0.500000
O O14 0.302190 0.613630 0.235054
O O15 0.351349 0.502706 0.700682
O O16 0.174644 0.618520 0.764684
O O17 0.245074 0.089574 0.773304
#
# Coordination Sequence:
#
# PCOD8034690 Si02
#       8
#     2   2   2   2   2   2   2   2
#     4  12  27  43  69 104 144 177 237 292 348 403
#     4  12  29  49  74 111 149 182 232 302 367 419
#     4  11  25  46  72  98 139 190 235 283 341 423
#     4  12  26  48  80 105 140 192 240 291 349 434
#     4  12  25  45  69 101 136 189 230 284 347 419
#     4  11  24  45  75 102 139 181 243 281 339 424
#     4  11  26  45  75 103 137 186 237 283 351 421
#     4  11  25  45  69 105 139 185 230 292 348 404
#
# _framework density 22.945043999999999
#
# number of rings (size 3 to 8) (size 9 to 14) (size 15 to 20)
#    0.000    0.500    3.750    3.375    7.000    3.000 
#    2.250    3.125    0.000    0.000    0.000    0.000 
#    0.000    0.000    0.000    0.000    0.000    0.000 
#
# Total GULP energy -198381.864685 kJ/mol
# GULP energy per Si atom -12398.866543 kJ/mol
# Density = 2.289282 g / cm^3
# Si number density = 22.945044 Si / 1000 Ang^3
#
#
#
# Elastic Constant Matrix: (Units=GPa)
#
#
# Indices 1 2 3 4 5 6 
#
# 1 125.4508 14.2531 50.8902 11.6594 -11.3513 -0.4202
# 2 14.2531 95.4235 13.4013 13.3308 -5.0611 0.4767
# 3 50.8902 13.4013 133.7042 24.4600 -3.8869 3.5935
# 4 11.6594 13.3308 24.4600 35.3283 2.9619 9.1251
# 5 -11.3513 -5.0611 -3.8869 2.9619 32.8180 10.1606
# 6 -0.4202 0.4767 3.5935 9.1251 10.1606 41.3620
#
#
#
# Elastic Compliance Matrix: (Units=1/GPa)
#
#
# Indices 1 2 3 4 5 6 
#
# 1 0.009782 -0.000709 -0.003413 -0.000809 0.002990 -0.000152
# 2 -0.000709 0.011274 -0.000045 -0.004232 0.001756 0.000369
# 3 -0.003413 -0.000045 0.009845 -0.005781 0.000412 0.000285
# 4 -0.000809 -0.004232 -0.005781 0.036149 -0.002791 -0.006747
# 5 0.002990 0.001756 0.000412 -0.002791 0.034519 -0.007890
# 6 -0.000152 0.000369 0.000285 -0.006747 -0.007890 0.027573
#
#
# Mechanical properties :
#
#
# Convention : Reuss Voigt Hill
#
# Bulk Modulus (GPa) = 44.31398 56.85196 50.58297
# Shear Modulus (GPa) = 34.48336 40.30391 37.39364
#
# Velocity S-wave (km/s) = 3.88089 4.19566 4.04134
# Velocity P-wave (km/s) = 6.27987 6.95001 6.62342
#
# Compressibility (1/GPa) = 0.02256624
#
# Stress axis : x y z
#
# Youngs Moduli (GPa) = 102.23346 88.69740 101.57855
#
# Poissons Ratio (x) = 0.06292 0.34668
# Poissons Ratio (y) = 0.07252 0.00455
# Poissons Ratio (z) = 0.34892 0.00397
#
# Static dielectric constant tensor:
#      x y z
#    x 4.387540 -0.117530 0.333360 
#    y -0.117530 4.051060 0.100380 
#    z 0.333360 0.100380 4.282240 
# 
# 
# High freq. dielectric constant tensor:
#      x y z
#    x 1.912600 -0.003990 0.017950 
#    y -0.003990 1.912110 0.006690 
#    z 0.017950 0.006690 1.910830 
# 
# From -- ./inp_files/585613.got.cif
#   From: 2010.06.25/outbox.cif.g09.slc.cpg/sg2_293_cif.got.tgz:585613.got - 2010.06.27 13:26:56.
