data_PCOD8034781
_publ_section_title
;
Structure prediction by ZEFSAII (Michael W. Deem and Ramdas Pophale) SiO2 
 PCOD8034781
Probable space group: P -1
;
_chemical_formula_sum "Si O2"
_cell_formula_units_Z 16
_cell_length_a 15.506121
_cell_length_b 14.268995
_cell_length_c 11.104232
_cell_angle_alpha 31.431847
_cell_angle_beta 58.890390
_cell_angle_gamma 37.795536
_cell_volume 683.121194
_symmetry_space_group_name_H-M "P -1"
_symmetry_group_IT_number 2
_symmetry_cell_setting 'triclinic'
loop_
_space_group_symop_operation_xyz
x,y,z
-x,-y,-z
loop_
_atom_site_type_symbol
_atom_site_label
_atom_site_fract_x
_atom_site_fract_y
_atom_site_fract_z
Si Si1 0.908359 0.795311 0.294276
Si Si2 0.641658 0.855675 0.968314
Si Si3 0.416547 0.810419 0.759866
Si Si4 0.627414 0.774434 0.807164
Si Si5 0.348898 0.749858 0.489761
Si Si6 0.115889 0.844336 0.699916
Si Si7 0.884678 0.336388 0.511871
Si Si8 0.707987 0.244617 0.740363
O O1 0.000000 0.500000 0.500000
O O2 0.051197 0.702357 0.360705
O O3 0.764653 0.967410 0.305289
O O4 0.845396 0.979434 0.019123
O O5 0.620014 0.758662 0.974101
O O6 0.635932 0.063813 0.694900
O O7 0.816753 0.592837 0.196819
O O8 0.500000 0.000000 0.000000
O O9 0.508879 0.790369 0.819302
O O10 0.408315 0.968044 0.484211
O O11 0.500000 0.500000 0.000000
O O12 0.809881 0.455267 0.991453
O O13 0.262125 0.775793 0.635611
O O14 0.531672 0.417098 0.713591
O O15 0.253532 0.857160 0.314867
O O16 0.000000 0.000000 0.500000
O O17 0.030179 0.031765 0.675283
O O18 0.724441 0.436370 0.531791
#
# Coordination Sequence:
#
# PCOD8034781 Si02
#       8
#     2   2   2   2   2   2   2   2
#     4  12  29  45  73 107 151 191 253 307 383 447
#     4  12  26  44  74 112 146 192 254 307 372 450
#     4  11  28  53  77 108 148 205 255 309 375 461
#     4  11  27  48  79 107 151 196 252 309 375 454
#     4  11  25  43  77 104 148 195 252 303 375 449
#     4  12  24  47  72 111 149 190 247 313 376 444
#     4  12  26  47  73 106 152 193 242 316 379 443
#     4  11  24  46  70 103 143 202 240 306 375 448
#
# _framework density 23.421906
#
# number of rings (size 3 to 8) (size 9 to 14) (size 15 to 20)
#    0.000    0.500    3.750    2.625   12.250    1.500 
#    2.250    0.000    0.000    0.000    0.000    0.000 
#    0.000    0.000    0.000    0.000    0.000    0.000 
#
# Total GULP energy -198300.102480 kJ/mol
# GULP energy per Si atom -12393.756405 kJ/mol
# Density = 2.336860 g / cm^3
# Si number density = 23.421906 Si / 1000 Ang^3
#
#
#
# Elastic Constant Matrix: (Units=GPa)
#
#
# Indices 1 2 3 4 5 6 
#
# 1 136.7048 31.8842 42.2439 0.8293 13.7075 16.0991
# 2 31.8842 99.5360 31.2098 -9.4505 -3.8458 5.4578
# 3 42.2439 31.2098 139.9386 -9.0612 4.3761 12.8885
# 4 0.8293 -9.4505 -9.0612 33.2843 6.5380 -4.5480
# 5 13.7075 -3.8458 4.3761 6.5380 49.9503 7.9240
# 6 16.0991 5.4578 12.8885 -4.5480 7.9240 39.0941
#
#
#
# Elastic Compliance Matrix: (Units=1/GPa)
#
#
# Indices 1 2 3 4 5 6 
#
# 1 0.008961 -0.002315 -0.001991 -0.001392 -0.001886 -0.002490
# 2 -0.002315 0.011645 -0.001766 0.002609 0.001355 -0.000061
# 3 -0.001991 -0.001766 0.008393 0.001699 -0.000319 -0.001438
# 4 -0.001392 0.002609 0.001699 0.032775 -0.004551 0.004384
# 5 -0.001886 0.001355 -0.000319 -0.004551 0.021945 -0.004285
# 6 -0.002490 -0.000061 -0.001438 0.004384 -0.004285 0.028466
#
#
# Mechanical properties :
#
#
# Convention : Reuss Voigt Hill
#
# Bulk Modulus (GPa) = 59.32501 65.20613 62.26557
# Shear Modulus (GPa) = 38.47689 42.52182 40.49936
#
# Velocity S-wave (km/s) = 4.05751 4.26546 4.16278
# Velocity P-wave (km/s) = 6.88005 7.22213 7.05316
#
# Compressibility (1/GPa) = 0.01685630
#
# Stress axis : x y z
#
# Youngs Moduli (GPa) = 111.59661 85.87150 119.14249
#
# Poissons Ratio (x) = 0.19877 0.23717
# Poissons Ratio (y) = 0.25832 0.21043
# Poissons Ratio (z) = 0.22215 0.15167
#
# Static dielectric constant tensor:
#      x y z
#    x 4.213060 -0.151880 -0.416340 
#    y -0.151880 3.995710 -0.272780 
#    z -0.416340 -0.272780 4.250320 
# 
# 
# High freq. dielectric constant tensor:
#      x y z
#    x 1.939250 0.005600 0.009580 
#    y 0.005600 1.919230 -0.003720 
#    z 0.009580 -0.003720 1.945220 
# 
# From -- ./inp_files/455388.got.cif
#   From: 2010.06.25/outbox.cif.g09.slc.cpg/sg2_228_cif.got.tgz:455388.got - 2010.06.27 13:26:56.
