data_PCOD8034619
_publ_section_title
;
Structure prediction by ZEFSAII (Michael W. Deem and Ramdas Pophale) SiO2 
 PCOD8034619
Probable space group: P -1
;
_chemical_formula_sum "Si O2"
_cell_formula_units_Z 16
_cell_length_a 9.302308
_cell_length_b 8.363138
_cell_length_c 20.635567
_cell_angle_alpha 117.052420
_cell_angle_beta 133.497307
_cell_angle_gamma 98.510144
_cell_volume 726.534062
_symmetry_space_group_name_H-M "P -1"
_symmetry_group_IT_number 2
_symmetry_cell_setting 'triclinic'
loop_
_space_group_symop_operation_xyz
x,y,z
-x,-y,-z
loop_
_atom_site_type_symbol
_atom_site_label
_atom_site_fract_x
_atom_site_fract_y
_atom_site_fract_z
Si Si1 0.709526 0.461985 0.184289
Si Si2 0.348150 0.551094 0.505387
Si Si3 0.707863 0.171218 0.230690
Si Si4 0.759751 0.407105 0.046355
Si Si5 0.700489 0.436008 0.777024
Si Si6 0.609161 0.771235 0.764684
Si Si7 0.668502 0.084108 0.501884
Si Si8 0.822431 0.650391 0.982234
O O1 0.698636 0.252529 0.170813
O O2 0.675635 0.450855 0.094347
O O3 0.446608 0.396422 0.119583
O O4 0.003285 0.742266 0.349733
O O5 0.500000 0.500000 0.500000
O O6 0.490640 0.636265 0.634453
O O7 0.386057 0.772549 0.529050
O O8 0.017496 0.292437 0.363063
O O9 0.623427 0.263042 0.275364
O O10 0.502793 0.869813 0.115091
O O11 0.021486 0.448016 0.154229
O O12 0.858273 0.612185 0.060395
O O13 0.664181 0.624081 0.792798
O O14 0.763940 0.447282 0.876141
O O15 0.434399 0.151306 0.616181
O O16 0.898302 0.066259 0.901455
O O17 0.500000 0.000000 0.500000
#
# Coordination Sequence:
#
# PCOD8034619 Si02
#       8
#     2   2   2   2   2   2   2   2
#     4  11  25  46  68 104 139 183 232 284 353 410
#     4  11  27  45  72 106 137 184 233 284 351 411
#     4  11  25  47  69 103 140 184 229 284 348 419
#     4  12  25  42  74 101 143 178 234 296 340 412
#     4  12  24  45  72 101 138 189 228 282 351 410
#     4  12  25  46  72  98 146 183 233 285 343 424
#     4  11  24  45  72  99 144 178 229 288 344 413
#     4  12  26  44  71 107 137 184 235 286 353 405
#
# _framework density 22.022366000000002
#
# number of rings (size 3 to 8) (size 9 to 14) (size 15 to 20)
#    0.000    0.500    3.750    4.125    5.250    2.500 
#    0.000    0.000    0.000    0.000    0.000    0.000 
#    0.000    0.000    0.000    0.000    0.000    0.000 
#
# Total GULP energy -198467.449941 kJ/mol
# GULP energy per Si atom -12404.215621 kJ/mol
# Density = 2.197224 g / cm^3
# Si number density = 22.022366 Si / 1000 Ang^3
#
#
#
# Elastic Constant Matrix: (Units=GPa)
#
#
# Indices 1 2 3 4 5 6 
#
# 1 109.9554 27.4277 49.6326 -2.6563 6.2287 -0.1993
# 2 27.4277 74.6133 31.2786 6.3962 -7.7516 8.7136
# 3 49.6326 31.2786 120.8974 0.5355 5.4575 -10.3547
# 4 -2.6563 6.3962 0.5355 32.3899 2.1357 -7.9193
# 5 6.2287 -7.7516 5.4575 2.1357 52.9265 -8.2326
# 6 -0.1993 8.7136 -10.3547 -7.9193 -8.2326 32.2460
#
#
#
# Elastic Compliance Matrix: (Units=1/GPa)
#
#
# Indices 1 2 3 4 5 6 
#
# 1 0.011768 -0.002860 -0.004069 0.001585 -0.001520 -0.000460
# 2 -0.002860 0.017689 -0.004075 -0.005492 0.002509 -0.006814
# 3 -0.004069 -0.004075 0.011442 0.001538 -0.000585 0.004978
# 4 0.001585 -0.005492 0.001538 0.034632 -0.000953 0.010250
# 5 -0.001520 0.002509 -0.000585 -0.000953 0.020168 0.004040
# 6 -0.000460 -0.006814 0.004978 0.010250 0.004040 0.037997
#
#
# Mechanical properties :
#
#
# Convention : Reuss Voigt Hill
#
# Bulk Modulus (GPa) = 52.93420 58.01600 55.47510
# Shear Modulus (GPa) = 30.86365 36.65428 33.75896
#
# Velocity S-wave (km/s) = 3.74768 4.08415 3.91953
# Velocity P-wave (km/s) = 6.54336 6.97436 6.76229
#
# Compressibility (1/GPa) = 0.01889138
#
# Stress axis : x y z
#
# Youngs Moduli (GPa) = 84.97350 56.53079 87.39523
#
# Poissons Ratio (x) = 0.16170 0.35562
# Poissons Ratio (y) = 0.24305 0.35613
# Poissons Ratio (z) = 0.34577 0.23036
#
# Static dielectric constant tensor:
#      x y z
#    x 4.077260 0.118900 0.111510 
#    y 0.118900 3.910290 -0.024500 
#    z 0.111510 -0.024500 4.102130 
# 
# 
# High freq. dielectric constant tensor:
#      x y z
#    x 1.880780 0.009720 0.003480 
#    y 0.009720 1.865960 -0.007820 
#    z 0.003480 -0.007820 1.879980 
# 
# From -- ./inp_files/223811.got.cif
#   From: 2010.06.25/outbox.cif.g09.slc.cpg/sg2_112_cif.got.tgz:223811.got - 2010.06.27 13:26:56.
