data_PCOD8034065
_publ_section_title
;
Structure prediction by ZEFSAII (Michael W. Deem and Ramdas Pophale) SiO2 
 PCOD8034065
Probable space group: P -1
;
_chemical_formula_sum "Si O2"
_cell_formula_units_Z 16
_cell_length_a 11.480989
_cell_length_b 23.647576
_cell_length_c 6.419690
_cell_angle_alpha 57.026210
_cell_angle_beta 70.412881
_cell_angle_gamma 30.910573
_cell_volume 715.177891
_symmetry_space_group_name_H-M "P -1"
_symmetry_group_IT_number 2
_symmetry_cell_setting 'triclinic'
loop_
_space_group_symop_operation_xyz
x,y,z
-x,-y,-z
loop_
_atom_site_type_symbol
_atom_site_label
_atom_site_fract_x
_atom_site_fract_y
_atom_site_fract_z
Si Si1 0.852448 0.630786 0.897046
Si Si2 0.977756 0.788503 0.494608
Si Si3 0.079892 0.890817 0.759783
Si Si4 0.123999 0.605755 0.059079
Si Si5 0.325736 0.968062 0.011471
Si Si6 0.826472 0.749199 0.338974
Si Si7 0.380745 0.682753 0.628539
Si Si8 0.419159 0.784255 0.120025
O O1 0.757422 0.717532 0.584781
O O2 0.637010 0.705884 0.010426
O O3 0.000000 0.500000 0.000000
O O4 0.032519 0.590230 0.000231
O O5 0.216334 0.722311 0.475443
O O6 0.935736 0.760437 0.377806
O O7 0.007411 0.731136 0.803432
O O8 0.758294 0.943526 0.304891
O O9 0.230398 0.776284 0.733898
O O10 0.226699 0.838022 0.984314
O O11 0.000000 0.000000 0.500000
O O12 0.855116 0.948984 0.848414
O O13 0.410210 0.468084 0.139801
O O14 0.039090 0.630895 0.293054
O O15 0.582117 0.878404 0.103780
O O16 0.318802 0.896123 0.071522
O O17 0.498009 0.693998 0.429805
#
# Coordination Sequence:
#
# PCOD8034065 Si02
#       8
#     2   2   2   2   2   2   2   2
#     4  11  24  43  71 107 141 179 232 287 352 420
#     4  11  27  48  68 103 141 191 238 282 340 421
#     4  12  24  42  69 106 144 181 227 285 359 412
#     4  11  26  47  71 101 141 188 235 284 349 413
#     4  12  24  47  70 103 145 181 235 290 350 412
#     4  11  26  48  70 105 138 189 235 287 347 412
#     4  12  26  46  73 105 142 184 233 291 350 417
#     4  12  24  43  71 109 140 176 230 292 353 412
#
# _framework density 22.372056000000001
#
# number of rings (size 3 to 8) (size 9 to 14) (size 15 to 20)
#    0.000    0.500    3.750    4.125    3.500    3.000 
#    0.000    0.000    0.000    0.000    0.000    0.000 
#    0.000    0.000    0.000    0.000    0.000    0.000 
#
# Total GULP energy -198353.697616 kJ/mol
# GULP energy per Si atom -12397.106101 kJ/mol
# Density = 2.232114 g / cm^3
# Si number density = 22.372056 Si / 1000 Ang^3
#
#
#
# Elastic Constant Matrix: (Units=GPa)
#
#
# Indices 1 2 3 4 5 6 
#
# 1 108.5375 47.8231 50.8166 -10.5586 -0.6151 1.6571
# 2 47.8231 136.3120 58.0823 7.7126 -3.2114 -16.7734
# 3 50.8166 58.0823 117.8399 -14.2818 -5.2252 4.2444
# 4 -10.5586 7.7126 -14.2818 45.7298 -6.2774 6.2826
# 5 -0.6151 -3.2114 -5.2252 -6.2774 38.3625 -8.4766
# 6 1.6571 -16.7734 4.2444 6.2826 -8.4766 24.5938
#
#
#
# Elastic Compliance Matrix: (Units=1/GPa)
#
#
# Indices 1 2 3 4 5 6 
#
# 1 0.012709 -0.003809 -0.003134 0.003020 -0.000933 -0.004007
# 2 -0.003809 0.013197 -0.006011 -0.006447 0.001958 0.012617
# 3 -0.003134 -0.006011 0.013790 0.005712 0.000598 -0.007522
# 4 0.003020 -0.006447 0.005712 0.027357 0.002148 -0.011835
# 5 -0.000933 0.001958 0.000598 0.002148 0.029024 0.010750
# 6 -0.004007 0.012617 -0.007522 -0.011835 0.010750 0.057562
#
#
# Mechanical properties :
#
#
# Convention : Reuss Voigt Hill
#
# Bulk Modulus (GPa) = 72.52905 75.12592 73.82749
# Shear Modulus (GPa) = 27.15265 35.46838 31.31051
#
# Velocity S-wave (km/s) = 3.48758 3.98601 3.74510
# Velocity P-wave (km/s) = 6.97907 7.40524 7.19531
#
# Compressibility (1/GPa) = 0.01378758
#
# Stress axis : x y z
#
# Youngs Moduli (GPa) = 78.68558 75.77310 72.51555
#
# Poissons Ratio (x) = 0.28864 0.22726
# Poissons Ratio (y) = 0.29973 0.43590
# Poissons Ratio (z) = 0.24659 0.45549
#
# Static dielectric constant tensor:
#      x y z
#    x 4.321450 -0.165560 -0.130190 
#    y -0.165560 4.144320 -0.072100 
#    z -0.130190 -0.072100 4.326580 
# 
# 
# High freq. dielectric constant tensor:
#      x y z
#    x 1.899120 -0.000050 -0.002670 
#    y -0.000050 1.877250 -0.006970 
#    z -0.002670 -0.006970 1.893310 
# 
# From -- ./inp_files/70709.got.cif
#   From: 2010.06.25/outbox.cif.g09.slc.cpg/sg2_36_cif.got.tgz:70709.got - 2010.06.27 13:26:56.
