data_PCOD8034620
_publ_section_title
;
Structure prediction by ZEFSAII (Michael W. Deem and Ramdas Pophale) SiO2 
 PCOD8034620
Probable space group: P -1
;
_chemical_formula_sum "Si O2"
_cell_formula_units_Z 14
_cell_length_a 10.359713
_cell_length_b 11.283681
_cell_length_c 19.496329
_cell_angle_alpha 157.461494
_cell_angle_beta 41.918120
_cell_angle_gamma 129.391346
_cell_volume 571.130044
_symmetry_space_group_name_H-M "P -1"
_symmetry_group_IT_number 2
_symmetry_cell_setting 'triclinic'
loop_
_space_group_symop_operation_xyz
x,y,z
-x,-y,-z
loop_
_atom_site_type_symbol
_atom_site_label
_atom_site_fract_x
_atom_site_fract_y
_atom_site_fract_z
Si Si1 0.683587 0.421696 0.225593
Si Si2 0.917034 0.941869 0.779122
Si Si3 0.960114 0.583768 0.446207
Si Si4 0.299500 0.743750 0.720592
Si Si5 0.960649 0.875820 0.376363
Si Si6 0.375708 0.945599 0.587096
Si Si7 0.660809 0.651194 0.055643
O O1 0.726702 0.196078 0.154864
O O2 0.769153 0.730410 0.373271
O O3 0.453527 0.580992 0.387836
O O4 0.779829 0.262335 0.032195
O O5 0.908340 0.696351 0.712641
O O6 0.138197 0.990956 0.699048
O O7 0.822367 0.811834 0.679247
O O8 0.857343 0.438634 0.347371
O O9 0.089122 0.817198 0.488373
O O10 0.500000 0.500000 0.500000
O O11 0.277668 0.083645 0.876138
O O12 0.000000 0.000000 0.500000
O O13 0.150868 0.613265 0.139009
O O14 0.500000 0.000000 0.500000
O O15 0.425040 0.188786 0.754362
O O16 0.500000 0.500000 0.000000
#
# Coordination Sequence:
#
# PCOD8034620 Si02
#       7
#     2   2   2   2   2   2   2
#     4  12  25  46  77 105 141 194 236 295 358 418
#     4  11  26  49  71 105 143 194 239 287 360 428
#     4  11  24  45  72  99 149 185 233 299 349 428
#     4  12  23  48  73 103 146 183 238 299 355 422
#     4  12  24  40  72 108 139 187 243 289 359 418
#     4  12  26  48  72 105 149 186 238 298 356 424
#     4  12  26  46  71 106 144 187 242 298 353 427
#
# _framework density 24.512803999999999
#
# number of rings (size 3 to 8) (size 9 to 14) (size 15 to 20)
#    0.000    0.286    5.714    2.571    4.000    2.286 
#    2.571    3.571    0.000    0.000    0.000    0.000 
#    0.000    0.000    0.000    0.000    0.000    0.000 
#
# Total GULP energy -173484.058478 kJ/mol
# GULP energy per Si atom -12391.718463 kJ/mol
# Density = 2.445701 g / cm^3
# Si number density = 24.512804 Si / 1000 Ang^3
#
#
#
# Elastic Constant Matrix: (Units=GPa)
#
#
# Indices 1 2 3 4 5 6 
#
# 1 54.8517 3.9745 18.7576 -8.6201 16.3699 -8.3525
# 2 3.9745 112.9825 19.9381 12.7876 4.0798 -15.6584
# 3 18.7576 19.9381 118.2726 -17.8124 17.9445 3.1714
# 4 -8.6201 12.7876 -17.8124 45.6660 -5.3103 6.3374
# 5 16.3699 4.0798 17.9445 -5.3103 41.7563 -7.4150
# 6 -8.3525 -15.6584 3.1714 6.3374 -7.4150 40.3701
#
#
#
# Elastic Compliance Matrix: (Units=1/GPa)
#
#
# Indices 1 2 3 4 5 6 
#
# 1 0.021806 0.000083 -0.002227 0.001997 -0.006785 0.003159
# 2 0.000083 0.010544 -0.002691 -0.004650 0.000412 0.005124
# 3 -0.002227 -0.002691 0.010577 0.004566 -0.003485 -0.003692
# 4 0.001997 -0.004650 0.004566 0.026171 -0.000003 -0.005858
# 5 -0.006785 0.000412 -0.003485 -0.000003 0.028833 0.004326
# 6 0.003159 0.005124 -0.003692 -0.005858 0.004326 0.029416
#
#
# Mechanical properties :
#
#
# Convention : Reuss Voigt Hill
#
# Bulk Modulus (GPa) = 30.06826 41.27194 35.67010
# Shear Modulus (GPa) = 33.75994 41.78758 37.77376
#
# Velocity S-wave (km/s) = 3.71514 4.13331 3.92979
# Velocity P-wave (km/s) = 5.54040 6.29702 5.93079
#
# Compressibility (1/GPa) = 0.03325766
#
# Stress axis : x y z
#
# Youngs Moduli (GPa) = 45.85836 94.83683 94.54301
#
# Poissons Ratio (x) = -0.00784 0.21053
# Poissons Ratio (y) = -0.00379 0.25441
# Poissons Ratio (z) = 0.10212 0.25520
#
# Static dielectric constant tensor:
#      x y z
#    x 5.189630 0.501150 0.034280 
#    y 0.501150 5.007940 -0.348080 
#    z 0.034280 -0.348080 4.596290 
# 
# 
# High freq. dielectric constant tensor:
#      x y z
#    x 1.979940 -0.015640 0.017660 
#    y -0.015640 1.974470 0.005120 
#    z 0.017660 0.005120 1.985490 
# 
# From -- ./inp_files/432428.got.cif
#   From: 2010.06.25/outbox.cif.g09.slc.cpg/sg2_217_cif.got.tgz:432428.got - 2010.06.27 13:26:56.
