data_PCOD8034424
_publ_section_title
;
Structure prediction by ZEFSAII (Michael W. Deem and Ramdas Pophale) SiO2 
 PCOD8034424
Probable space group: P -1
;
_chemical_formula_sum "Si O2"
_cell_formula_units_Z 16
_cell_length_a 22.263218
_cell_length_b 9.264569
_cell_length_c 24.413818
_cell_angle_alpha 28.843723
_cell_angle_beta 17.331892
_cell_angle_gamma 29.420147
_cell_volume 702.065238
_symmetry_space_group_name_H-M "P -1"
_symmetry_group_IT_number 2
_symmetry_cell_setting 'triclinic'
loop_
_space_group_symop_operation_xyz
x,y,z
-x,-y,-z
loop_
_atom_site_type_symbol
_atom_site_label
_atom_site_fract_x
_atom_site_fract_y
_atom_site_fract_z
Si Si1 0.879908 0.573390 0.763487
Si Si2 0.499270 0.125779 0.308812
Si Si3 0.322135 0.760254 0.040763
Si Si4 0.241805 0.765142 0.318127
Si Si5 0.419283 0.822718 0.370643
Si Si6 0.028861 0.838677 0.366771
Si Si7 0.384060 0.862385 0.599505
Si Si8 0.040844 0.940260 0.048867
O O1 0.762125 0.365504 0.899211
O O2 0.943301 0.402825 0.824344
O O3 0.081269 0.621067 0.540222
O O4 0.726181 0.917238 0.789109
O O5 0.456244 0.498102 0.213632
O O6 0.408979 0.948789 0.399150
O O7 0.363686 0.097493 0.489223
O O8 0.743761 0.970828 0.154813
O O9 0.136851 0.907307 0.194274
O O10 0.500000 0.500000 0.000000
O O11 0.417409 0.044974 0.849526
O O12 0.166187 0.866779 0.289598
O O13 0.481573 0.458334 0.433371
O O14 0.189877 0.922554 0.512288
O O15 0.000000 0.500000 0.500000
O O16 0.500000 0.000000 0.500000
O O17 0.155784 0.832357 0.826282
O O18 0.000000 0.000000 0.000000
#
# Coordination Sequence:
#
# PCOD8034424 Si02
#       8
#     2   2   2   2   2   2   2   2
#     4  11  24  44  75 106 150 189 240 299 365 430
#     4  12  24  48  74 103 145 187 243 298 363 428
#     4  12  23  45  71 108 150 187 236 298 365 443
#     4  11  24  44  75 112 146 191 231 303 372 433
#     4  12  27  46  73 105 140 196 238 296 364 430
#     4  12  23  44  73 106 150 184 238 292 371 443
#     4  12  29  50  72  99 142 189 248 302 353 426
#     4  12  27  49  73 104 145 196 249 301 356 429
#
# _framework density 22.789905999999998
#
# number of rings (size 3 to 8) (size 9 to 14) (size 15 to 20)
#    0.000    0.250    7.500    0.375    1.750    4.000 
#    0.000    0.000    0.000    0.000    0.000    0.000 
#    0.000    0.000    0.000    0.000    0.000    0.000 
#
# Total GULP energy -198367.954293 kJ/mol
# GULP energy per Si atom -12397.997143 kJ/mol
# Density = 2.273804 g / cm^3
# Si number density = 22.789906 Si / 1000 Ang^3
#
#
#
# Elastic Constant Matrix: (Units=GPa)
#
#
# Indices 1 2 3 4 5 6 
#
# 1 129.1004 43.3923 39.8890 -1.8099 20.6487 -10.3970
# 2 43.3923 144.5399 26.4694 8.6546 -2.3618 0.7203
# 3 39.8890 26.4694 90.6849 14.9336 13.1151 -0.0023
# 4 -1.8099 8.6546 14.9336 37.0899 -0.3230 -1.7759
# 5 20.6487 -2.3618 13.1151 -0.3230 35.0521 4.5199
# 6 -10.3970 0.7203 -0.0023 -1.7759 4.5199 33.3345
#
#
#
# Elastic Compliance Matrix: (Units=1/GPa)
#
#
# Indices 1 2 3 4 5 6 
#
# 1 0.011262 -0.003001 -0.003685 0.002899 -0.006018 0.004548
# 2 -0.003001 0.008199 -0.001238 -0.001612 0.002975 -0.001603
# 3 -0.003685 -0.001238 0.014429 -0.005776 -0.003237 -0.000990
# 4 0.002899 -0.001612 -0.005776 0.029927 0.000299 0.002492
# 5 -0.006018 0.002975 -0.003237 0.000299 0.034337 -0.006581
# 6 0.004548 -0.001603 -0.000990 0.002492 -0.006581 0.032477
#
#
# Mechanical properties :
#
#
# Convention : Reuss Voigt Hill
#
# Bulk Modulus (GPa) = 55.42479 64.86961 60.14720
# Shear Modulus (GPa) = 32.78835 38.06693 35.42764
#
# Velocity S-wave (km/s) = 3.79716 4.09142 3.94703
# Velocity P-wave (km/s) = 6.60282 7.13061 6.87178
#
# Compressibility (1/GPa) = 0.01804247
#
# Stress axis : x y z
#
# Youngs Moduli (GPa) = 88.79034 121.96249 69.30605
#
# Poissons Ratio (x) = 0.36599 0.25540
# Poissons Ratio (y) = 0.26645 0.08581
# Poissons Ratio (z) = 0.32720 0.15101
#
# Static dielectric constant tensor:
#      x y z
#    x 4.109590 0.042410 0.192250 
#    y 0.042410 4.464260 0.206770 
#    z 0.192250 0.206770 4.201320 
# 
# 
# High freq. dielectric constant tensor:
#      x y z
#    x 1.907390 -0.007770 0.016480 
#    y -0.007770 1.898450 0.011740 
#    z 0.016480 0.011740 1.908970 
# 
# From -- ./inp_files/613558.got.cif
#   From: 2010.06.25/outbox.cif.g09.slc.cpg/sg2_307_cif.got.tgz:613558.got - 2010.06.27 13:26:56.
