data_PCOD8034605
_publ_section_title
;
Structure prediction by ZEFSAII (Michael W. Deem and Ramdas Pophale) SiO2 
 PCOD8034605
Probable space group: P -1
;
_chemical_formula_sum "Si O2"
_cell_formula_units_Z 16
_cell_length_a 5.466199
_cell_length_b 13.859241
_cell_length_c 11.680175
_cell_angle_alpha 127.700993
_cell_angle_beta 92.549462
_cell_angle_gamma 79.672766
_cell_volume 686.353591
_symmetry_space_group_name_H-M "P -1"
_symmetry_group_IT_number 2
_symmetry_cell_setting 'triclinic'
loop_
_space_group_symop_operation_xyz
x,y,z
-x,-y,-z
loop_
_atom_site_type_symbol
_atom_site_label
_atom_site_fract_x
_atom_site_fract_y
_atom_site_fract_z
Si Si1 0.158722 0.552271 0.446032
Si Si2 0.857553 0.225286 0.003478
Si Si3 0.419722 0.762227 0.624335
Si Si4 0.651586 0.713180 0.819625
Si Si5 0.749489 0.662786 0.355475
Si Si6 0.750348 0.903310 0.434351
Si Si7 0.767620 0.462868 0.037126
Si Si8 0.026943 0.987158 0.695981
O O1 0.311382 0.642661 0.581342
O O2 0.312381 0.436362 0.294814
O O3 0.000000 0.500000 0.500000
O O4 0.000854 0.646432 0.421382
O O5 0.605389 0.241770 0.084292
O O6 0.823753 0.316568 0.959329
O O7 0.106382 0.243711 0.090196
O O8 0.890715 0.084445 0.856272
O O9 0.621569 0.775331 0.736460
O O10 0.517634 0.717703 0.469658
O O11 0.241833 0.895666 0.702423
O O12 0.735264 0.758459 0.317447
O O13 0.733148 0.529563 0.207769
O O14 0.903442 0.933150 0.351395
O O15 0.500000 0.000000 0.500000
O O16 0.852788 0.906158 0.569689
O O17 0.500000 0.500000 0.000000
O O18 0.000000 0.500000 0.000000
#
# Coordination Sequence:
#
# PCOD8034605 Si02
#       8
#     2   2   2   2   2   2   2   2
#     4  12  24  46  73 109 143 186 240 307 359 423
#     4  12  28  49  72 103 153 193 236 296 365 438
#     4  12  26  44  75 108 139 187 247 298 362 426
#     4  12  27  47  73 108 146 190 240 297 365 433
#     4  12  25  43  78 104 144 186 242 304 360 424
#     4  11  24  45  72 104 142 185 249 302 355 421
#     4  12  28  46  71 105 146 192 241 293 364 435
#     4  11  27  46  72 105 142 194 242 300 357 435
#
# _framework density 23.311599000000001
#
# number of rings (size 3 to 8) (size 9 to 14) (size 15 to 20)
#    0.000    0.250    5.000    3.375    5.250    1.000 
#    0.000    0.000    0.000    0.000    0.000    0.000 
#    0.000    0.000    0.000    0.000    0.000    0.000 
#
# Total GULP energy -198300.281392 kJ/mol
# GULP energy per Si atom -12393.767587 kJ/mol
# Density = 2.325854 g / cm^3
# Si number density = 23.311599 Si / 1000 Ang^3
#
#
#
# Elastic Constant Matrix: (Units=GPa)
#
#
# Indices 1 2 3 4 5 6 
#
# 1 114.2317 17.2479 33.0435 -5.6645 -9.9035 -14.2703
# 2 17.2479 104.6324 27.1989 12.6439 -2.9639 -13.0983
# 3 33.0435 27.1989 116.7938 13.6881 -27.3526 0.9330
# 4 -5.6645 12.6439 13.6881 38.6697 -9.0860 -1.5106
# 5 -9.9035 -2.9639 -27.3526 -9.0860 35.6381 -0.4176
# 6 -14.2703 -13.0983 0.9330 -1.5106 -0.4176 36.3301
#
#
#
# Elastic Compliance Matrix: (Units=1/GPa)
#
#
# Indices 1 2 3 4 5 6 
#
# 1 0.010510 -0.000849 -0.002831 0.003349 0.001579 0.004052
# 2 -0.000849 0.011119 -0.002465 -0.003213 -0.001980 0.003582
# 3 -0.002831 -0.002465 0.011997 -0.002150 0.007641 -0.002310
# 4 0.003349 -0.003213 -0.002150 0.029778 0.006623 0.001527
# 5 0.001579 -0.001980 0.007641 0.006623 0.035891 0.000398
# 6 0.004052 0.003582 -0.002310 0.001527 0.000398 0.030536
#
#
# Mechanical properties :
#
#
# Convention : Reuss Voigt Hill
#
# Bulk Modulus (GPa) = 46.86988 54.51539 50.69263
# Shear Modulus (GPa) = 33.50456 39.33874 36.42165
#
# Velocity S-wave (km/s) = 3.79522 4.11240 3.95699
# Velocity P-wave (km/s) = 6.27331 6.78125 6.53222
#
# Compressibility (1/GPa) = 0.02133566
#
# Stress axis : x y z
#
# Youngs Moduli (GPa) = 95.14366 89.93978 83.35446
#
# Poissons Ratio (x) = 0.07639 0.23597
# Poissons Ratio (y) = 0.08081 0.20546
# Poissons Ratio (z) = 0.26935 0.22169
#
# Static dielectric constant tensor:
#      x y z
#    x 4.158400 -0.345530 0.179330 
#    y -0.345530 3.908610 0.366070 
#    z 0.179330 0.366070 4.130200 
# 
# 
# High freq. dielectric constant tensor:
#      x y z
#    x 1.920620 -0.010810 -0.003410 
#    y -0.010810 1.942280 0.006730 
#    z -0.003410 0.006730 1.927220 
# 
# From -- ./inp_files/70799.got.cif
#   From: 2010.06.25/outbox.cif.g09.slc.cpg/sg2_36_cif.got.tgz:70799.got - 2010.06.27 13:26:56.
