data_PCOD8034533
_publ_section_title
;
Structure prediction by ZEFSAII (Michael W. Deem and Ramdas Pophale) SiO2 
 PCOD8034533
Probable space group: P -1
;
_chemical_formula_sum "Si O2"
_cell_formula_units_Z 12
_cell_length_a 8.700382
_cell_length_b 8.050717
_cell_length_c 11.411592
_cell_angle_alpha 110.001257
_cell_angle_beta 137.621555
_cell_angle_gamma 68.996219
_cell_volume 499.156238
_symmetry_space_group_name_H-M "P -1"
_symmetry_group_IT_number 2
_symmetry_cell_setting 'triclinic'
loop_
_space_group_symop_operation_xyz
x,y,z
-x,-y,-z
loop_
_atom_site_type_symbol
_atom_site_label
_atom_site_fract_x
_atom_site_fract_y
_atom_site_fract_z
Si Si1 0.718418 0.461720 0.028025
Si Si2 0.668478 0.020950 0.475042
Si Si3 0.734707 0.161648 0.781497
Si Si4 0.803411 0.827399 0.059219
Si Si5 0.707680 0.084629 0.259508
Si Si6 0.021157 0.665211 0.635180
O O1 0.792844 0.622426 0.033488
O O2 0.936391 0.385644 0.216027
O O3 0.500000 0.500000 0.000000
O O4 0.650130 0.327746 0.858594
O O5 0.398633 0.000633 0.294660
O O6 0.801192 0.824293 0.543353
O O7 0.673103 0.180421 0.611050
O O8 0.786595 0.073830 0.435874
O O9 0.015833 0.135277 0.931727
O O10 0.863607 0.922754 0.236786
O O11 0.560598 0.932623 0.901975
O O12 0.748143 0.269841 0.269208
O O13 0.000000 0.500000 0.500000
#
# Coordination Sequence:
#
# PCOD8034533 Si02
#       6
#     2   2   2   2   2   2
#     4  12  25  47  72  99 138 180 234 281 341 412
#     4  11  26  45  68 103 141 181 227 278 347 405
#     4  11  26  45  70 101 141 181 227 288 339 401
#     4  11  24  45  70 105 132 183 234 276 341 402
#     4  11  24  45  74  99 136 184 229 279 336 416
#     4  12  25  43  73 103 135 181 230 281 337 406
#
# _framework density 24.040569999999999
#
# number of rings (size 3 to 8) (size 9 to 14) (size 15 to 20)
#    0.000    0.667    3.333    4.000    4.667    4.000 
#    0.000    1.667    0.000    0.000    0.000    0.000 
#    0.000    0.000    0.000    0.000    0.000    0.000 
#
# Total GULP energy -148665.999015 kJ/mol
# GULP energy per Si atom -12388.833251 kJ/mol
# Density = 2.398585 g / cm^3
# Si number density = 24.040570 Si / 1000 Ang^3
#
#
#
# Elastic Constant Matrix: (Units=GPa)
#
#
# Indices 1 2 3 4 5 6 
#
# 1 120.5658 20.7914 31.7024 10.1036 -4.2963 -31.9984
# 2 20.7914 73.6620 48.9427 19.6271 -20.2467 -14.6788
# 3 31.7024 48.9427 109.3274 35.2249 -19.1227 -17.8152
# 4 10.1036 19.6271 35.2249 51.1686 -9.4460 -9.7394
# 5 -4.2963 -20.2467 -19.1227 -9.4460 59.3849 5.6619
# 6 -31.9984 -14.6788 -17.8152 -9.7394 5.6619 28.8521
#
#
#
# Elastic Compliance Matrix: (Units=1/GPa)
#
#
# Indices 1 2 3 4 5 6 
#
# 1 0.012059 -0.000169 -0.001899 0.001259 -0.000807 0.012699
# 2 -0.000169 0.020962 -0.007467 -0.001227 0.004092 0.004650
# 3 -0.001899 -0.007467 0.015737 -0.007162 0.001133 0.001173
# 4 0.001259 -0.001227 -0.007162 0.025807 0.001008 0.004863
# 5 -0.000807 0.004092 0.001133 0.001008 0.018842 -0.001471
# 6 0.012699 0.004650 0.001173 0.004863 -0.001471 0.053763
#
#
# Mechanical properties :
#
#
# Convention : Reuss Voigt Hill
#
# Bulk Modulus (GPa) = 33.68163 56.26980 44.97571
# Shear Modulus (GPa) = 28.38744 41.35569 34.87156
#
# Velocity S-wave (km/s) = 3.44003 4.15208 3.81271
# Velocity P-wave (km/s) = 5.46069 6.81494 6.17505
#
# Compressibility (1/GPa) = 0.02968978
#
# Stress axis : x y z
#
# Youngs Moduli (GPa) = 82.92866 47.70469 63.54510
#
# Poissons Ratio (x) = 0.00806 0.12064
# Poissons Ratio (y) = 0.01400 0.47446
# Poissons Ratio (z) = 0.15745 0.35619
#
# Static dielectric constant tensor:
#      x y z
#    x 4.707640 -0.103890 0.163820 
#    y -0.103890 3.906400 0.177870 
#    z 0.163820 0.177870 4.736720 
# 
# 
# High freq. dielectric constant tensor:
#      x y z
#    x 1.976260 -0.009780 0.006430 
#    y -0.009780 1.913720 0.014650 
#    z 0.006430 0.014650 1.980470 
# 
# From -- ./inp_files/184753.got.cif
#   From: 2010.06.25/outbox.cif.g09.slc.cpg/sg2_93_cif.got.tgz:184753.got - 2010.06.27 13:26:56.
