data_PCOD8034018
_publ_section_title
;
Structure prediction by ZEFSAII (Michael W. Deem and Ramdas Pophale) SiO2 
 PCOD8034018
Probable space group: P -1
;
_chemical_formula_sum "Si O2"
_cell_formula_units_Z 16
_cell_length_a 20.470541
_cell_length_b 8.915722
_cell_length_c 9.367739
_cell_angle_alpha 75.000432
_cell_angle_beta 127.182171
_cell_angle_gamma 143.223412
_cell_volume 718.847922
_symmetry_space_group_name_H-M "P -1"
_symmetry_group_IT_number 2
_symmetry_cell_setting 'triclinic'
loop_
_space_group_symop_operation_xyz
x,y,z
-x,-y,-z
loop_
_atom_site_type_symbol
_atom_site_label
_atom_site_fract_x
_atom_site_fract_y
_atom_site_fract_z
Si Si1 0.975207 0.141348 0.447320
Si Si2 0.743168 0.659313 0.834828
Si Si3 0.556700 0.836030 0.933175
Si Si4 0.070501 0.768679 0.133265
Si Si5 0.849816 0.502442 0.136265
Si Si6 0.379781 0.708912 0.487812
Si Si7 0.349395 0.341430 0.995875
Si Si8 0.866375 0.451010 0.692728
O O1 0.017818 0.270449 0.628182
O O2 0.096108 0.422379 0.442161
O O3 0.000000 0.000000 0.500000
O O4 0.803172 0.898950 0.239222
O O5 0.640857 0.460120 0.612693
O O6 0.864677 0.956190 0.840081
O O7 0.807484 0.607454 0.004835
O O8 0.664489 0.632249 0.863611
O O9 0.434368 0.737729 0.706110
O O10 0.474978 0.655034 0.016187
O O11 0.597138 0.750787 0.913309
O O12 0.702200 0.174263 0.076133
O O13 0.189541 0.819067 0.322069
O O14 0.923729 0.523772 0.100494
O O15 0.023125 0.676417 0.928143
O O16 0.236371 0.591635 0.347615
O O17 0.500000 0.000000 0.500000
#
# Coordination Sequence:
#
# PCOD8034018 Si02
#       8
#     2   2   2   2   2   2   2   2
#     4  12  24  43  75 106 136 180 237 288 345 412
#     4  12  25  42  72 102 137 180 232 284 345 407
#     4  11  27  49  70  98 147 186 233 280 348 420
#     4  11  24  43  70 103 141 172 232 296 344 401
#     4  12  25  45  73 105 138 184 229 291 347 412
#     4  12  26  45  69 100 139 189 232 280 345 420
#     4  11  26  48  71 103 141 186 228 292 345 410
#     4  11  24  43  70 101 138 182 226 292 346 404
#
# _framework density 22.257836000000001
#
# number of rings (size 3 to 8) (size 9 to 14) (size 15 to 20)
#    0.000    0.500    5.000    1.875    7.000    4.000 
#    2.250    0.000    0.000    0.000    0.000    0.000 
#    0.000    0.000    0.000    0.000    0.000    0.000 
#
# Total GULP energy -198294.784754 kJ/mol
# GULP energy per Si atom -12393.424047 kJ/mol
# Density = 2.220718 g / cm^3
# Si number density = 22.257836 Si / 1000 Ang^3
#
#
#
# Elastic Constant Matrix: (Units=GPa)
#
#
# Indices 1 2 3 4 5 6 
#
# 1 99.5338 32.7310 18.3518 -2.0990 6.9019 -0.4912
# 2 32.7310 145.8621 28.8013 -1.7966 3.1302 -11.7131
# 3 18.3518 28.8013 60.4488 2.2391 2.5423 -3.8072
# 4 -2.0990 -1.7966 2.2391 33.9600 -7.3764 2.7638
# 5 6.9019 3.1302 2.5423 -7.3764 33.3936 -6.4184
# 6 -0.4912 -11.7131 -3.8072 2.7638 -6.4184 35.6001
#
#
#
# Elastic Compliance Matrix: (Units=1/GPa)
#
#
# Indices 1 2 3 4 5 6 
#
# 1 0.011339 -0.002110 -0.002439 0.000391 -0.002106 -0.001209
# 2 -0.002110 0.008130 -0.003119 0.000412 0.000457 0.002363
# 3 -0.002439 -0.003119 0.018934 -0.001830 -0.000866 0.000951
# 4 0.000391 0.000412 -0.001830 0.031163 0.006659 -0.001273
# 5 -0.002106 0.000457 -0.000866 0.006659 0.032922 0.005447
# 6 -0.001209 0.002363 0.000951 -0.001273 0.005447 0.030033
#
#
# Mechanical properties :
#
#
# Convention : Reuss Voigt Hill
#
# Bulk Modulus (GPa) = 43.35232 51.73476 47.54354
# Shear Modulus (GPa) = 32.14509 35.65478 33.89993
#
# Velocity S-wave (km/s) = 3.80441 4.00671 3.90687
# Velocity P-wave (km/s) = 6.23038 6.68572 6.46206
#
# Compressibility (1/GPa) = 0.02306682
#
# Stress axis : x y z
#
# Youngs Moduli (GPa) = 88.19381 123.00061 52.81641
#
# Poissons Ratio (x) = 0.25950 0.12883
# Poissons Ratio (y) = 0.18607 0.16472
# Poissons Ratio (z) = 0.21512 0.38361
#
# Static dielectric constant tensor:
#      x y z
#    x 4.055350 -0.186170 0.109290 
#    y -0.186170 4.315510 -0.178410 
#    z 0.109290 -0.178410 4.075660 
# 
# 
# High freq. dielectric constant tensor:
#      x y z
#    x 1.884900 -0.009780 -0.000590 
#    y -0.009780 1.893450 -0.015990 
#    z -0.000590 -0.015990 1.869200 
# 
# From -- ./inp_files/320654.got.cif
#   From: 2010.06.25/outbox.cif.g09.slc.cpg/sg2_161_cif.got.tgz:320654.got - 2010.06.27 13:26:56.
