data_PCOD8034050
_publ_section_title
;
Structure prediction by ZEFSAII (Michael W. Deem and Ramdas Pophale) SiO2 
 PCOD8034050
Probable space group: P -1
;
_chemical_formula_sum "Si O2"
_cell_formula_units_Z 16
_cell_length_a 12.389729
_cell_length_b 10.624453
_cell_length_c 9.076164
_cell_angle_alpha 56.958106
_cell_angle_beta 126.202572
_cell_angle_gamma 129.044345
_cell_volume 719.594040
_symmetry_space_group_name_H-M "P -1"
_symmetry_group_IT_number 2
_symmetry_cell_setting 'triclinic'
loop_
_space_group_symop_operation_xyz
x,y,z
-x,-y,-z
loop_
_atom_site_type_symbol
_atom_site_label
_atom_site_fract_x
_atom_site_fract_y
_atom_site_fract_z
Si Si1 0.363512 0.316553 0.005602
Si Si2 0.945663 0.139706 0.361994
Si Si3 0.340969 0.065795 0.900864
Si Si4 0.083684 0.369688 0.820256
Si Si5 0.127438 0.445675 0.134148
Si Si6 0.154293 0.723534 0.537878
Si Si7 0.540765 0.190933 0.415132
Si Si8 0.418208 0.781285 0.235839
O O1 0.399903 0.218792 0.229076
O O2 0.500000 0.500000 0.000000
O O3 0.346898 0.215389 0.908742
O O4 0.211421 0.333289 0.874940
O O5 0.858544 0.149716 0.433177
O O6 0.092553 0.313929 0.324863
O O7 0.824631 0.078897 0.173398
O O8 0.000000 0.000000 0.500000
O O9 0.428480 0.169538 0.760166
O O10 0.408616 0.957258 0.108760
O O11 0.078715 0.544388 0.671982
O O12 0.924031 0.246867 0.692301
O O13 0.104376 0.347118 0.023934
O O14 0.287102 0.612391 0.165130
O O15 0.000000 0.500000 0.000000
O O16 0.315618 0.733068 0.625099
O O17 0.574922 0.266012 0.559216
O O18 0.500000 0.000000 0.500000
#
# Coordination Sequence:
#
# PCOD8034050 Si02
#       8
#     2   2   2   2   2   2   2   2
#     4  12  25  44  69 105 142 182 236 292 349 414
#     4  12  27  46  71 105 145 181 233 298 354 413
#     4  11  24  45  70 100 144 184 230 291 355 411
#     4  11  24  43  71 102 138 184 233 286 344 417
#     4  12  23  44  74 102 135 187 243 280 341 431
#     4  11  24  44  71  98 141 186 228 282 357 415
#     4  12  25  43  70 102 139 181 235 288 348 420
#     4  11  24  43  74 102 136 189 237 281 349 427
#
# _framework density 22.234757999999999
#
# number of rings (size 3 to 8) (size 9 to 14) (size 15 to 20)
#    0.000    0.500    5.000    3.000    3.500    3.000 
#    0.000    3.750    0.000    0.000    0.000    0.000 
#    0.000    0.000    0.000    0.000    0.000    0.000 
#
# Total GULP energy -198213.790883 kJ/mol
# GULP energy per Si atom -12388.361930 kJ/mol
# Density = 2.218415 g / cm^3
# Si number density = 22.234758 Si / 1000 Ang^3
#
#
#
# Elastic Constant Matrix: (Units=GPa)
#
#
# Indices 1 2 3 4 5 6 
#
# 1 102.3543 31.7046 28.7430 0.2320 -2.4658 -19.2680
# 2 31.7046 108.8985 23.4002 5.7652 -5.2535 -10.2656
# 3 28.7430 23.4002 87.6515 5.4868 0.2736 -16.2821
# 4 0.2320 5.7652 5.4868 41.3389 -5.8735 -3.4926
# 5 -2.4658 -5.2535 0.2736 -5.8735 43.8431 1.8100
# 6 -19.2680 -10.2656 -16.2821 -3.4926 1.8100 48.4222
#
#
#
# Elastic Compliance Matrix: (Units=1/GPa)
#
#
# Indices 1 2 3 4 5 6 
#
# 1 0.011973 -0.002631 -0.002661 0.000990 0.000368 0.003369
# 2 -0.002631 0.010478 -0.001787 -0.001034 0.000961 0.000463
# 3 -0.002661 -0.001787 0.013404 -0.001369 -0.000755 0.002999
# 4 0.000990 -0.001034 -0.001369 0.025090 0.003244 0.001403
# 5 0.000368 0.000961 -0.000755 0.003244 0.023406 -0.000544
# 6 0.003369 0.000463 0.002999 0.001403 -0.000544 0.023220
#
#
# Mechanical properties :
#
#
# Convention : Reuss Voigt Hill
#
# Bulk Modulus (GPa) = 46.09022 51.84443 48.96732
# Shear Modulus (GPa) = 38.77151 41.05794 39.91472
#
# Velocity S-wave (km/s) = 4.18033 4.30183 4.24152
# Velocity P-wave (km/s) = 6.63884 6.93122 6.78660
#
# Compressibility (1/GPa) = 0.02169658
#
# Stress axis : x y z
#
# Youngs Moduli (GPa) = 83.52024 95.44237 74.60715
#
# Poissons Ratio (x) = 0.25111 0.19854
# Poissons Ratio (y) = 0.21975 0.13330
# Poissons Ratio (z) = 0.22226 0.17052
#
# Static dielectric constant tensor:
#      x y z
#    x 3.608710 -0.376150 0.355860 
#    y -0.376150 3.356270 0.726050 
#    z 0.355860 0.726050 3.181170 
# 
# 
# High freq. dielectric constant tensor:
#      x y z
#    x 1.877950 -0.009120 0.000190 
#    y -0.009120 1.883640 0.008200 
#    z 0.000190 0.008200 1.875150 
# 
# From -- ./inp_files/243209.got.cif
#   From: 2010.06.25/outbox.cif.g09.slc.cpg/sg2_122_cif.got.tgz:243209.got - 2010.06.27 13:26:56.
