data_PCOD8034358
_publ_section_title
;
Structure prediction by ZEFSAII (Michael W. Deem and Ramdas Pophale) SiO2 
 PCOD8034358
Probable space group: P -1
;
_chemical_formula_sum "Si O2"
_cell_formula_units_Z 14
_cell_length_a 6.685931
_cell_length_b 9.297352
_cell_length_c 18.568974
_cell_angle_alpha 132.347414
_cell_angle_beta 122.710308
_cell_angle_gamma 48.401693
_cell_volume 628.829022
_symmetry_space_group_name_H-M "P -1"
_symmetry_group_IT_number 2
_symmetry_cell_setting 'triclinic'
loop_
_space_group_symop_operation_xyz
x,y,z
-x,-y,-z
loop_
_atom_site_type_symbol
_atom_site_label
_atom_site_fract_x
_atom_site_fract_y
_atom_site_fract_z
Si Si1 0.243753 0.853759 0.445533
Si Si2 0.132320 0.350192 0.904054
Si Si3 0.963160 0.013165 0.295362
Si Si4 0.062785 0.668964 0.869558
Si Si5 0.218841 0.293396 0.428122
Si Si6 0.352080 0.368338 0.326614
Si Si7 0.633823 0.089445 0.998724
O O1 0.515391 0.862289 0.524645
O O2 0.330327 0.595349 0.371957
O O3 0.138419 0.958056 0.382985
O O4 0.000000 0.000000 0.500000
O O5 0.973319 0.211325 0.810391
O O6 0.442221 0.177418 0.921964
O O7 0.151768 0.463444 0.871986
O O8 0.000000 0.500000 0.000000
O O9 0.642116 0.160684 0.294890
O O10 0.081350 0.151210 0.321424
O O11 0.885957 0.658803 0.766674
O O12 0.910302 0.876664 0.961834
O O13 0.306073 0.708560 0.896458
O O14 0.310636 0.386991 0.410323
O O15 0.000000 0.500000 0.500000
O O16 0.500000 0.000000 0.000000
#
# Coordination Sequence:
#
# PCOD8034358 Si02
#       7
#     2   2   2   2   2   2   2
#     4  12  24  48  73 103 146 188 239 300 366 434
#     4  12  25  47  71 104 147 190 245 302 353 432
#     4  12  26  46  73 105 146 192 245 299 365 435
#     4  11  25  44  70 101 136 192 231 295 361 422
#     4  12  26  46  76 106 145 191 241 304 367 437
#     4  12  25  46  72 102 146 185 241 298 368 435
#     4  11  24  44  72  98 139 182 241 295 355 416
#
# _framework density 22.263604999999998
#
# number of rings (size 3 to 8) (size 9 to 14) (size 15 to 20)
#    0.000    0.286    7.143    2.143    2.000    0.000 
#    7.714    0.000    0.000    0.000    0.000    0.000 
#    0.000    0.000    0.000    0.000    0.000    0.000 
#
# Total GULP energy -173524.350529 kJ/mol
# GULP energy per Si atom -12394.596466 kJ/mol
# Density = 2.221293 g / cm^3
# Si number density = 22.263605 Si / 1000 Ang^3
#
#
#
# Elastic Constant Matrix: (Units=GPa)
#
#
# Indices 1 2 3 4 5 6 
#
# 1 93.8419 30.8883 41.9019 6.0317 21.5098 0.3585
# 2 30.8883 113.7423 29.8753 -9.4061 13.7122 -2.6599
# 3 41.9019 29.8753 117.3193 4.6526 29.3449 0.5207
# 4 6.0317 -9.4061 4.6526 48.7282 -1.1205 8.8291
# 5 21.5098 13.7122 29.3449 -1.1205 45.9603 7.6102
# 6 0.3585 -2.6599 0.5207 8.8291 7.6102 32.8786
#
#
#
# Elastic Compliance Matrix: (Units=1/GPa)
#
#
# Indices 1 2 3 4 5 6 
#
# 1 0.014026 -0.002632 -0.003269 -0.002240 -0.003945 0.001201
# 2 -0.002632 0.010219 -0.001545 0.002346 -0.000847 0.000446
# 3 -0.003269 -0.001545 0.011546 -0.001381 -0.005647 0.001406
# 4 -0.002240 0.002346 -0.001381 0.022628 0.002858 -0.006502
# 5 -0.003945 -0.000847 -0.005647 0.002858 0.028751 -0.007358
# 6 0.001201 0.000446 0.001406 -0.006502 -0.007358 0.033865
#
#
# Mechanical properties :
#
#
# Convention : Reuss Voigt Hill
#
# Bulk Modulus (GPa) = 47.85077 58.91494 53.38286
# Shear Modulus (GPa) = 34.99130 40.32931 37.66031
#
# Velocity S-wave (km/s) = 3.96875 4.26073 4.11732
# Velocity P-wave (km/s) = 6.52233 7.12214 6.82882
#
# Compressibility (1/GPa) = 0.02089830
#
# Stress axis : x y z
#
# Youngs Moduli (GPa) = 71.29690 97.85739 86.61083
#
# Poissons Ratio (x) = 0.25755 0.28313
# Poissons Ratio (y) = 0.18764 0.13385
# Poissons Ratio (z) = 0.23307 0.15123
#
# Static dielectric constant tensor:
#      x y z
#    x 2.400340 -0.152470 -0.194410 
#    y -0.152470 4.362340 -0.059530 
#    z -0.194410 -0.059530 3.906210 
# 
# 
# High freq. dielectric constant tensor:
#      x y z
#    x 1.873220 0.004050 0.023420 
#    y 0.004050 1.896380 -0.002290 
#    z 0.023420 -0.002290 1.883570 
# 
# From -- ./inp_files/38297.got.cif
#   From: 2010.06.25/outbox.cif.g09.slc.cpg/sg2_20_cif.got.tgz:38297.got - 2010.06.27 13:26:56.
