data_PCOD8034778
_publ_section_title
;
Structure prediction by ZEFSAII (Michael W. Deem and Ramdas Pophale) SiO2 
 PCOD8034778
Probable space group: P -1
;
_chemical_formula_sum "Si O2"
_cell_formula_units_Z 16
_cell_length_a 12.036261
_cell_length_b 8.357441
_cell_length_c 10.224829
_cell_angle_alpha 86.900158
_cell_angle_beta 73.419308
_cell_angle_gamma 49.272958
_cell_volume 734.581727
_symmetry_space_group_name_H-M "P -1"
_symmetry_group_IT_number 2
_symmetry_cell_setting 'triclinic'
loop_
_space_group_symop_operation_xyz
x,y,z
-x,-y,-z
loop_
_atom_site_type_symbol
_atom_site_label
_atom_site_fract_x
_atom_site_fract_y
_atom_site_fract_z
Si Si1 0.914838 0.113966 0.656086
Si Si2 0.662416 0.779453 0.412204
Si Si3 0.325283 0.408148 0.324357
Si Si4 0.719212 0.052479 0.860984
Si Si5 0.792204 0.630754 0.893101
Si Si6 0.595220 0.646826 0.180144
Si Si7 0.351254 0.768591 0.852366
Si Si8 0.101604 0.183285 0.767063
O O1 0.748228 0.348836 0.676594
O O2 0.875283 0.987068 0.752005
O O3 0.025577 0.126495 0.698979
O O4 0.000000 0.000000 0.500000
O O5 0.722371 0.611667 0.516280
O O6 0.649002 0.690552 0.288394
O O7 0.784125 0.810134 0.353929
O O8 0.500000 0.000000 0.500000
O O9 0.256079 0.353079 0.241452
O O10 0.510278 0.252028 0.252967
O O11 0.588307 0.154893 0.788381
O O12 0.769952 0.838705 0.918690
O O13 0.645946 0.232815 0.990796
O O14 0.969814 0.414353 0.868953
O O15 0.682738 0.631693 0.024755
O O16 0.636711 0.422691 0.195998
O O17 0.190754 0.998905 0.854129
#
# Coordination Sequence:
#
# PCOD8034778 Si02
#       8
#     2   2   2   2   2   2   2   2
#     4  11  28  45  70 103 146 188 232 285 362 426
#     4  12  27  44  71 105 149 184 231 292 355 423
#     4  11  24  46  70 103 141 190 234 288 351 426
#     4  12  25  45  77 103 140 189 240 294 348 427
#     4  11  26  46  75 104 140 185 242 292 356 414
#     4  12  26  45  77 106 138 189 242 292 351 423
#     4  12  24  45  76 104 142 181 244 295 349 416
#     4  11  28  47  68 107 146 183 233 301 353 417
#
# _framework density 21.781102000000001
#
# number of rings (size 3 to 8) (size 9 to 14) (size 15 to 20)
#    0.000    0.500    3.750    3.750    7.000    5.500 
#    0.000    0.000    0.000    0.000    0.000    0.000 
#    0.000    0.000    0.000    0.000    0.000    0.000 
#
# Total GULP energy -198516.437442 kJ/mol
# GULP energy per Si atom -12407.277340 kJ/mol
# Density = 2.173153 g / cm^3
# Si number density = 21.781102 Si / 1000 Ang^3
#
#
#
# Elastic Constant Matrix: (Units=GPa)
#
#
# Indices 1 2 3 4 5 6 
#
# 1 121.1230 43.8327 39.6745 -2.1956 -26.5342 -11.1514
# 2 43.8327 116.9498 11.8137 0.5276 1.0222 -5.1980
# 3 39.6745 11.8137 104.5135 -4.1314 -8.3459 -9.2234
# 4 -2.1956 0.5276 -4.1314 37.7106 -0.6169 -3.5612
# 5 -26.5342 1.0222 -8.3459 -0.6169 35.9762 -10.4325
# 6 -11.1514 -5.1980 -9.2234 -3.5612 -10.4325 26.4429
#
#
#
# Elastic Compliance Matrix: (Units=1/GPa)
#
#
# Indices 1 2 3 4 5 6 
#
# 1 0.014893 -0.004961 -0.003114 0.001726 0.013238 0.009675
# 2 -0.004961 0.010353 0.000167 -0.000663 -0.004462 -0.001848
# 3 -0.003114 0.000167 0.011179 0.001374 0.001275 0.003307
# 4 0.001726 -0.000663 0.001374 0.027438 0.003912 0.006316
# 5 0.013238 -0.004462 0.001275 0.003912 0.044824 0.023362
# 6 0.009675 -0.001848 0.003307 0.006316 0.023362 0.052755
#
#
# Mechanical properties :
#
#
# Convention : Reuss Voigt Hill
#
# Bulk Modulus (GPa) = 48.51793 59.24757 53.88275
# Shear Modulus (GPa) = 27.15495 36.51031 31.83263
#
# Velocity S-wave (km/s) = 3.53472 4.09863 3.82708
# Velocity P-wave (km/s) = 6.24361 7.04690 6.65738
#
# Compressibility (1/GPa) = 0.02061093
#
# Stress axis : x y z
#
# Youngs Moduli (GPa) = 67.14355 96.59048 89.45178
#
# Poissons Ratio (x) = 0.47919 0.27853
# Poissons Ratio (y) = 0.33310 -0.01498
# Poissons Ratio (z) = 0.20907 -0.01617
#
# Static dielectric constant tensor:
#      x y z
#    x 3.959540 -0.023240 -0.057580 
#    y -0.023240 4.103860 0.017140 
#    z -0.057580 0.017140 3.917600 
# 
# 
# High freq. dielectric constant tensor:
#      x y z
#    x 1.866300 0.002610 -0.003070 
#    y 0.002610 1.867200 -0.000310 
#    z -0.003070 -0.000310 1.859950 
# 
# From -- ./inp_files/216347.got.cif
#   From: 2010.06.25/outbox.cif.g09.slc.cpg/sg2_109_cif.got.tgz:216347.got - 2010.06.27 13:26:56.
