data_PCOD8034226
_publ_section_title
;
Structure prediction by ZEFSAII (Michael W. Deem and Ramdas Pophale) SiO2 
 PCOD8034226
Probable space group: P -1
;
_chemical_formula_sum "Si O2"
_cell_formula_units_Z 16
_cell_length_a 14.794192
_cell_length_b 11.845603
_cell_length_c 5.253387
_cell_angle_alpha 80.296470
_cell_angle_beta 93.441853
_cell_angle_gamma 45.443062
_cell_volume 625.436190
_symmetry_space_group_name_H-M "P -1"
_symmetry_group_IT_number 2
_symmetry_cell_setting 'triclinic'
loop_
_space_group_symop_operation_xyz
x,y,z
-x,-y,-z
loop_
_atom_site_type_symbol
_atom_site_label
_atom_site_fract_x
_atom_site_fract_y
_atom_site_fract_z
Si Si1 0.499341 0.818926 0.921060
Si Si2 0.899753 0.186979 0.996702
Si Si3 0.245763 0.017327 0.507566
Si Si4 0.306999 0.747444 0.328408
Si Si5 0.660602 0.879501 0.858664
Si Si6 0.082055 0.455044 0.778128
Si Si7 0.565350 0.524977 0.197109
Si Si8 0.955929 0.264405 0.480416
O O1 0.373634 0.873038 0.751269
O O2 0.581254 0.838413 0.765040
O O3 0.599506 0.621472 0.064744
O O4 0.444598 0.935289 0.114527
O O5 0.757530 0.254150 0.930402
O O6 0.903387 0.284717 0.747375
O O7 0.927425 0.194325 0.288927
O O8 0.000000 0.000000 0.000000
O O9 0.227974 0.933851 0.324676
O O10 0.267277 0.125070 0.360530
O O11 0.111845 0.141922 0.596221
O O12 0.455853 0.649811 0.347469
O O13 0.306319 0.650585 0.588952
O O14 0.776323 0.737837 0.127898
O O15 0.111960 0.562317 0.718808
O O16 0.000000 0.500000 0.500000
O O17 0.000000 0.500000 0.000000
O O18 0.500000 0.500000 0.000000
#
# Coordination Sequence:
#
# PCOD8034226 Si02
#       8
#     2   2   2   2   2   2   2   2
#     4  11  25  44  74 101 142 186 246 304 366 430
#     4  12  28  47  73 112 147 190 248 303 371 440
#     4  12  23  45  73  99 143 186 245 296 369 447
#     4  11  26  42  68 101 144 186 238 297 366 442
#     4  11  26  46  68 109 140 190 247 306 363 437
#     4  12  26  49  75 108 146 195 251 301 371 443
#     4  11  24  44  69 101 136 187 238 296 366 437
#     4  12  28  46  76 110 148 196 241 310 372 442
#
# _framework density 25.582144
#
# number of rings (size 3 to 8) (size 9 to 14) (size 15 to 20)
#    0.000    0.500    5.000    2.250    7.000    0.000 
#    0.000    0.000    0.000    0.000    0.000    0.000 
#    0.000    0.000    0.000    0.000    0.000    0.000 
#
# Total GULP energy -198333.891988 kJ/mol
# GULP energy per Si atom -12395.868249 kJ/mol
# Density = 2.552392 g / cm^3
# Si number density = 25.582144 Si / 1000 Ang^3
#
#
#
# Elastic Constant Matrix: (Units=GPa)
#
#
# Indices 1 2 3 4 5 6 
#
# 1 124.8077 17.2281 15.8321 -4.4082 2.0190 8.1931
# 2 17.2281 66.5219 -0.9474 -12.7997 -8.4638 19.3022
# 3 15.8321 -0.9474 76.2058 0.1081 4.3617 4.6774
# 4 -4.4082 -12.7997 0.1081 37.8490 6.3335 -4.8498
# 5 2.0190 -8.4638 4.3617 6.3335 49.0200 -4.1944
# 6 8.1931 19.3022 4.6774 -4.8498 -4.1944 43.7726
#
#
#
# Elastic Compliance Matrix: (Units=1/GPa)
#
#
# Indices 1 2 3 4 5 6 
#
# 1 0.008581 -0.002118 -0.001741 0.000332 -0.000651 -0.000512
# 2 -0.002118 0.018912 0.001002 0.004872 0.002008 -0.007318
# 3 -0.001741 0.001002 0.013664 0.000070 -0.001123 -0.001676
# 4 0.000332 0.004872 0.000070 0.028667 -0.002824 0.000688
# 5 -0.000651 0.002008 -0.001123 -0.002824 0.021331 0.001088
# 6 -0.000512 -0.007318 -0.001676 0.000688 0.001088 0.026528
#
#
# Mechanical properties :
#
#
# Convention : Reuss Voigt Hill
#
# Bulk Modulus (GPa) = 28.21335 36.86235 32.53785
# Shear Modulus (GPa) = 36.97951 41.82317 39.40134
#
# Velocity S-wave (km/s) = 3.80612 4.04772 3.92878
# Velocity P-wave (km/s) = 5.51071 6.02380 5.77296
#
# Compressibility (1/GPa) = 0.03544421
#
# Stress axis : x y z
#
# Youngs Moduli (GPa) = 116.53206 52.87735 73.18723
#
# Poissons Ratio (x) = 0.11198 0.12741
# Poissons Ratio (y) = 0.24678 -0.07336
# Poissons Ratio (z) = 0.20287 -0.05300
#
# Static dielectric constant tensor:
#      x y z
#    x 5.167060 -0.083460 0.009330 
#    y -0.083460 4.751350 -0.289160 
#    z 0.009330 -0.289160 4.800600 
# 
# 
# High freq. dielectric constant tensor:
#      x y z
#    x 2.035590 0.007520 -0.000090 
#    y 0.007520 2.021610 -0.015610 
#    z -0.000090 -0.015610 2.011860 
# 
# From -- ./inp_files/70151.got.cif
#   From: 2010.06.25/outbox.cif.g09.slc.cpg/sg2_36_cif.got.tgz:70151.got - 2010.06.27 13:26:56.
