data_PCOD8034396
_publ_section_title
;
Structure prediction by ZEFSAII (Michael W. Deem and Ramdas Pophale) SiO2 
 PCOD8034396
Probable space group: P -1
;
_chemical_formula_sum "Si O2"
_cell_formula_units_Z 14
_cell_length_a 17.515825
_cell_length_b 9.355257
_cell_length_c 9.435197
_cell_angle_alpha 120.730084
_cell_angle_beta 29.835010
_cell_angle_gamma 112.510214
_cell_volume 654.551676
_symmetry_space_group_name_H-M "P -1"
_symmetry_group_IT_number 2
_symmetry_cell_setting 'triclinic'
loop_
_space_group_symop_operation_xyz
x,y,z
-x,-y,-z
loop_
_atom_site_type_symbol
_atom_site_label
_atom_site_fract_x
_atom_site_fract_y
_atom_site_fract_z
Si Si1 0.548903 0.503301 0.205673
Si Si2 0.015758 0.163624 0.471055
Si Si3 0.325954 0.279507 0.122450
Si Si4 0.253513 0.549979 0.873151
Si Si5 0.441779 0.857860 0.112819
Si Si6 0.864170 0.647770 0.265048
Si Si7 0.094549 0.986824 0.699349
O O1 0.394926 0.606203 0.579647
O O2 0.691656 0.497262 0.081133
O O3 0.598400 0.590594 0.029193
O O4 0.517793 0.316915 0.124065
O O5 0.193387 0.199482 0.211033
O O6 0.972479 0.140243 0.365158
O O7 0.000000 0.000000 0.500000
O O8 0.896643 0.309426 0.809842
O O9 0.255112 0.370510 0.425018
O O10 0.469977 0.144656 0.878144
O O11 0.207045 0.383601 0.789594
O O12 0.259998 0.903086 0.446411
O O13 0.500000 0.000000 0.000000
O O14 0.910299 0.834694 0.282781
O O15 0.000000 0.500000 0.000000
O O16 0.000000 0.000000 0.000000
#
# Coordination Sequence:
#
# PCOD8034396 Si02
#       7
#     2   2   2   2   2   2   2
#     4  11  26  44  72 107 139 190 241 293 352 424
#     4  12  24  48  70 105 144 187 231 296 356 417
#     4  12  26  43  75 104 142 184 243 289 353 418
#     4  11  24  44  74 100 145 184 240 289 359 421
#     4  12  23  48  73 101 144 186 233 294 358 420
#     4  12  24  44  72 103 140 187 237 290 352 422
#     4  12  28  46  73 103 142 187 237 289 360 420
#
# _framework density 21.388684999999999
#
# number of rings (size 3 to 8) (size 9 to 14) (size 15 to 20)
#    0.000    0.286    7.143    0.429    4.000    1.714 
#    0.000    1.429    0.000    0.000    0.000    0.000 
#    0.000    0.000    0.000    0.000    0.000    0.000 
#
# Total GULP energy -173567.897996 kJ/mol
# GULP energy per Si atom -12397.707000 kJ/mol
# Density = 2.134000 g / cm^3
# Si number density = 21.388685 Si / 1000 Ang^3
#
#
#
# Elastic Constant Matrix: (Units=GPa)
#
#
# Indices 1 2 3 4 5 6 
#
# 1 156.2472 63.1904 75.1869 -6.6308 -17.1505 7.9419
# 2 63.1904 110.6937 38.7416 -3.5594 9.4195 -6.4013
# 3 75.1869 38.7416 118.2083 -0.4144 -0.7048 -6.0313
# 4 -6.6308 -3.5594 -0.4144 26.8383 -8.5211 4.4204
# 5 -17.1505 9.4195 -0.7048 -8.5211 46.2209 -2.0579
# 6 7.9419 -6.4013 -6.0313 4.4204 -2.0579 40.2311
#
#
#
# Elastic Compliance Matrix: (Units=1/GPa)
#
#
# Indices 1 2 3 4 5 6 
#
# 1 0.013185 -0.005882 -0.006643 0.005306 0.006755 -0.004772
# 2 -0.005882 0.013093 -0.000427 -0.001844 -0.005058 0.003124
# 3 -0.006643 -0.000427 0.012972 -0.002865 -0.002558 0.003372
# 4 0.005306 -0.001844 -0.002865 0.042386 0.009851 -0.005924
# 5 0.006755 -0.005058 -0.002558 0.009851 0.026850 -0.002231
# 6 -0.004772 0.003124 0.003372 -0.005924 -0.002231 0.027338
#
#
# Mechanical properties :
#
#
# Convention : Reuss Voigt Hill
#
# Bulk Modulus (GPa) = 74.93272 82.15411 78.54342
# Shear Modulus (GPa) = 30.08861 36.52676 33.30769
#
# Velocity S-wave (km/s) = 3.75474 4.13699 3.95049
# Velocity P-wave (km/s) = 7.34216 7.83026 7.59014
#
# Compressibility (1/GPa) = 0.01334530
#
# Stress axis : x y z
#
# Youngs Moduli (GPa) = 75.84493 76.37729 77.09044
#
# Poissons Ratio (x) = 0.44924 0.51212
# Poissons Ratio (y) = 0.44611 0.03293
# Poissons Ratio (z) = 0.50385 0.03262
#
# Static dielectric constant tensor:
#      x y z
#    x 3.695770 -0.036060 0.008900 
#    y -0.036060 3.641230 0.104070 
#    z 0.008900 0.104070 3.898270 
# 
# 
# High freq. dielectric constant tensor:
#      x y z
#    x 1.869930 0.005900 -0.010630 
#    y 0.005900 1.822520 0.000220 
#    z -0.010630 0.000220 1.846430 
# 
# From -- ./inp_files/170345.got.cif
#   From: 2010.06.25/outbox.cif.g09.slc.cpg/sg2_86_cif.got.tgz:170345.got - 2010.06.27 13:26:56.
