data_PCOD8034148
_publ_section_title
;
Structure prediction by ZEFSAII (Michael W. Deem and Ramdas Pophale) SiO2 
 PCOD8034148
Probable space group: P -1
;
_chemical_formula_sum "Si O2"
_cell_formula_units_Z 16
_cell_length_a 9.386776
_cell_length_b 13.631109
_cell_length_c 11.613440
_cell_angle_alpha 48.316703
_cell_angle_beta 138.562926
_cell_angle_gamma 111.663193
_cell_volume 708.822781
_symmetry_space_group_name_H-M "P -1"
_symmetry_group_IT_number 2
_symmetry_cell_setting 'triclinic'
loop_
_space_group_symop_operation_xyz
x,y,z
-x,-y,-z
loop_
_atom_site_type_symbol
_atom_site_label
_atom_site_fract_x
_atom_site_fract_y
_atom_site_fract_z
Si Si1 0.850395 0.278573 0.088312
Si Si2 0.914985 0.479059 0.339378
Si Si3 0.185281 0.300936 0.451118
Si Si4 0.374678 0.894131 0.044719
Si Si5 0.434561 0.460571 0.363840
Si Si6 0.069257 0.999546 0.170458
Si Si7 0.641003 0.302150 0.412424
Si Si8 0.826175 0.729399 0.920005
O O1 0.003842 0.235083 0.329642
O O2 0.976747 0.299137 0.031342
O O3 0.717960 0.164274 0.078904
O O4 0.650571 0.415570 0.874743
O O5 0.706062 0.411960 0.280357
O O6 0.000000 0.500000 0.500000
O O7 0.102583 0.366620 0.472323
O O8 0.870298 0.623821 0.135712
O O9 0.441428 0.212889 0.686045
O O10 0.212186 0.409400 0.287335
O O11 0.161566 0.969274 0.927879
O O12 0.500000 0.000000 0.000000
O O13 0.500000 0.500000 0.500000
O O14 0.641578 0.354429 0.506078
O O15 0.207102 0.113444 0.182748
O O16 0.205427 0.847478 0.404459
O O17 0.000000 0.000000 0.000000
O O18 0.391954 0.292612 0.252922
#
# Coordination Sequence:
#
# PCOD8034148 Si02
#       8
#     2   2   2   2   2   2   2   2
#     4  11  24  43  75 107 133 179 245 291 337 421
#     4  12  26  43  68 108 148 180 226 296 363 416
#     4  12  23  45  73 102 141 183 237 288 348 417
#     4  11  26  47  71 101 140 187 235 287 350 416
#     4  12  22  41  75 103 133 183 236 285 345 416
#     4  11  25  46  69  99 140 186 235 281 345 431
#     4  12  25  44  69 104 144 182 231 291 358 409
#     4  11  24  45  71 104 139 184 235 288 346 423
#
# _framework density 22.57264
#
# number of rings (size 3 to 8) (size 9 to 14) (size 15 to 20)
#    0.000    0.500    3.750    4.875    1.750    0.500 
#    2.250    0.000    0.000    0.000    0.000    0.000 
#    0.000    0.000    0.000    0.000    0.000    0.000 
#
# Total GULP energy -198220.640223 kJ/mol
# GULP energy per Si atom -12388.790014 kJ/mol
# Density = 2.252126 g / cm^3
# Si number density = 22.572640 Si / 1000 Ang^3
#
#
#
# Elastic Constant Matrix: (Units=GPa)
#
#
# Indices 1 2 3 4 5 6 
#
# 1 111.8466 70.1846 29.8002 -10.3611 3.0852 3.8088
# 2 70.1846 157.5025 58.1596 -5.5704 5.1403 4.1078
# 3 29.8002 58.1596 105.4428 6.6054 6.9359 -13.1583
# 4 -10.3611 -5.5704 6.6054 32.9921 -1.3045 0.4985
# 5 3.0852 5.1403 6.9359 -1.3045 32.1970 2.2884
# 6 3.8088 4.1078 -13.1583 0.4985 2.2884 48.6853
#
#
#
# Elastic Compliance Matrix: (Units=1/GPa)
#
#
# Indices 1 2 3 4 5 6 
#
# 1 0.012818 -0.005162 -0.001102 0.003389 0.000035 -0.000901
# 2 -0.005162 0.010421 -0.004570 0.001078 -0.000019 -0.001721
# 3 -0.001102 -0.004570 0.013251 -0.003932 -0.002478 0.004210
# 4 0.003389 0.001078 -0.003932 0.032443 0.001795 -0.001835
# 5 0.000035 -0.000019 -0.002478 0.001795 0.031820 -0.002185
# 6 -0.000901 -0.001721 0.004210 -0.001835 -0.002185 0.022015
#
#
# Mechanical properties :
#
#
# Convention : Reuss Voigt Hill
#
# Bulk Modulus (GPa) = 67.47613 76.78674 72.13143
# Shear Modulus (GPa) = 33.47264 37.21803 35.34534
#
# Velocity S-wave (km/s) = 3.85500 4.06496 3.96137
# Velocity P-wave (km/s) = 7.05496 7.49155 7.27653
#
# Compressibility (1/GPa) = 0.01482006
#
# Stress axis : x y z
#
# Youngs Moduli (GPa) = 78.01728 95.96365 75.46860
#
# Poissons Ratio (x) = 0.49541 0.08318
# Poissons Ratio (y) = 0.40276 0.34488
# Poissons Ratio (z) = 0.08599 0.43853
#
# Static dielectric constant tensor:
#      x y z
#    x 4.119810 0.377330 -0.212040 
#    y 0.377330 4.299880 0.159370 
#    z -0.212040 0.159370 3.765720 
# 
# 
# High freq. dielectric constant tensor:
#      x y z
#    x 1.892400 0.002430 0.011090 
#    y 0.002430 1.912990 0.005110 
#    z 0.011090 0.005110 1.881060 
# 
# From -- ./inp_files/398689.got.cif
#   From: 2010.06.25/outbox.cif.g09.slc.cpg/sg2_200_cif.got.tgz:398689.got - 2010.06.27 13:26:56.
