data_PCOD8034437
_publ_section_title
;
Structure prediction by ZEFSAII (Michael W. Deem and Ramdas Pophale) SiO2 
 PCOD8034437
Probable space group: P -1
;
_chemical_formula_sum "Si O2"
_cell_formula_units_Z 12
_cell_length_a 5.456038
_cell_length_b 22.807978
_cell_length_c 9.914356
_cell_angle_alpha 28.079100
_cell_angle_beta 65.315810
_cell_angle_gamma 71.473733
_cell_volume 523.927961
_symmetry_space_group_name_H-M "P -1"
_symmetry_group_IT_number 2
_symmetry_cell_setting 'triclinic'
loop_
_space_group_symop_operation_xyz
x,y,z
-x,-y,-z
loop_
_atom_site_type_symbol
_atom_site_label
_atom_site_fract_x
_atom_site_fract_y
_atom_site_fract_z
Si Si1 0.183846 0.265211 0.813871
Si Si2 0.097716 0.279707 0.351072
Si Si3 0.444782 0.526042 0.113500
Si Si4 0.128321 0.755227 0.796560
Si Si5 0.244277 0.818898 0.151871
Si Si6 0.405918 0.062510 0.759727
O O1 0.315959 0.404259 0.467460
O O2 0.433703 0.183433 0.944681
O O3 0.954035 0.210523 0.870761
O O4 0.035801 0.273032 0.973334
O O5 0.257846 0.181733 0.598655
O O6 0.059836 0.214429 0.346709
O O7 0.832847 0.282671 0.502122
O O8 0.259497 0.417556 0.011945
O O9 0.500000 0.500000 0.000000
O O10 0.245989 0.631119 0.967158
O O11 0.346973 0.877460 0.515155
O O12 0.216117 0.959674 0.924886
O O13 0.500000 0.000000 0.000000
#
# Coordination Sequence:
#
# PCOD8034437 Si02
#       6
#     2   2   2   2   2   2
#     4  12  29  46  71 109 151 186 234 297 364 423
#     4  11  24  44  76 102 139 189 247 294 352 421
#     4  11  24  46  75 103 141 189 243 294 349 431
#     4  11  27  45  71 107 142 189 236 300 361 418
#     4  12  26  46  73 104 145 191 239 288 354 432
#     4  11  24  45  75 105 141 188 246 296 350 422
#
# _framework density 22.903911000000001
#
# number of rings (size 3 to 8) (size 9 to 14) (size 15 to 20)
#    0.000    0.667    3.333    3.000    9.333    3.333 
#    0.000    0.000    0.000    0.000    0.000    0.000 
#    0.000    0.000    0.000    0.000    0.000    0.000 
#
# Total GULP energy -148715.800028 kJ/mol
# GULP energy per Si atom -12392.983336 kJ/mol
# Density = 2.285178 g / cm^3
# Si number density = 22.903911 Si / 1000 Ang^3
#
#
#
# Elastic Constant Matrix: (Units=GPa)
#
#
# Indices 1 2 3 4 5 6 
#
# 1 98.8940 43.3062 13.8851 6.1402 -20.7821 16.4128
# 2 43.3062 138.8846 40.3974 29.6620 -16.0741 7.4304
# 3 13.8851 40.3974 77.0044 20.3269 -21.4614 -12.8362
# 4 6.1402 29.6620 20.3269 52.6505 -1.3811 -2.8124
# 5 -20.7821 -16.0741 -21.4614 -1.3811 40.5270 -0.4456
# 6 16.4128 7.4304 -12.8362 -2.8124 -0.4456 32.2819
#
#
#
# Elastic Compliance Matrix: (Units=1/GPa)
#
#
# Indices 1 2 3 4 5 6 
#
# 1 0.013784 -0.003261 -0.000323 0.000163 0.005540 -0.006295
# 2 -0.003261 0.010483 -0.004313 -0.004010 0.000034 -0.002819
# 3 -0.000323 -0.004313 0.020564 -0.004754 0.008951 0.009044
# 4 0.000163 -0.004010 -0.004754 0.023032 -0.003229 0.000912
# 5 0.005540 0.000034 0.008951 -0.003229 0.032169 0.000897
# 6 -0.006295 -0.002819 0.009044 0.000912 0.000897 0.038514
#
#
# Mechanical properties :
#
#
# Convention : Reuss Voigt Hill
#
# Bulk Modulus (GPa) = 34.43982 56.66228 45.55105
# Shear Modulus (GPa) = 30.48386 39.57149 35.02768
#
# Velocity S-wave (km/s) = 3.65217 4.16109 3.91491
# Velocity P-wave (km/s) = 5.73182 6.91947 6.35346
#
# Compressibility (1/GPa) = 0.02903616
#
# Stress axis : x y z
#
# Youngs Moduli (GPa) = 72.54725 95.39446 48.62771
#
# Poissons Ratio (x) = 0.31108 0.01572
# Poissons Ratio (y) = 0.23657 0.20975
# Poissons Ratio (z) = 0.02345 0.41147
#
# Static dielectric constant tensor:
#      x y z
#    x 4.460360 -0.063850 -0.422930 
#    y -0.063850 4.090210 -0.097310 
#    z -0.422930 -0.097310 4.566490 
# 
# 
# High freq. dielectric constant tensor:
#      x y z
#    x 1.914370 -0.001840 -0.018330 
#    y -0.001840 1.899540 -0.006340 
#    z -0.018330 -0.006340 1.917150 
# 
# From -- ./inp_files/19169.got.cif
#   From: 2010.06.25/outbox.cif.g09.slc.cpg/sg2_10_cif.got.tgz:19169.got - 2010.06.27 13:26:56.
