data_PCOD8034013
_publ_section_title
;
Structure prediction by ZEFSAII (Michael W. Deem and Ramdas Pophale) SiO2 
 PCOD8034013
Probable space group: P -1
;
_chemical_formula_sum "Si O2"
_cell_formula_units_Z 16
_cell_length_a 12.634083
_cell_length_b 22.030040
_cell_length_c 9.270063
_cell_angle_alpha 45.243836
_cell_angle_beta 35.751806
_cell_angle_gamma 28.885654
_cell_volume 728.027992
_symmetry_space_group_name_H-M "P -1"
_symmetry_group_IT_number 2
_symmetry_cell_setting 'triclinic'
loop_
_space_group_symop_operation_xyz
x,y,z
-x,-y,-z
loop_
_atom_site_type_symbol
_atom_site_label
_atom_site_fract_x
_atom_site_fract_y
_atom_site_fract_z
Si Si1 0.731186 0.132514 0.518310
Si Si2 0.006323 0.174217 0.974835
Si Si3 0.379242 0.283414 0.926417
Si Si4 0.257473 0.946093 0.885626
Si Si5 0.828447 0.575547 0.700693
Si Si6 0.839633 0.471657 0.327745
Si Si7 0.576212 0.428161 0.885097
Si Si8 0.431546 0.159773 0.546871
O O1 0.497203 0.215033 0.756271
O O2 0.638167 0.103072 0.541822
O O3 0.000000 0.000000 0.500000
O O4 0.799947 0.204986 0.267114
O O5 0.198719 0.177695 0.831392
O O6 0.840820 0.280522 0.858845
O O7 0.183167 0.038948 0.935398
O O8 0.339137 0.400351 0.781818
O O9 0.578513 0.187278 0.995175
O O10 0.081949 0.345508 0.176841
O O11 0.430556 0.931712 0.592353
O O12 0.000000 0.000000 0.000000
O O13 0.657507 0.718065 0.618333
O O14 0.000000 0.500000 0.500000
O O15 0.019244 0.521243 0.715796
O O16 0.652682 0.552156 0.958252
O O17 0.639220 0.472850 0.614244
O O18 0.500000 0.500000 0.000000
#
# Coordination Sequence:
#
# PCOD8034013 Si02
#       8
#     2   2   2   2   2   2   2   2
#     4  12  24  45  67  98 142 183 231 288 350 409
#     4  12  24  41  73 104 132 182 237 289 346 415
#     4  11  24  45  68  99 147 186 222 292 356 412
#     4  12  22  45  73 100 137 186 233 289 346 418
#     4  12  21  39  69 101 131 175 226 285 346 405
#     4  11  24  43  69  98 145 181 225 291 355 410
#     4  12  22  41  70 106 135 173 240 287 342 419
#     4  12  24  43  71  99 134 178 240 286 344 416
#
# _framework density 21.977177999999999
#
# number of rings (size 3 to 8) (size 9 to 14) (size 15 to 20)
#    0.000    0.250    7.500    1.875    0.000    0.500 
#    0.000    3.750    5.500    0.000    0.000    0.000 
#    0.000    0.000    0.000    0.000    0.000    0.000 
#
# Total GULP energy -198369.777993 kJ/mol
# GULP energy per Si atom -12398.111125 kJ/mol
# Density = 2.192716 g / cm^3
# Si number density = 21.977178 Si / 1000 Ang^3
#
#
#
# Elastic Constant Matrix: (Units=GPa)
#
#
# Indices 1 2 3 4 5 6 
#
# 1 99.7772 28.9783 56.6868 -3.3302 -12.0001 -4.3712
# 2 28.9783 114.0973 31.9698 2.3376 6.3307 -11.2613
# 3 56.6868 31.9698 167.8770 7.9275 -10.7409 9.8901
# 4 -3.3302 2.3376 7.9275 38.2002 10.2716 10.1592
# 5 -12.0001 6.3307 -10.7409 10.2716 49.4448 4.4600
# 6 -4.3712 -11.2613 9.8901 10.1592 4.4600 33.5756
#
#
#
# Elastic Compliance Matrix: (Units=1/GPa)
#
#
# Indices 1 2 3 4 5 6 
#
# 1 0.013377 -0.002248 -0.004088 0.001129 0.002272 0.001548
# 2 -0.002248 0.010348 -0.001568 -0.000994 -0.002389 0.004258
# 3 -0.004088 -0.001568 0.007991 -0.001491 0.001540 -0.003165
# 4 0.001129 -0.000994 -0.001491 0.030297 -0.005478 -0.008187
# 5 0.002272 -0.002389 0.001540 -0.005478 0.022764 -0.002325
# 6 0.001548 0.004258 -0.003165 -0.008187 -0.002325 0.035132
#
#
# Mechanical properties :
#
#
# Convention : Reuss Voigt Hill
#
# Bulk Modulus (GPa) = 62.86575 68.55795 65.71185
# Shear Modulus (GPa) = 35.45620 41.85191 38.65405
#
# Velocity S-wave (km/s) = 4.02097 4.36860 4.19839
# Velocity P-wave (km/s) = 7.08694 7.53054 7.31211
#
# Compressibility (1/GPa) = 0.01590691
#
# Stress axis : x y z
#
# Youngs Moduli (GPa) = 74.75780 96.63641 125.13884
#
# Poissons Ratio (x) = 0.21728 0.51155
# Poissons Ratio (y) = 0.16808 0.19624
# Poissons Ratio (z) = 0.30560 0.15154
#
# Static dielectric constant tensor:
#      x y z
#    x 3.900180 -0.002510 0.142280 
#    y -0.002510 4.154120 0.186760 
#    z 0.142280 0.186760 4.604290 
# 
# 
# High freq. dielectric constant tensor:
#      x y z
#    x 1.845680 -0.007570 0.009140 
#    y -0.007570 1.874490 0.011580 
#    z 0.009140 0.011580 1.882950 
# 
# From -- ./inp_files/282837.got.cif
#   From: 2010.06.25/outbox.cif.g09.slc.cpg/sg2_142_cif.got.tgz:282837.got - 2010.06.27 13:26:56.
