data_PCOD8034184
_publ_section_title
;
Structure prediction by ZEFSAII (Michael W. Deem and Ramdas Pophale) SiO2 
 PCOD8034184
Probable space group: P -1
;
_chemical_formula_sum "Si O2"
_cell_formula_units_Z 14
_cell_length_a 20.896164
_cell_length_b 20.382986
_cell_length_c 8.302514
_cell_angle_alpha 146.428124
_cell_angle_beta 149.189019
_cell_angle_gamma 20.692684
_cell_volume 631.334118
_symmetry_space_group_name_H-M "P -1"
_symmetry_group_IT_number 2
_symmetry_cell_setting 'triclinic'
loop_
_space_group_symop_operation_xyz
x,y,z
-x,-y,-z
loop_
_atom_site_type_symbol
_atom_site_label
_atom_site_fract_x
_atom_site_fract_y
_atom_site_fract_z
Si Si1 0.136214 0.016708 0.346804
Si Si2 0.096969 0.074792 0.742713
Si Si3 0.482504 0.641431 0.174998
Si Si4 0.252675 0.367481 0.394396
Si Si5 0.408213 0.992047 0.425064
Si Si6 0.688203 0.299742 0.411999
Si Si7 0.159529 0.240463 0.681915
O O1 0.113920 0.092308 0.627330
O O2 0.099727 0.148893 0.409832
O O3 0.359465 0.810208 0.379656
O O4 0.000000 0.000000 0.000000
O O5 0.865628 0.258882 0.667083
O O6 0.203573 0.869356 0.577286
O O7 0.208341 0.084483 0.114471
O O8 0.691143 0.557317 0.437513
O O9 0.500000 0.500000 0.000000
O O10 0.376660 0.715285 0.923772
O O11 0.423740 0.227015 0.610770
O O12 0.039829 0.549935 0.387845
O O13 0.241524 0.253793 0.037882
O O14 0.500000 0.000000 0.500000
O O15 0.334685 0.119715 0.682315
O O16 0.500000 0.500000 0.500000
#
# Coordination Sequence:
#
# PCOD8034184 Si02
#       7
#     2   2   2   2   2   2   2
#     4  12  23  44  73 101 139 183 236 289 351 424
#     4  11  25  42  66 103 136 180 233 283 350 417
#     4  12  24  43  71 105 139 185 234 287 351 420
#     4  11  25  47  71 100 142 183 241 289 345 424
#     4  12  26  46  72 100 142 186 234 290 359 419
#     4  11  24  44  66  99 143 178 222 290 352 415
#     4  11  26  47  72 101 140 186 237 295 348 422
#
# _framework density 22.175263000000001
#
# number of rings (size 3 to 8) (size 9 to 14) (size 15 to 20)
#    0.000    0.571    4.286    3.000    6.000    0.571 
#    0.000    0.000    0.000    0.000    0.000    0.000 
#    0.000    0.000    0.000    0.000    0.000    0.000 
#
# Total GULP energy -173544.437674 kJ/mol
# GULP energy per Si atom -12396.031262 kJ/mol
# Density = 2.212479 g / cm^3
# Si number density = 22.175263 Si / 1000 Ang^3
#
#
#
# Elastic Constant Matrix: (Units=GPa)
#
#
# Indices 1 2 3 4 5 6 
#
# 1 131.3777 56.7805 26.4364 9.9753 8.1402 -13.4385
# 2 56.7805 143.2558 25.9788 0.5018 -0.0759 -24.2490
# 3 26.4364 25.9788 86.0833 -4.5002 18.0463 2.5260
# 4 9.9753 0.5018 -4.5002 36.7390 -0.1463 0.8580
# 5 8.1402 -0.0759 18.0463 -0.1463 35.6857 -1.2316
# 6 -13.4385 -24.2490 2.5260 0.8580 -1.2316 30.9581
#
#
#
# Elastic Compliance Matrix: (Units=1/GPa)
#
#
# Indices 1 2 3 4 5 6 
#
# 1 0.009910 -0.003212 -0.002039 -0.002948 -0.001180 0.001987
# 2 -0.003212 0.009858 -0.002657 0.000267 0.002327 0.006629
# 3 -0.002039 -0.002657 0.014812 0.002481 -0.007177 -0.004529
# 4 -0.002948 0.000267 0.002481 0.028366 -0.000537 -0.002081
# 5 -0.001180 0.002327 -0.007177 -0.000537 0.032034 0.003186
# 6 0.001987 0.006629 -0.004529 -0.002081 0.003186 0.038911
#
#
# Mechanical properties :
#
#
# Convention : Reuss Voigt Hill
#
# Bulk Modulus (GPa) = 53.29486 64.34535 58.82010
# Shear Modulus (GPa) = 32.05901 37.44465 34.75183
#
# Velocity S-wave (km/s) = 3.80638 4.11369 3.96301
# Velocity P-wave (km/s) = 6.58814 7.18630 6.89371
#
# Compressibility (1/GPa) = 0.01876353
#
# Stress axis : x y z
#
# Youngs Moduli (GPa) = 100.90344 101.44070 67.51301
#
# Poissons Ratio (x) = 0.32585 0.13767
# Poissons Ratio (y) = 0.32412 0.17938
# Poissons Ratio (z) = 0.20576 0.26953
#
# Static dielectric constant tensor:
#      x y z
#    x 4.143980 -0.116600 0.127220 
#    y -0.116600 4.073850 -0.075270 
#    z 0.127220 -0.075270 4.151370 
# 
# 
# High freq. dielectric constant tensor:
#      x y z
#    x 1.873640 -0.012230 0.006870 
#    y -0.012230 1.882110 -0.009130 
#    z 0.006870 -0.009130 1.872430 
# 
# From -- ./inp_files/266096.got.cif
#   From: 2010.06.25/outbox.cif.g09.slc.cpg/sg2_134_cif.got.tgz:266096.got - 2010.06.27 13:26:56.
