data_PCOD8034828
_publ_section_title
;
Structure prediction by ZEFSAII (Michael W. Deem and Ramdas Pophale) SiO2 
 PCOD8034828
Probable space group: P -1
;
_chemical_formula_sum "Si O2"
_cell_formula_units_Z 14
_cell_length_a 8.311626
_cell_length_b 14.466312
_cell_length_c 14.841634
_cell_angle_alpha 27.321352
_cell_angle_beta 96.756497
_cell_angle_gamma 112.988775
_cell_volume 633.289430
_symmetry_space_group_name_H-M "P -1"
_symmetry_group_IT_number 2
_symmetry_cell_setting 'triclinic'
loop_
_space_group_symop_operation_xyz
x,y,z
-x,-y,-z
loop_
_atom_site_type_symbol
_atom_site_label
_atom_site_fract_x
_atom_site_fract_y
_atom_site_fract_z
Si Si1 0.988031 0.194814 0.713654
Si Si2 0.144672 0.498974 0.289494
Si Si3 0.450049 0.122263 0.117200
Si Si4 0.640787 0.577525 0.027371
Si Si5 0.895562 0.665626 0.201439
Si Si6 0.048851 0.049163 0.566062
Si Si7 0.499818 0.224245 0.471621
O O1 0.155548 0.387310 0.481912
O O2 0.052046 0.343590 0.683624
O O3 0.765460 0.112346 0.740242
O O4 0.982580 0.950173 0.932678
O O5 0.037940 0.273526 0.401871
O O6 0.005487 0.589738 0.209566
O O7 0.376291 0.742384 0.065930
O O8 0.431568 0.326256 0.982910
O O9 0.507285 0.014953 0.294878
O O10 0.500000 0.500000 0.000000
O O11 0.597887 0.326979 0.288079
O O12 0.880705 0.788166 0.835984
O O13 0.646485 0.459630 0.348715
O O14 0.268590 0.130672 0.538420
O O15 0.000000 0.000000 0.500000
#
# Coordination Sequence:
#
# PCOD8034828 Si02
#       7
#     2   2   2   2   2   2   2
#     4  11  24  47  69  99 146 176 235 283 340 401
#     4  12  24  44  71  99 141 182 227 284 339 406
#     4  12  26  42  68 104 137 184 225 282 339 408
#     4  12  24  48  70  95 139 179 225 290 342 399
#     4  11  24  46  72 101 136 188 225 287 343 400
#     4  12  24  47  72 100 134 180 227 284 342 405
#     4  12  25  44  69 100 138 174 232 276 344 407
#
# _framework density 22.106795000000002
#
# number of rings (size 3 to 8) (size 9 to 14) (size 15 to 20)
#    0.000    0.286    7.143    0.429    4.000    1.143 
#    2.571    3.571    0.000    0.000    0.000    0.000 
#    0.000    0.000    0.000    0.000    0.000    0.000 
#
# Total GULP energy -173639.142671 kJ/mol
# GULP energy per Si atom -12402.795905 kJ/mol
# Density = 2.205648 g / cm^3
# Si number density = 22.106795 Si / 1000 Ang^3
#
#
#
# Elastic Constant Matrix: (Units=GPa)
#
#
# Indices 1 2 3 4 5 6 
#
# 1 116.6684 64.4592 54.6028 11.4486 -19.9472 7.4661
# 2 64.4592 152.2807 41.7410 12.8329 -10.6983 14.8094
# 3 54.6028 41.7410 148.6436 36.7054 -26.0140 8.0284
# 4 11.4486 12.8329 36.7054 36.0412 3.9364 1.0293
# 5 -19.9472 -10.6983 -26.0140 3.9364 37.6369 -1.0008
# 6 7.4661 14.8094 8.0284 1.0293 -1.0008 38.4681
#
#
#
# Elastic Compliance Matrix: (Units=1/GPa)
#
#
# Indices 1 2 3 4 5 6 
#
# 1 0.013009 -0.004449 -0.002887 -0.000001 0.003631 -0.000115
# 2 -0.004449 0.008908 -0.000444 -0.001229 -0.000069 -0.002442
# 3 -0.002887 -0.000444 0.012536 -0.012559 0.008287 -0.001333
# 4 -0.000001 -0.001229 -0.012559 0.042395 -0.013422 0.001611
# 5 0.003631 -0.000069 0.008287 -0.013422 0.035576 -0.001123
# 6 -0.000115 -0.002442 -0.001333 0.001611 -0.001123 0.027164
#
#
# Mechanical properties :
#
#
# Convention : Reuss Voigt Hill
#
# Bulk Modulus (GPa) = 52.92945 82.13319 67.53132
# Shear Modulus (GPa) = 30.97021 39.54856 35.25938
#
# Velocity S-wave (km/s) = 3.74697 4.23422 3.99802
# Velocity P-wave (km/s) = 6.53562 7.81910 7.20599
#
# Compressibility (1/GPa) = 0.01889307
#
# Stress axis : x y z
#
# Youngs Moduli (GPa) = 76.87033 112.26064 79.76797
#
# Poissons Ratio (x) = 0.49942 0.23033
# Poissons Ratio (y) = 0.34197 0.03540
# Poissons Ratio (z) = 0.22196 0.04982
#
# Static dielectric constant tensor:
#      x y z
#    x 3.378510 -0.656690 -0.478130 
#    y -0.656690 3.144220 -0.595520 
#    z -0.478130 -0.595520 3.952620 
# 
# 
# High freq. dielectric constant tensor:
#      x y z
#    x 1.860750 0.010600 0.002310 
#    y 0.010600 1.871590 0.007500 
#    z 0.002310 0.007500 1.894910 
# 
# From -- ./inp_files/503663.got.cif
#   From: 2010.06.25/outbox.cif.g09.slc.cpg/sg2_252_cif.got.tgz:503663.got - 2010.06.27 13:26:56.
