data_PCOD8034509
_publ_section_title
;
Structure prediction by ZEFSAII (Michael W. Deem and Ramdas Pophale) SiO2 
 PCOD8034509
Probable space group: P -1
;
_chemical_formula_sum "Si O2"
_cell_formula_units_Z 14
_cell_length_a 15.767789
_cell_length_b 4.903025
_cell_length_c 8.982042
_cell_angle_alpha 97.886972
_cell_angle_beta 59.256173
_cell_angle_gamma 110.660707
_cell_volume 557.622888
_symmetry_space_group_name_H-M "P -1"
_symmetry_group_IT_number 2
_symmetry_cell_setting 'triclinic'
loop_
_space_group_symop_operation_xyz
x,y,z
-x,-y,-z
loop_
_atom_site_type_symbol
_atom_site_label
_atom_site_fract_x
_atom_site_fract_y
_atom_site_fract_z
Si Si1 0.456428 0.996116 0.703669
Si Si2 0.813139 0.387524 0.473618
Si Si3 0.951660 0.019733 0.386626
Si Si4 0.633719 0.620259 0.999355
Si Si5 0.232784 0.632514 0.814303
Si Si6 0.846276 0.889855 0.971790
Si Si7 0.381657 0.929202 0.188531
O O1 0.349147 0.718492 0.788690
O O2 0.500000 0.000000 0.500000
O O3 0.542938 0.952070 0.730992
O O4 0.427223 0.284558 0.801224
O O5 0.912997 0.295832 0.421230
O O6 0.759443 0.261541 0.355126
O O7 0.729687 0.284360 0.671275
O O8 0.850668 0.733405 0.440408
O O9 0.037924 0.052727 0.185771
O O10 0.000000 0.000000 0.500000
O O11 0.756516 0.687144 0.927968
O O12 0.578606 0.274612 0.978335
O O13 0.628984 0.796358 0.867239
O O14 0.171286 0.288289 0.868749
O O15 0.166435 0.797655 0.975040
#
# Coordination Sequence:
#
# PCOD8034509 Si02
#       7
#     2   2   2   2   2   2   2
#     4  11  24  47  71 104 142 184 230 286 347 412
#     4  12  25  43  70 101 138 176 231 281 340 410
#     4  12  26  44  69 100 131 181 228 285 344 405
#     4  11  25  45  71 103 138 187 233 282 347 409
#     4  11  25  45  67 102 134 183 222 280 353 410
#     4  11  24  45  69  96 143 175 227 287 342 408
#     4  12  24  46  70 103 143 184 231 288 338 412
#
# _framework density 25.106573000000001
#
# number of rings (size 3 to 8) (size 9 to 14) (size 15 to 20)
#    0.000    0.571    1.429    7.286    0.000    5.714 
#    0.000    7.143    0.000    0.000    0.000    0.000 
#    0.000    0.000    0.000    0.000    0.000    0.000 
#
# Total GULP energy -173639.743418 kJ/mol
# GULP energy per Si atom -12402.838816 kJ/mol
# Density = 2.504943 g / cm^3
# Si number density = 25.106573 Si / 1000 Ang^3
#
#
#
# Elastic Constant Matrix: (Units=GPa)
#
#
# Indices 1 2 3 4 5 6 
#
# 1 100.4174 5.0759 26.3907 1.9637 6.6267 -1.8205
# 2 5.0759 66.8876 -5.2586 -1.2625 6.7701 -9.9320
# 3 26.3907 -5.2586 110.2638 5.0940 -14.8558 2.0625
# 4 1.9637 -1.2625 5.0940 29.8064 7.6092 7.3472
# 5 6.6267 6.7701 -14.8558 7.6092 41.6019 2.3016
# 6 -1.8205 -9.9320 2.0625 7.3472 2.3016 36.0371
#
#
#
# Elastic Compliance Matrix: (Units=1/GPa)
#
#
# Indices 1 2 3 4 5 6 
#
# 1 0.010993 -0.000685 -0.003073 0.000334 -0.002834 0.000655
# 2 -0.000685 0.015970 0.000482 0.000203 -0.002602 0.004464
# 3 -0.003073 0.000482 0.010594 -0.002696 0.004708 -0.000380
# 4 0.000334 0.000203 -0.002696 0.037641 -0.007548 -0.006965
# 5 -0.002834 -0.002602 0.004708 -0.007548 0.028051 -0.001382
# 6 0.000655 0.004464 -0.000380 -0.006965 -0.001382 0.030543
#
#
# Mechanical properties :
#
#
# Convention : Reuss Voigt Hill
#
# Bulk Modulus (GPa) = 32.25348 36.66496 34.45922
# Shear Modulus (GPa) = 33.18304 38.24645 35.71474
#
# Velocity S-wave (km/s) = 3.63945 3.90726 3.77573
# Velocity P-wave (km/s) = 5.52587 5.91532 5.72391
#
# Compressibility (1/GPa) = 0.03100440
#
# Stress axis : x y z
#
# Youngs Moduli (GPa) = 90.96541 62.61581 94.39551
#
# Poissons Ratio (x) = 0.04291 0.29011
# Poissons Ratio (y) = 0.06234 -0.04553
# Poissons Ratio (z) = 0.27957 -0.03020
#
# Static dielectric constant tensor:
#      x y z
#    x 4.693090 0.099560 0.041850 
#    y 0.099560 4.525040 -0.032210 
#    z 0.041850 -0.032210 4.652610 
# 
# 
# High freq. dielectric constant tensor:
#      x y z
#    x 2.017880 0.000300 0.005300 
#    y 0.000300 2.000680 -0.009870 
#    z 0.005300 -0.009870 2.009240 
# 
# From -- ./inp_files/288767.got.cif
#   From: 2010.06.25/outbox.cif.g09.slc.cpg/sg2_145_cif.got.tgz:288767.got - 2010.06.27 13:26:56.
