data_PCOD8034578
_publ_section_title
;
Structure prediction by ZEFSAII (Michael W. Deem and Ramdas Pophale) SiO2 
 PCOD8034578
Probable space group: P -1
;
_chemical_formula_sum "Si O2"
_cell_formula_units_Z 16
_cell_length_a 8.015416
_cell_length_b 18.172632
_cell_length_c 11.243075
_cell_angle_alpha 133.752167
_cell_angle_beta 144.511583
_cell_angle_gamma 54.864898
_cell_volume 686.450710
_symmetry_space_group_name_H-M "P -1"
_symmetry_group_IT_number 2
_symmetry_cell_setting 'triclinic'
loop_
_space_group_symop_operation_xyz
x,y,z
-x,-y,-z
loop_
_atom_site_type_symbol
_atom_site_label
_atom_site_fract_x
_atom_site_fract_y
_atom_site_fract_z
Si Si1 0.449476 0.253577 0.417017
Si Si2 0.739960 0.561751 0.359426
Si Si3 0.270078 0.425948 0.909956
Si Si4 0.974809 0.837065 0.321669
Si Si5 0.998652 0.907757 0.987081
Si Si6 0.838106 0.998701 0.224263
Si Si7 0.413512 0.729504 0.932904
Si Si8 0.649818 0.388044 0.474547
O O1 0.241576 0.322650 0.457358
O O2 0.304517 0.143460 0.212503
O O3 0.466113 0.309029 0.358559
O O4 0.757430 0.237579 0.641572
O O5 0.763581 0.551465 0.222215
O O6 0.000000 0.500000 0.500000
O O7 0.422193 0.521950 0.169197
O O8 0.946731 0.403231 0.738202
O O9 0.498270 0.334366 0.969820
O O10 0.067531 0.887245 0.557998
O O11 0.904874 0.924726 0.287620
O O12 0.702897 0.768962 0.090840
O O13 0.220056 0.823248 0.972244
O O14 0.060292 0.963115 0.209370
O O15 0.000000 0.000000 0.000000
O O16 0.500000 0.000000 0.000000
O O17 0.282548 0.660949 0.672796
O O18 0.500000 0.500000 0.500000
#
# Coordination Sequence:
#
# PCOD8034578 Si02
#       8
#     2   2   2   2   2   2   2   2
#     4  12  25  46  74 107 143 199 245 300 370 435
#     4  11  25  46  72 105 152 190 245 305 375 438
#     4  11  24  45  71 106 147 194 241 306 367 443
#     4  11  26  44  75 104 141 192 246 301 362 447
#     4  12  28  46  78 106 150 195 240 309 373 437
#     4  11  24  49  72 101 144 186 244 304 367 430
#     4  12  27  46  71 110 147 190 247 302 371 438
#     4  12  27  47  76 107 153 196 250 306 362 440
#
# _framework density 23.308302000000001
#
# number of rings (size 3 to 8) (size 9 to 14) (size 15 to 20)
#    0.000    0.500    2.500    5.250    7.000    3.500 
#    0.000    0.000    0.000    0.000    0.000    0.000 
#    0.000    0.000    0.000    0.000    0.000    0.000 
#
# Total GULP energy -198242.576306 kJ/mol
# GULP energy per Si atom -12390.161019 kJ/mol
# Density = 2.325525 g / cm^3
# Si number density = 23.308302 Si / 1000 Ang^3
#
#
#
# Elastic Constant Matrix: (Units=GPa)
#
#
# Indices 1 2 3 4 5 6 
#
# 1 58.6145 29.7747 27.9748 -6.4574 1.7351 -0.1535
# 2 29.7747 145.5204 44.5812 -14.4650 0.3299 -2.4226
# 3 27.9748 44.5812 110.8686 -6.6818 2.4007 5.3180
# 4 -6.4574 -14.4650 -6.6818 37.8445 2.0034 4.5124
# 5 1.7351 0.3299 2.4007 2.0034 34.6524 7.1822
# 6 -0.1535 -2.4226 5.3180 4.5124 7.1822 53.1362
#
#
#
# Elastic Compliance Matrix: (Units=1/GPa)
#
#
# Indices 1 2 3 4 5 6 
#
# 1 0.020601 -0.002823 -0.003952 0.001750 -0.000894 0.000299
# 2 -0.002823 0.008471 -0.002580 0.002247 0.000018 0.000443
# 3 -0.003952 -0.002580 0.011149 0.000473 -0.000320 -0.001242
# 4 0.001750 0.002247 0.000473 0.027989 -0.001317 -0.002139
# 5 -0.000894 0.000018 -0.000320 -0.001317 0.029807 -0.003887
# 6 0.000299 0.000443 -0.001242 -0.002139 -0.003887 0.019672
#
#
# Mechanical properties :
#
#
# Convention : Reuss Voigt Hill
#
# Bulk Modulus (GPa) = 46.49043 57.74055 52.11549
# Shear Modulus (GPa) = 34.82611 39.30479 37.06545
#
# Velocity S-wave (km/s) = 3.86962 4.11091 3.99209
# Velocity P-wave (km/s) = 6.32095 6.88180 6.60733
#
# Compressibility (1/GPa) = 0.02150980
#
# Stress axis : x y z
#
# Youngs Moduli (GPa) = 48.54083 118.05509 89.69111
#
# Poissons Ratio (x) = 0.33332 0.35449
# Poissons Ratio (y) = 0.13705 0.23140
# Poissons Ratio (z) = 0.19185 0.30457
#
# Static dielectric constant tensor:
#      x y z
#    x 4.276880 0.064290 0.125090 
#    y 0.064290 4.551010 0.490350 
#    z 0.125090 0.490350 5.086090 
# 
# 
# High freq. dielectric constant tensor:
#      x y z
#    x 1.919430 0.005300 0.007320 
#    y 0.005300 1.941540 0.006180 
#    z 0.007320 0.006180 1.932060 
# 
# From -- ./inp_files/403298.got.cif
#   From: 2010.06.25/outbox.cif.g09.slc.cpg/sg2_202_cif.got.tgz:403298.got - 2010.06.27 13:26:56.
