data_PCOD8034360
_publ_section_title
;
Structure prediction by ZEFSAII (Michael W. Deem and Ramdas Pophale) SiO2 
 PCOD8034360
Probable space group: P -1
;
_chemical_formula_sum "Si O2"
_cell_formula_units_Z 16
_cell_length_a 25.070841
_cell_length_b 8.940748
_cell_length_c 8.702907
_cell_angle_alpha 48.924646
_cell_angle_beta 30.449498
_cell_angle_gamma 49.448460
_cell_volume 727.152407
_symmetry_space_group_name_H-M "P -1"
_symmetry_group_IT_number 2
_symmetry_cell_setting 'triclinic'
loop_
_space_group_symop_operation_xyz
x,y,z
-x,-y,-z
loop_
_atom_site_type_symbol
_atom_site_label
_atom_site_fract_x
_atom_site_fract_y
_atom_site_fract_z
Si Si1 0.542351 0.433480 0.164365
Si Si2 0.113180 0.551594 0.722584
Si Si3 0.827242 0.259679 0.077383
Si Si4 0.715345 0.492841 0.929018
Si Si5 0.369385 0.751761 0.227704
Si Si6 0.829785 0.656010 0.963117
Si Si7 0.030060 0.010975 0.596462
Si Si8 0.374638 0.185349 0.821919
O O1 0.450820 0.639960 0.232216
O O2 0.484943 0.246311 0.459258
O O3 0.611738 0.450775 0.128992
O O4 0.620343 0.395629 0.847189
O O5 0.189400 0.481166 0.436903
O O6 0.098192 0.792689 0.629595
O O7 0.168555 0.421669 0.815296
O O8 0.000000 0.500000 0.000000
O O9 0.752890 0.202843 0.436842
O O10 0.757465 0.304017 0.065275
O O11 0.870380 0.461134 0.882199
O O12 0.924652 0.069582 0.927366
O O13 0.681011 0.699779 0.967871
O O14 0.405002 0.951953 0.949653
O O15 0.903409 0.817965 0.653037
O O16 0.707403 0.766592 0.150603
O O17 0.000000 0.000000 0.500000
#
# Coordination Sequence:
#
# PCOD8034360 Si02
#       8
#     2   2   2   2   2   2   2   2
#     4  11  24  48  68  99 140 176 227 286 334 398
#     4  12  26  46  70 104 139 179 227 284 340 404
#     4  11  24  47  67 103 139 180 229 283 339 407
#     4  11  24  44  72  98 144 177 224 287 334 395
#     4  11  25  44  71  98 137 175 234 271 348 402
#     4  11  25  45  70  98 140 182 227 282 340 403
#     4  12  25  44  71 101 137 183 227 280 343 406
#     4  11  26  45  69 101 136 182 225 282 339 407
#
# _framework density 22.003637999999999
#
# number of rings (size 3 to 8) (size 9 to 14) (size 15 to 20)
#    0.000    0.750    5.000    1.875    7.000    2.000 
#    0.000    0.000    0.000    0.000    0.000    0.000 
#    0.000    0.000    0.000    0.000    0.000    0.000 
#
# Total GULP energy -198462.111236 kJ/mol
# GULP energy per Si atom -12403.881952 kJ/mol
# Density = 2.195356 g / cm^3
# Si number density = 22.003638 Si / 1000 Ang^3
#
#
#
# Elastic Constant Matrix: (Units=GPa)
#
#
# Indices 1 2 3 4 5 6 
#
# 1 121.8851 25.4271 55.5622 -11.0904 -8.8972 0.1920
# 2 25.4271 82.0889 52.7827 -14.2999 5.5890 0.8487
# 3 55.5622 52.7827 141.7605 8.5853 5.5825 1.1038
# 4 -11.0904 -14.2999 8.5853 42.2094 6.3159 14.5972
# 5 -8.8972 5.5890 5.5825 6.3159 34.0374 -1.4800
# 6 0.1920 0.8487 1.1038 14.5972 -1.4800 20.8684
#
#
#
# Elastic Compliance Matrix: (Units=1/GPa)
#
#
# Indices 1 2 3 4 5 6 
#
# 1 0.010912 0.000315 -0.004749 0.004533 0.002614 -0.002848
# 2 0.000315 0.019759 -0.007974 0.012298 -0.004541 -0.009309
# 3 -0.004749 -0.007974 0.012354 -0.008356 -0.000167 0.005547
# 4 0.004533 0.012298 -0.008356 0.042603 -0.008696 -0.030517
# 5 0.002614 -0.004541 -0.000167 -0.008696 0.032823 0.008580
# 6 -0.002848 -0.009309 0.005547 -0.030517 0.008580 0.069985
#
#
# Mechanical properties :
#
#
# Convention : Reuss Voigt Hill
#
# Bulk Modulus (GPa) = 54.92026 68.14205 61.53116
# Shear Modulus (GPa) = 22.79754 33.55387 28.17570
#
# Velocity S-wave (km/s) = 3.22231 3.90926 3.58229
# Velocity P-wave (km/s) = 6.23364 7.17023 6.71827
#
# Compressibility (1/GPa) = 0.01820822
#
# Stress axis : x y z
#
# Youngs Moduli (GPa) = 91.64584 50.60931 80.94497
#
# Poissons Ratio (x) = -0.01595 0.38444
# Poissons Ratio (y) = -0.02888 0.64546
# Poissons Ratio (z) = 0.43526 0.40356
#
# Static dielectric constant tensor:
#      x y z
#    x 4.140420 -0.008880 0.029140 
#    y -0.008880 4.047050 0.055810 
#    z 0.029140 0.055810 4.063440 
# 
# 
# High freq. dielectric constant tensor:
#      x y z
#    x 1.874490 -0.002310 0.003690 
#    y -0.002310 1.863490 0.005580 
#    z 0.003690 0.005580 1.873690 
# 
# From -- ./inp_files/272140.got.cif
#   From: 2010.06.25/outbox.cif.g09.slc.cpg/sg2_137_cif.got.tgz:272140.got - 2010.06.27 13:26:56.
