data_PCOD8034327
_publ_section_title
;
Structure prediction by ZEFSAII (Michael W. Deem and Ramdas Pophale) SiO2 
 PCOD8034327
Probable space group: P -1
;
_chemical_formula_sum "Si O2"
_cell_formula_units_Z 12
_cell_length_a 9.992668
_cell_length_b 9.074541
_cell_length_c 15.830542
_cell_angle_alpha 120.885888
_cell_angle_beta 151.983364
_cell_angle_gamma 55.545841
_cell_volume 555.650190
_symmetry_space_group_name_H-M "P -1"
_symmetry_group_IT_number 2
_symmetry_cell_setting 'triclinic'
loop_
_space_group_symop_operation_xyz
x,y,z
-x,-y,-z
loop_
_atom_site_type_symbol
_atom_site_label
_atom_site_fract_x
_atom_site_fract_y
_atom_site_fract_z
Si Si1 0.659322 0.848872 0.479723
Si Si2 0.642008 0.847829 0.967446
Si Si3 0.102699 0.500319 0.699614
Si Si4 0.077328 0.848722 0.068754
Si Si5 0.939510 0.151513 0.440894
Si Si6 0.761584 0.505906 0.033342
O O1 0.417199 0.801686 0.271518
O O2 0.844395 0.672912 0.579561
O O3 0.873144 0.925549 0.561411
O O4 0.500000 0.000000 0.500000
O O5 0.404378 0.797356 0.759378
O O6 0.818054 0.672852 0.064757
O O7 0.867211 0.913302 0.051788
O O8 0.500000 0.000000 0.000000
O O9 0.112927 0.489335 0.802300
O O10 0.029383 0.325441 0.572065
O O11 0.414563 0.514814 0.841433
O O12 0.034881 0.669587 0.950708
O O13 0.000000 0.000000 0.000000
O O14 0.000000 0.000000 0.500000
#
# Coordination Sequence:
#
# PCOD8034327 Si02
#       6
#     2   2   2   2   2   2
#     4  12  24  44  69 101 135 177 230 278 338 404
#     4  12  26  44  69 103 139 178 225 282 342 401
#     4  11  24  44  72 100 133 186 224 282 341 402
#     4  12  26  44  69 103 139 178 225 282 342 401
#     4  12  24  44  69 101 135 177 230 278 338 404
#     4  11  24  45  70  99 139 177 232 277 343 401
#
# _framework density 21.596323000000002
#
# number of rings (size 3 to 8) (size 9 to 14) (size 15 to 20)
#    0.000    0.333    3.333    6.000    4.667    0.000 
#    0.000    2.500    0.000    0.000    0.000    0.000 
#    0.000    0.000    0.000    0.000    0.000    0.000 
#
# Total GULP energy -148868.434343 kJ/mol
# GULP energy per Si atom -12405.702862 kJ/mol
# Density = 2.154717 g / cm^3
# Si number density = 21.596323 Si / 1000 Ang^3
#
#
#
# Elastic Constant Matrix: (Units=GPa)
#
#
# Indices 1 2 3 4 5 6 
#
# 1 140.0301 81.5795 18.0513 -23.1213 -2.4941 22.3352
# 2 81.5795 172.4676 30.2181 -12.2555 -15.1632 13.5387
# 3 18.0513 30.2181 97.7901 -23.9338 -8.6075 17.1510
# 4 -23.1213 -12.2555 -23.9338 33.8329 1.3385 -5.1873
# 5 -2.4941 -15.1632 -8.6075 1.3385 34.2945 0.0446
# 6 22.3352 13.5387 17.1510 -5.1873 0.0446 46.9693
#
#
#
# Elastic Compliance Matrix: (Units=1/GPa)
#
#
# Indices 1 2 3 4 5 6 
#
# 1 0.011614 -0.005110 0.001651 0.006704 -0.001257 -0.003911
# 2 -0.005110 0.008666 -0.001991 -0.001812 0.003030 0.000456
# 3 0.001651 -0.001991 0.013786 0.009422 0.002338 -0.004207
# 4 0.006704 -0.001812 0.009422 0.039867 0.000498 -0.001704
# 5 -0.001257 0.003030 0.002338 0.000498 0.030976 -0.001104
# 6 -0.003911 0.000456 -0.004207 -0.001704 -0.001104 0.024368
#
#
# Mechanical properties :
#
#
# Convention : Reuss Voigt Hill
#
# Bulk Modulus (GPa) = 43.16621 74.44284 58.80452
# Shear Modulus (GPa) = 33.80690 41.71527 37.76109
#
# Velocity S-wave (km/s) = 3.96081 4.39976 4.18604
# Velocity P-wave (km/s) = 6.39910 7.76888 7.11702
#
# Compressibility (1/GPa) = 0.02316627
#
# Stress axis : x y z
#
# Youngs Moduli (GPa) = 86.10427 115.39312 72.53681
#
# Poissons Ratio (x) = 0.58965 -0.11978
# Poissons Ratio (y) = 0.43998 0.14444
# Poissons Ratio (z) = -0.14219 0.22978
#
# Static dielectric constant tensor:
#      x y z
#    x 4.055650 0.241180 0.028770 
#    y 0.241180 2.933630 -0.657590 
#    z 0.028770 -0.657590 3.678580 
# 
# 
# High freq. dielectric constant tensor:
#      x y z
#    x 1.863760 0.001680 -0.012830 
#    y 0.001680 1.857210 -0.002860 
#    z -0.012830 -0.002860 1.857670 
# 
# From -- ./inp_files/146311.got.cif
#   From: 2010.06.25/outbox.cif.g09.slc.cpg/sg2_74_cif.got.tgz:146311.got - 2010.06.27 13:26:56.
