data_PCOD8034875
_publ_section_title
;
Structure prediction by ZEFSAII (Michael W. Deem and Ramdas Pophale) SiO2 
 PCOD8034875
Probable space group: P -1
;
_chemical_formula_sum "Si O2"
_cell_formula_units_Z 16
_cell_length_a 8.936228
_cell_length_b 11.710924
_cell_length_c 11.377138
_cell_angle_alpha 74.312462
_cell_angle_beta 128.725883
_cell_angle_gamma 129.883390
_cell_volume 695.559881
_symmetry_space_group_name_H-M "P -1"
_symmetry_group_IT_number 2
_symmetry_cell_setting 'triclinic'
loop_
_space_group_symop_operation_xyz
x,y,z
-x,-y,-z
loop_
_atom_site_type_symbol
_atom_site_label
_atom_site_fract_x
_atom_site_fract_y
_atom_site_fract_z
Si Si1 0.220094 0.166994 0.269703
Si Si2 0.656756 0.744894 0.963941
Si Si3 0.580953 0.796772 0.324251
Si Si4 0.684901 0.963367 0.094772
Si Si5 0.712245 0.030540 0.518873
Si Si6 0.863257 0.679529 0.460722
Si Si7 0.193236 0.419207 0.781784
Si Si8 0.262040 0.597250 0.405303
O O1 0.256916 0.202022 0.141143
O O2 0.469856 0.295369 0.427743
O O3 0.146093 0.002006 0.312335
O O4 0.961898 0.128188 0.195821
O O5 0.377453 0.587073 0.881227
O O6 0.669021 0.879177 0.991742
O O7 0.828800 0.710037 0.116948
O O8 0.594681 0.837495 0.185414
O O9 0.784347 0.773350 0.452082
O O10 0.318670 0.638106 0.282251
O O11 0.624583 0.927775 0.388926
O O12 0.500000 0.000000 0.000000
O O13 0.870029 0.201590 0.501040
O O14 0.500000 0.000000 0.500000
O O15 0.700095 0.571342 0.298988
O O16 0.861327 0.579084 0.588358
O O17 0.921862 0.372191 0.649753
#
# Coordination Sequence:
#
# PCOD8034875 Si02
#       8
#     2   2   2   2   2   2   2   2
#     4  11  24  47  73 107 135 187 246 294 359 423
#     4  11  25  48  74 103 147 194 239 292 356 439
#     4  11  25  46  64 104 145 187 237 298 363 417
#     4  12  28  46  72 101 148 197 239 296 362 430
#     4  11  25  41  74 105 141 185 240 301 359 423
#     4  12  21  44  68 103 147 179 236 304 360 416
#     4  11  24  46  73 108 144 188 239 294 363 435
#     4  11  26  43  76 107 140 188 240 301 358 429
#
# _framework density 23.003052
#
# number of rings (size 3 to 8) (size 9 to 14) (size 15 to 20)
#    0.000    0.750    3.750    3.000    7.000    0.000 
#    2.250    0.625    0.000    0.000    0.000    0.000 
#    0.000    0.000    0.000    0.000    0.000    0.000 
#
# Total GULP energy -198240.103056 kJ/mol
# GULP energy per Si atom -12390.006441 kJ/mol
# Density = 2.295070 g / cm^3
# Si number density = 23.003052 Si / 1000 Ang^3
#
#
#
# Elastic Constant Matrix: (Units=GPa)
#
#
# Indices 1 2 3 4 5 6 
#
# 1 137.7644 47.5108 38.9771 -3.8381 20.4320 12.2650
# 2 47.5108 135.9309 33.9118 -17.8192 10.7042 21.5435
# 3 38.9771 33.9118 65.8239 -14.0363 15.1969 8.9733
# 4 -3.8381 -17.8192 -14.0363 39.0075 10.1655 -14.6071
# 5 20.4320 10.7042 15.1969 10.1655 42.8261 -8.2711
# 6 12.2650 21.5435 8.9733 -14.6071 -8.2711 35.5856
#
#
#
# Elastic Compliance Matrix: (Units=1/GPa)
#
#
# Indices 1 2 3 4 5 6 
#
# 1 0.009675 -0.001973 -0.004090 -0.001605 -0.002755 -0.002408
# 2 -0.001973 0.009754 -0.002305 0.002422 -0.002051 -0.004127
# 3 -0.004090 -0.002305 0.022474 0.008134 -0.007629 -0.001296
# 4 -0.001605 0.002422 0.008134 0.035472 -0.009325 0.009429
# 5 -0.002755 -0.002051 -0.007629 -0.009325 0.031571 0.007625
# 6 -0.002408 -0.004127 -0.001296 0.009429 0.007625 0.037399
#
#
# Mechanical properties :
#
#
# Convention : Reuss Voigt Hill
#
# Bulk Modulus (GPa) = 39.73408 64.47986 52.10697
# Shear Modulus (GPa) = 29.15974 38.09180 33.62577
#
# Velocity S-wave (km/s) = 3.56427 4.07375 3.82749
# Velocity P-wave (km/s) = 5.85231 7.08654 6.49879
#
# Compressibility (1/GPa) = 0.02516731
#
# Stress axis : x y z
#
# Youngs Moduli (GPa) = 103.36250 102.52024 44.49615
#
# Poissons Ratio (x) = 0.20226 0.18200
# Poissons Ratio (y) = 0.20392 0.10255
# Poissons Ratio (z) = 0.42277 0.23627
#
# Static dielectric constant tensor:
#      x y z
#    x 4.304860 0.202120 -0.110930 
#    y 0.202120 4.562990 -0.176090 
#    z -0.110930 -0.176090 3.735190 
# 
# 
# High freq. dielectric constant tensor:
#      x y z
#    x 1.919860 0.011330 -0.004760 
#    y 0.011330 1.923590 -0.015370 
#    z -0.004760 -0.015370 1.888050 
# 
# From -- ./inp_files/392483.got.cif
#   From: 2010.06.25/outbox.cif.g09.slc.cpg/sg2_197_cif.got.tgz:392483.got - 2010.06.27 13:26:56.
