data_PCOD8034341
_publ_section_title
;
Structure prediction by ZEFSAII (Michael W. Deem and Ramdas Pophale) SiO2 
 PCOD8034341
Probable space group: P -1
;
_chemical_formula_sum "Si O2"
_cell_formula_units_Z 16
_cell_length_a 15.287895
_cell_length_b 8.593380
_cell_length_c 9.142431
_cell_angle_alpha 112.580702
_cell_angle_beta 48.684962
_cell_angle_gamma 84.937084
_cell_volume 724.804146
_symmetry_space_group_name_H-M "P -1"
_symmetry_group_IT_number 2
_symmetry_cell_setting 'triclinic'
loop_
_space_group_symop_operation_xyz
x,y,z
-x,-y,-z
loop_
_atom_site_type_symbol
_atom_site_label
_atom_site_fract_x
_atom_site_fract_y
_atom_site_fract_z
Si Si1 0.906318 0.201129 0.897386
Si Si2 0.847959 0.540064 0.862765
Si Si3 0.857498 0.580642 0.554838
Si Si4 0.787641 0.041325 0.468795
Si Si5 0.510407 0.656906 0.640717
Si Si6 0.630942 0.868175 0.403646
Si Si7 0.251966 0.621943 0.573978
Si Si8 0.767062 0.028220 0.817694
O O1 0.864308 0.369327 0.886218
O O2 0.888378 0.036623 0.771564
O O3 0.056735 0.128732 0.761487
O O4 0.805205 0.274392 0.170668
O O5 0.802004 0.525619 0.742769
O O6 0.983817 0.542786 0.681972
O O7 0.746735 0.745543 0.116768
O O8 0.810126 0.514469 0.441990
O O9 0.800995 0.808896 0.695944
O O10 0.685915 0.982203 0.483787
O O11 0.780527 0.220281 0.455958
O O12 0.744686 0.108237 0.706435
O O13 0.500000 0.500000 0.500000
O O14 0.602890 0.729345 0.486762
O O15 0.589236 0.529663 0.649141
O O16 0.369458 0.840190 0.898382
O O17 0.500000 0.000000 0.500000
#
# Coordination Sequence:
#
# PCOD8034341 Si02
#       8
#     2   2   2   2   2   2   2   2
#     4  12  25  47  75 103 149 188 235 299 361 426
#     4  11  24  44  72 103 146 186 234 289 369 415
#     4  11  26  42  72 112 143 183 240 299 362 419
#     4  12  28  44  73 110 140 188 246 295 359 420
#     4  12  25  47  72 101 142 193 236 286 362 427
#     4  12  26  46  74 105 148 189 242 296 355 432
#     4  12  26  45  71 103 147 188 238 296 354 428
#     4  12  26  46  74 106 147 187 238 297 354 433
#
# _framework density 22.074928
#
# number of rings (size 3 to 8) (size 9 to 14) (size 15 to 20)
#    0.000    0.250    3.750    4.500    5.250    4.500 
#    0.000    0.000    0.000    0.000    0.000    0.000 
#    0.000    0.000    0.000    0.000    0.000    0.000 
#
# Total GULP energy -198361.429076 kJ/mol
# GULP energy per Si atom -12397.589317 kJ/mol
# Density = 2.202468 g / cm^3
# Si number density = 22.074928 Si / 1000 Ang^3
#
#
#
# Elastic Constant Matrix: (Units=GPa)
#
#
# Indices 1 2 3 4 5 6 
#
# 1 142.1857 56.0096 48.3857 4.2466 10.0528 11.1359
# 2 56.0096 129.1349 41.5110 1.5777 14.5044 -8.7418
# 3 48.3857 41.5110 132.6634 5.3555 -1.1238 -1.3074
# 4 4.2466 1.5777 5.3555 35.2405 -4.9083 4.8516
# 5 10.0528 14.5044 -1.1238 -4.9083 30.8891 3.2058
# 6 11.1359 -8.7418 -1.3074 4.8516 3.2058 43.4145
#
#
#
# Elastic Compliance Matrix: (Units=1/GPa)
#
#
# Indices 1 2 3 4 5 6 
#
# 1 0.009555 -0.003411 -0.002443 -0.000392 -0.001341 -0.003069
# 2 -0.003411 0.010618 -0.002049 -0.000835 -0.004433 0.003372
# 3 -0.002443 -0.002049 0.009123 -0.000793 0.001918 0.000436
# 4 -0.000392 -0.000835 -0.000793 0.029897 0.005641 -0.003849
# 5 -0.001341 -0.004433 0.001918 0.005641 0.036252 -0.003798
# 6 -0.003069 0.003372 0.000436 -0.003849 -0.003798 0.025224
#
#
# Mechanical properties :
#
#
# Convention : Reuss Voigt Hill
#
# Bulk Modulus (GPa) = 74.13463 77.31072 75.72268
# Shear Modulus (GPa) = 35.46789 39.11400 37.29095
#
# Velocity S-wave (km/s) = 4.01272 4.21393 4.11456
# Velocity P-wave (km/s) = 7.42464 7.66644 7.54651
#
# Compressibility (1/GPa) = 0.01348897
#
# Stress axis : x y z
#
# Youngs Moduli (GPa) = 104.65613 94.17572 109.61618
#
# Poissons Ratio (x) = 0.32126 0.26783
# Poissons Ratio (y) = 0.35701 0.22461
# Poissons Ratio (z) = 0.25571 0.19297
#
# Static dielectric constant tensor:
#      x y z
#    x 4.412850 -0.123440 -0.014100 
#    y -0.123440 3.953870 -0.131910 
#    z -0.014100 -0.131910 4.422150 
# 
# 
# High freq. dielectric constant tensor:
#      x y z
#    x 1.884150 -0.008080 0.003800 
#    y -0.008080 1.879970 0.000050 
#    z 0.003800 0.000050 1.875370 
# 
# From -- ./inp_files/190376.got.cif
#   From: 2010.06.25/outbox.cif.g09.slc.cpg/sg2_96_cif.got.tgz:190376.got - 2010.06.27 13:26:56.
