data_PCOD8034785
_publ_section_title
;
Structure prediction by ZEFSAII (Michael W. Deem and Ramdas Pophale) SiO2 
 PCOD8034785
Probable space group: P -1
;
_chemical_formula_sum "Si O2"
_cell_formula_units_Z 16
_cell_length_a 14.533018
_cell_length_b 6.740578
_cell_length_c 8.396048
_cell_angle_alpha 76.575567
_cell_angle_beta 82.530841
_cell_angle_gamma 115.978556
_cell_volume 693.471603
_symmetry_space_group_name_H-M "P -1"
_symmetry_group_IT_number 2
_symmetry_cell_setting 'triclinic'
loop_
_space_group_symop_operation_xyz
x,y,z
-x,-y,-z
loop_
_atom_site_type_symbol
_atom_site_label
_atom_site_fract_x
_atom_site_fract_y
_atom_site_fract_z
Si Si1 0.477310 0.418944 0.340397
Si Si2 0.412266 0.743280 0.119385
Si Si3 0.338069 0.665387 0.809521
Si Si4 0.902151 0.637271 0.122586
Si Si5 0.967128 0.608750 0.762672
Si Si6 0.287566 0.972299 0.571255
Si Si7 0.881509 0.899677 0.345747
Si Si8 0.786830 0.396760 0.607224
O O1 0.500000 0.500000 0.500000
O O2 0.472389 0.603535 0.186169
O O3 0.573006 0.381124 0.273716
O O4 0.366297 0.180928 0.399447
O O5 0.334738 0.729886 0.281314
O O6 0.336802 0.634523 0.004659
O O7 0.500000 0.000000 0.000000
O O8 0.224032 0.488644 0.798623
O O9 0.357127 0.917162 0.694453
O O10 0.935227 0.873309 0.173415
O O11 0.951499 0.489345 0.218143
O O12 0.928430 0.662939 0.927440
O O13 0.869742 0.411975 0.720422
O O14 0.029093 0.869854 0.623030
O O15 0.212811 0.754005 0.514245
O O16 0.214183 0.043788 0.679504
O O17 0.831426 0.667691 0.505407
#
# Coordination Sequence:
#
# PCOD8034785 Si02
#       8
#     2   2   2   2   2   2   2   2
#     4  12  25  47  77 108 143 195 245 301 375 440
#     4  12  26  47  70 110 146 190 242 304 366 439
#     4  12  23  46  71 103 149 188 242 300 365 434
#     4  11  24  46  70 105 143 189 248 301 368 437
#     4  11  25  46  71 104 147 193 242 308 367 428
#     4  12  25  46  74 109 147 195 242 308 364 438
#     4  12  23  45  72 102 147 189 253 294 369 427
#     4  12  25  45  72 105 149 192 250 301 364 435
#
# _framework density 23.072320000000001
#
# number of rings (size 3 to 8) (size 9 to 14) (size 15 to 20)
#    0.000    0.250    5.000    4.500    0.000    3.000 
#    0.000    3.750    0.000    0.000    0.000    0.000 
#    0.000    0.000    0.000    0.000    0.000    0.000 
#
# Total GULP energy -198317.257883 kJ/mol
# GULP energy per Si atom -12394.828618 kJ/mol
# Density = 2.301981 g / cm^3
# Si number density = 23.072320 Si / 1000 Ang^3
#
#
#
# Elastic Constant Matrix: (Units=GPa)
#
#
# Indices 1 2 3 4 5 6 
#
# 1 104.4007 55.8951 31.8917 -2.9003 -16.1352 -7.3414
# 2 55.8951 112.3405 45.0359 -7.3589 2.4586 -5.3896
# 3 31.8917 45.0359 92.5729 2.0885 4.2453 -16.6211
# 4 -2.9003 -7.3589 2.0885 44.5579 -5.8609 -2.2659
# 5 -16.1352 2.4586 4.2453 -5.8609 41.8622 7.2127
# 6 -7.3414 -5.3896 -16.6211 -2.2659 7.2127 38.9530
#
#
#
# Elastic Compliance Matrix: (Units=1/GPa)
#
#
# Indices 1 2 3 4 5 6 
#
# 1 0.014780 -0.006544 -0.002266 0.000826 0.006467 -0.000236
# 2 -0.006544 0.014176 -0.004694 0.001769 -0.002509 -0.000707
# 3 -0.002266 -0.004694 0.015122 -0.001778 -0.003397 0.005902
# 4 0.000826 0.001769 -0.001778 0.023364 0.003609 0.000333
# 5 0.006467 -0.002509 -0.003397 0.003609 0.028345 -0.005616
# 6 -0.000236 -0.000707 0.005902 0.000333 -0.005616 0.029107
#
#
# Mechanical properties :
#
#
# Convention : Reuss Voigt Hill
#
# Bulk Modulus (GPa) = 58.58063 63.88437 61.23250
# Shear Modulus (GPa) = 31.72741 36.84072 34.28406
#
# Velocity S-wave (km/s) = 3.71230 4.00027 3.85897
# Velocity P-wave (km/s) = 6.61967 7.00607 6.81561
#
# Compressibility (1/GPa) = 0.01707049
#
# Stress axis : x y z
#
# Youngs Moduli (GPa) = 67.65781 70.54036 66.12948
#
# Poissons Ratio (x) = 0.46164 0.14983
# Poissons Ratio (y) = 0.44278 0.31040
# Poissons Ratio (z) = 0.15329 0.33111
#
# Static dielectric constant tensor:
#      x y z
#    x 4.250410 0.010990 0.066560 
#    y 0.010990 4.262040 -0.210800 
#    z 0.066560 -0.210800 3.986770 
# 
# 
# High freq. dielectric constant tensor:
#      x y z
#    x 1.924490 -0.001160 -0.010240 
#    y -0.001160 1.916620 -0.003510 
#    z -0.010240 -0.003510 1.915260 
# 
# From -- ./inp_files/288634.got.cif
#   From: 2010.06.25/outbox.cif.g09.slc.cpg/sg2_145_cif.got.tgz:288634.got - 2010.06.27 13:26:56.
