data_PCOD8034446
_publ_section_title
;
Structure prediction by ZEFSAII (Michael W. Deem and Ramdas Pophale) SiO2 
 PCOD8034446
Probable space group: P -1
;
_chemical_formula_sum "Si O2"
_cell_formula_units_Z 16
_cell_length_a 9.157421
_cell_length_b 11.957360
_cell_length_c 10.948986
_cell_angle_alpha 117.250408
_cell_angle_beta 92.150462
_cell_angle_gamma 134.056932
_cell_volume 636.093658
_symmetry_space_group_name_H-M "P -1"
_symmetry_group_IT_number 2
_symmetry_cell_setting 'triclinic'
loop_
_space_group_symop_operation_xyz
x,y,z
-x,-y,-z
loop_
_atom_site_type_symbol
_atom_site_label
_atom_site_fract_x
_atom_site_fract_y
_atom_site_fract_z
Si Si1 0.883573 0.017157 0.413765
Si Si2 0.227848 0.614259 0.848877
Si Si3 0.152001 0.556213 0.416884
Si Si4 0.592055 0.422575 0.940426
Si Si5 0.644622 0.010966 0.593547
Si Si6 0.062544 0.199125 0.251301
Si Si7 0.306023 0.139669 0.123070
Si Si8 0.110367 0.773490 0.055208
O O1 0.625342 0.802987 0.240244
O O2 0.845484 0.098404 0.550883
O O3 0.000000 0.000000 0.500000
O O4 0.060209 0.179716 0.388631
O O5 0.413436 0.711365 0.792662
O O6 0.954491 0.432477 0.693507
O O7 0.294157 0.555449 0.921198
O O8 0.265879 0.782480 0.984875
O O9 0.446580 0.780703 0.540350
O O10 0.096894 0.368902 0.302790
O O11 0.000000 0.500000 0.500000
O O12 0.500000 0.500000 0.000000
O O13 0.817192 0.564580 0.923707
O O14 0.500000 0.000000 0.500000
O O15 0.805534 0.197477 0.789877
O O16 0.281506 0.267414 0.231344
O O17 0.811672 0.968245 0.069438
O O18 0.166058 0.957294 0.124276
#
# Coordination Sequence:
#
# PCOD8034446 Si02
#       8
#     2   2   2   2   2   2   2   2
#     4  12  26  48  73 104 148 195 242 312 387 448
#     4  12  25  45  73 108 145 198 253 312 373 452
#     4  12  27  46  76 114 156 197 250 314 387 453
#     4  12  26  44  72 106 145 196 255 308 375 463
#     4  12  26  46  72 105 152 198 244 309 381 448
#     4  11  25  48  73 109 150 195 252 317 379 456
#     4  11  24  44  78 104 145 194 255 316 379 438
#     4  12  25  47  74 107 145 198 259 308 376 453
#
# _framework density 25.153528999999999
#
# number of rings (size 3 to 8) (size 9 to 14) (size 15 to 20)
#    0.000    0.250    2.500    6.750    3.500    1.000 
#    0.000    4.375    0.000    0.000    0.000    0.000 
#    0.000    0.000    0.000    0.000    0.000    0.000 
#
# Total GULP energy -198236.076567 kJ/mol
# GULP energy per Si atom -12389.754785 kJ/mol
# Density = 2.509628 g / cm^3
# Si number density = 25.153529 Si / 1000 Ang^3
#
#
#
# Elastic Constant Matrix: (Units=GPa)
#
#
# Indices 1 2 3 4 5 6 
#
# 1 188.1410 40.4435 34.4548 -8.0333 -14.8320 2.8200
# 2 40.4435 79.9076 8.3064 -13.2766 4.6581 4.9606
# 3 34.4548 8.3064 75.5439 -9.8017 5.1352 9.2082
# 4 -8.0333 -13.2766 -9.8017 43.0687 -2.6711 4.4316
# 5 -14.8320 4.6581 5.1352 -2.6711 54.2232 -11.5531
# 6 2.8200 4.9606 9.2082 4.4316 -11.5531 52.6915
#
#
#
# Elastic Compliance Matrix: (Units=1/GPa)
#
#
# Indices 1 2 3 4 5 6 
#
# 1 0.006790 -0.003412 -0.003096 -0.000440 0.002660 0.001119
# 2 -0.003412 0.015162 0.000913 0.004324 -0.002608 -0.002340
# 3 -0.003096 0.000913 0.015640 0.003448 -0.003004 -0.003602
# 4 -0.000440 0.004324 0.003448 0.025568 -0.000238 -0.003189
# 5 0.002660 -0.002608 -0.003004 -0.000238 0.020775 0.005203
# 6 0.001119 -0.002340 -0.003602 -0.003189 0.005203 0.021177
#
#
# Mechanical properties :
#
#
# Convention : Reuss Voigt Hill
#
# Bulk Modulus (GPa) = 37.87789 56.66689 47.27239
# Shear Modulus (GPa) = 39.96684 47.35586 43.66135
#
# Velocity S-wave (km/s) = 3.99045 4.34368 4.17081
# Velocity P-wave (km/s) = 6.02685 6.90899 6.48294
#
# Compressibility (1/GPa) = 0.02640062
#
# Stress axis : x y z
#
# Youngs Moduli (GPa) = 147.27886 65.95240 63.94033
#
# Poissons Ratio (x) = 0.22506 0.19796
# Poissons Ratio (y) = 0.50258 -0.05836
# Poissons Ratio (z) = 0.45597 -0.06020
#
# Static dielectric constant tensor:
#      x y z
#    x 4.860980 0.456680 0.376580 
#    y 0.456680 5.295630 0.224610 
#    z 0.376580 0.224610 4.893580 
# 
# 
# High freq. dielectric constant tensor:
#      x y z
#    x 2.023790 0.001640 0.004410 
#    y 0.001640 2.004470 -0.017650 
#    z 0.004410 -0.017650 2.005450 
# 
# From -- ./inp_files/392850.got.cif
#   From: 2010.06.25/outbox.cif.g09.slc.cpg/sg2_197_cif.got.tgz:392850.got - 2010.06.27 13:26:56.
