data_PCOD8034856
_publ_section_title
;
Structure prediction by ZEFSAII (Michael W. Deem and Ramdas Pophale) SiO2 
 PCOD8034856
Probable space group: P -1
;
_chemical_formula_sum "Si O2"
_cell_formula_units_Z 16
_cell_length_a 11.706852
_cell_length_b 11.810209
_cell_length_c 9.340730
_cell_angle_alpha 93.588749
_cell_angle_beta 61.486881
_cell_angle_gamma 47.439477
_cell_volume 671.449746
_symmetry_space_group_name_H-M "P -1"
_symmetry_group_IT_number 2
_symmetry_cell_setting 'triclinic'
loop_
_space_group_symop_operation_xyz
x,y,z
-x,-y,-z
loop_
_atom_site_type_symbol
_atom_site_label
_atom_site_fract_x
_atom_site_fract_y
_atom_site_fract_z
Si Si1 0.915434 0.632996 0.691874
Si Si2 0.321660 0.846828 0.815195
Si Si3 0.845260 0.523793 0.177820
Si Si4 0.143285 0.098004 0.408715
Si Si5 0.458272 0.262276 0.029276
Si Si6 0.863639 0.246161 0.080333
Si Si7 0.248840 0.637117 0.153799
Si Si8 0.580456 0.065220 0.503371
O O1 0.882026 0.785999 0.681965
O O2 0.000000 0.500000 0.500000
O O3 0.105231 0.494967 0.686006
O O4 0.676979 0.760151 0.903495
O O5 0.333177 0.703750 0.752443
O O6 0.360850 0.904058 0.667277
O O7 0.483244 0.757364 0.841755
O O8 0.072732 0.051165 0.025766
O O9 0.842609 0.392717 0.137470
O O10 0.608589 0.733030 0.287630
O O11 0.000000 0.500000 0.000000
O O12 0.899678 0.221108 0.606483
O O13 0.321433 0.886911 0.213995
O O14 0.224044 0.088348 0.513417
O O15 0.274001 0.483544 0.111912
O O16 0.874471 0.225411 0.899539
O O17 0.500000 0.500000 0.000000
O O18 0.500000 0.000000 0.500000
#
# Coordination Sequence:
#
# PCOD8034856 Si02
#       8
#     2   2   2   2   2   2   2   2
#     4  12  24  45  74 109 150 190 243 306 369 434
#     4  11  24  46  73 100 146 191 235 301 364 434
#     4  12  26  44  74 107 144 192 246 303 359 439
#     4  12  26  45  71 107 144 190 247 299 364 444
#     4  12  25  46  73 107 145 191 244 298 371 439
#     4  11  24  47  70 101 144 190 241 298 368 433
#     4  12  25  47  72 102 145 193 242 304 365 431
#     4  12  25  44  72 106 143 189 242 297 371 440
#
# _framework density 23.829035999999999
#
# number of rings (size 3 to 8) (size 9 to 14) (size 15 to 20)
#    0.000    0.250    3.750    6.375    0.000    1.000 
#    0.000    2.500    0.000    0.000    0.000    0.000 
#    0.000    0.000    0.000    0.000    0.000    0.000 
#
# Total GULP energy -198253.218064 kJ/mol
# GULP energy per Si atom -12390.826129 kJ/mol
# Density = 2.377480 g / cm^3
# Si number density = 23.829036 Si / 1000 Ang^3
#
#
#
# Elastic Constant Matrix: (Units=GPa)
#
#
# Indices 1 2 3 4 5 6 
#
# 1 90.0419 22.3333 17.1918 -15.8366 -13.5242 10.4215
# 2 22.3333 107.1737 12.9297 -14.2362 -2.5501 2.6838
# 3 17.1918 12.9297 108.6279 0.2789 -14.5669 5.9090
# 4 -15.8366 -14.2362 0.2789 49.6026 0.2741 -3.1769
# 5 -13.5242 -2.5501 -14.5669 0.2741 35.3648 -3.2736
# 6 10.4215 2.6838 5.9090 -3.1769 -3.2736 48.9247
#
#
#
# Elastic Compliance Matrix: (Units=1/GPa)
#
#
# Indices 1 2 3 4 5 6 
#
# 1 0.013331 -0.002012 -0.001198 0.003529 0.004240 -0.002072
# 2 -0.002012 0.010157 -0.000961 0.002287 -0.000441 0.000107
# 3 -0.001198 -0.000961 0.010026 -0.000780 0.003542 -0.000717
# 4 0.003529 0.002287 -0.000780 0.021988 0.001089 0.000718
# 5 0.004240 -0.000441 0.003542 0.001089 0.031397 0.000865
# 6 -0.002072 0.000107 -0.000717 0.000718 0.000865 0.021066
#
#
# Mechanical properties :
#
#
# Convention : Reuss Voigt Hill
#
# Bulk Modulus (GPa) = 39.72837 45.63923 42.68380
# Shear Modulus (GPa) = 40.09715 43.67100 41.88408
#
# Velocity S-wave (km/s) = 4.10652 4.28563 4.19703
# Velocity P-wave (km/s) = 6.26045 6.60932 6.43725
#
# Compressibility (1/GPa) = 0.02517093
#
# Stress axis : x y z
#
# Youngs Moduli (GPa) = 75.01228 98.45884 99.74350
#
# Poissons Ratio (x) = 0.19808 0.11950
# Poissons Ratio (y) = 0.15091 0.09588
# Poissons Ratio (z) = 0.08987 0.09465
#
# Static dielectric constant tensor:
#      x y z
#    x 4.396340 -0.119620 -0.262200 
#    y -0.119620 4.996670 -0.087320 
#    z -0.262200 -0.087320 4.313360 
# 
# 
# High freq. dielectric constant tensor:
#      x y z
#    x 1.945520 -0.007320 -0.017290 
#    y -0.007320 1.968390 -0.014280 
#    z -0.017290 -0.014280 1.935850 
# 
# From -- ./inp_files/262498.got.cif
#   From: 2010.06.25/outbox.cif.g09.slc.cpg/sg2_132_cif.got.tgz:262498.got - 2010.06.27 13:26:56.
