data_PCOD8034923
_publ_section_title
;
Structure prediction by ZEFSAII (Michael W. Deem and Ramdas Pophale) SiO2 
 PCOD8034923
Probable space group: P -1
;
_chemical_formula_sum "Si O2"
_cell_formula_units_Z 10
_cell_length_a 16.066052
_cell_length_b 4.937213
_cell_length_c 14.515163
_cell_angle_alpha 107.192721
_cell_angle_beta 26.480496
_cell_angle_gamma 114.646671
_cell_volume 457.962117
_symmetry_space_group_name_H-M "P -1"
_symmetry_group_IT_number 2
_symmetry_cell_setting 'triclinic'
loop_
_space_group_symop_operation_xyz
x,y,z
-x,-y,-z
loop_
_atom_site_type_symbol
_atom_site_label
_atom_site_fract_x
_atom_site_fract_y
_atom_site_fract_z
Si Si1 0.148527 0.823209 0.852116
Si Si2 0.409656 0.077120 0.287820
Si Si3 0.000789 0.812981 0.569747
Si Si4 0.475018 0.187329 0.437801
Si Si5 0.579420 0.585633 0.032283
O O1 0.283620 0.893893 0.631763
O O2 0.326814 0.907519 0.760514
O O3 0.000000 0.500000 0.000000
O O4 0.000000 0.000000 0.000000
O O5 0.440992 0.249002 0.371483
O O6 0.550170 0.288111 0.091610
O O7 0.182931 0.987324 0.472523
O O8 0.000000 0.500000 0.500000
O O9 0.813234 0.776468 0.816613
O O10 0.000000 0.000000 0.500000
O O11 0.500000 0.500000 0.500000
O O12 0.462967 0.776660 0.215858
O O13 0.500000 0.500000 0.000000
#
# Coordination Sequence:
#
# PCOD8034923 Si02
#       5
#     2   2   2   2   2
#     4  11  24  46  75  98 144 187 236 299 361 405
#     4  12  27  43  72 103 140 186 233 281 358 410
#     4  12  23  43  69  97 137 181 227 287 345 409
#     4  11  27  47  74 107 148 187 243 298 347 430
#     4  12  24  44  71  99 140 181 232 290 348 412
#
# _framework density 21.835865999999999
#
# number of rings (size 3 to 8) (size 9 to 14) (size 15 to 20)
#    0.000    0.400    6.000    1.800    5.600    3.200 
#    0.000    0.000    0.000    0.000    0.000    0.000 
#    0.000    0.000    0.000    0.000    0.000    0.000 
#
# Total GULP energy -123881.782395 kJ/mol
# GULP energy per Si atom -12388.178239 kJ/mol
# Density = 2.178617 g / cm^3
# Si number density = 21.835866 Si / 1000 Ang^3
#
#
#
# Elastic Constant Matrix: (Units=GPa)
#
#
# Indices 1 2 3 4 5 6 
#
# 1 180.7386 56.4949 75.0898 -3.4100 -6.4850 6.5116
# 2 56.4949 106.0424 51.9298 -12.8406 2.8315 -12.0642
# 3 75.0898 51.9298 130.5425 -34.9776 -21.1658 11.6621
# 4 -3.4100 -12.8406 -34.9776 54.5121 0.5288 4.6352
# 5 -6.4850 2.8315 -21.1658 0.5288 58.6674 1.1143
# 6 6.5116 -12.0642 11.6621 4.6352 1.1143 40.3139
#
#
#
# Elastic Compliance Matrix: (Units=1/GPa)
#
#
# Indices 1 2 3 4 5 6 
#
# 1 0.008136 -0.002501 -0.004535 -0.002951 -0.000582 -0.000395
# 2 -0.002501 0.014160 -0.005494 -0.000862 -0.003056 0.006414
# 3 -0.004535 -0.005494 0.016591 0.009604 0.005795 -0.006975
# 4 -0.002951 -0.000862 0.009604 0.024555 0.003063 -0.005468
# 5 -0.000582 -0.003056 0.005795 0.003063 0.019256 -0.003381
# 6 -0.000395 0.006414 -0.006975 -0.005468 -0.003381 0.029529
#
#
# Mechanical properties :
#
#
# Convention : Reuss Voigt Hill
#
# Bulk Modulus (GPa) = 72.31811 87.15029 79.73420
# Shear Modulus (GPa) = 35.23759 46.28593 40.76176
#
# Velocity S-wave (km/s) = 4.02151 4.60904 4.32526
# Velocity P-wave (km/s) = 7.39961 8.26574 7.84464
#
# Compressibility (1/GPa) = 0.01382780
#
# Stress axis : x y z
#
# Youngs Moduli (GPa) = 122.90613 70.62302 60.27511
#
# Poissons Ratio (x) = 0.17660 0.27335
# Poissons Ratio (y) = 0.30733 0.33114
# Poissons Ratio (z) = 0.55739 0.38799
#
# Static dielectric constant tensor:
#      x y z
#    x 4.237430 -0.129010 -0.450860 
#    y -0.129010 3.841800 -0.374150 
#    z -0.450860 -0.374150 4.782560 
# 
# 
# High freq. dielectric constant tensor:
#      x y z
#    x 1.875450 -0.023830 -0.016310 
#    y -0.023830 1.855620 -0.025620 
#    z -0.016310 -0.025620 1.865030 
# 
# From -- ./inp_files/440134.got.cif
#   From: 2010.06.25/outbox.cif.g09.slc.cpg/sg2_221_cif.got.tgz:440134.got - 2010.06.27 13:26:56.
