data_PCOD8034779
_publ_section_title
;
Structure prediction by ZEFSAII (Michael W. Deem and Ramdas Pophale) SiO2 
 PCOD8034779
Probable space group: P -1
;
_chemical_formula_sum "Si O2"
_cell_formula_units_Z 14
_cell_length_a 9.565445
_cell_length_b 13.460359
_cell_length_c 19.660851
_cell_angle_alpha 151.651575
_cell_angle_beta 136.254597
_cell_angle_gamma 33.796216
_cell_volume 668.217749
_symmetry_space_group_name_H-M "P -1"
_symmetry_group_IT_number 2
_symmetry_cell_setting 'triclinic'
loop_
_space_group_symop_operation_xyz
x,y,z
-x,-y,-z
loop_
_atom_site_type_symbol
_atom_site_label
_atom_site_fract_x
_atom_site_fract_y
_atom_site_fract_z
Si Si1 0.565639 0.699798 0.140506
Si Si2 0.662185 0.498312 0.381872
Si Si3 0.509624 0.840885 0.843750
Si Si4 0.824724 0.745009 0.133087
Si Si5 0.995254 0.464920 0.708679
Si Si6 0.873747 0.715042 0.677445
Si Si7 0.100295 0.945406 0.426467
O O1 0.714813 0.662399 0.102089
O O2 0.732361 0.649825 0.234669
O O3 0.305614 0.983963 0.223743
O O4 0.500000 0.500000 0.000000
O O5 0.653750 0.262119 0.258340
O O6 0.743925 0.580980 0.526042
O O7 0.399223 0.740759 0.406166
O O8 0.858666 0.408397 0.336496
O O9 0.794496 0.596356 0.779325
O O10 0.403446 0.020821 0.848837
O O11 0.500000 0.000000 0.000000
O O12 0.981774 0.837695 0.275031
O O13 0.000000 0.500000 0.000000
O O14 0.916805 0.676264 0.750085
O O15 0.013483 0.224384 0.535543
O O16 0.000000 0.000000 0.500000
#
# Coordination Sequence:
#
# PCOD8034779 Si02
#       7
#     2   2   2   2   2   2   2
#     4  12  27  47  69 101 146 185 234 290 359 425
#     4  11  24  46  70 103 142 182 235 294 350 424
#     4  12  26  44  73 105 144 182 243 293 353 420
#     4  12  26  46  71 107 142 185 238 299 355 414
#     4  12  25  46  76 103 136 190 238 292 355 421
#     4  11  26  47  69 102 143 186 234 288 358 426
#     4  12  22  44  78 102 138 181 242 293 348 420
#
# _framework density 20.951255
#
# number of rings (size 3 to 8) (size 9 to 14) (size 15 to 20)
#    0.000    0.286    5.714    2.571    4.000    4.571 
#    0.000    0.000    0.000    0.000    0.000    0.000 
#    0.000    0.000    0.000    0.000    0.000    0.000 
#
# Total GULP energy -173687.995854 kJ/mol
# GULP energy per Si atom -12406.285418 kJ/mol
# Density = 2.090357 g / cm^3
# Si number density = 20.951255 Si / 1000 Ang^3
#
#
#
# Elastic Constant Matrix: (Units=GPa)
#
#
# Indices 1 2 3 4 5 6 
#
# 1 99.3520 61.5327 71.1140 -4.0613 8.3318 -8.9932
# 2 61.5327 146.0762 65.9754 -1.1129 1.5446 -6.4371
# 3 71.1140 65.9754 172.8286 4.7669 9.0070 -3.4169
# 4 -4.0613 -1.1129 4.7669 33.2019 2.2242 -6.5863
# 5 8.3318 1.5446 9.0070 2.2242 40.6328 7.2934
# 6 -8.9932 -6.4371 -3.4169 -6.5863 7.2934 36.6010
#
#
#
# Elastic Compliance Matrix: (Units=1/GPa)
#
#
# Indices 1 2 3 4 5 6 
#
# 1 0.017629 -0.004788 -0.005277 0.003831 -0.003251 0.004334
# 2 -0.004788 0.009655 -0.001762 -0.000044 0.000980 0.000154
# 3 -0.005277 -0.001762 0.008692 -0.002137 -0.000466 -0.001087
# 4 0.003831 -0.000044 -0.002137 0.032563 -0.003398 0.007271
# 5 -0.003251 0.000980 -0.000466 -0.003398 0.026715 -0.006605
# 6 0.004334 0.000154 -0.001087 0.007271 -0.006605 0.030937
#
#
# Mechanical properties :
#
#
# Convention : Reuss Voigt Hill
#
# Bulk Modulus (GPa) = 81.15943 90.61124 85.88534
# Shear Modulus (GPa) = 32.47791 36.72947 34.60369
#
# Velocity S-wave (km/s) = 3.94149 4.19154 4.06843
# Velocity P-wave (km/s) = 7.71590 8.17116 7.94679
#
# Compressibility (1/GPa) = 0.01232143
#
# Stress axis : x y z
#
# Youngs Moduli (GPa) = 56.72387 103.57629 115.05314
#
# Poissons Ratio (x) = 0.49596 0.60709
# Poissons Ratio (y) = 0.27162 0.20274
# Poissons Ratio (z) = 0.29931 0.18251
#
# Static dielectric constant tensor:
#      x y z
#    x 3.536240 -0.131370 0.099790 
#    y -0.131370 3.956610 0.138880 
#    z 0.099790 0.138880 3.939410 
# 
# 
# High freq. dielectric constant tensor:
#      x y z
#    x 1.823110 -0.005440 0.001150 
#    y -0.005440 1.839140 0.006870 
#    z 0.001150 0.006870 1.832100 
# 
# From -- ./inp_files/262224.got.cif
#   From: 2010.06.25/outbox.cif.g09.slc.cpg/sg2_132_cif.got.tgz:262224.got - 2010.06.27 13:26:56.
