data_PCOD8034594
_publ_section_title
;
Structure prediction by ZEFSAII (Michael W. Deem and Ramdas Pophale) SiO2 
 PCOD8034594
Probable space group: P -1
;
_chemical_formula_sum "Si O2"
_cell_formula_units_Z 16
_cell_length_a 8.207355
_cell_length_b 8.004857
_cell_length_c 23.111275
_cell_angle_alpha 119.227435
_cell_angle_beta 32.498963
_cell_angle_gamma 121.167519
_cell_volume 693.605430
_symmetry_space_group_name_H-M "P -1"
_symmetry_group_IT_number 2
_symmetry_cell_setting 'triclinic'
loop_
_space_group_symop_operation_xyz
x,y,z
-x,-y,-z
loop_
_atom_site_type_symbol
_atom_site_label
_atom_site_fract_x
_atom_site_fract_y
_atom_site_fract_z
Si Si1 0.785624 0.976294 0.819245
Si Si2 0.324537 0.398287 0.276594
Si Si3 0.230649 0.355374 0.901360
Si Si4 0.932353 0.066970 0.154925
Si Si5 0.784817 0.906052 0.391390
Si Si6 0.345152 0.522466 0.490795
Si Si7 0.314818 0.191888 0.354971
Si Si8 0.615065 0.711063 0.026749
O O1 0.093391 0.065822 0.705598
O O2 0.592674 0.787212 0.812139
O O3 0.594393 0.144550 0.909009
O O4 0.861007 0.881961 0.841092
O O5 0.510225 0.584942 0.216781
O O6 0.438526 0.370792 0.302831
O O7 0.957023 0.390158 0.391178
O O8 0.026176 0.149899 0.907747
O O9 0.388616 0.313909 0.907316
O O10 0.000000 0.500000 0.000000
O O11 0.582445 0.083123 0.275274
O O12 0.047432 0.204412 0.088144
O O13 0.637932 0.672828 0.399067
O O14 0.500000 0.000000 0.500000
O O15 0.040850 0.015576 0.381178
O O16 0.500000 0.500000 0.500000
O O17 0.229074 0.312872 0.456576
O O18 0.500000 0.500000 0.000000
#
# Coordination Sequence:
#
# PCOD8034594 Si02
#       8
#     2   2   2   2   2   2   2   2
#     4  11  24  45  71  99 143 181 238 294 348 431
#     4  11  24  46  68 104 136 188 233 289 353 418
#     4  12  25  43  71 102 138 180 235 291 354 426
#     4  12  26  45  69 107 137 187 233 295 363 419
#     4  11  25  47  71 103 142 193 236 294 359 414
#     4  12  27  44  72 104 146 188 240 290 353 428
#     4  11  26  46  72 104 150 185 241 297 351 430
#     4  12  26  45  71 101 140 186 234 293 356 427
#
# _framework density 23.067871
#
# number of rings (size 3 to 8) (size 9 to 14) (size 15 to 20)
#    0.000    0.500    2.500    6.375    7.000    0.500 
#    0.000    0.000    0.000    0.000    0.000    0.000 
#    0.000    0.000    0.000    0.000    0.000    0.000 
#
# Total GULP energy -198236.663935 kJ/mol
# GULP energy per Si atom -12389.791496 kJ/mol
# Density = 2.301537 g / cm^3
# Si number density = 23.067871 Si / 1000 Ang^3
#
#
#
# Elastic Constant Matrix: (Units=GPa)
#
#
# Indices 1 2 3 4 5 6 
#
# 1 111.1676 6.3565 27.6119 7.1314 -1.0761 -13.4470
# 2 6.3565 110.2333 32.8601 1.2782 0.4421 7.5392
# 3 27.6119 32.8601 93.3645 5.4336 -2.5792 1.6427
# 4 7.1314 1.2782 5.4336 50.6245 -9.6653 3.2357
# 5 -1.0761 0.4421 -2.5792 -9.6653 39.8403 4.0380
# 6 -13.4470 7.5392 1.6427 3.2357 4.0380 38.2617
#
#
#
# Elastic Compliance Matrix: (Units=1/GPa)
#
#
# Indices 1 2 3 4 5 6 
#
# 1 0.010324 0.000073 -0.003079 -0.001509 -0.000687 0.003946
# 2 0.000073 0.010271 -0.003619 0.000217 -0.000106 -0.001850
# 3 -0.003079 -0.003619 0.012971 -0.000667 0.000731 -0.000947
# 4 -0.001509 0.000217 -0.000667 0.021241 0.005361 -0.002907
# 5 -0.000687 -0.000106 0.000731 0.005361 0.026789 -0.003533
# 6 0.003946 -0.001850 -0.000947 -0.002907 -0.003533 0.028546
#
#
# Mechanical properties :
#
#
# Convention : Reuss Voigt Hill
#
# Bulk Modulus (GPa) = 49.22794 49.82471 49.52632
# Shear Modulus (GPa) = 38.41275 42.27442 40.34358
#
# Velocity S-wave (km/s) = 4.08512 4.28554 4.18653
# Velocity P-wave (km/s) = 6.60589 6.79220 6.69969
#
# Compressibility (1/GPa) = 0.02031367
#
# Stress axis : x y z
#
# Youngs Moduli (GPa) = 96.86528 97.36298 77.09511
#
# Poissons Ratio (x) = -0.00711 0.23741
# Poissons Ratio (y) = -0.00707 0.27904
# Poissons Ratio (z) = 0.29829 0.35240
#
# Static dielectric constant tensor:
#      x y z
#    x 3.809180 -0.133100 -0.438550 
#    y -0.133100 5.322220 0.323560 
#    z -0.438550 0.323560 2.907420 
# 
# 
# High freq. dielectric constant tensor:
#      x y z
#    x 1.914050 -0.006980 0.006210 
#    y -0.006980 1.923190 0.004330 
#    z 0.006210 0.004330 1.920840 
# 
# From -- ./inp_files/606431.got.cif
#   From: 2010.06.25/outbox.cif.g09.slc.cpg/sg2_304_cif.got.tgz:606431.got - 2010.06.27 13:26:56.
