data_PCOD8034033
_publ_section_title
;
Structure prediction by ZEFSAII (Michael W. Deem and Ramdas Pophale) SiO2 
 PCOD8034033
Probable space group: P -1
;
_chemical_formula_sum "Si O2"
_cell_formula_units_Z 14
_cell_length_a 8.631161
_cell_length_b 9.806870
_cell_length_c 13.700554
_cell_angle_alpha 146.682808
_cell_angle_beta 68.907350
_cell_angle_gamma 110.824206
_cell_volume 590.898849
_symmetry_space_group_name_H-M "P -1"
_symmetry_group_IT_number 2
_symmetry_cell_setting 'triclinic'
loop_
_space_group_symop_operation_xyz
x,y,z
-x,-y,-z
loop_
_atom_site_type_symbol
_atom_site_label
_atom_site_fract_x
_atom_site_fract_y
_atom_site_fract_z
Si Si1 0.218753 0.902962 0.443374
Si Si2 0.474746 0.783007 0.177375
Si Si3 0.649859 0.668632 0.764246
Si Si4 0.753578 0.187219 0.392445
Si Si5 0.677859 0.197471 0.975520
Si Si6 0.005358 0.740449 0.790983
Si Si7 0.100607 0.410331 0.732085
O O1 0.402946 0.841055 0.335021
O O2 0.189659 0.881207 0.552528
O O3 0.090198 0.715909 0.296124
O O4 0.215642 0.187359 0.578558
O O5 0.649551 0.951218 0.223609
O O6 0.500000 0.500000 0.000000
O O7 0.344009 0.837512 0.155555
O O8 0.636698 0.417566 0.550953
O O9 0.483280 0.684125 0.873343
O O10 0.812445 0.619169 0.762779
O O11 0.697137 0.924210 0.848633
O O12 0.923180 0.239295 0.322865
O O13 0.843848 0.386774 0.073971
O O14 0.122489 0.566038 0.719064
O O15 0.000000 0.000000 0.000000
#
# Coordination Sequence:
#
# PCOD8034033 Si02
#       7
#     2   2   2   2   2   2   2
#     4  11  26  46  71 104 145 186 240 283 351 427
#     4  12  27  44  72 102 146 192 234 285 355 419
#     4  11  24  43  70 106 144 178 233 292 355 416
#     4  12  26  45  76 102 143 185 236 293 353 416
#     4  11  25  44  71 105 145 181 234 293 351 414
#     4  12  25  46  75 106 140 184 239 293 355 418
#     4  11  25  47  73 103 145 184 233 295 351 414
#
# _framework density 23.692720000000001
#
# number of rings (size 3 to 8) (size 9 to 14) (size 15 to 20)
#    0.000    0.571    2.857    4.286    6.000    2.286 
#    0.000    0.000    0.000    0.000    0.000    0.000 
#    0.000    0.000    0.000    0.000    0.000    0.000 
#
# Total GULP energy -173559.674953 kJ/mol
# GULP energy per Si atom -12397.119640 kJ/mol
# Density = 2.363879 g / cm^3
# Si number density = 23.692720 Si / 1000 Ang^3
#
#
#
# Elastic Constant Matrix: (Units=GPa)
#
#
# Indices 1 2 3 4 5 6 
#
# 1 77.8479 31.3173 34.4225 6.4813 14.3633 -11.4653
# 2 31.3173 105.3956 62.2998 12.3341 -3.9493 -16.5953
# 3 34.4225 62.2998 120.1160 23.9879 -0.6248 -7.1068
# 4 6.4813 12.3341 23.9879 52.3025 3.6422 0.3147
# 5 14.3633 -3.9493 -0.6248 3.6422 58.9620 3.4370
# 6 -11.4653 -16.5953 -7.1068 0.3147 3.4370 37.3175
#
#
#
# Elastic Compliance Matrix: (Units=1/GPa)
#
#
# Indices 1 2 3 4 5 6 
#
# 1 0.016723 -0.002643 -0.003294 0.000354 -0.004526 0.003749
# 2 -0.002643 0.015025 -0.006713 -0.000257 0.001334 0.004471
# 3 -0.003294 -0.006713 0.013520 -0.004259 0.000845 -0.001465
# 4 0.000354 -0.000257 -0.004259 0.021193 -0.001407 -0.000866
# 5 -0.004526 0.001334 0.000845 -0.001407 0.018383 -0.002318
# 6 0.003749 0.004471 -0.001465 -0.000866 -0.002318 0.029879
#
#
# Mechanical properties :
#
#
# Convention : Reuss Voigt Hill
#
# Bulk Modulus (GPa) = 50.07992 62.15985 56.11988
# Shear Modulus (GPa) = 34.08806 41.40439 37.74623
#
# Velocity S-wave (km/s) = 3.79721 4.18491 3.99577
# Velocity P-wave (km/s) = 6.35675 7.04586 6.71016
#
# Compressibility (1/GPa) = 0.01996808
#
# Stress axis : x y z
#
# Youngs Moduli (GPa) = 59.79757 66.55388 73.96699
#
# Poissons Ratio (x) = 0.17587 0.24367
# Poissons Ratio (y) = 0.15802 0.49655
# Poissons Ratio (z) = 0.19699 0.44678
#
# Static dielectric constant tensor:
#      x y z
#    x 4.440400 -0.320800 0.336850 
#    y -0.320800 4.918600 0.244040 
#    z 0.336850 0.244040 4.494320 
# 
# 
# High freq. dielectric constant tensor:
#      x y z
#    x 1.936070 -0.004580 0.010450 
#    y -0.004580 1.943900 0.027400 
#    z 0.010450 0.027400 1.946410 
# 
# From -- ./inp_files/198988.got.cif
#   From: 2010.06.25/outbox.cif.g09.slc.cpg/sg2_100_cif.got.tgz:198988.got - 2010.06.27 13:26:56.
