data_PCOD8034370
_publ_section_title
;
Structure prediction by ZEFSAII (Michael W. Deem and Ramdas Pophale) SiO2 
 PCOD8034370
Probable space group: P -1
;
_chemical_formula_sum "Si O2"
_cell_formula_units_Z 14
_cell_length_a 8.383039
_cell_length_b 15.971590
_cell_length_c 12.446020
_cell_angle_alpha 26.230332
_cell_angle_beta 52.416750
_cell_angle_gamma 54.047763
_cell_volume 579.847898
_symmetry_space_group_name_H-M "P -1"
_symmetry_group_IT_number 2
_symmetry_cell_setting 'triclinic'
loop_
_space_group_symop_operation_xyz
x,y,z
-x,-y,-z
loop_
_atom_site_type_symbol
_atom_site_label
_atom_site_fract_x
_atom_site_fract_y
_atom_site_fract_z
Si Si1 0.424705 0.282238 0.640486
Si Si2 0.289199 0.887211 0.096443
Si Si3 0.926230 0.775365 0.487277
Si Si4 0.969968 0.619369 0.192299
Si Si5 0.497837 0.723209 0.765754
Si Si6 0.374557 0.646693 0.126121
Si Si7 0.073457 0.953143 0.640547
O O1 0.603323 0.225405 0.716476
O O2 0.234699 0.406110 0.632153
O O3 0.489769 0.436384 0.350393
O O4 0.350259 0.100392 0.820901
O O5 0.355770 0.786980 0.073635
O O6 0.046260 0.887849 0.218478
O O7 0.683093 0.808938 0.531281
O O8 0.993964 0.551043 0.711689
O O9 0.960734 0.850174 0.506295
O O10 0.153971 0.622298 0.196377
O O11 0.930740 0.814153 0.917049
O O12 0.299377 0.848540 0.660852
O O13 0.500000 0.500000 0.000000
O O14 0.505896 0.741357 0.872140
O O15 0.000000 0.000000 0.500000
#
# Coordination Sequence:
#
# PCOD8034370 Si02
#       7
#     2   2   2   2   2   2   2
#     4  11  24  47  68 106 151 181 241 302 360 421
#     4  11  26  44  74 105 142 193 239 299 360 425
#     4  12  24  48  75 102 147 190 238 299 359 428
#     4  11  24  45  72 106 144 180 250 299 351 436
#     4  11  25  51  72 108 148 189 240 299 357 434
#     4  11  24  44  73 103 138 192 236 294 358 429
#     4  11  26  48  72 109 146 190 242 298 363 426
#
# _framework density 24.144262000000001
#
# number of rings (size 3 to 8) (size 9 to 14) (size 15 to 20)
#    0.000    0.857    5.714    1.286    0.000    5.714 
#    2.571    0.000    0.000    0.000    0.000    0.000 
#    0.000    0.000    0.000    0.000    0.000    0.000 
#
# Total GULP energy -173589.737708 kJ/mol
# GULP energy per Si atom -12399.266979 kJ/mol
# Density = 2.408931 g / cm^3
# Si number density = 24.144262 Si / 1000 Ang^3
#
#
#
# Elastic Constant Matrix: (Units=GPa)
#
#
# Indices 1 2 3 4 5 6 
#
# 1 64.5972 65.6858 59.6071 -4.0957 3.9553 16.4579
# 2 65.6858 144.5295 49.8438 -23.9511 -4.3010 15.9148
# 3 59.6071 49.8438 91.2962 -10.2893 14.2015 11.7501
# 4 -4.0957 -23.9511 -10.2893 40.6305 -0.0403 -10.8245
# 5 3.9553 -4.3010 14.2015 -0.0403 42.1172 1.0227
# 6 16.4579 15.9148 11.7501 -10.8245 1.0227 39.5343
#
#
#
# Elastic Compliance Matrix: (Units=1/GPa)
#
#
# Indices 1 2 3 4 5 6 
#
# 1 0.077849 -0.023393 -0.038723 -0.020312 0.003754 -0.017140
# 2 -0.023393 0.016563 0.006633 0.010106 0.001568 0.003826
# 3 -0.038723 0.006633 0.034103 0.010322 -0.007329 0.006330
# 4 -0.020312 0.010106 0.010322 0.033970 -0.000767 0.010640
# 5 0.003754 0.001568 -0.007329 -0.000767 0.026043 -0.000900
# 6 -0.017140 0.003826 0.006330 0.010640 -0.000900 0.031945
#
#
# Mechanical properties :
#
#
# Convention : Reuss Voigt Hill
#
# Bulk Modulus (GPa) = 56.98266 72.29959 64.64113
# Shear Modulus (GPa) = 14.82409 32.80881 23.81645
#
# Velocity S-wave (km/s) = 2.48055 3.69028 3.14414
# Velocity P-wave (km/s) = 5.64414 6.94027 6.32549
#
# Compressibility (1/GPa) = 0.01754920
#
# Stress axis : x y z
#
# Youngs Moduli (GPa) = 12.84539 60.37398 29.32325
#
# Poissons Ratio (x) = 1.41235 1.13548
# Poissons Ratio (y) = 0.30050 -0.19451
# Poissons Ratio (z) = 0.49741 -0.40047
#
# Static dielectric constant tensor:
#      x y z
#    x 4.337080 -0.086570 -0.121080 
#    y -0.086570 4.743350 0.056650 
#    z -0.121080 0.056650 4.742870 
# 
# 
# High freq. dielectric constant tensor:
#      x y z
#    x 1.941820 0.001210 -0.011510 
#    y 0.001210 1.978350 -0.010770 
#    z -0.011510 -0.010770 1.964450 
# 
# From -- ./inp_files/274322.got.cif
#   From: 2010.06.25/outbox.cif.g09.slc.cpg/sg2_138_cif.got.tgz:274322.got - 2010.06.27 13:26:56.
