data_PCOD8034999
_publ_section_title
;
Structure prediction by ZEFSAII (Michael W. Deem and Ramdas Pophale) SiO2 
 PCOD8034999
Probable space group: P -1
;
_chemical_formula_sum "Si O2"
_cell_formula_units_Z 16
_cell_length_a 20.660561
_cell_length_b 18.298587
_cell_length_c 9.788748
_cell_angle_alpha 36.408378
_cell_angle_beta 37.637015
_cell_angle_gamma 19.370891
_cell_volume 718.456538
_symmetry_space_group_name_H-M "P -1"
_symmetry_group_IT_number 2
_symmetry_cell_setting 'triclinic'
loop_
_space_group_symop_operation_xyz
x,y,z
-x,-y,-z
loop_
_atom_site_type_symbol
_atom_site_label
_atom_site_fract_x
_atom_site_fract_y
_atom_site_fract_z
Si Si1 0.607719 0.374682 0.797622
Si Si2 0.949849 0.752099 0.528573
Si Si3 0.148925 0.626096 0.658944
Si Si4 0.319281 0.202751 0.090642
Si Si5 0.778876 0.164407 0.123106
Si Si6 0.801987 0.969785 0.926653
Si Si7 0.463661 0.119188 0.251728
Si Si8 0.057376 0.586417 0.298259
O O1 0.692213 0.421103 0.532841
O O2 0.369947 0.616814 0.854965
O O3 0.704025 0.240386 0.980362
O O4 0.662939 0.220981 0.821258
O O5 0.853671 0.718329 0.785500
O O6 0.105789 0.638303 0.554491
O O7 0.058556 0.624065 0.396898
O O8 0.782749 0.020452 0.386534
O O9 0.243097 0.416730 0.891172
O O10 0.950455 0.860175 0.720542
O O11 0.395607 0.097737 0.273705
O O12 0.500000 0.000000 0.000000
O O13 0.000000 0.000000 0.000000
O O14 0.917230 0.812181 0.105547
O O15 0.660650 0.000143 0.061653
O O16 0.283455 0.389338 0.174411
O O17 0.500000 0.000000 0.500000
O O18 0.000000 0.500000 0.500000
#
# Coordination Sequence:
#
# PCOD8034999 Si02
#       8
#     2   2   2   2   2   2   2   2
#     4  11  26  45  74 103 141 188 237 291 348 420
#     4  12  24  44  76  97 141 187 229 292 354 409
#     4  12  26  48  69 104 148 186 235 287 359 425
#     4  12  26  44  67 105 143 180 231 291 354 426
#     4  11  24  47  71 108 139 179 246 293 344 413
#     4  12  25  46  70 104 144 188 234 291 355 418
#     4  12  26  43  72 104 140 182 241 285 354 419
#     4  12  23  45  68 104 143 179 235 295 339 419
#
# _framework density 22.269960999999999
#
# number of rings (size 3 to 8) (size 9 to 14) (size 15 to 20)
#    0.000    0.250    6.250    2.250    3.500    0.000 
#    0.000    1.250    0.000    0.000    0.000    0.000 
#    0.000    0.000    0.000    0.000    0.000    0.000 
#
# Total GULP energy -198435.013216 kJ/mol
# GULP energy per Si atom -12402.188326 kJ/mol
# Density = 2.221927 g / cm^3
# Si number density = 22.269961 Si / 1000 Ang^3
#
#
#
# Elastic Constant Matrix: (Units=GPa)
#
#
# Indices 1 2 3 4 5 6 
#
# 1 91.0511 42.7578 27.6600 5.8351 6.6126 12.8991
# 2 42.7578 148.6970 29.7480 18.3352 -0.1613 8.7821
# 3 27.6600 29.7480 91.7558 -3.8344 -7.2803 -2.2774
# 4 5.8351 18.3352 -3.8344 45.8504 2.8401 -1.2751
# 5 6.6126 -0.1613 -7.2803 2.8401 40.6247 8.5107
# 6 12.8991 8.7821 -2.2774 -1.2751 8.5107 39.7259
#
#
#
# Elastic Compliance Matrix: (Units=1/GPa)
#
#
# Indices 1 2 3 4 5 6 
#
# 1 0.014250 -0.003052 -0.003604 -0.000866 -0.002136 -0.003729
# 2 -0.003052 0.008463 -0.001936 -0.003234 0.000669 -0.001238
# 3 -0.003604 -0.001936 0.012939 0.002223 0.002342 0.001910
# 4 -0.000866 -0.003234 0.002223 0.023559 -0.001585 0.002219
# 5 -0.002136 0.000669 0.002342 -0.001585 0.026557 -0.005060
# 6 -0.003729 -0.001238 0.001910 0.002219 -0.005060 0.027922
#
#
# Mechanical properties :
#
#
# Convention : Reuss Voigt Hill
#
# Bulk Modulus (GPa) = 54.15322 59.09281 56.62301
# Shear Modulus (GPa) = 36.48842 40.66274 38.57558
#
# Velocity S-wave (km/s) = 4.05218 4.27769 4.16646
# Velocity P-wave (km/s) = 6.80169 7.14077 6.97329
#
# Compressibility (1/GPa) = 0.01846612
#
# Stress axis : x y z
#
# Youngs Moduli (GPa) = 70.17624 118.16751 77.28543
#
# Poissons Ratio (x) = 0.36061 0.27857
# Poissons Ratio (y) = 0.21416 0.14966
# Poissons Ratio (z) = 0.25295 0.22883
#
# Static dielectric constant tensor:
#      x y z
#    x 3.878920 -0.063000 0.048980 
#    y -0.063000 4.407490 0.023040 
#    z 0.048980 0.023040 4.076530 
# 
# 
# High freq. dielectric constant tensor:
#      x y z
#    x 1.875170 0.004280 0.005130 
#    y 0.004280 1.891200 0.005330 
#    z 0.005130 0.005330 1.880650 
# 
# From -- ./inp_files/348821.got.cif
#   From: 2010.06.25/outbox.cif.g09.slc.cpg/sg2_175_cif.got.tgz:348821.got - 2010.06.27 13:26:56.
