data_PCOD8034203
_publ_section_title
;
Structure prediction by ZEFSAII (Michael W. Deem and Ramdas Pophale) SiO2 
 PCOD8034203
Probable space group: P -1
;
_chemical_formula_sum "Si O2"
_cell_formula_units_Z 16
_cell_length_a 14.637473
_cell_length_b 11.796645
_cell_length_c 12.081368
_cell_angle_alpha 77.835902
_cell_angle_beta 121.831385
_cell_angle_gamma 150.756433
_cell_volume 691.960856
_symmetry_space_group_name_H-M "P -1"
_symmetry_group_IT_number 2
_symmetry_cell_setting 'triclinic'
loop_
_space_group_symop_operation_xyz
x,y,z
-x,-y,-z
loop_
_atom_site_type_symbol
_atom_site_label
_atom_site_fract_x
_atom_site_fract_y
_atom_site_fract_z
Si Si1 0.016000 0.733737 0.205200
Si Si2 0.981065 0.200012 0.338918
Si Si3 0.324373 0.335720 0.808911
Si Si4 0.314911 0.503520 0.287851
Si Si5 0.761438 0.803658 0.813292
Si Si6 0.069019 0.853628 0.439200
Si Si7 0.902264 0.274595 0.964971
Si Si8 0.554205 0.922930 0.016557
O O1 0.056301 0.739031 0.360390
O O2 0.154763 0.995417 0.232543
O O3 0.161502 0.798039 0.192417
O O4 0.694162 0.407603 0.046035
O O5 0.077867 0.315148 0.503117
O O6 0.811995 0.144924 0.207698
O O7 0.252949 0.463489 0.385906
O O8 0.794895 0.904899 0.255367
O O9 0.498907 0.557443 0.772874
O O10 0.075797 0.177629 0.701822
O O11 0.500000 0.500000 0.000000
O O12 0.265961 0.319809 0.273288
O O13 0.128490 0.401673 0.112899
O O14 0.623939 0.830292 0.392310
O O15 0.000000 0.000000 0.000000
O O16 0.632159 0.986183 0.923168
O O17 0.000000 0.500000 0.000000
O O18 0.500000 0.000000 0.000000
#
# Coordination Sequence:
#
# PCOD8034203 Si02
#       8
#     2   2   2   2   2   2   2   2
#     4  12  26  41  70 106 137 183 231 287 355 413
#     4  11  24  44  68 101 141 187 236 276 354 419
#     4  12  26  42  67 105 142 191 237 282 343 425
#     4  11  25  44  71 103 144 191 226 287 356 411
#     4  12  23  41  69 104 145 176 233 289 343 416
#     4  12  27  44  67 102 155 183 226 285 358 425
#     4  11  24  46  78 103 131 183 247 294 342 416
#     4  11  24  47  77  99 134 183 242 299 343 408
#
# _framework density 23.122695
#
# number of rings (size 3 to 8) (size 9 to 14) (size 15 to 20)
#    0.000    0.500    3.750    4.875    5.250    1.000 
#    0.000    1.875    0.000    0.000    0.000    0.000 
#    0.000    0.000    0.000    0.000    0.000    0.000 
#
# Total GULP energy -198293.269492 kJ/mol
# GULP energy per Si atom -12393.329343 kJ/mol
# Density = 2.307007 g / cm^3
# Si number density = 23.122695 Si / 1000 Ang^3
#
#
#
# Elastic Constant Matrix: (Units=GPa)
#
#
# Indices 1 2 3 4 5 6 
#
# 1 153.9174 44.5268 49.5971 -15.4758 -23.0577 15.0987
# 2 44.5268 90.1128 3.2994 -10.6575 0.2855 12.8769
# 3 49.5971 3.2994 63.2373 -15.8597 -21.8193 14.8658
# 4 -15.4758 -10.6575 -15.8597 29.2752 23.0564 -9.2048
# 5 -23.0577 0.2855 -21.8193 23.0564 47.0975 -4.9029
# 6 15.0987 12.8769 14.8658 -9.2048 -4.9029 42.5898
#
#
#
# Elastic Compliance Matrix: (Units=1/GPa)
#
#
# Indices 1 2 3 4 5 6 
#
# 1 0.010744 -0.005417 -0.007875 -0.002901 0.003096 0.000307
# 2 -0.005417 0.014990 0.004486 0.007881 -0.004838 -0.003031
# 3 -0.007875 0.004486 0.026296 0.006210 0.004649 -0.005866
# 4 -0.002901 0.007881 0.006210 0.064068 -0.029231 0.006960
# 5 0.003096 -0.004838 0.004649 -0.029231 0.038919 -0.003095
# 6 0.000307 -0.003031 -0.005866 0.006960 -0.003095 0.027483
#
#
# Mechanical properties :
#
#
# Convention : Reuss Voigt Hill
#
# Bulk Modulus (GPa) = 29.05397 55.79047 42.42222
# Shear Modulus (GPa) = 23.63110 37.78212 30.70661
#
# Velocity S-wave (km/s) = 3.20032 4.04664 3.64811
# Velocity P-wave (km/s) = 5.12333 6.78337 6.01093
#
# Compressibility (1/GPa) = 0.03441871
#
# Stress axis : x y z
#
# Youngs Moduli (GPa) = 93.07686 66.70959 38.02795
#
# Poissons Ratio (x) = 0.36138 0.29948
# Poissons Ratio (y) = 0.50422 -0.17061
# Poissons Ratio (z) = 0.73299 -0.29929
#
# Static dielectric constant tensor:
#      x y z
#    x 4.507150 0.525790 -0.188450 
#    y 0.525790 4.277930 -0.005460 
#    z -0.188450 -0.005460 4.081210 
# 
# 
# High freq. dielectric constant tensor:
#      x y z
#    x 1.926860 0.034940 -0.015060 
#    y 0.034940 1.917010 -0.004130 
#    z -0.015060 -0.004130 1.897790 
# 
# From -- ./inp_files/452289.got.cif
#   From: 2010.06.25/outbox.cif.g09.slc.cpg/sg2_227_cif.got.tgz:452289.got - 2010.06.27 13:26:56.
