data_PCOD8034725
_publ_section_title
;
Structure prediction by ZEFSAII (Michael W. Deem and Ramdas Pophale) SiO2 
 PCOD8034725
Probable space group: P -1
;
_chemical_formula_sum "Si O2"
_cell_formula_units_Z 14
_cell_length_a 12.047771
_cell_length_b 7.804431
_cell_length_c 9.080080
_cell_angle_alpha 104.895492
_cell_angle_beta 141.048608
_cell_angle_gamma 77.641961
_cell_volume 518.551756
_symmetry_space_group_name_H-M "P -1"
_symmetry_group_IT_number 2
_symmetry_cell_setting 'triclinic'
loop_
_space_group_symop_operation_xyz
x,y,z
-x,-y,-z
loop_
_atom_site_type_symbol
_atom_site_label
_atom_site_fract_x
_atom_site_fract_y
_atom_site_fract_z
Si Si1 0.203681 0.828850 0.792853
Si Si2 0.550298 0.402626 0.378904
Si Si3 0.799125 0.922081 0.414025
Si Si4 0.588627 0.937533 0.727038
Si Si5 0.855773 0.870559 0.769260
Si Si6 0.751025 0.557417 0.139539
Si Si7 0.054170 0.505884 0.225622
O O1 0.206367 0.612802 0.748451
O O2 0.010848 0.910385 0.644471
O O3 0.262274 0.911051 0.713476
O O4 0.341023 0.896845 0.071345
O O5 0.500000 0.500000 0.500000
O O6 0.518978 0.192910 0.310349
O O7 0.752883 0.414941 0.542076
O O8 0.426161 0.486780 0.142146
O O9 0.735633 0.953611 0.526958
O O10 0.717438 0.736712 0.236459
O O11 0.749813 0.819292 0.795681
O O12 0.500000 0.000000 0.500000
O O13 0.948448 0.694387 0.759395
O O14 0.000000 0.000000 0.000000
O O15 0.911747 0.606928 0.205019
O O16 0.000000 0.500000 0.000000
#
# Coordination Sequence:
#
# PCOD8034725 Si02
#       7
#     2   2   2   2   2   2   2
#     4  11  24  45  78 108 149 206 248 313 388 448
#     4  12  24  45  74 112 156 196 257 320 367 460
#     4  11  25  47  77 114 152 199 257 318 380 461
#     4  12  25  47  74 109 157 197 251 325 382 444
#     4  12  25  47  75 112 144 192 264 311 372 469
#     4  12  24  50  77 109 160 203 251 310 395 450
#     4  12  26  43  76 117 144 202 257 309 387 450
#
# _framework density 26.998269000000001
#
# number of rings (size 3 to 8) (size 9 to 14) (size 15 to 20)
#    0.000    0.286    7.143    1.286    2.000    0.000 
#    0.000    2.857    0.000    0.000    0.000    0.000 
#    0.000    0.000    0.000    0.000    0.000    0.000 
#
# Total GULP energy -173588.592449 kJ/mol
# GULP energy per Si atom -12399.185175 kJ/mol
# Density = 2.693682 g / cm^3
# Si number density = 26.998269 Si / 1000 Ang^3
#
#
#
# Elastic Constant Matrix: (Units=GPa)
#
#
# Indices 1 2 3 4 5 6 
#
# 1 109.1233 29.2985 43.6138 6.4041 -4.2908 22.0085
# 2 29.2985 147.2275 45.8100 -4.0080 -7.9655 33.5312
# 3 43.6138 45.8100 165.2268 -1.5179 -0.9388 23.2296
# 4 6.4041 -4.0080 -1.5179 51.6054 7.7998 -2.4179
# 5 -4.2908 -7.9655 -0.9388 7.7998 51.3279 -3.4245
# 6 22.0085 33.5312 23.2296 -2.4179 -3.4245 30.8859
#
#
#
# Elastic Compliance Matrix: (Units=1/GPa)
#
#
# Indices 1 2 3 4 5 6 
#
# 1 0.011498 -0.000168 -0.002087 -0.001920 0.000755 -0.006508
# 2 -0.000168 0.009300 -0.001274 0.000169 0.000785 -0.008919
# 3 -0.002087 -0.001274 0.007332 0.000321 -0.000465 -0.002671
# 4 -0.001920 0.000169 0.000321 0.020202 -0.003052 0.002187
# 5 0.000755 0.000785 -0.000465 -0.003052 0.020187 0.000959
# 6 -0.006508 -0.008919 -0.002671 0.002187 0.000959 0.048983
#
#
# Mechanical properties :
#
#
# Convention : Reuss Voigt Hill
#
# Bulk Modulus (GPa) = 47.45596 73.22467 60.34032
# Shear Modulus (GPa) = 37.99806 46.95420 42.47613
#
# Velocity S-wave (km/s) = 3.75564 4.17484 3.97078
# Velocity P-wave (km/s) = 6.03506 7.10070 6.58946
#
# Compressibility (1/GPa) = 0.02107217
#
# Stress axis : x y z
#
# Youngs Moduli (GPa) = 86.97139 107.52157 136.38426
#
# Poissons Ratio (x) = 0.01807 0.28461
# Poissons Ratio (y) = 0.01462 0.17380
# Poissons Ratio (z) = 0.18150 0.13702
#
# Static dielectric constant tensor:
#      x y z
#    x 4.024740 0.005680 0.044380 
#    y 0.005680 4.907610 -0.225350 
#    z 0.044380 -0.225350 5.032310 
# 
# 
# High freq. dielectric constant tensor:
#      x y z
#    x 2.097090 0.007260 -0.005330 
#    y 0.007260 2.088100 -0.005220 
#    z -0.005330 -0.005220 2.102970 
# 
# From -- ./inp_files/299012.got.cif
#   From: 2010.06.25/outbox.cif.g09.slc.cpg/sg2_150_cif.got.tgz:299012.got - 2010.06.27 13:26:56.
