data_PCOD8034131
_publ_section_title
;
Structure prediction by ZEFSAII (Michael W. Deem and Ramdas Pophale) SiO2 
 PCOD8034131
Probable space group: P -1
;
_chemical_formula_sum "Si O2"
_cell_formula_units_Z 16
_cell_length_a 18.136635
_cell_length_b 10.690534
_cell_length_c 8.935295
_cell_angle_alpha 53.703222
_cell_angle_beta 33.462529
_cell_angle_gamma 49.343370
_cell_volume 719.817893
_symmetry_space_group_name_H-M "P -1"
_symmetry_group_IT_number 2
_symmetry_cell_setting 'triclinic'
loop_
_space_group_symop_operation_xyz
x,y,z
-x,-y,-z
loop_
_atom_site_type_symbol
_atom_site_label
_atom_site_fract_x
_atom_site_fract_y
_atom_site_fract_z
Si Si1 0.354458 0.135291 0.090608
Si Si2 0.367837 0.465942 0.683460
Si Si3 0.169538 0.777101 0.955008
Si Si4 0.859571 0.866359 0.314146
Si Si5 0.355706 0.515182 0.320133
Si Si6 0.154138 0.793614 0.296826
Si Si7 0.162391 0.119205 0.174953
Si Si8 0.138683 0.353858 0.804613
O O1 0.250940 0.196942 0.364520
O O2 0.276763 0.051277 0.163352
O O3 0.371888 0.292980 0.868704
O O4 0.500000 0.000000 0.000000
O O5 0.500000 0.500000 0.500000
O O6 0.228146 0.621613 0.854527
O O7 0.384076 0.462467 0.480438
O O8 0.215679 0.934796 0.725417
O O9 0.225826 0.719617 0.068697
O O10 0.998508 0.837985 0.199585
O O11 0.905544 0.758141 0.161791
O O12 0.248459 0.702857 0.343632
O O13 0.263108 0.410448 0.481732
O O14 0.500000 0.500000 0.000000
O O15 0.997592 0.780784 0.566803
O O16 0.149157 0.979821 0.185582
O O17 0.212074 0.243586 0.902315
O O18 0.000000 0.500000 0.000000
#
# Coordination Sequence:
#
# PCOD8034131 Si02
#       8
#     2   2   2   2   2   2   2   2
#     4  12  28  48  73 104 146 194 244 302 365 436
#     4  12  28  47  71 101 146 193 240 298 369 436
#     4  11  24  45  70 109 149 184 238 299 363 435
#     4  11  26  43  73 108 146 188 239 297 365 434
#     4  12  28  46  72 106 147 189 240 301 365 435
#     4  11  24  43  74 104 146 188 237 296 364 431
#     4  11  24  46  71 104 142 187 245 299 355 431
#     4  12  24  47  74 107 142 191 250 299 358 435
#
# _framework density 22.227844000000001
#
# number of rings (size 3 to 8) (size 9 to 14) (size 15 to 20)
#    0.000    0.500    5.000    2.250    7.000    0.500 
#    0.000    1.250    0.000    0.000    0.000    0.000 
#    0.000    0.000    0.000    0.000    0.000    0.000 
#
# Total GULP energy -198316.784077 kJ/mol
# GULP energy per Si atom -12394.799005 kJ/mol
# Density = 2.217725 g / cm^3
# Si number density = 22.227844 Si / 1000 Ang^3
#
#
#
# Elastic Constant Matrix: (Units=GPa)
#
#
# Indices 1 2 3 4 5 6 
#
# 1 118.5794 43.2037 52.5403 -0.5530 7.3552 -12.7338
# 2 43.2037 109.0744 60.1500 -9.7000 11.1791 -8.9213
# 3 52.5403 60.1500 150.5256 -10.8463 2.0459 -9.5872
# 4 -0.5530 -9.7000 -10.8463 32.1381 -3.4217 2.6416
# 5 7.3552 11.1791 2.0459 -3.4217 41.6552 0.7517
# 6 -12.7338 -8.9213 -9.5872 2.6416 0.7517 40.7562
#
#
#
# Elastic Compliance Matrix: (Units=1/GPa)
#
#
# Indices 1 2 3 4 5 6 
#
# 1 0.010932 -0.002678 -0.002714 -0.001864 -0.001274 0.002335
# 2 -0.002678 0.012976 -0.003997 0.002159 -0.002654 0.000973
# 3 -0.002714 -0.003997 0.009336 0.002005 0.001252 0.000320
# 4 -0.001864 0.002159 0.002005 0.032814 0.002379 -0.001809
# 5 -0.001274 -0.002654 0.001252 0.002379 0.025101 -0.001301
# 6 0.002335 0.000973 0.000320 -0.001809 -0.001301 0.025695
#
#
# Mechanical properties :
#
#
# Convention : Reuss Voigt Hill
#
# Bulk Modulus (GPa) = 69.12416 76.66303 72.89359
# Shear Modulus (GPa) = 35.59854 37.72893 36.66373
#
# Velocity S-wave (km/s) = 4.00625 4.12439 4.06575
# Velocity P-wave (km/s) = 7.25021 7.56606 7.40982
#
# Compressibility (1/GPa) = 0.01446672
#
# Stress axis : x y z
#
# Youngs Moduli (GPa) = 91.47068 77.06254 107.11432
#
# Poissons Ratio (x) = 0.20635 0.29072
# Poissons Ratio (y) = 0.24493 0.42815
# Poissons Ratio (z) = 0.24826 0.30803
#
# Static dielectric constant tensor:
#      x y z
#    x 3.540220 -0.866160 0.006380 
#    y -0.866160 2.645320 -0.197620 
#    z 0.006380 -0.197620 4.134670 
# 
# 
# High freq. dielectric constant tensor:
#      x y z
#    x 1.887320 -0.007170 0.002620 
#    y -0.007170 1.868090 -0.015950 
#    z 0.002620 -0.015950 1.883310 
# 
# From -- ./inp_files/298897.got.cif
#   From: 2010.06.25/outbox.cif.g09.slc.cpg/sg2_150_cif.got.tgz:298897.got - 2010.06.27 13:26:56.
