data_PCOD8034500
_publ_section_title
;
Structure prediction by ZEFSAII (Michael W. Deem and Ramdas Pophale) SiO2 
 PCOD8034500
Probable space group: P -1
;
_chemical_formula_sum "Si O2"
_cell_formula_units_Z 16
_cell_length_a 8.733350
_cell_length_b 15.526821
_cell_length_c 11.853387
_cell_angle_alpha 112.345058
_cell_angle_beta 74.752452
_cell_angle_gamma 47.427258
_cell_volume 706.725088
_symmetry_space_group_name_H-M "P -1"
_symmetry_group_IT_number 2
_symmetry_cell_setting 'triclinic'
loop_
_space_group_symop_operation_xyz
x,y,z
-x,-y,-z
loop_
_atom_site_type_symbol
_atom_site_label
_atom_site_fract_x
_atom_site_fract_y
_atom_site_fract_z
Si Si1 0.623535 0.155307 0.254528
Si Si2 0.772532 0.693069 0.195403
Si Si3 0.303184 0.737345 0.885804
Si Si4 0.710539 0.848047 0.786231
Si Si5 0.618245 0.234486 0.532994
Si Si6 0.246575 0.586605 0.182394
Si Si7 0.161724 0.080479 0.401783
Si Si8 0.279435 0.572538 0.675863
O O1 0.517817 0.287051 0.250255
O O2 0.462503 0.140603 0.248212
O O3 0.507563 0.248455 0.443447
O O4 0.006844 0.948511 0.095253
O O5 0.504522 0.775664 0.358688
O O6 0.990110 0.653341 0.201809
O O7 0.544339 0.869243 0.243569
O O8 0.000000 0.500000 0.000000
O O9 0.556054 0.580052 0.854077
O O10 0.147236 0.727578 0.849833
O O11 0.858231 0.847787 0.671250
O O12 0.002326 0.656232 0.707287
O O13 0.500000 0.000000 0.000000
O O14 0.447825 0.422784 0.663455
O O15 0.994605 0.065686 0.398398
O O16 0.034450 0.772170 0.382246
O O17 0.500000 0.500000 0.000000
O O18 0.500000 0.500000 0.500000
#
# Coordination Sequence:
#
# PCOD8034500 Si02
#       8
#     2   2   2   2   2   2   2   2
#     4  11  26  41  73 108 142 183 233 302 349 431
#     4  12  31  48  72 110 140 189 250 302 356 428
#     4  11  24  45  69 105 143 181 241 284 365 424
#     4  12  26  42  75 107 145 190 235 295 361 438
#     4  12  26  47  76 102 147 188 238 304 358 428
#     4  12  28  49  78 101 143 199 243 300 362 434
#     4  12  27  51  73 103 148 195 243 295 366 429
#     4  12  22  46  70 104 142 186 231 290 374 427
#
# _framework density 22.639638999999999
#
# number of rings (size 3 to 8) (size 9 to 14) (size 15 to 20)
#    0.000    0.250    5.000    2.250   10.500    0.500 
#    0.000    0.000    0.000    0.000    0.000    0.000 
#    0.000    0.000    0.000    0.000    0.000    0.000 
#
# Total GULP energy -198330.799429 kJ/mol
# GULP energy per Si atom -12395.674964 kJ/mol
# Density = 2.258811 g / cm^3
# Si number density = 22.639639 Si / 1000 Ang^3
#
#
#
# Elastic Constant Matrix: (Units=GPa)
#
#
# Indices 1 2 3 4 5 6 
#
# 1 157.2003 29.6666 29.7270 -7.4730 -6.6543 -18.5145
# 2 29.6666 113.0674 20.1260 12.6673 -3.7994 -18.3536
# 3 29.7270 20.1260 91.8179 -3.9588 9.7748 -6.6650
# 4 -7.4730 12.6673 -3.9588 40.7293 0.9115 -8.1498
# 5 -6.6543 -3.7994 9.7748 0.9115 26.8984 6.6190
# 6 -18.5145 -18.3536 -6.6650 -8.1498 6.6190 39.3062
#
#
#
# Elastic Compliance Matrix: (Units=1/GPa)
#
#
# Indices 1 2 3 4 5 6 
#
# 1 0.007486 -0.001344 -0.002018 0.002101 0.001657 0.002713
# 2 -0.001344 0.010416 -0.001882 -0.003080 0.001170 0.003075
# 3 -0.002018 -0.001882 0.012796 0.001939 -0.005908 0.001737
# 4 0.002101 -0.003080 0.001939 0.027366 -0.003040 0.006066
# 5 0.001657 0.001170 -0.005908 -0.003040 0.041810 -0.007346
# 6 0.002713 0.003075 0.001737 0.006066 -0.007346 0.030945
#
#
# Mechanical properties :
#
#
# Convention : Reuss Voigt Hill
#
# Bulk Modulus (GPa) = 49.48276 57.90276 53.69276
# Shear Modulus (GPa) = 33.77411 40.22452 36.99932
#
# Velocity S-wave (km/s) = 3.86659 4.21970 4.04700
# Velocity P-wave (km/s) = 6.46824 7.02656 6.75317
#
# Compressibility (1/GPa) = 0.02020906
#
# Stress axis : x y z
#
# Youngs Moduli (GPa) = 133.57991 96.01003 78.15199
#
# Poissons Ratio (x) = 0.12908 0.15770
# Poissons Ratio (y) = 0.17959 0.14707
# Poissons Ratio (z) = 0.26954 0.18068
#
# Static dielectric constant tensor:
#      x y z
#    x 1.273620 1.613440 0.802910 
#    y 1.613440 3.293490 -0.309950 
#    z 0.802910 -0.309950 3.983460 
# 
# 
# High freq. dielectric constant tensor:
#      x y z
#    x 1.905020 -0.008400 0.000310 
#    y -0.008400 1.903510 0.003310 
#    z 0.000310 0.003310 1.895830 
# 
# From -- ./inp_files/242558.got.cif
#   From: 2010.06.25/outbox.cif.g09.slc.cpg/sg2_122_cif.got.tgz:242558.got - 2010.06.27 13:26:56.
