data_PCOD8034931
_publ_section_title
;
Structure prediction by ZEFSAII (Michael W. Deem and Ramdas Pophale) SiO2 
 PCOD8034931
Probable space group: P -1
;
_chemical_formula_sum "Si O2"
_cell_formula_units_Z 14
_cell_length_a 11.011726
_cell_length_b 8.095130
_cell_length_c 21.954842
_cell_angle_alpha 32.836342
_cell_angle_beta 146.451639
_cell_angle_gamma 135.636446
_cell_volume 585.766651
_symmetry_space_group_name_H-M "P -1"
_symmetry_group_IT_number 2
_symmetry_cell_setting 'triclinic'
loop_
_space_group_symop_operation_xyz
x,y,z
-x,-y,-z
loop_
_atom_site_type_symbol
_atom_site_label
_atom_site_fract_x
_atom_site_fract_y
_atom_site_fract_z
Si Si1 0.661312 0.862402 0.877052
Si Si2 0.517976 0.144002 0.395863
Si Si3 0.339835 0.188166 0.713729
Si Si4 0.976017 0.821134 0.859146
Si Si5 0.930632 0.941370 0.559759
Si Si6 0.032447 0.257662 0.846683
Si Si7 0.375316 0.796236 0.961328
O O1 0.479035 0.109465 0.736313
O O2 0.824708 0.037507 0.845604
O O3 0.551367 0.555393 0.895195
O O4 0.782556 0.744244 0.024410
O O5 0.595176 0.492834 0.327880
O O6 0.276014 0.106756 0.278302
O O7 0.500000 0.000000 0.500000
O O8 0.680579 0.997513 0.459478
O O9 0.416205 0.926224 0.871611
O O10 0.083812 0.170223 0.594300
O O11 0.109725 0.803355 0.857514
O O12 0.108121 0.093152 0.867585
O O13 0.000000 0.500000 0.000000
O O14 0.972419 0.597004 0.701562
O O15 0.000000 0.000000 0.500000
O O16 0.500000 0.000000 0.000000
#
# Coordination Sequence:
#
# PCOD8034931 Si02
#       7
#     2   2   2   2   2   2   2
#     4  11  24  46  76 111 143 191 242 316 378 447
#     4  12  29  52  75 105 152 208 254 300 379 459
#     4  12  27  46  75 107 151 190 249 313 377 438
#     4  12  26  47  76 108 143 193 247 307 370 450
#     4  12  30  48  74 109 152 204 253 312 371 446
#     4  11  25  46  75 102 152 187 253 297 378 447
#     4  12  25  42  74 114 151 182 241 317 388 436
#
# _framework density 23.900303000000001
#
# number of rings (size 3 to 8) (size 9 to 14) (size 15 to 20)
#    0.000    0.286    2.857    5.143   10.000    0.571 
#    0.000    0.000    0.000    0.000    0.000    0.000 
#    0.000    0.000    0.000    0.000    0.000    0.000 
#
# Total GULP energy -173561.151908 kJ/mol
# GULP energy per Si atom -12397.225136 kJ/mol
# Density = 2.384591 g / cm^3
# Si number density = 23.900303 Si / 1000 Ang^3
#
#
#
# Elastic Constant Matrix: (Units=GPa)
#
#
# Indices 1 2 3 4 5 6 
#
# 1 123.7127 7.6065 35.3812 -9.1562 10.8291 -0.3886
# 2 7.6065 107.7333 8.5778 -13.7580 -7.7912 -12.1908
# 3 35.3812 8.5778 80.0091 -4.3186 -0.4205 7.8797
# 4 -9.1562 -13.7580 -4.3186 41.2205 -2.2152 -1.2093
# 5 10.8291 -7.7912 -0.4205 -2.2152 43.2606 -3.1995
# 6 -0.3886 -12.1908 7.8797 -1.2093 -3.1995 34.8763
#
#
#
# Elastic Compliance Matrix: (Units=1/GPa)
#
#
# Indices 1 2 3 4 5 6 
#
# 1 0.009633 -0.000225 -0.004247 0.001517 -0.002354 0.000825
# 2 -0.000225 0.010519 -0.001246 0.003588 0.002441 0.004304
# 3 -0.004247 -0.001246 0.014893 0.000129 0.000711 -0.003778
# 4 0.001517 0.003588 0.000129 0.025970 0.001768 0.002305
# 5 -0.002354 0.002441 0.000711 0.001768 0.024462 0.002972
# 6 0.000825 0.004304 -0.003778 0.002305 0.002972 0.031392
#
#
# Mechanical properties :
#
#
# Convention : Reuss Voigt Hill
#
# Bulk Modulus (GPa) = 42.35716 46.06513 44.21115
# Shear Modulus (GPa) = 36.71738 41.19745 38.95742
#
# Velocity S-wave (km/s) = 3.92378 4.15628 4.04170
# Velocity P-wave (km/s) = 6.18781 6.50758 6.34971
#
# Compressibility (1/GPa) = 0.02360876
#
# Stress axis : x y z
#
# Youngs Moduli (GPa) = 103.81208 95.06627 67.14521
#
# Poissons Ratio (x) = 0.02140 0.28519
# Poissons Ratio (y) = 0.02337 0.08364
# Poissons Ratio (z) = 0.44093 0.11841
#
# Static dielectric constant tensor:
#      x y z
#    x 4.986680 0.013600 0.115270 
#    y 0.013600 4.936180 -0.079690 
#    z 0.115270 -0.079690 4.126970 
# 
# 
# High freq. dielectric constant tensor:
#      x y z
#    x 1.973900 0.002540 0.007570 
#    y 0.002540 1.964040 -0.003920 
#    z 0.007570 -0.003920 1.937180 
# 
# From -- ./inp_files/280161.got.cif
#   From: 2010.06.25/outbox.cif.g09.slc.cpg/sg2_141_cif.got.tgz:280161.got - 2010.06.27 13:26:56.
