data_PCOD8034985
_publ_section_title
;
Structure prediction by ZEFSAII (Michael W. Deem and Ramdas Pophale) SiO2 
 PCOD8034985
Probable space group: P -1
;
_chemical_formula_sum "Si O2"
_cell_formula_units_Z 16
_cell_length_a 14.663788
_cell_length_b 8.626846
_cell_length_c 8.206768
_cell_angle_alpha 48.059653
_cell_angle_beta 112.907556
_cell_angle_gamma 97.722614
_cell_volume 699.245869
_symmetry_space_group_name_H-M "P -1"
_symmetry_group_IT_number 2
_symmetry_cell_setting 'triclinic'
loop_
_space_group_symop_operation_xyz
x,y,z
-x,-y,-z
loop_
_atom_site_type_symbol
_atom_site_label
_atom_site_fract_x
_atom_site_fract_y
_atom_site_fract_z
Si Si1 0.816138 0.552672 0.105595
Si Si2 0.065416 0.109241 0.092077
Si Si3 0.356154 0.388421 0.317164
Si Si4 0.929478 0.186364 0.231129
Si Si5 0.449670 0.569918 0.747799
Si Si6 0.395431 0.159457 0.829580
Si Si7 0.763302 0.244269 0.534322
Si Si8 0.263788 0.838437 0.060679
O O1 0.898970 0.388998 0.180550
O O2 0.781021 0.464155 0.312540
O O3 0.873331 0.738925 0.070649
O O4 0.720930 0.640575 0.860748
O O5 0.993079 0.243974 0.079738
O O6 0.153387 0.937666 0.362799
O O7 0.000000 0.000000 0.000000
O O8 0.471801 0.337257 0.374876
O O9 0.347184 0.224721 0.571986
O O10 0.338792 0.631905 0.192324
O O11 0.829950 0.101567 0.166947
O O12 0.000000 0.000000 0.500000
O O13 0.408525 0.374182 0.776869
O O14 0.354646 0.762875 0.575934
O O15 0.500000 0.500000 0.000000
O O16 0.500000 0.000000 0.000000
O O17 0.320302 0.038874 0.964113
O O18 0.780203 0.223310 0.754202
#
# Coordination Sequence:
#
# PCOD8034985 Si02
#       8
#     2   2   2   2   2   2   2   2
#     4  11  27  46  77 104 140 192 236 295 369 421
#     4  12  27  49  70 106 144 187 242 297 356 430
#     4  11  24  47  70 104 146 185 238 291 353 431
#     4  11  24  49  73 105 144 184 240 303 352 427
#     4  12  25  45  68 105 151 185 230 296 354 422
#     4  12  25  44  77 102 138 195 238 284 360 425
#     4  12  25  46  71 105 147 180 242 294 355 429
#     4  11  25  45  73 105 143 186 238 293 351 427
#
# _framework density 22.881792000000001
#
# number of rings (size 3 to 8) (size 9 to 14) (size 15 to 20)
#    0.000    0.500    6.250    1.500    3.500    1.500 
#    2.250    1.875    0.000    0.000    0.000    0.000 
#    0.000    0.000    0.000    0.000    0.000    0.000 
#
# Total GULP energy -198365.975340 kJ/mol
# GULP energy per Si atom -12397.873459 kJ/mol
# Density = 2.282971 g / cm^3
# Si number density = 22.881792 Si / 1000 Ang^3
#
#
#
# Elastic Constant Matrix: (Units=GPa)
#
#
# Indices 1 2 3 4 5 6 
#
# 1 146.5227 39.8601 58.7256 -7.9116 2.5220 6.5981
# 2 39.8601 78.3753 38.1681 8.6748 -8.4083 21.7401
# 3 58.7256 38.1681 145.1003 17.2119 -1.2688 17.5968
# 4 -7.9116 8.6748 17.2119 21.0697 -3.8560 -6.5083
# 5 2.5220 -8.4083 -1.2688 -3.8560 60.7183 -4.8786
# 6 6.5981 21.7401 17.5968 -6.5083 -4.8786 31.7765
#
#
#
# Elastic Compliance Matrix: (Units=1/GPa)
#
#
# Indices 1 2 3 4 5 6 
#
# 1 0.011272 -0.006959 -0.005409 0.014084 0.000017 0.008303
# 2 -0.006959 0.023048 0.001261 -0.018774 0.000809 -0.018743
# 3 -0.005409 0.001261 0.011701 -0.015246 -0.001088 -0.009509
# 4 0.014084 -0.018774 -0.015246 0.085104 0.004837 0.036535
# 5 0.000017 0.000809 -0.001088 0.004837 0.017160 0.003671
# 6 0.008303 -0.018743 -0.009509 0.036535 0.003671 0.055881
#
#
# Mechanical properties :
#
#
# Convention : Reuss Voigt Hill
#
# Bulk Modulus (GPa) = 42.00431 71.50064 56.75248
# Shear Modulus (GPa) = 21.33858 38.26254 29.80056
#
# Velocity S-wave (km/s) = 3.05709 4.09367 3.61275
# Velocity P-wave (km/s) = 5.55500 7.32529 6.50069
#
# Compressibility (1/GPa) = 0.02380708
#
# Stress axis : x y z
#
# Youngs Moduli (GPa) = 88.71361 43.38790 85.45961
#
# Poissons Ratio (x) = 0.30193 0.46226
# Poissons Ratio (y) = 0.61735 -0.10774
# Poissons Ratio (z) = 0.47986 -0.05470
#
# Static dielectric constant tensor:
#      x y z
#    x 4.791340 -0.234340 0.206780 
#    y -0.234340 3.650170 0.198480 
#    z 0.206780 0.198480 4.210060 
# 
# 
# High freq. dielectric constant tensor:
#      x y z
#    x 1.931300 -0.007850 0.008160 
#    y -0.007850 1.878400 0.006720 
#    z 0.008160 0.006720 1.912400 
# 
# From -- ./inp_files/47968.got.cif
#   From: 2010.06.25/outbox.cif.g09.slc.cpg/sg2_24_cif.got.tgz:47968.got - 2010.06.27 13:26:56.
