data_PCOD8034575
_publ_section_title
;
Structure prediction by ZEFSAII (Michael W. Deem and Ramdas Pophale) SiO2 
 PCOD8034575
Probable space group: P -1
;
_chemical_formula_sum "Si O2"
_cell_formula_units_Z 16
_cell_length_a 14.448591
_cell_length_b 8.707581
_cell_length_c 9.046168
_cell_angle_alpha 69.536812
_cell_angle_beta 74.846944
_cell_angle_gamma 42.812500
_cell_volume 724.637355
_symmetry_space_group_name_H-M "P -1"
_symmetry_group_IT_number 2
_symmetry_cell_setting 'triclinic'
loop_
_space_group_symop_operation_xyz
x,y,z
-x,-y,-z
loop_
_atom_site_type_symbol
_atom_site_label
_atom_site_fract_x
_atom_site_fract_y
_atom_site_fract_z
Si Si1 0.488550 0.649724 0.832508
Si Si2 0.400337 0.506264 0.685931
Si Si3 0.841597 0.679304 0.486831
Si Si4 0.759682 0.865620 0.135787
Si Si5 0.218526 0.564785 0.230707
Si Si6 0.803926 0.493381 0.076924
Si Si7 0.301192 0.881529 0.396123
Si Si8 0.106996 0.044649 0.151229
O O1 0.420953 0.649919 0.718496
O O2 0.633359 0.543986 0.766468
O O3 0.398226 0.906411 0.846475
O O4 0.500000 0.500000 0.000000
O O5 0.311692 0.484248 0.818793
O O6 0.317652 0.675077 0.521465
O O7 0.546723 0.245903 0.675167
O O8 0.821215 0.717385 0.308222
O O9 0.798531 0.551595 0.599258
O O10 0.000000 0.500000 0.500000
O O11 0.757286 0.920488 0.526835
O O12 0.768169 0.723646 0.049620
O O13 0.839022 0.933894 0.028728
O O14 0.112549 0.841913 0.201387
O O15 0.193912 0.518606 0.095955
O O16 0.948983 0.277124 0.162853
O O17 0.197101 0.001636 0.263247
#
# Coordination Sequence:
#
# PCOD8034575 Si02
#       8
#     2   2   2   2   2   2   2   2
#     4  12  22  47  73 104 140 188 239 297 353 420
#     4  11  24  45  71 106 138 188 236 300 349 425
#     4  12  28  47  71 107 150 186 235 300 360 420
#     4  12  26  46  73 102 150 186 237 298 357 423
#     4  12  27  44  76 106 142 190 242 292 361 425
#     4  12  27  43  75 106 143 186 247 287 360 422
#     4  11  25  46  73  99 148 183 236 291 363 414
#     4  12  25  48  74 104 142 192 242 292 355 432
#
# _framework density 22.080010000000001
#
# number of rings (size 3 to 8) (size 9 to 14) (size 15 to 20)
#    0.000    0.250    5.000    3.000    5.250    1.500 
#    0.000    0.000    0.000    0.000    0.000    0.000 
#    0.000    0.000    0.000    0.000    0.000    0.000 
#
# Total GULP energy -198466.854355 kJ/mol
# GULP energy per Si atom -12404.178397 kJ/mol
# Density = 2.202975 g / cm^3
# Si number density = 22.080010 Si / 1000 Ang^3
#
#
#
# Elastic Constant Matrix: (Units=GPa)
#
#
# Indices 1 2 3 4 5 6 
#
# 1 83.4887 29.5492 29.9239 -6.4653 -1.6563 -6.7392
# 2 29.5492 123.9523 -1.5629 3.3905 6.0380 0.4382
# 3 29.9239 -1.5629 99.9441 -17.7431 2.4934 2.0898
# 4 -6.4653 3.3905 -17.7431 37.1276 1.4970 2.5788
# 5 -1.6563 6.0380 2.4934 1.4970 29.9638 3.1382
# 6 -6.7392 0.4382 2.0898 2.5788 3.1382 44.9299
#
#
#
# Elastic Compliance Matrix: (Units=1/GPa)
#
#
# Indices 1 2 3 4 5 6 
#
# 1 0.015248 -0.003801 -0.004618 0.000560 0.001715 0.002387
# 2 -0.003801 0.009112 0.001200 -0.000801 -0.002051 -0.000526
# 3 -0.004618 0.001200 0.012398 0.005179 -0.001634 -0.001464
# 4 0.000560 -0.000801 0.005179 0.029763 -0.001542 -0.001750
# 5 0.001715 -0.002051 -0.001634 -0.001542 0.034299 -0.001954
# 6 0.002387 -0.000526 -0.001464 -0.001750 -0.001954 0.022925
#
#
# Mechanical properties :
#
#
# Convention : Reuss Voigt Hill
#
# Bulk Modulus (GPa) = 44.79907 47.02282 45.91094
# Shear Modulus (GPa) = 34.33517 39.03593 36.68555
#
# Velocity S-wave (km/s) = 3.94767 4.20924 4.08055
# Velocity P-wave (km/s) = 6.41189 6.70570 6.56044
#
# Compressibility (1/GPa) = 0.02232189
#
# Stress axis : x y z
#
# Youngs Moduli (GPa) = 65.58201 109.73982 80.65962
#
# Poissons Ratio (x) = 0.41707 0.37249
# Poissons Ratio (y) = 0.24925 -0.09682
# Poissons Ratio (z) = 0.30286 -0.13173
#
# Static dielectric constant tensor:
#      x y z
#    x 3.751660 -0.016950 -0.551110 
#    y -0.016950 4.143480 0.537310 
#    z -0.551110 0.537310 -0.460260 
# 
# 
# High freq. dielectric constant tensor:
#      x y z
#    x 1.864170 -0.005200 0.003720 
#    y -0.005200 1.888300 -0.001750 
#    z 0.003720 -0.001750 1.884690 
# 
# From -- ./inp_files/297814.got.cif
#   From: 2010.06.25/outbox.cif.g09.slc.cpg/sg2_149_cif.got.tgz:297814.got - 2010.06.27 13:26:56.
