data_PCOD8034944
_publ_section_title
;
Structure prediction by ZEFSAII (Michael W. Deem and Ramdas Pophale) SiO2 
 PCOD8034944
Probable space group: P -1
;
_chemical_formula_sum "Si O2"
_cell_formula_units_Z 14
_cell_length_a 8.310222
_cell_length_b 5.393605
_cell_length_c 15.934761
_cell_angle_alpha 91.023052
_cell_angle_beta 130.707474
_cell_angle_gamma 86.552015
_cell_volume 540.224920
_symmetry_space_group_name_H-M "P -1"
_symmetry_group_IT_number 2
_symmetry_cell_setting 'triclinic'
loop_
_space_group_symop_operation_xyz
x,y,z
-x,-y,-z
loop_
_atom_site_type_symbol
_atom_site_label
_atom_site_fract_x
_atom_site_fract_y
_atom_site_fract_z
Si Si1 0.647361 0.276756 0.387012
Si Si2 0.023352 0.069404 0.911433
Si Si3 0.438965 0.312973 0.050720
Si Si4 0.782812 0.842037 0.689641
Si Si5 0.635057 0.371088 0.814100
Si Si6 0.314072 0.029129 0.756860
Si Si7 0.100522 0.676615 0.365228
O O1 0.462497 0.127221 0.365950
O O2 0.534499 0.524834 0.310756
O O3 0.767668 0.117545 0.352945
O O4 0.821335 0.354333 0.512842
O O5 0.859263 0.311686 0.842929
O O6 0.941307 0.850427 0.823515
O O7 0.257518 0.131334 0.958663
O O8 0.000000 0.000000 0.000000
O O9 0.331520 0.450388 0.095218
O O10 0.653960 0.154508 0.152916
O O11 0.500000 0.500000 0.000000
O O12 0.834883 0.579186 0.660556
O O13 0.805156 0.077137 0.638612
O O14 0.549176 0.117076 0.819574
O O15 0.155053 0.268181 0.723990
#
# Coordination Sequence:
#
# PCOD8034944 Si02
#       7
#     2   2   2   2   2   2   2
#     4  11  25  51  78 110 156 211 260 323 394 482
#     4  12  24  51  79 111 152 217 266 322 395 476
#     4  11  27  47  79 116 162 205 261 338 406 460
#     4  12  28  49  78 117 155 204 271 325 393 479
#     4  11  24  46  79 110 155 202 277 313 386 492
#     4  11  26  49  74 118 153 207 264 318 391 493
#     4  12  30  48  80 117 163 202 256 339 407 454
#
# _framework density 25.915127999999999
#
# number of rings (size 3 to 8) (size 9 to 14) (size 15 to 20)
#    0.000    0.571    2.857    3.429    8.000    4.571 
#    0.000    0.714    0.000    0.000    0.000    0.000 
#    0.000    0.000    0.000    0.000    0.000    0.000 
#
# Total GULP energy -173600.251180 kJ/mol
# GULP energy per Si atom -12400.017941 kJ/mol
# Density = 2.585614 g / cm^3
# Si number density = 25.915128 Si / 1000 Ang^3
#
#
#
# Elastic Constant Matrix: (Units=GPa)
#
#
# Indices 1 2 3 4 5 6 
#
# 1 75.8655 28.2559 26.8042 -11.2671 2.6165 3.2266
# 2 28.2559 131.2901 42.2097 -4.2017 -16.5589 -12.0949
# 3 26.8042 42.2097 137.9904 -0.2397 -16.4981 -3.7019
# 4 -11.2671 -4.2017 -0.2397 38.0195 2.3644 1.1105
# 5 2.6165 -16.5589 -16.4981 2.3644 37.3544 -2.6541
# 6 3.2266 -12.0949 -3.7019 1.1105 -2.6541 40.6083
#
#
#
# Elastic Compliance Matrix: (Units=1/GPa)
#
#
# Indices 1 2 3 4 5 6 
#
# 1 0.016380 -0.003303 -0.002762 0.004828 -0.004347 -0.002953
# 2 -0.003303 0.009688 -0.001757 -0.000263 0.003998 0.003256
# 3 -0.002762 -0.001757 0.008746 -0.001191 0.003406 0.000749
# 4 0.004828 -0.000263 -0.001191 0.027919 -0.002856 -0.001521
# 5 -0.004347 0.003998 0.003406 -0.002856 0.030812 0.003939
# 6 -0.002953 0.003256 0.000749 -0.001521 0.003939 0.026197
#
#
# Mechanical properties :
#
#
# Convention : Reuss Voigt Hill
#
# Bulk Modulus (GPa) = 52.16417 59.96506 56.06462
# Shear Modulus (GPa) = 35.26676 39.72152 37.49414
#
# Velocity S-wave (km/s) = 3.69298 3.91929 3.80782
# Velocity P-wave (km/s) = 6.19328 6.60835 6.40418
#
# Compressibility (1/GPa) = 0.01917025
#
# Stress axis : x y z
#
# Youngs Moduli (GPa) = 61.05066 103.21720 114.33721
#
# Poissons Ratio (x) = 0.34093 0.31579
# Poissons Ratio (y) = 0.20165 0.20089
# Poissons Ratio (z) = 0.16862 0.18135
#
# Static dielectric constant tensor:
#      x y z
#    x 4.881290 -0.051290 -0.108310 
#    y -0.051290 4.727380 -0.091140 
#    z -0.108310 -0.091140 4.830590 
# 
# 
# High freq. dielectric constant tensor:
#      x y z
#    x 2.042640 -0.003570 -0.010550 
#    y -0.003570 2.042060 -0.002190 
#    z -0.010550 -0.002190 2.043960 
# 
# From -- ./inp_files/553577.got.cif
#   From: 2010.06.25/outbox.cif.g09.slc.cpg/sg2_277_cif.got.tgz:553577.got - 2010.06.27 13:26:56.
