data_PCOD8034461
_publ_section_title
;
Structure prediction by ZEFSAII (Michael W. Deem and Ramdas Pophale) SiO2 
 PCOD8034461
Probable space group: P -1
;
_chemical_formula_sum "Si O2"
_cell_formula_units_Z 10
_cell_length_a 5.388447
_cell_length_b 11.762494
_cell_length_c 7.852435
_cell_angle_alpha 109.394046
_cell_angle_beta 62.001067
_cell_angle_gamma 92.671703
_cell_volume 410.928228
_symmetry_space_group_name_H-M "P -1"
_symmetry_group_IT_number 2
_symmetry_cell_setting 'triclinic'
loop_
_space_group_symop_operation_xyz
x,y,z
-x,-y,-z
loop_
_atom_site_type_symbol
_atom_site_label
_atom_site_fract_x
_atom_site_fract_y
_atom_site_fract_z
Si Si1 0.314520 0.882206 0.704318
Si Si2 0.019894 0.196589 0.552531
Si Si3 0.808924 0.458235 0.688991
Si Si4 0.024310 0.144614 0.879469
Si Si5 0.751636 0.605102 0.093621
O O1 0.649616 0.853615 0.583687
O O2 0.149013 0.828820 0.575332
O O3 0.240978 0.027472 0.802045
O O4 0.213554 0.826774 0.885941
O O5 0.888827 0.132072 0.726969
O O6 0.995892 0.343243 0.665943
O O7 0.517522 0.406744 0.701064
O O8 0.000000 0.500000 0.500000
O O9 0.693730 0.574760 0.898980
O O10 0.201936 0.255870 0.850486
O O11 0.000000 0.500000 0.000000
#
# Coordination Sequence:
#
# PCOD8034461 Si02
#       5
#     2   2   2   2   2
#     4  11  28  45  75 110 141 199 239 302 362 447
#     4  12  25  47  73 107 146 188 249 299 366 430
#     4  11  26  43  72 102 142 191 244 297 364 435
#     4  11  25  48  73 103 151 186 246 298 368 428
#     4  11  24  45  67 101 139 190 235 298 359 426
#
# _framework density 24.335149999999999
#
# number of rings (size 3 to 8) (size 9 to 14) (size 15 to 20)
#    0.000    0.800    2.000    3.600    2.800    8.800 
#    0.000    0.000    0.000    0.000    0.000    0.000 
#    0.000    0.000    0.000    0.000    0.000    0.000 
#
# Total GULP energy -123921.129802 kJ/mol
# GULP energy per Si atom -12392.112980 kJ/mol
# Density = 2.427976 g / cm^3
# Si number density = 24.335150 Si / 1000 Ang^3
#
#
#
# Elastic Constant Matrix: (Units=GPa)
#
#
# Indices 1 2 3 4 5 6 
#
# 1 112.5912 34.4686 61.1008 -17.2996 -8.1186 -3.4259
# 2 34.4686 129.3025 52.4117 -21.7588 -18.4747 4.0063
# 3 61.1008 52.4117 149.2545 -35.6704 0.3762 -3.9781
# 4 -17.2996 -21.7588 -35.6704 61.5078 -5.1018 4.8490
# 5 -8.1186 -18.4747 0.3762 -5.1018 33.4310 0.6456
# 6 -3.4259 4.0063 -3.9781 4.8490 0.6456 37.5866
#
#
#
# Elastic Compliance Matrix: (Units=1/GPa)
#
#
# Indices 1 2 3 4 5 6 
#
# 1 0.011825 -0.000948 -0.004348 0.000628 0.002481 0.000595
# 2 -0.000948 0.010431 -0.002749 0.002476 0.005980 -0.001911
# 3 -0.004348 -0.002749 0.010318 0.003564 -0.002158 0.000566
# 4 0.000628 0.002476 0.003564 0.019953 0.004573 -0.002482
# 5 0.002481 0.005980 -0.002158 0.004573 0.034577 -0.001824
# 6 0.000595 -0.001911 0.000566 -0.002482 -0.001824 0.027275
#
#
# Mechanical properties :
#
#
# Convention : Reuss Voigt Hill
#
# Bulk Modulus (GPa) = 60.66870 76.34559 68.50714
# Shear Modulus (GPa) = 36.77449 42.71623 39.74536
#
# Velocity S-wave (km/s) = 3.89159 4.19421 4.04573
# Velocity P-wave (km/s) = 6.72140 7.40918 7.07365
#
# Compressibility (1/GPa) = 0.01648296
#
# Stress axis : x y z
#
# Youngs Moduli (GPa) = 84.56574 95.86684 96.91925
#
# Poissons Ratio (x) = 0.09088 0.42144
# Poissons Ratio (y) = 0.08017 0.26645
# Poissons Ratio (z) = 0.36772 0.26356
#
# Static dielectric constant tensor:
#      x y z
#    x 4.921710 0.306160 0.756280 
#    y 0.306160 5.025780 0.550770 
#    z 0.756280 0.550770 5.576820 
# 
# 
# High freq. dielectric constant tensor:
#      x y z
#    x 1.962430 -0.000900 0.003820 
#    y -0.000900 1.978150 0.011190 
#    z 0.003820 0.011190 1.989560 
# 
# From -- ./inp_files/19975.got.cif
#   From: 2010.06.25/outbox.cif.g09.slc.cpg/sg2_10_cif.got.tgz:19975.got - 2010.06.27 13:26:56.
