data_PCOD8034800
_publ_section_title
;
Structure prediction by ZEFSAII (Michael W. Deem and Ramdas Pophale) SiO2 
 PCOD8034800
Probable space group: P -1
;
_chemical_formula_sum "Si O2"
_cell_formula_units_Z 14
_cell_length_a 20.772730
_cell_length_b 6.643760
_cell_length_c 6.695259
_cell_angle_alpha 65.974013
_cell_angle_beta 117.591263
_cell_angle_gamma 131.969206
_cell_volume 602.181743
_symmetry_space_group_name_H-M "P -1"
_symmetry_group_IT_number 2
_symmetry_cell_setting 'triclinic'
loop_
_space_group_symop_operation_xyz
x,y,z
-x,-y,-z
loop_
_atom_site_type_symbol
_atom_site_label
_atom_site_fract_x
_atom_site_fract_y
_atom_site_fract_z
Si Si1 0.963253 0.048143 0.732221
Si Si2 0.795545 0.031060 0.586993
Si Si3 0.127098 0.371576 0.568474
Si Si4 0.496903 0.258871 0.493904
Si Si5 0.396282 0.929357 0.141190
Si Si6 0.364168 0.336969 0.779558
Si Si7 0.271742 0.371446 0.996387
O O1 0.895681 0.118811 0.668281
O O2 0.045509 0.300520 0.623501
O O3 0.911553 0.771091 0.641876
O O4 0.000000 0.000000 0.000000
O O5 0.802909 0.306733 0.500072
O O6 0.733891 0.855089 0.382936
O O7 0.749735 0.866844 0.790556
O O8 0.180925 0.268455 0.790234
O O9 0.500000 0.500000 0.500000
O O10 0.525343 0.118611 0.748441
O O11 0.570087 0.393061 0.364554
O O12 0.401792 0.024146 0.344487
O O13 0.303354 0.641402 0.063316
O O14 0.408608 0.171136 0.926831
O O15 0.350093 0.427349 0.937583
#
# Coordination Sequence:
#
# PCOD8034800 Si02
#       7
#     2   2   2   2   2   2   2
#     4  11  24  46  71 101 140 181 236 283 343 413
#     4  12  25  44  69 103 139 184 232 284 346 412
#     4  11  25  45  70 101 140 185 227 288 344 405
#     4  11  26  48  71 106 138 181 237 283 348 418
#     4  11  25  45  73 101 139 183 227 288 346 410
#     4  12  26  44  72 102 141 183 230 286 350 411
#     4  12  25  44  69 106 139 184 236 281 346 416
#
# _framework density 23.248795999999999
#
# number of rings (size 3 to 8) (size 9 to 14) (size 15 to 20)
#    0.000    0.571    5.714    1.714    0.000    7.429 
#    0.000    0.000    0.000    0.000    0.000    0.000 
#    0.000    0.000    0.000    0.000    0.000    0.000 
#
# Total GULP energy -173567.968932 kJ/mol
# GULP energy per Si atom -12397.712067 kJ/mol
# Density = 2.319588 g / cm^3
# Si number density = 23.248796 Si / 1000 Ang^3
#
#
#
# Elastic Constant Matrix: (Units=GPa)
#
#
# Indices 1 2 3 4 5 6 
#
# 1 91.2039 19.2013 27.9459 0.9655 -4.8052 -11.7737
# 2 19.2013 120.0975 47.1285 8.5629 -9.9728 -6.1047
# 3 27.9459 47.1285 130.5001 15.8120 15.9940 -5.3622
# 4 0.9655 8.5629 15.8120 44.5977 -0.4694 3.7860
# 5 -4.8052 -9.9728 15.9940 -0.4694 44.0376 -3.3777
# 6 -11.7737 -6.1047 -5.3622 3.7860 -3.3777 32.4232
#
#
#
# Elastic Compliance Matrix: (Units=1/GPa)
#
#
# Indices 1 2 3 4 5 6 
#
# 1 0.012581 -0.000564 -0.002684 0.000455 0.002549 0.004231
# 2 -0.000564 0.010423 -0.003969 -0.000676 0.003854 0.001582
# 3 -0.002684 -0.003969 0.010654 -0.002999 -0.005104 -0.000142
# 4 0.000455 -0.000676 -0.002999 0.023883 0.000999 -0.003142
# 5 0.002549 0.003854 -0.005104 0.000999 0.025984 0.003398
# 6 0.004231 0.001582 -0.000142 -0.003142 0.003398 0.033374
#
#
# Mechanical properties :
#
#
# Convention : Reuss Voigt Hill
#
# Bulk Modulus (GPa) = 52.01811 58.92810 55.47311
# Shear Modulus (GPa) = 36.29997 40.71341 38.50669
#
# Velocity S-wave (km/s) = 3.95570 4.18928 4.07417
# Velocity P-wave (km/s) = 6.57925 6.98583 6.78559
#
# Compressibility (1/GPa) = 0.01922407
#
# Stress axis : x y z
#
# Youngs Moduli (GPa) = 79.48267 95.94348 93.86081
#
# Poissons Ratio (x) = 0.05409 0.25196
# Poissons Ratio (y) = 0.04481 0.37252
# Poissons Ratio (z) = 0.21336 0.38079
#
# Static dielectric constant tensor:
#      x y z
#    x 4.060840 0.020340 0.173620 
#    y 0.020340 4.210110 0.110670 
#    z 0.173620 0.110670 4.472640 
# 
# 
# High freq. dielectric constant tensor:
#      x y z
#    x 1.902340 -0.006170 0.017940 
#    y -0.006170 1.928110 0.007890 
#    z 0.017940 0.007890 1.937620 
# 
# From -- ./inp_files/10643.got.cif
#   From: 2010.06.25/outbox.cif.g09.slc.cpg/sg2_6_cif.got.tgz:10643.got - 2010.06.27 13:26:56.
