data_PCOD8034661
_publ_section_title
;
Structure prediction by ZEFSAII (Michael W. Deem and Ramdas Pophale) SiO2 
 PCOD8034661
Probable space group: P -1
;
_chemical_formula_sum "Si O2"
_cell_formula_units_Z 16
_cell_length_a 10.881324
_cell_length_b 13.777553
_cell_length_c 9.092963
_cell_angle_alpha 105.533234
_cell_angle_beta 125.415290
_cell_angle_gamma 41.306126
_cell_volume 696.869189
_symmetry_space_group_name_H-M "P -1"
_symmetry_group_IT_number 2
_symmetry_cell_setting 'triclinic'
loop_
_space_group_symop_operation_xyz
x,y,z
-x,-y,-z
loop_
_atom_site_type_symbol
_atom_site_label
_atom_site_fract_x
_atom_site_fract_y
_atom_site_fract_z
Si Si1 0.185892 0.523882 0.563787
Si Si2 0.544682 0.634997 0.844381
Si Si3 0.705748 0.697421 0.223253
Si Si4 0.564613 0.280109 0.525428
Si Si5 0.605378 0.965082 0.902003
Si Si6 0.388373 0.967234 0.506890
Si Si7 0.136166 0.719873 0.112288
Si Si8 0.856985 0.256740 0.211952
O O1 0.265096 0.383016 0.643444
O O2 0.355850 0.453867 0.515386
O O3 0.222417 0.590738 0.738926
O O4 0.934251 0.651482 0.365322
O O5 0.453113 0.725967 0.664171
O O6 0.695608 0.461055 0.839863
O O7 0.320369 0.729758 0.829318
O O8 0.699207 0.637515 0.042243
O O9 0.481126 0.882915 0.159266
O O10 0.556561 0.175398 0.558982
O O11 0.794028 0.226483 0.705255
O O12 0.503824 0.922736 0.726264
O O13 0.500000 0.000000 0.000000
O O14 0.880879 0.817941 0.024555
O O15 0.500000 0.000000 0.500000
O O16 0.114049 0.113685 0.392175
O O17 0.144813 0.760051 0.970106
#
# Coordination Sequence:
#
# PCOD8034661 Si02
#       8
#     2   2   2   2   2   2   2   2
#     4  11  24  45  74 103 139 188 245 297 346 431
#     4  12  27  47  73 108 147 188 240 299 358 426
#     4  11  25  45  73 104 141 188 244 292 359 424
#     4  12  29  45  72 108 146 192 240 296 366 421
#     4  12  28  46  72 106 149 190 239 302 364 426
#     4  12  27  50  72 105 145 192 241 294 362 428
#     4  12  27  48  72 107 149 191 243 296 362 427
#     4  12  25  48  75 101 147 188 241 298 349 435
#
# _framework density 22.959833
#
# number of rings (size 3 to 8) (size 9 to 14) (size 15 to 20)
#    0.000    0.250    5.000    3.000    8.750    1.500 
#    0.000    0.000    0.000    0.000    0.000    0.000 
#    0.000    0.000    0.000    0.000    0.000    0.000 
#
# Total GULP energy -198386.949856 kJ/mol
# GULP energy per Si atom -12399.184366 kJ/mol
# Density = 2.290758 g / cm^3
# Si number density = 22.959833 Si / 1000 Ang^3
#
#
#
# Elastic Constant Matrix: (Units=GPa)
#
#
# Indices 1 2 3 4 5 6 
#
# 1 82.7038 33.0117 34.7206 -10.4193 -12.4671 -15.8724
# 2 33.0117 89.3080 21.2693 1.8699 12.3432 -4.6102
# 3 34.7206 21.2693 120.8164 8.5112 3.6744 -1.8718
# 4 -10.4193 1.8699 8.5112 35.7088 -6.9840 9.5973
# 5 -12.4671 12.3432 3.6744 -6.9840 25.4352 11.5211
# 6 -15.8724 -4.6102 -1.8718 9.5973 11.5211 40.9992
#
#
#
# Elastic Compliance Matrix: (Units=1/GPa)
#
#
# Indices 1 2 3 4 5 6 
#
# 1 0.024122 -0.010865 -0.006745 0.014204 0.022848 -0.001937
# 2 -0.010865 0.018102 0.001307 -0.009779 -0.019554 0.005673
# 3 -0.006745 0.001307 0.010736 -0.006708 -0.008193 0.001899
# 4 0.014204 -0.009779 -0.006708 0.044601 0.031853 -0.015298
# 5 0.022848 -0.019554 -0.008193 0.031853 0.080748 -0.023875
# 6 -0.001937 0.005673 0.001899 -0.015298 -0.023875 0.034656
#
#
# Mechanical properties :
#
#
# Convention : Reuss Voigt Hill
#
# Bulk Modulus (GPa) = 49.12933 52.31461 50.72197
# Shear Modulus (GPa) = 19.81326 34.01706 26.91516
#
# Velocity S-wave (km/s) = 2.94079 3.85332 3.42756
# Velocity P-wave (km/s) = 5.74242 6.52933 6.14848
#
# Compressibility (1/GPa) = 0.02035444
#
# Stress axis : x y z
#
# Youngs Moduli (GPa) = 41.45609 55.24202 93.14028
#
# Poissons Ratio (x) = 0.60021 0.62823
# Poissons Ratio (y) = 0.45043 -0.12174
# Poissons Ratio (z) = 0.27962 -0.07221
#
# Static dielectric constant tensor:
#      x y z
#    x 3.987300 -0.065800 0.084440 
#    y -0.065800 4.110370 -0.098840 
#    z 0.084440 -0.098840 4.342920 
# 
# 
# High freq. dielectric constant tensor:
#      x y z
#    x 1.901850 -0.003750 0.006160 
#    y -0.003750 1.910470 0.005710 
#    z 0.006160 0.005710 1.925820 
# 
# From -- ./inp_files/209312.got.cif
#   From: 2010.06.25/outbox.cif.g09.slc.cpg/sg2_105_cif.got.tgz:209312.got - 2010.06.27 13:26:56.
