data_PCOD8034072
_publ_section_title
;
Structure prediction by ZEFSAII (Michael W. Deem and Ramdas Pophale) SiO2 
 PCOD8034072
Probable space group: P -1
;
_chemical_formula_sum "Si O2"
_cell_formula_units_Z 16
_cell_length_a 19.815368
_cell_length_b 8.641930
_cell_length_c 9.456658
_cell_angle_alpha 73.527996
_cell_angle_beta 35.722498
_cell_angle_gamma 55.424058
_cell_volume 723.694370
_symmetry_space_group_name_H-M "P -1"
_symmetry_group_IT_number 2
_symmetry_cell_setting 'triclinic'
loop_
_space_group_symop_operation_xyz
x,y,z
-x,-y,-z
loop_
_atom_site_type_symbol
_atom_site_label
_atom_site_fract_x
_atom_site_fract_y
_atom_site_fract_z
Si Si1 0.868105 0.221999 0.110351
Si Si2 0.644007 0.279144 0.271996
Si Si3 0.670745 0.359280 0.905038
Si Si4 0.838964 0.523932 0.647382
Si Si5 0.644920 0.906840 0.693925
Si Si6 0.367842 0.075669 0.603889
Si Si7 0.869802 0.563735 0.897335
Si Si8 0.347920 0.743552 0.332400
O O1 0.794129 0.223231 0.091436
O O2 0.737517 0.326478 0.420659
O O3 0.920665 0.360767 0.951186
O O4 0.000000 0.000000 0.000000
O O5 0.500000 0.500000 0.500000
O O6 0.627483 0.114078 0.399069
O O7 0.660562 0.250747 0.083438
O O8 0.799568 0.378452 0.700624
O O9 0.705004 0.217768 0.749589
O O10 0.520280 0.580481 0.086230
O O11 0.768598 0.711802 0.616236
O O12 0.790235 0.580756 0.880911
O O13 0.007871 0.414178 0.365981
O O14 0.626979 0.848221 0.580906
O O15 0.692383 0.054187 0.578629
O O16 0.500000 0.000000 0.000000
O O17 0.500000 0.000000 0.500000
O O18 0.227094 0.251624 0.879912
#
# Coordination Sequence:
#
# PCOD8034072 Si02
#       8
#     2   2   2   2   2   2   2   2
#     4  12  25  47  73 103 143 192 236 295 361 424
#     4  12  24  47  74 103 145 188 243 297 358 426
#     4  11  24  43  72 100 137 184 237 294 352 422
#     4  11  25  47  70  99 146 195 227 298 361 422
#     4  12  24  43  69 101 145 182 234 294 359 421
#     4  12  28  43  73 111 140 190 243 298 358 434
#     4  11  27  47  71 103 148 188 241 290 363 432
#     4  11  25  43  70 104 135 184 238 294 354 422
#
# _framework density 22.108781
#
# number of rings (size 3 to 8) (size 9 to 14) (size 15 to 20)
#    0.000    0.500    5.000    2.250    5.250    1.500 
#    0.000    1.250    0.000    0.000    0.000    0.000 
#    0.000    0.000    0.000    0.000    0.000    0.000 
#
# Total GULP energy -198351.583871 kJ/mol
# GULP energy per Si atom -12396.973992 kJ/mol
# Density = 2.205846 g / cm^3
# Si number density = 22.108781 Si / 1000 Ang^3
#
#
#
# Elastic Constant Matrix: (Units=GPa)
#
#
# Indices 1 2 3 4 5 6 
#
# 1 149.3652 31.8022 51.9396 1.0433 26.9658 -15.0695
# 2 31.8022 88.6806 21.1211 2.1864 6.0839 -6.3709
# 3 51.9396 21.1211 107.0801 -9.1322 20.1783 1.6468
# 4 1.0433 2.1864 -9.1322 34.4531 -2.3573 1.3000
# 5 26.9658 6.0839 20.1783 -2.3573 51.4572 -8.6822
# 6 -15.0695 -6.3709 1.6468 1.3000 -8.6822 34.9523
#
#
#
# Elastic Compliance Matrix: (Units=1/GPa)
#
#
# Indices 1 2 3 4 5 6 
#
# 1 0.009235 -0.001968 -0.003764 -0.001455 -0.002659 0.003194
# 2 -0.001968 0.012513 -0.001730 -0.001225 0.000456 0.001673
# 3 -0.003764 -0.001730 0.012440 0.003437 -0.003122 -0.003427
# 4 -0.001455 -0.001225 0.003437 0.030174 0.000607 -0.001984
# 5 -0.002659 0.000456 -0.003122 0.000607 0.022823 0.004731
# 6 0.003194 0.001673 -0.003427 -0.001984 0.004731 0.031703
#
#
# Mechanical properties :
#
#
# Convention : Reuss Voigt Hill
#
# Bulk Modulus (GPa) = 51.90592 61.65020 56.77806
# Shear Modulus (GPa) = 35.65512 40.19006 37.92259
#
# Velocity S-wave (km/s) = 4.02022 4.26823 4.14608
# Velocity P-wave (km/s) = 6.71402 7.22744 6.97545
#
# Compressibility (1/GPa) = 0.01926563
#
# Stress axis : x y z
#
# Youngs Moduli (GPa) = 108.28255 79.91582 80.38797
#
# Poissons Ratio (x) = 0.15725 0.30254
# Poissons Ratio (y) = 0.21307 0.13906
# Poissons Ratio (z) = 0.40753 0.13824
#
# Static dielectric constant tensor:
#      x y z
#    x 3.775200 -0.221380 0.175170 
#    y -0.221380 3.998240 -0.234650 
#    z 0.175170 -0.234650 3.838960 
# 
# 
# High freq. dielectric constant tensor:
#      x y z
#    x 1.888870 -0.009640 0.007760 
#    y -0.009640 1.862190 -0.019490 
#    z 0.007760 -0.019490 1.872750 
# 
# From -- ./inp_files/328810.got.cif
#   From: 2010.06.25/outbox.cif.g09.slc.cpg/sg2_165_cif.got.tgz:328810.got - 2010.06.27 13:26:56.
