data_PCOD8034782
_publ_section_title
;
Structure prediction by ZEFSAII (Michael W. Deem and Ramdas Pophale) SiO2 
 PCOD8034782
Probable space group: P -1
;
_chemical_formula_sum "Si O2"
_cell_formula_units_Z 16
_cell_length_a 9.425644
_cell_length_b 8.864924
_cell_length_c 12.508394
_cell_angle_alpha 75.874085
_cell_angle_beta 133.055668
_cell_angle_gamma 98.873701
_cell_volume 740.491636
_symmetry_space_group_name_H-M "P -1"
_symmetry_group_IT_number 2
_symmetry_cell_setting 'triclinic'
loop_
_space_group_symop_operation_xyz
x,y,z
-x,-y,-z
loop_
_atom_site_type_symbol
_atom_site_label
_atom_site_fract_x
_atom_site_fract_y
_atom_site_fract_z
Si Si1 0.963144 0.943422 0.875000
Si Si2 0.118322 0.344502 0.610984
Si Si3 0.480573 0.559444 0.099017
Si Si4 0.664073 0.878230 0.390587
Si Si5 0.461781 0.338853 0.454443
Si Si6 0.814055 0.610574 0.875911
Si Si7 0.203468 0.860263 0.430213
Si Si8 0.389149 0.897146 0.044096
O O1 0.879784 0.782394 0.898534
O O2 0.811226 0.036031 0.703863
O O3 0.167296 0.950577 0.919034
O O4 0.000000 0.000000 0.000000
O O5 0.307185 0.409144 0.753021
O O6 0.172798 0.240727 0.552507
O O7 0.000000 0.500000 0.500000
O O8 0.997374 0.230767 0.644428
O O9 0.359406 0.434599 0.125311
O O10 0.368719 0.722823 0.020697
O O11 0.500000 0.500000 0.000000
O O12 0.559296 0.795166 0.447465
O O13 0.498586 0.915460 0.210741
O O14 0.756569 0.034655 0.461399
O O15 0.500000 0.500000 0.500000
O O16 0.264558 0.385807 0.285150
O O17 0.628236 0.272364 0.471648
O O18 0.000000 0.500000 0.000000
O O19 0.500000 0.000000 0.000000
#
# Coordination Sequence:
#
# PCOD8034782 Si02
#       8
#     2   2   2   2   2   2   2   2
#     4  12  27  44  73 106 143 187 240 301 357 428
#     4  11  25  46  69 103 141 188 236 293 355 425
#     4  11  26  46  68 101 140 185 235 289 359 427
#     4  11  24  46  70 103 146 185 245 293 357 431
#     4  12  26  46  73 103 146 188 236 301 360 429
#     4  12  27  48  72 105 143 188 244 294 363 431
#     4  12  26  47  73 108 140 193 244 291 369 431
#     4  11  25  46  69 103 146 189 234 299 357 420
#
# _framework density 21.607265999999999
#
# number of rings (size 3 to 8) (size 9 to 14) (size 15 to 20)
#    0.000    0.500    2.500    6.000    7.000    3.000 
#    0.000    0.000    0.000    0.000    0.000    0.000 
#    0.000    0.000    0.000    0.000    0.000    0.000 
#
# Total GULP energy -198292.271542 kJ/mol
# GULP energy per Si atom -12393.266971 kJ/mol
# Density = 2.155809 g / cm^3
# Si number density = 21.607266 Si / 1000 Ang^3
#
#
#
# Elastic Constant Matrix: (Units=GPa)
#
#
# Indices 1 2 3 4 5 6 
#
# 1 115.9044 61.4020 42.9292 11.8067 3.0322 12.2202
# 2 61.4020 156.2658 63.3107 17.9441 2.5776 3.8312
# 3 42.9292 63.3107 141.5606 9.5128 -5.1145 -9.6306
# 4 11.8067 17.9441 9.5128 41.7865 -3.4955 -2.5524
# 5 3.0322 2.5776 -5.1145 -3.4955 40.4742 -2.4696
# 6 12.2202 3.8312 -9.6306 -2.5524 -2.4696 60.6132
#
#
#
# Elastic Compliance Matrix: (Units=1/GPa)
#
#
# Indices 1 2 3 4 5 6 
#
# 1 0.011724 -0.003485 -0.002110 -0.001596 -0.001219 -0.002595
# 2 -0.003485 0.009293 -0.003005 -0.002432 -0.000951 -0.000503
# 3 -0.002110 -0.003005 0.009251 0.000051 0.001654 0.002155
# 4 -0.001596 -0.002432 0.000051 0.025735 0.002606 0.001673
# 5 -0.001219 -0.000951 0.001654 0.002606 0.025398 0.001713
# 6 -0.002595 -0.000503 0.002155 0.001673 0.001713 0.017536
#
#
# Mechanical properties :
#
#
# Convention : Reuss Voigt Hill
#
# Bulk Modulus (GPa) = 76.51884 83.22385 79.87134
# Shear Modulus (GPa) = 41.49667 44.98071 43.23869
#
# Velocity S-wave (km/s) = 4.38710 4.56756 4.47824
# Velocity P-wave (km/s) = 7.82001 8.14966 7.98654
#
# Compressibility (1/GPa) = 0.01306868
#
# Stress axis : x y z
#
# Youngs Moduli (GPa) = 85.29851 107.60466 108.09877
#
# Poissons Ratio (x) = 0.37496 0.22811
# Poissons Ratio (y) = 0.29723 0.32481
# Poissons Ratio (z) = 0.17999 0.32332
#
# Static dielectric constant tensor:
#      x y z
#    x 3.373440 -0.017410 -0.348980 
#    y -0.017410 4.305110 -0.076150 
#    z -0.348980 -0.076150 3.788850 
# 
# 
# High freq. dielectric constant tensor:
#      x y z
#    x 1.859420 0.005340 0.005560 
#    y 0.005340 1.870720 0.002720 
#    z 0.005560 0.002720 1.857610 
# 
# From -- ./inp_files/336638.got.cif
#   From: 2010.06.25/outbox.cif.g09.slc.cpg/sg2_169_cif.got.tgz:336638.got - 2010.06.27 13:26:56.
