data_PCOD8034715
_publ_section_title
;
Structure prediction by ZEFSAII (Michael W. Deem and Ramdas Pophale) SiO2 
 PCOD8034715
Probable space group: P -1
;
_chemical_formula_sum "Si O2"
_cell_formula_units_Z 16
_cell_length_a 10.883485
_cell_length_b 8.041225
_cell_length_c 13.344994
_cell_angle_alpha 72.694129
_cell_angle_beta 54.381669
_cell_angle_gamma 44.078049
_cell_volume 645.172432
_symmetry_space_group_name_H-M "P -1"
_symmetry_group_IT_number 2
_symmetry_cell_setting 'triclinic'
loop_
_space_group_symop_operation_xyz
x,y,z
-x,-y,-z
loop_
_atom_site_type_symbol
_atom_site_label
_atom_site_fract_x
_atom_site_fract_y
_atom_site_fract_z
Si Si1 0.965341 0.234791 0.860482
Si Si2 0.098929 0.656692 0.742279
Si Si3 0.341798 0.288209 0.186523
Si Si4 0.814737 0.477475 0.574092
Si Si5 0.165444 0.048127 0.013073
Si Si6 0.491432 0.511546 0.383091
Si Si7 0.168076 0.055431 0.361827
Si Si8 0.742148 0.781697 0.393585
O O1 0.784036 0.530595 0.880744
O O2 0.158643 0.117587 0.711181
O O3 0.867756 0.124641 0.905474
O O4 0.045884 0.187164 0.943167
O O5 0.267158 0.634230 0.732772
O O6 0.213443 0.395340 0.685038
O O7 0.921251 0.754867 0.892700
O O8 0.991604 0.860419 0.669088
O O9 0.249840 0.472589 0.289915
O O10 0.292920 0.126958 0.256561
O O11 0.588579 0.114141 0.087870
O O12 0.597192 0.599441 0.595027
O O13 0.865704 0.622590 0.467007
O O14 0.017974 0.190920 0.507487
O O15 0.500000 0.500000 0.500000
O O16 0.338760 0.773244 0.354725
O O17 0.500000 0.000000 0.500000
#
# Coordination Sequence:
#
# PCOD8034715 Si02
#       8
#     2   2   2   2   2   2   2   2
#     4  11  26  50  72 108 148 197 253 305 360 435
#     4  11  27  49  69 109 143 198 244 301 367 438
#     4  12  26  49  75 106 147 199 245 305 366 439
#     4  11  25  45  74 111 146 187 244 298 382 441
#     4  11  29  47  74 103 148 202 253 302 360 433
#     4  12  26  44  73 109 151 190 238 305 378 442
#     4  11  26  47  70 112 146 189 244 309 371 437
#     4  11  24  45  76 110 146 184 242 301 375 441
#
# _framework density 24.799572000000001
#
# number of rings (size 3 to 8) (size 9 to 14) (size 15 to 20)
#    0.000    0.750    5.000    1.875   10.500    2.000 
#    0.000    0.000    0.000    0.000    0.000    0.000 
#    0.000    0.000    0.000    0.000    0.000    0.000 
#
# Total GULP energy -198320.772799 kJ/mol
# GULP energy per Si atom -12395.048300 kJ/mol
# Density = 2.474313 g / cm^3
# Si number density = 24.799572 Si / 1000 Ang^3
#
#
#
# Elastic Constant Matrix: (Units=GPa)
#
#
# Indices 1 2 3 4 5 6 
#
# 1 71.6511 38.7875 47.2245 6.7452 -18.3879 -15.2938
# 2 38.7875 106.1397 58.4061 -5.4001 1.6516 -18.9372
# 3 47.2245 58.4061 159.8894 15.8414 -5.6507 0.8309
# 4 6.7452 -5.4001 15.8414 43.3967 3.2679 -3.7009
# 5 -18.3879 1.6516 -5.6507 3.2679 41.3218 -0.0304
# 6 -15.2938 -18.9372 0.8309 -3.7009 -0.0304 25.4566
#
#
#
# Elastic Compliance Matrix: (Units=1/GPa)
#
#
# Indices 1 2 3 4 5 6 
#
# 1 0.025482 -0.004621 -0.005268 -0.002444 0.011006 0.011701
# 2 -0.004621 0.016256 -0.005346 0.005867 -0.003894 0.010339
# 3 -0.005268 -0.005346 0.010210 -0.004233 -0.000406 -0.008091
# 4 -0.002444 0.005867 -0.004233 0.026587 -0.003998 0.006895
# 5 0.011006 -0.003894 -0.000406 -0.003998 0.029516 0.003183
# 6 0.011701 0.010339 -0.008091 0.006895 0.003183 0.055274
#
#
# Mechanical properties :
#
#
# Convention : Reuss Voigt Hill
#
# Bulk Modulus (GPa) = 46.55899 69.61292 58.08596
# Shear Modulus (GPa) = 24.88106 34.91917 29.90011
#
# Velocity S-wave (km/s) = 3.17090 3.75648 3.47604
# Velocity P-wave (km/s) = 5.67636 6.85171 6.29154
#
# Compressibility (1/GPa) = 0.02147813
#
# Stress axis : x y z
#
# Youngs Moduli (GPa) = 39.24288 61.51645 97.94145
#
# Poissons Ratio (x) = 0.28428 0.51596
# Poissons Ratio (y) = 0.18135 0.52358
# Poissons Ratio (z) = 0.20673 0.32886
#
# Static dielectric constant tensor:
#      x y z
#    x 5.090130 -0.196740 -0.411160 
#    y -0.196740 4.670290 -0.056420 
#    z -0.411160 -0.056420 4.858160 
# 
# 
# High freq. dielectric constant tensor:
#      x y z
#    x 1.996210 -0.016400 -0.017600 
#    y -0.016400 1.988260 -0.006670 
#    z -0.017600 -0.006670 1.995660 
# 
# From -- ./inp_files/515321.got.cif
#   From: 2010.06.25/outbox.cif.g09.slc.cpg/sg2_258_cif.got.tgz:515321.got - 2010.06.27 13:26:56.
