data_PCOD8034206
_publ_section_title
;
Structure prediction by ZEFSAII (Michael W. Deem and Ramdas Pophale) SiO2 
 PCOD8034206
Probable space group: P -1
;
_chemical_formula_sum "Si O2"
_cell_formula_units_Z 14
_cell_length_a 21.182457
_cell_length_b 9.374961
_cell_length_c 11.768457
_cell_angle_alpha 59.504185
_cell_angle_beta 149.825490
_cell_angle_gamma 140.873511
_cell_volume 635.660971
_symmetry_space_group_name_H-M "P -1"
_symmetry_group_IT_number 2
_symmetry_cell_setting 'triclinic'
loop_
_space_group_symop_operation_xyz
x,y,z
-x,-y,-z
loop_
_atom_site_type_symbol
_atom_site_label
_atom_site_fract_x
_atom_site_fract_y
_atom_site_fract_z
Si Si1 0.083222 0.196007 0.715924
Si Si2 0.856979 0.463505 0.716133
Si Si3 0.873225 0.100919 0.209158
Si Si4 0.418496 0.904130 0.228841
Si Si5 0.451268 0.797898 0.084589
Si Si6 0.820872 0.609010 0.811815
Si Si7 0.847855 0.001047 0.662372
O O1 0.918316 0.088638 0.412116
O O2 0.988328 0.112376 0.726805
O O3 0.154616 0.083362 0.843516
O O4 0.281814 0.509035 0.883663
O O5 0.837859 0.611562 0.700742
O O6 0.945687 0.599831 0.676289
O O7 0.654540 0.158352 0.503725
O O8 0.000000 0.500000 0.000000
O O9 0.674435 0.008723 0.934479
O O10 0.359365 0.771737 0.068500
O O11 0.349751 0.697983 0.296918
O O12 0.656163 0.909853 0.372040
O O13 0.500000 0.000000 0.000000
O O14 0.768805 0.747540 0.697306
O O15 0.021963 0.770495 0.131038
#
# Coordination Sequence:
#
# PCOD8034206 Si02
#       7
#     2   2   2   2   2   2   2
#     4  11  25  47  70 100 136 183 227 283 342 397
#     4  12  24  42  68 101 142 175 224 279 339 410
#     4  11  26  44  71 101 138 180 228 281 341 408
#     4  12  26  43  70 106 135 180 229 277 344 406
#     4  12  27  44  72 101 135 183 229 283 339 408
#     4  11  24  44  68 102 135 182 222 281 341 400
#     4  11  25  47  69 100 140 176 233 282 339 406
#
# _framework density 22.024318000000001
#
# number of rings (size 3 to 8) (size 9 to 14) (size 15 to 20)
#    0.000    0.571    4.286    3.000    4.000    1.714 
#    0.000    3.571    0.000    0.000    0.000    0.000 
#    0.000    0.000    0.000    0.000    0.000    0.000 
#
# Total GULP energy -173627.331584 kJ/mol
# GULP energy per Si atom -12401.952256 kJ/mol
# Density = 2.197419 g / cm^3
# Si number density = 22.024318 Si / 1000 Ang^3
#
#
#
# Elastic Constant Matrix: (Units=GPa)
#
#
# Indices 1 2 3 4 5 6 
#
# 1 69.9020 5.6139 9.4013 -2.9239 2.4790 -0.8701
# 2 5.6139 115.3535 40.2897 -2.4923 16.6976 -4.1290
# 3 9.4013 40.2897 90.5586 -2.8623 15.5540 -2.1173
# 4 -2.9239 -2.4923 -2.8623 38.7632 -3.1081 -4.9989
# 5 2.4790 16.6976 15.5540 -3.1081 35.3135 -1.9489
# 6 -0.8701 -4.1290 -2.1173 -4.9989 -1.9489 27.2269
#
#
#
# Elastic Compliance Matrix: (Units=1/GPa)
#
#
# Indices 1 2 3 4 5 6 
#
# 1 0.014559 -0.000161 -0.001356 0.001035 -0.000230 0.000509
# 2 -0.000161 0.010617 -0.004140 0.000259 -0.003101 0.001109
# 3 -0.001356 -0.004140 0.013719 0.000351 -0.003949 0.000177
# 4 0.001035 0.000259 0.000351 0.026770 0.002292 0.005179
# 5 -0.000230 -0.003101 -0.003949 0.002292 0.031847 0.001916
# 6 0.000509 0.001109 0.000177 0.005179 0.001916 0.038015
#
#
# Mechanical properties :
#
#
# Convention : Reuss Voigt Hill
#
# Bulk Modulus (GPa) = 36.25719 42.93600 39.59659
# Shear Modulus (GPa) = 32.04436 34.96133 33.50285
#
# Velocity S-wave (km/s) = 3.81852 3.98854 3.90446
# Velocity P-wave (km/s) = 5.99496 6.38345 6.19225
#
# Compressibility (1/GPa) = 0.02758074
#
# Stress axis : x y z
#
# Youngs Moduli (GPa) = 68.68708 94.18812 72.89298
#
# Poissons Ratio (x) = 0.01519 0.09882
# Poissons Ratio (y) = 0.01107 0.30178
# Poissons Ratio (z) = 0.09312 0.38994
#
# Static dielectric constant tensor:
#      x y z
#    x 4.188240 -0.096030 -0.288020 
#    y -0.096030 4.077980 -0.021690 
#    z -0.288020 -0.021690 3.780220 
# 
# 
# High freq. dielectric constant tensor:
#      x y z
#    x 1.878100 -0.005670 -0.008360 
#    y -0.005670 1.883760 -0.000890 
#    z -0.008360 -0.000890 1.860920 
# 
# From -- ./inp_files/27182.got.cif
#   From: 2010.06.25/outbox.cif.g09.slc.cpg/sg2_14_cif.got.tgz:27182.got - 2010.06.27 13:26:56.
