data_PCOD8034860
_publ_section_title
;
Structure prediction by ZEFSAII (Michael W. Deem and Ramdas Pophale) SiO2 
 PCOD8034860
Probable space group: P -1
;
_chemical_formula_sum "Si O2"
_cell_formula_units_Z 16
_cell_length_a 9.154421
_cell_length_b 8.400465
_cell_length_c 11.803506
_cell_angle_alpha 53.137420
_cell_angle_beta 97.039456
_cell_angle_gamma 85.664256
_cell_volume 707.936074
_symmetry_space_group_name_H-M "P -1"
_symmetry_group_IT_number 2
_symmetry_cell_setting 'triclinic'
loop_
_space_group_symop_operation_xyz
x,y,z
-x,-y,-z
loop_
_atom_site_type_symbol
_atom_site_label
_atom_site_fract_x
_atom_site_fract_y
_atom_site_fract_z
Si Si1 0.223764 0.943307 0.195984
Si Si2 0.491444 0.730129 0.444806
Si Si3 0.135031 0.503501 0.678604
Si Si4 0.017191 0.353313 0.958696
Si Si5 0.558615 0.385538 0.270079
Si Si6 0.320179 0.963557 0.742875
Si Si7 0.025034 0.202756 0.635476
Si Si8 0.304664 0.754156 0.052661
O O1 0.340923 0.890579 0.331542
O O2 0.316122 0.847406 0.137090
O O3 0.084094 0.839575 0.256934
O O4 0.164154 0.180822 0.068614
O O5 0.500000 0.500000 0.500000
O O6 0.499658 0.727430 0.581794
O O7 0.628164 0.825873 0.370723
O O8 0.306958 0.502136 0.727800
O O9 0.127715 0.342687 0.646691
O O10 0.041861 0.469597 0.796013
O O11 0.060144 0.714938 0.522647
O O12 0.867377 0.262776 0.974824
O O13 0.000000 0.500000 0.000000
O O14 0.608094 0.223528 0.246943
O O15 0.417802 0.542424 0.142009
O O16 0.139890 0.001545 0.692740
O O17 0.355946 0.905294 0.901921
#
# Coordination Sequence:
#
# PCOD8034860 Si02
#       8
#     2   2   2   2   2   2   2   2
#     4  12  25  48  74 101 142 188 241 298 346 427
#     4  12  27  49  72 106 143 189 246 291 358 424
#     4  11  25  44  74 104 139 188 238 290 357 418
#     4  12  27  45  71 106 145 187 236 293 358 423
#     4  12  27  47  71 107 149 187 234 298 361 427
#     4  12  28  45  71 105 147 190 236 294 365 425
#     4  11  24  46  73 102 139 184 244 296 344 423
#     4  12  26  48  72 103 150 186 239 291 358 430
#
# _framework density 22.600908
#
# number of rings (size 3 to 8) (size 9 to 14) (size 15 to 20)
#    0.000    0.250    5.000    3.375    7.000    2.000 
#    0.000    0.000    0.000    0.000    0.000    0.000 
#    0.000    0.000    0.000    0.000    0.000    0.000 
#
# Total GULP energy -198417.957919 kJ/mol
# GULP energy per Si atom -12401.122370 kJ/mol
# Density = 2.254947 g / cm^3
# Si number density = 22.600908 Si / 1000 Ang^3
#
#
#
# Elastic Constant Matrix: (Units=GPa)
#
#
# Indices 1 2 3 4 5 6 
#
# 1 86.1634 19.3062 41.0935 7.8569 -5.3962 -16.4362
# 2 19.3062 75.9810 33.4700 -6.1361 -5.7524 -30.1374
# 3 41.0935 33.4700 159.4608 5.9081 -16.8596 -22.4615
# 4 7.8569 -6.1361 5.9081 18.2365 -11.5507 2.5217
# 5 -5.3962 -5.7524 -16.8596 -11.5507 48.8915 -6.2100
# 6 -16.4362 -30.1374 -22.4615 2.5217 -6.2100 42.5273
#
#
#
# Elastic Compliance Matrix: (Units=1/GPa)
#
#
# Indices 1 2 3 4 5 6 
#
# 1 0.014507 -0.001855 -0.002734 -0.006928 -0.000798 0.003142
# 2 -0.001855 0.021041 -0.001809 0.010265 0.005784 0.013474
# 3 -0.002734 -0.001809 0.007948 -0.000853 0.002310 0.002247
# 4 -0.006928 0.010265 -0.000853 0.072328 0.017544 0.002419
# 5 -0.000798 0.005784 0.002310 0.017544 0.026992 0.007911
# 6 0.003142 0.013474 0.002247 0.002419 0.007911 0.036476
#
#
# Mechanical properties :
#
#
# Convention : Reuss Voigt Hill
#
# Bulk Modulus (GPa) = 32.57507 56.59385 44.58446
# Shear Modulus (GPa) = 24.71326 37.11343 30.91335
#
# Velocity S-wave (km/s) = 3.31034 4.05671 3.70238
# Velocity P-wave (km/s) = 5.39033 6.85838 6.16818
#
# Compressibility (1/GPa) = 0.03069832
#
# Stress axis : x y z
#
# Youngs Moduli (GPa) = 68.93375 47.52671 125.82152
#
# Poissons Ratio (x) = 0.08818 0.34400
# Poissons Ratio (y) = 0.12789 0.22763
# Poissons Ratio (z) = 0.18847 0.08598
#
# Static dielectric constant tensor:
#      x y z
#    x 4.224540 -0.138460 -0.028420 
#    y -0.138460 3.948890 0.090870 
#    z -0.028420 0.090870 4.476550 
# 
# 
# High freq. dielectric constant tensor:
#      x y z
#    x 1.899870 -0.019020 -0.002650 
#    y -0.019020 1.879120 0.002160 
#    z -0.002650 0.002160 1.915250 
# 
# From -- ./inp_files/187526.got.cif
#   From: 2010.06.25/outbox.cif.g09.slc.cpg/sg2_94_cif.got.tgz:187526.got - 2010.06.27 13:26:56.
