data_PCOD8034567
_publ_section_title
;
Structure prediction by ZEFSAII (Michael W. Deem and Ramdas Pophale) SiO2 
 PCOD8034567
Probable space group: P -1
;
_chemical_formula_sum "Si O2"
_cell_formula_units_Z 14
_cell_length_a 5.440725
_cell_length_b 21.349581
_cell_length_c 6.764929
_cell_angle_alpha 71.312176
_cell_angle_beta 87.510395
_cell_angle_gamma 56.055726
_cell_volume 608.267180
_symmetry_space_group_name_H-M "P -1"
_symmetry_group_IT_number 2
_symmetry_cell_setting 'triclinic'
loop_
_space_group_symop_operation_xyz
x,y,z
-x,-y,-z
loop_
_atom_site_type_symbol
_atom_site_label
_atom_site_fract_x
_atom_site_fract_y
_atom_site_fract_z
Si Si1 0.057303 0.724796 0.618734
Si Si2 0.455153 0.166616 0.183863
Si Si3 0.332491 0.262328 0.708632
Si Si4 0.731396 0.004145 0.120314
Si Si5 0.187633 0.418497 0.700972
Si Si6 0.331715 0.579511 0.051957
Si Si7 0.814038 0.153103 0.529255
O O1 0.246830 0.759434 0.522317
O O2 0.781205 0.803174 0.662533
O O3 0.973575 0.700384 0.443272
O O4 0.231210 0.650013 0.831025
O O5 0.754544 0.145877 0.308139
O O6 0.527193 0.085085 0.170769
O O7 0.320218 0.238882 0.958229
O O8 0.371163 0.336579 0.643754
O O9 0.567274 0.174437 0.685360
O O10 0.872450 0.928575 0.341209
O O11 0.500000 0.000000 0.000000
O O12 0.000000 0.000000 0.000000
O O13 0.434849 0.421865 0.807405
O O14 0.000000 0.500000 0.500000
O O15 0.953734 0.410971 0.845094
O O16 0.500000 0.500000 0.000000
#
# Coordination Sequence:
#
# PCOD8034567 Si02
#       7
#     2   2   2   2   2   2   2
#     4  11  26  43  73 105 139 188 233 293 352 419
#     4  11  24  47  70 101 144 183 237 289 355 418
#     4  11  24  45  71 103 143 182 239 287 352 421
#     4  12  27  46  73 103 142 188 237 292 352 418
#     4  12  27  46  74 105 143 191 232 291 353 415
#     4  12  27  47  72 105 148 183 236 293 349 419
#     4  11  26  43  73 103 139 190 233 293 352 420
#
# _framework density 23.016203000000001
#
# number of rings (size 3 to 8) (size 9 to 14) (size 15 to 20)
#    0.000    0.571    2.857    3.857   10.000    2.857 
#    0.000    0.000    0.000    0.000    0.000    0.000 
#    0.000    0.000    0.000    0.000    0.000    0.000 
#
# Total GULP energy -173455.844967 kJ/mol
# GULP energy per Si atom -12389.703212 kJ/mol
# Density = 2.296382 g / cm^3
# Si number density = 23.016203 Si / 1000 Ang^3
#
#
#
# Elastic Constant Matrix: (Units=GPa)
#
#
# Indices 1 2 3 4 5 6 
#
# 1 92.4119 22.5427 31.9704 6.0612 27.9050 17.1166
# 2 22.5427 165.0498 49.7709 0.7448 20.3849 18.8941
# 3 31.9704 49.7709 148.4320 -12.8980 34.4514 10.3944
# 4 6.0612 0.7448 -12.8980 52.6184 7.8365 5.8340
# 5 27.9050 20.3849 34.4514 7.8365 45.0664 5.8197
# 6 17.1166 18.8941 10.3944 5.8340 5.8197 37.1484
#
#
#
# Elastic Compliance Matrix: (Units=1/GPa)
#
#
# Indices 1 2 3 4 5 6 
#
# 1 0.014389 -0.000173 -0.000995 -0.000239 -0.007374 -0.005071
# 2 -0.000173 0.007127 -0.001847 -0.000022 -0.001337 -0.002815
# 3 -0.000995 -0.001847 0.009366 0.003449 -0.006206 -0.000792
# 4 -0.000239 -0.000022 0.003449 0.021092 -0.005725 -0.003259
# 5 -0.007374 -0.001337 -0.006206 -0.005725 0.032899 0.001560
# 6 -0.005071 -0.002815 -0.000792 -0.003259 0.001560 0.031177
#
#
# Mechanical properties :
#
#
# Convention : Reuss Voigt Hill
#
# Bulk Modulus (GPa) = 40.23740 68.27350 54.25545
# Shear Modulus (GPa) = 38.35409 47.07397 42.71403
#
# Velocity S-wave (km/s) = 4.08658 4.52735 4.31260
# Velocity P-wave (km/s) = 6.30769 7.55360 6.95859
#
# Compressibility (1/GPa) = 0.02485250
#
# Stress axis : x y z
#
# Youngs Moduli (GPa) = 69.49602 140.31397 106.76577
#
# Poissons Ratio (x) = 0.02425 0.10627
# Poissons Ratio (y) = 0.01201 0.19718
# Poissons Ratio (z) = 0.06917 0.25914
#
# Static dielectric constant tensor:
#      x y z
#    x 4.365790 -0.032850 0.120930 
#    y -0.032850 4.356930 0.036610 
#    z 0.120930 0.036610 4.260560 
# 
# 
# High freq. dielectric constant tensor:
#      x y z
#    x 1.904420 0.002940 0.007760 
#    y 0.002940 1.936160 -0.000200 
#    z 0.007760 -0.000200 1.924550 
# 
# From -- ./inp_files/7447.got.cif
#   From: 2010.06.25/outbox.cif.g09.slc.cpg/sg2_4_cif.got.tgz:7447.got - 2010.06.27 13:26:56.
