data_PCOD8034854
_publ_section_title
;
Structure prediction by ZEFSAII (Michael W. Deem and Ramdas Pophale) SiO2 
 PCOD8034854
Probable space group: P -1
;
_chemical_formula_sum "Si O2"
_cell_formula_units_Z 16
_cell_length_a 15.279896
_cell_length_b 9.234163
_cell_length_c 9.326406
_cell_angle_alpha 67.715902
_cell_angle_beta 110.670385
_cell_angle_gamma 142.348501
_cell_volume 740.561206
_symmetry_space_group_name_H-M "P -1"
_symmetry_group_IT_number 2
_symmetry_cell_setting 'triclinic'
loop_
_space_group_symop_operation_xyz
x,y,z
-x,-y,-z
loop_
_atom_site_type_symbol
_atom_site_label
_atom_site_fract_x
_atom_site_fract_y
_atom_site_fract_z
Si Si1 0.400020 0.951524 0.578339
Si Si2 0.897040 0.107450 0.890130
Si Si3 0.860209 0.717540 0.555557
Si Si4 0.891552 0.398367 0.598687
Si Si5 0.586160 0.218000 0.078287
Si Si6 0.550640 0.430280 0.450028
Si Si7 0.422833 0.266169 0.122569
Si Si8 0.154711 0.286382 0.122720
O O1 0.497811 0.216090 0.593771
O O2 0.500000 0.000000 0.500000
O O3 0.265632 0.848230 0.452537
O O4 0.341336 0.784020 0.746522
O O5 0.935393 0.328924 0.771031
O O6 0.742909 0.923397 0.942478
O O7 0.886870 0.949341 0.831468
O O8 0.018959 0.222628 0.032233
O O9 0.893042 0.583551 0.571881
O O10 0.720990 0.625425 0.436435
O O11 0.813332 0.647611 0.718634
O O12 0.000000 0.000000 0.500000
O O13 0.000000 0.500000 0.500000
O O14 0.464685 0.157887 0.114321
O O15 0.706327 0.481437 0.975913
O O16 0.500000 0.000000 0.000000
O O17 0.500000 0.500000 0.500000
O O18 0.461557 0.325401 0.290322
O O19 0.500000 0.500000 0.000000
#
# Coordination Sequence:
#
# PCOD8034854 Si02
#       8
#     2   2   2   2   2   2   2   2
#     4  12  23  47  73 102 139 187 236 295 349 417
#     4  11  24  46  72  97 140 185 231 289 353 419
#     4  12  28  47  71 104 145 186 237 298 355 424
#     4  12  25  45  73 101 136 186 242 288 356 420
#     4  12  26  44  70 104 145 187 234 288 358 423
#     4  12  27  46  76 105 141 185 241 296 356 421
#     4  12  25  45  71 105 139 183 237 290 353 421
#     4  11  26  47  68 102 146 186 233 290 360 422
#
# _framework density 21.605235
#
# number of rings (size 3 to 8) (size 9 to 14) (size 15 to 20)
#    0.000    0.250    5.000    3.000    7.000    1.500 
#    2.250    0.000    0.000    0.000    0.000    0.000 
#    0.000    0.000    0.000    0.000    0.000    0.000 
#
# Total GULP energy -198259.374364 kJ/mol
# GULP energy per Si atom -12391.210898 kJ/mol
# Density = 2.155606 g / cm^3
# Si number density = 21.605235 Si / 1000 Ang^3
#
#
#
# Elastic Constant Matrix: (Units=GPa)
#
#
# Indices 1 2 3 4 5 6 
#
# 1 148.7708 48.2696 30.8533 1.6270 1.2156 -7.4181
# 2 48.2696 111.6732 21.6868 -11.0050 2.2226 -0.9533
# 3 30.8533 21.6868 89.1852 -6.7432 -5.6651 -3.0426
# 4 1.6270 -11.0050 -6.7432 41.1405 -0.4082 1.8591
# 5 1.2156 2.2226 -5.6651 -0.4082 40.7770 2.9803
# 6 -7.4181 -0.9533 -3.0426 1.8591 2.9803 52.9439
#
#
#
# Elastic Compliance Matrix: (Units=1/GPa)
#
#
# Indices 1 2 3 4 5 6 
#
# 1 0.008327 -0.003316 -0.002191 -0.001628 -0.000466 0.001064
# 2 -0.003316 0.010940 -0.001352 0.002848 -0.000627 -0.000410
# 3 -0.002191 -0.001352 0.012562 0.001793 0.001886 0.000222
# 4 -0.001628 0.002848 0.001793 0.025477 0.000470 -0.000995
# 5 -0.000466 -0.000627 0.001886 0.000470 0.024940 -0.001389
# 6 0.001064 -0.000410 0.000222 -0.000995 -0.001389 0.019155
#
#
# Mechanical properties :
#
#
# Convention : Reuss Voigt Hill
#
# Bulk Modulus (GPa) = 55.21000 61.24983 58.22992
# Shear Modulus (GPa) = 41.26969 43.56026 42.41497
#
# Velocity S-wave (km/s) = 4.37529 4.49507 4.43559
# Velocity P-wave (km/s) = 7.15078 7.43989 7.29677
#
# Compressibility (1/GPa) = 0.01811266
#
# Stress axis : x y z
#
# Youngs Moduli (GPa) = 120.09766 91.40735 79.60485
#
# Poissons Ratio (x) = 0.30308 0.17439
# Poissons Ratio (y) = 0.39821 0.10760
# Poissons Ratio (z) = 0.26309 0.12355
#
# Static dielectric constant tensor:
#      x y z
#    x 2.671610 0.015040 1.002920 
#    y 0.015040 3.910500 -0.131800 
#    z 1.002920 -0.131800 3.561310 
# 
# 
# High freq. dielectric constant tensor:
#      x y z
#    x 1.868030 0.002450 0.008690 
#    y 0.002450 1.860810 -0.008370 
#    z 0.008690 -0.008370 1.850020 
# 
# From -- ./inp_files/272712.got.cif
#   From: 2010.06.25/outbox.cif.g09.slc.cpg/sg2_137_cif.got.tgz:272712.got - 2010.06.27 13:26:56.
