data_PCOD8034180
_publ_section_title
;
Structure prediction by ZEFSAII (Michael W. Deem and Ramdas Pophale) SiO2 
 PCOD8034180
Probable space group: P -1
;
_chemical_formula_sum "Si O2"
_cell_formula_units_Z 16
_cell_length_a 22.647993
_cell_length_b 9.099983
_cell_length_c 5.546868
_cell_angle_alpha 101.711073
_cell_angle_beta 120.294849
_cell_angle_gamma 44.681348
_cell_volume 670.863998
_symmetry_space_group_name_H-M "P -1"
_symmetry_group_IT_number 2
_symmetry_cell_setting 'triclinic'
loop_
_space_group_symop_operation_xyz
x,y,z
-x,-y,-z
loop_
_atom_site_type_symbol
_atom_site_label
_atom_site_fract_x
_atom_site_fract_y
_atom_site_fract_z
Si Si1 0.362415 0.068562 0.769856
Si Si2 0.689269 0.334721 0.826731
Si Si3 0.288930 0.878162 0.704102
Si Si4 0.546301 0.821157 0.735126
Si Si5 0.893797 0.733679 0.306893
Si Si6 0.869084 0.250162 0.105869
Si Si7 0.827190 0.580456 0.817628
Si Si8 0.995155 0.218122 0.740313
O O1 0.264136 0.243079 0.476356
O O2 0.353267 0.929055 0.854670
O O3 0.462087 0.900261 0.768149
O O4 0.368172 0.209986 0.986576
O O5 0.697104 0.227679 0.558500
O O6 0.596265 0.589817 0.668077
O O7 0.675179 0.262301 0.022363
O O8 0.784929 0.282950 0.062590
O O9 0.170402 0.099615 0.547319
O O10 0.500000 0.000000 0.500000
O O11 0.000000 0.500000 0.500000
O O12 0.911109 0.841100 0.191945
O O13 0.823481 0.714771 0.054778
O O14 0.915499 0.294797 0.402266
O O15 0.819543 0.422617 0.846512
O O16 0.957476 0.003007 0.108265
O O17 0.934828 0.421928 0.861391
#
# Coordination Sequence:
#
# PCOD8034180 Si02
#       8
#     2   2   2   2   2   2   2   2
#     4  11  28  50  81 114 153 197 263 320 399 468
#     4  12  29  50  82 111 163 205 258 327 395 468
#     4  12  30  52  76 117 160 210 257 321 394 472
#     4  11  28  53  85 117 149 198 260 329 397 486
#     4  12  25  45  71 108 155 211 266 313 379 456
#     4  11  25  42  69 109 152 204 259 322 382 463
#     4  12  25  43  77 106 150 208 256 331 384 460
#     4  11  24  44  66 108 151 205 265 319 384 458
#
# _framework density 23.849841000000001
#
# number of rings (size 3 to 8) (size 9 to 14) (size 15 to 20)
#    0.000    0.500    2.500    3.750   14.000    1.000 
#    0.000    0.000    0.000    0.000    0.000    0.000 
#    0.000    0.000    0.000    0.000    0.000    0.000 
#
# Total GULP energy -198319.977577 kJ/mol
# GULP energy per Si atom -12394.998599 kJ/mol
# Density = 2.379556 g / cm^3
# Si number density = 23.849841 Si / 1000 Ang^3
#
#
#
# Elastic Constant Matrix: (Units=GPa)
#
#
# Indices 1 2 3 4 5 6 
#
# 1 169.5171 44.5342 27.3517 1.1517 -18.2241 22.8892
# 2 44.5342 168.4114 69.1568 -0.8430 -2.7153 8.5405
# 3 27.3517 69.1568 117.6994 -5.1927 4.8240 6.5133
# 4 1.1517 -0.8430 -5.1927 40.5468 -0.6158 -8.3508
# 5 -18.2241 -2.7153 4.8240 -0.6158 51.9092 -1.4177
# 6 22.8892 8.5405 6.5133 -8.3508 -1.4177 23.3719
#
#
#
# Elastic Compliance Matrix: (Units=1/GPa)
#
#
# Indices 1 2 3 4 5 6 
#
# 1 0.007625 -0.001292 -0.000791 -0.001805 0.002463 -0.007270
# 2 -0.001292 0.008161 -0.004498 -0.000491 0.000369 -0.000616
# 3 -0.000791 -0.004498 0.011467 0.001289 -0.001575 -0.000413
# 4 -0.001805 -0.000491 0.001289 0.027193 -0.000148 0.011295
# 5 0.002463 0.000369 -0.001575 -0.000148 0.020267 -0.000931
# 6 -0.007270 -0.000616 -0.000413 0.011295 -0.000931 0.054226
#
#
# Mechanical properties :
#
#
# Convention : Reuss Voigt Hill
#
# Bulk Modulus (GPa) = 70.96452 81.96816 76.46634
# Shear Modulus (GPa) = 34.06043 44.13793 39.09918
#
# Velocity S-wave (km/s) = 3.78315 4.30660 4.05333
# Velocity P-wave (km/s) = 6.99301 7.69234 7.35100
#
# Compressibility (1/GPa) = 0.01409155
#
# Stress axis : x y z
#
# Youngs Moduli (GPa) = 131.14931 122.53086 87.20724
#
# Poissons Ratio (x) = 0.15833 0.06897
# Poissons Ratio (y) = 0.16947 0.39223
# Poissons Ratio (z) = 0.10373 0.55110
#
# Static dielectric constant tensor:
#      x y z
#    x 4.633830 0.140860 -0.107440 
#    y 0.140860 4.562210 -0.044630 
#    z -0.107440 -0.044630 4.195340 
# 
# 
# High freq. dielectric constant tensor:
#      x y z
#    x 1.959410 0.007500 0.002940 
#    y 0.007500 1.969040 -0.003740 
#    z 0.002940 -0.003740 1.930720 
# 
# From -- ./inp_files/117187.got.cif
#   From: 2010.06.25/outbox.cif.g09.slc.cpg/sg2_59_cif.got.tgz:117187.got - 2010.06.27 13:26:56.
