data_PCOD8034082
_publ_section_title
;
Structure prediction by ZEFSAII (Michael W. Deem and Ramdas Pophale) SiO2 
 PCOD8034082
Probable space group: P -1
;
_chemical_formula_sum "Si O2"
_cell_formula_units_Z 14
_cell_length_a 8.389769
_cell_length_b 10.430505
_cell_length_c 20.497813
_cell_angle_alpha 25.959343
_cell_angle_beta 112.439775
_cell_angle_gamma 122.310762
_cell_volume 639.471984
_symmetry_space_group_name_H-M "P -1"
_symmetry_group_IT_number 2
_symmetry_cell_setting 'triclinic'
loop_
_space_group_symop_operation_xyz
x,y,z
-x,-y,-z
loop_
_atom_site_type_symbol
_atom_site_label
_atom_site_fract_x
_atom_site_fract_y
_atom_site_fract_z
Si Si1 0.794886 0.454064 0.058011
Si Si2 0.205329 0.139595 0.006039
Si Si3 0.505939 0.693397 0.560029
Si Si4 0.823170 0.543636 0.476299
Si Si5 0.105406 0.249867 0.194955
Si Si6 0.496181 0.355546 0.268979
Si Si7 0.388548 0.786271 0.276484
O O1 0.754742 0.579923 0.062131
O O2 0.016799 0.502006 0.077378
O O3 0.610610 0.092389 0.175889
O O4 0.813784 0.706730 0.886657
O O5 0.368928 0.302242 0.902164
O O6 0.241693 0.858074 0.175694
O O7 0.000000 0.000000 0.000000
O O8 0.289631 0.510228 0.583566
O O9 0.492427 0.570221 0.687262
O O10 0.627125 0.557029 0.597768
O O11 0.574535 0.089611 0.385765
O O12 0.693459 0.292184 0.627153
O O13 0.000000 0.500000 0.500000
O O14 0.908617 0.923764 0.335058
O O15 0.272875 0.253437 0.264743
#
# Coordination Sequence:
#
# PCOD8034082 Si02
#       7
#     2   2   2   2   2   2   2
#     4  11  25  46  71 106 141 185 239 291 350 418
#     4  12  29  45  70 103 142 190 234 292 354 422
#     4  11  26  45  71 104 142 186 230 291 359 414
#     4  12  24  42  73 103 140 182 240 287 343 419
#     4  11  24  43  72 104 138 188 231 292 348 416
#     4  11  26  47  70 103 150 184 226 301 356 415
#     4  12  26  47  75 105 140 189 239 291 345 425
#
# _framework density 21.893063999999999
#
# number of rings (size 3 to 8) (size 9 to 14) (size 15 to 20)
#    0.000    0.571    4.286    2.571    8.000    0.571 
#    0.000    1.429    0.000    0.000    0.000    0.000 
#    0.000    0.000    0.000    0.000    0.000    0.000 
#
# Total GULP energy -173433.167902 kJ/mol
# GULP energy per Si atom -12388.083422 kJ/mol
# Density = 2.184323 g / cm^3
# Si number density = 21.893064 Si / 1000 Ang^3
#
#
#
# Elastic Constant Matrix: (Units=GPa)
#
#
# Indices 1 2 3 4 5 6 
#
# 1 84.7692 45.8508 30.1830 12.8740 3.2620 -4.2582
# 2 45.8508 127.0627 43.3212 26.1312 6.0893 8.8889
# 3 30.1830 43.3212 92.8574 20.2246 -10.3803 2.7136
# 4 12.8740 26.1312 20.2246 38.6379 -0.6500 4.5825
# 5 3.2620 6.0893 -10.3803 -0.6500 45.9114 -2.4838
# 6 -4.2582 8.8889 2.7136 4.5825 -2.4838 34.2805
#
#
#
# Elastic Compliance Matrix: (Units=1/GPa)
#
#
# Indices 1 2 3 4 5 6 
#
# 1 0.015726 -0.004669 -0.002933 -0.000973 -0.000988 0.003455
# 2 -0.004669 0.011884 -0.003208 -0.004488 -0.002194 -0.002967
# 3 -0.002933 -0.003208 0.014620 -0.004463 0.003886 0.000188
# 4 -0.000973 -0.004488 -0.004463 0.031917 -0.000048 -0.002874
# 5 -0.000988 -0.002194 0.003886 -0.000048 0.023119 0.001820
# 6 0.003455 -0.002967 0.000188 -0.002874 0.001820 0.030871
#
#
# Mechanical properties :
#
#
# Convention : Reuss Voigt Hill
#
# Bulk Modulus (GPa) = 48.51824 60.37771 54.44798
# Shear Modulus (GPa) = 31.92322 36.12156 34.02239
#
# Velocity S-wave (km/s) = 3.82271 4.06631 3.94639
# Velocity P-wave (km/s) = 6.45707 7.04875 6.75939
#
# Compressibility (1/GPa) = 0.02061080
#
# Stress axis : x y z
#
# Youngs Moduli (GPa) = 63.58997 84.14522 68.39897
#
# Poissons Ratio (x) = 0.39287 0.20060
# Poissons Ratio (y) = 0.29690 0.21942
# Poissons Ratio (z) = 0.18650 0.26993
#
# Static dielectric constant tensor:
#      x y z
#    x 3.986630 0.070410 0.104240 
#    y 0.070410 4.003320 -0.138150 
#    z 0.104240 -0.138150 6.059250 
# 
# 
# High freq. dielectric constant tensor:
#      x y z
#    x 1.870710 0.003650 0.010940 
#    y 0.003650 1.857420 0.016910 
#    z 0.010940 0.016910 1.872430 
# 
# From -- ./inp_files/157247.got.cif
#   From: 2010.06.25/outbox.cif.g09.slc.cpg/sg2_79_cif.got.tgz:157247.got - 2010.06.27 13:26:56.
