data_PCOD8034195
_publ_section_title
;
Structure prediction by ZEFSAII (Michael W. Deem and Ramdas Pophale) SiO2 
 PCOD8034195
Probable space group: P -1
;
_chemical_formula_sum "Si O2"
_cell_formula_units_Z 16
_cell_length_a 6.766856
_cell_length_b 18.773662
_cell_length_c 9.534875
_cell_angle_alpha 105.432947
_cell_angle_beta 135.248884
_cell_angle_gamma 68.808616
_cell_volume 795.039716
_symmetry_space_group_name_H-M "P -1"
_symmetry_group_IT_number 2
_symmetry_cell_setting 'triclinic'
loop_
_space_group_symop_operation_xyz
x,y,z
-x,-y,-z
loop_
_atom_site_type_symbol
_atom_site_label
_atom_site_fract_x
_atom_site_fract_y
_atom_site_fract_z
Si Si1 0.266362 0.456990 0.702807
Si Si2 0.728012 0.037652 0.974459
Si Si3 0.348987 0.706772 0.221183
Si Si4 0.269454 0.783062 0.515889
Si Si5 0.615012 0.798137 0.182560
Si Si6 0.707483 0.703885 0.912973
Si Si7 0.748431 0.052797 0.309026
Si Si8 0.253287 0.452044 0.008653
O O1 0.420773 0.373731 0.674840
O O2 0.478497 0.511660 0.836216
O O3 0.000000 0.500000 0.500000
O O4 0.147206 0.447877 0.793620
O O5 0.547425 0.113201 0.844186
O O6 0.538969 0.976692 0.852660
O O7 0.841856 0.055286 0.194691
O O8 0.000000 0.000000 0.000000
O O9 0.323543 0.762546 0.369710
O O10 0.443552 0.748637 0.158261
O O11 0.040114 0.689242 0.021697
O O12 0.494789 0.718087 0.681011
O O13 0.334421 0.864159 0.619141
O O14 0.942467 0.784549 0.398782
O O15 0.624352 0.776166 0.012278
O O16 0.647725 0.632722 0.927095
O O17 0.000000 0.000000 0.500000
O O18 0.000000 0.500000 0.000000
#
# Coordination Sequence:
#
# PCOD8034195 Si02
#       8
#     2   2   2   2   2   2   2   2
#     4  11  26  43  65  99 132 165 216 270 314 381
#     4  11  26  41  70  94 129 174 209 269 321 374
#     4  11  26  42  65  97 131 166 216 268 314 383
#     4  11  26  42  68  94 127 175 210 265 324 379
#     4  11  24  45  62  97 133 164 217 266 316 381
#     4  11  24  45  66  91 132 172 214 261 322 379
#     4  11  24  46  63  95 134 165 219 263 316 386
#     4  11  24  44  67  93 130 175 213 259 322 383
#
# _framework density 20.124780999999999
#
# number of rings (size 3 to 8) (size 9 to 14) (size 15 to 20)
#    0.000    1.000    5.000    0.000    7.000    3.000 
#    0.000    0.000    0.000    0.000    0.000    0.000 
#    0.000    0.000    0.000    0.000    0.000    0.000 
#
# Total GULP energy -198472.779127 kJ/mol
# GULP energy per Si atom -12404.548695 kJ/mol
# Density = 2.007898 g / cm^3
# Si number density = 20.124781 Si / 1000 Ang^3
#
#
#
# Elastic Constant Matrix: (Units=GPa)
#
#
# Indices 1 2 3 4 5 6 
#
# 1 117.6101 46.0077 42.1150 -10.4205 2.1978 -10.7127
# 2 46.0077 110.0702 34.6736 -6.4135 0.6610 -4.2875
# 3 42.1150 34.6736 110.4460 -20.0870 -6.1400 -7.1444
# 4 -10.4205 -6.4135 -20.0870 40.9388 -1.9052 -0.2358
# 5 2.1978 0.6610 -6.1400 -1.9052 18.1899 0.6730
# 6 -10.7127 -4.2875 -7.1444 -0.2358 0.6730 39.4046
#
#
#
# Elastic Compliance Matrix: (Units=1/GPa)
#
#
# Indices 1 2 3 4 5 6 
#
# 1 0.011313 -0.003635 -0.003024 0.000734 -0.002259 0.002175
# 2 -0.003635 0.011300 -0.002270 -0.000305 -0.000764 -0.000159
# 3 -0.003024 -0.002270 0.012199 0.005102 0.005060 0.001087
# 4 0.000734 -0.000305 0.005102 0.027283 0.004459 0.001178
# 5 -0.002259 -0.000764 0.005060 0.004459 0.057478 -0.000735
# 6 0.002175 -0.000159 0.001087 0.001178 -0.000735 0.026168
#
#
# Mechanical properties :
#
#
# Convention : Reuss Voigt Hill
#
# Bulk Modulus (GPa) = 58.98022 64.85767 61.91895
# Shear Modulus (GPa) = 29.54180 34.06197 31.80189
#
# Velocity S-wave (km/s) = 3.83552 4.11851 3.97953
# Velocity P-wave (km/s) = 6.99899 7.41039 7.20762
#
# Compressibility (1/GPa) = 0.01695484
#
# Stress axis : x y z
#
# Youngs Moduli (GPa) = 88.39515 88.49501 81.97084
#
# Poissons Ratio (x) = 0.32167 0.24789
# Poissons Ratio (y) = 0.32131 0.18605
# Poissons Ratio (z) = 0.26732 0.20086
#
# Static dielectric constant tensor:
#      x y z
#    x 3.777700 -0.120770 -0.127920 
#    y -0.120770 3.863700 0.114000 
#    z -0.127920 0.114000 3.744790 
# 
# 
# High freq. dielectric constant tensor:
#      x y z
#    x 1.791450 -0.001520 -0.001380 
#    y -0.001520 1.803690 0.001090 
#    z -0.001380 0.001090 1.788280 
# 
# From -- ./inp_files/13710.got.cif
#   From: 2010.06.25/outbox.cif.g09.slc.cpg/sg2_7_cif.got.tgz:13710.got - 2010.06.27 13:26:56.
