data_PCOD8034459
_publ_section_title
;
Structure prediction by ZEFSAII (Michael W. Deem and Ramdas Pophale) SiO2 
 PCOD8034459
Probable space group: P -1
;
_chemical_formula_sum "Si O2"
_cell_formula_units_Z 14
_cell_length_a 6.967207
_cell_length_b 29.488259
_cell_length_c 5.185389
_cell_angle_alpha 109.719990
_cell_angle_beta 87.759590
_cell_angle_gamma 43.117102
_cell_volume 614.325290
_symmetry_space_group_name_H-M "P -1"
_symmetry_group_IT_number 2
_symmetry_cell_setting 'triclinic'
loop_
_space_group_symop_operation_xyz
x,y,z
-x,-y,-z
loop_
_atom_site_type_symbol
_atom_site_label
_atom_site_fract_x
_atom_site_fract_y
_atom_site_fract_z
Si Si1 0.938143 0.294902 0.359934
Si Si2 0.130524 0.839637 0.384750
Si Si3 0.166637 0.145016 0.072582
Si Si4 0.772103 0.568645 0.346891
Si Si5 0.139855 0.311060 0.881870
Si Si6 0.828917 0.459187 0.374134
Si Si7 0.894173 0.992587 0.741432
O O1 0.583654 0.349715 0.564321
O O2 0.142142 0.206637 0.136153
O O3 0.083920 0.296053 0.587246
O O4 0.953261 0.322503 0.148627
O O5 0.498112 0.758658 0.206222
O O6 0.975523 0.836931 0.604450
O O7 0.062639 0.908205 0.580409
O O8 0.007225 0.850671 0.129945
O O9 0.524471 0.057727 0.884630
O O10 0.741805 0.531920 0.483356
O O11 0.932856 0.585865 0.479381
O O12 0.000000 0.500000 0.000000
O O13 0.014440 0.391377 0.017319
O O14 0.500000 0.500000 0.500000
O O15 0.000000 0.000000 0.500000
O O16 0.000000 0.000000 0.000000
#
# Coordination Sequence:
#
# PCOD8034459 Si02
#       7
#     2   2   2   2   2   2   2
#     4  12  26  45  67 100 134 179 224 281 337 406
#     4  12  25  44  69 101 134 179 222 277 341 400
#     4  12  25  44  69  99 139 173 226 279 335 404
#     4  11  26  41  70  96 136 177 231 282 345 407
#     4  12  26  44  70  96 137 177 227 276 343 405
#     4  11  24  45  66  99 133 180 227 285 342 409
#     4  12  24  44  70 100 136 177 225 274 337 406
#
# _framework density 22.789227
#
# number of rings (size 3 to 8) (size 9 to 14) (size 15 to 20)
#    0.000    0.286    1.429    7.714    6.000    1.143 
#    0.000    0.000    0.000    0.000    0.000    0.000 
#    0.000    0.000    0.000    0.000    0.000    0.000 
#
# Total GULP energy -173582.550013 kJ/mol
# GULP energy per Si atom -12398.753572 kJ/mol
# Density = 2.273736 g / cm^3
# Si number density = 22.789227 Si / 1000 Ang^3
#
#
#
# Elastic Constant Matrix: (Units=GPa)
#
#
# Indices 1 2 3 4 5 6 
#
# 1 108.5903 26.7287 29.3940 5.4287 8.5731 -27.8318
# 2 26.7287 78.1284 22.6402 12.7428 2.9272 -16.4317
# 3 29.3940 22.6402 102.9652 4.4814 6.0163 -9.8583
# 4 5.4287 12.7428 4.4814 56.7615 -1.5863 -2.2882
# 5 8.5731 2.9272 6.0163 -1.5863 59.2308 8.3203
# 6 -27.8318 -16.4317 -9.8583 -2.2882 8.3203 50.0156
#
#
#
# Elastic Compliance Matrix: (Units=1/GPa)
#
#
# Indices 1 2 3 4 5 6 
#
# 1 0.012050 -0.002079 -0.002269 -0.000330 -0.002254 0.005935
# 2 -0.002079 0.015413 -0.002290 -0.002964 -0.000793 0.003452
# 3 -0.002269 -0.002290 0.010935 -0.000142 -0.000708 0.000252
# 4 -0.000330 -0.002964 -0.000142 0.018328 0.000766 -0.000474
# 5 -0.002254 -0.000793 -0.000708 0.000766 0.017989 -0.004611
# 6 0.005935 0.003452 0.000252 -0.000474 -0.004611 0.025226
#
#
# Mechanical properties :
#
#
# Convention : Reuss Voigt Hill
#
# Bulk Modulus (GPa) = 39.80239 49.68997 44.74618
# Shear Modulus (GPa) = 41.12189 47.26296 44.19242
#
# Velocity S-wave (km/s) = 4.25248 4.55897 4.40839
# Velocity P-wave (km/s) = 6.45096 7.04015 6.75198
#
# Compressibility (1/GPa) = 0.02512412
#
# Stress axis : x y z
#
# Youngs Moduli (GPa) = 82.98550 64.87952 91.45054
#
# Poissons Ratio (x) = 0.13485 0.20747
# Poissons Ratio (y) = 0.17249 0.20941
# Poissons Ratio (z) = 0.18827 0.14857
#
# Static dielectric constant tensor:
#      x y z
#    x 4.192030 -0.074310 0.016670 
#    y -0.074310 4.593710 0.102780 
#    z 0.016670 0.102780 4.204560 
# 
# 
# High freq. dielectric constant tensor:
#      x y z
#    x 1.917480 -0.008300 0.005690 
#    y -0.008300 1.910660 0.010390 
#    z 0.005690 0.010390 1.914080 
# 
# From -- ./inp_files/7638.got.cif
#   From: 2010.06.25/outbox.cif.g09.slc.cpg/sg2_4_cif.got.tgz:7638.got - 2010.06.27 13:26:56.
