data_PCOD8034684
_publ_section_title
;
Structure prediction by ZEFSAII (Michael W. Deem and Ramdas Pophale) SiO2 
 PCOD8034684
Probable space group: P -1
;
_chemical_formula_sum "Si O2"
_cell_formula_units_Z 10
_cell_length_a 14.994759
_cell_length_b 4.996069
_cell_length_c 7.012122
_cell_angle_alpha 114.433544
_cell_angle_beta 75.577751
_cell_angle_gamma 95.784250
_cell_volume 463.192668
_symmetry_space_group_name_H-M "P -1"
_symmetry_group_IT_number 2
_symmetry_cell_setting 'triclinic'
loop_
_space_group_symop_operation_xyz
x,y,z
-x,-y,-z
loop_
_atom_site_type_symbol
_atom_site_label
_atom_site_fract_x
_atom_site_fract_y
_atom_site_fract_z
Si Si1 0.729757 0.948508 0.119972
Si Si2 0.591038 0.173499 0.558243
Si Si3 0.591339 0.844236 0.831786
Si Si4 0.851583 0.458599 0.074629
Si Si5 0.997700 0.663443 0.351187
O O1 0.667907 0.150589 0.348541
O O2 0.630562 0.031597 0.689283
O O3 0.670417 0.828769 0.941788
O O4 0.815518 0.137069 0.054779
O O5 0.564441 0.513710 0.693069
O O6 0.500000 0.000000 0.500000
O O7 0.765927 0.668037 0.134076
O O8 0.500000 0.000000 0.000000
O O9 0.915133 0.433792 0.848184
O O10 0.904946 0.590527 0.265417
O O11 0.000000 0.500000 0.500000
O O12 0.000000 0.000000 0.500000
#
# Coordination Sequence:
#
# PCOD8034684 Si02
#       5
#     2   2   2   2   2
#     4  12  26  43  68  98 142 170 228 281 324 396
#     4  12  26  43  68  95 132 183 232 278 333 388
#     4  12  26  43  68  95 132 183 232 278 333 388
#     4  11  26  44  66 106 132 172 220 276 336 395
#     4  11  24  45  74  96 136 173 214 271 339 409
#
# _framework density 21.589286999999999
#
# number of rings (size 3 to 8) (size 9 to 14) (size 15 to 20)
#    0.000    0.400    2.000    6.000    2.800   12.800 
#    0.000    0.000    0.000    0.000    0.000    0.000 
#    0.000    0.000    0.000    0.000    0.000    0.000 
#
# Total GULP energy -124088.281810 kJ/mol
# GULP energy per Si atom -12408.828181 kJ/mol
# Density = 2.154015 g / cm^3
# Si number density = 21.589287 Si / 1000 Ang^3
#
#
#
# Elastic Constant Matrix: (Units=GPa)
#
#
# Indices 1 2 3 4 5 6 
#
# 1 105.7929 18.2137 46.2288 -2.3100 10.7266 -5.6390
# 2 18.2137 120.7052 44.1805 -0.4925 1.4801 -11.2403
# 3 46.2288 44.1805 129.6568 1.9341 7.1149 -7.3646
# 4 -2.3100 -0.4925 1.9341 53.3002 -6.1918 -0.2425
# 5 10.7266 1.4801 7.1149 -6.1918 30.0412 2.3255
# 6 -5.6390 -11.2403 -7.3646 -0.2425 2.3255 42.1222
#
#
#
# Elastic Compliance Matrix: (Units=1/GPa)
#
#
# Indices 1 2 3 4 5 6 
#
# 1 0.011542 -0.000212 -0.003813 0.000266 -0.003230 0.001002
# 2 -0.000212 0.009639 -0.003112 0.000229 0.000231 0.001988
# 3 -0.003813 -0.003112 0.010231 -0.000690 -0.001090 0.000504
# 4 0.000266 0.000229 -0.000690 0.019269 0.004039 -0.000136
# 5 -0.003230 0.000231 -0.001090 0.004039 0.035715 -0.002510
# 6 0.001002 0.001988 0.000504 -0.000136 -0.002510 0.024631
#
#
# Mechanical properties :
#
#
# Convention : Reuss Voigt Hill
#
# Bulk Modulus (GPa) = 58.34877 63.71121 61.02999
# Shear Modulus (GPa) = 38.16421 41.59485 39.87953
#
# Velocity S-wave (km/s) = 4.20901 4.39412 4.30256
# Velocity P-wave (km/s) = 7.12084 7.43767 7.28098
#
# Compressibility (1/GPa) = 0.01713832
#
# Stress axis : x y z
#
# Youngs Moduli (GPa) = 86.64205 103.74567 97.74008
#
# Poissons Ratio (x) = 0.02200 0.37265
# Poissons Ratio (y) = 0.01837 0.30417
# Poissons Ratio (z) = 0.33034 0.32286
#
# Static dielectric constant tensor:
#      x y z
#    x 4.092320 -0.104310 -0.212690 
#    y -0.104310 4.038910 -0.164860 
#    z -0.212690 -0.164860 4.838080 
# 
# 
# High freq. dielectric constant tensor:
#      x y z
#    x 1.853770 -0.005920 0.004790 
#    y -0.005920 1.866900 -0.002350 
#    z 0.004790 -0.002350 1.867120 
# 
# From -- ./inp_files/288273.got.cif
#   From: 2010.06.25/outbox.cif.g09.slc.cpg/sg2_145_cif.got.tgz:288273.got - 2010.06.27 13:26:56.
