data_PCOD8034630
_publ_section_title
;
Structure prediction by ZEFSAII (Michael W. Deem and Ramdas Pophale) SiO2 
 PCOD8034630
Probable space group: P -1
;
_chemical_formula_sum "Si O2"
_cell_formula_units_Z 16
_cell_length_a 9.125610
_cell_length_b 23.397989
_cell_length_c 9.920229
_cell_angle_alpha 45.740509
_cell_angle_beta 136.606412
_cell_angle_gamma 150.241433
_cell_volume 708.167631
_symmetry_space_group_name_H-M "P -1"
_symmetry_group_IT_number 2
_symmetry_cell_setting 'triclinic'
loop_
_space_group_symop_operation_xyz
x,y,z
-x,-y,-z
loop_
_atom_site_type_symbol
_atom_site_label
_atom_site_fract_x
_atom_site_fract_y
_atom_site_fract_z
Si Si1 0.718117 0.178187 0.469653
Si Si2 0.704156 0.515280 0.222573
Si Si3 0.856264 0.711461 0.164204
Si Si4 0.730565 0.349576 0.121264
Si Si5 0.869217 0.433630 0.803065
Si Si6 0.151996 0.932905 0.845092
Si Si7 0.946122 0.047830 0.558959
Si Si8 0.716125 0.712159 0.502625
O O1 0.573517 0.227416 0.277380
O O2 0.893269 0.213633 0.670747
O O3 0.953405 0.235141 0.407742
O O4 0.410569 0.038069 0.481287
O O5 0.846294 0.618530 0.252710
O O6 0.471481 0.388186 0.344682
O O7 0.989064 0.552253 0.270902
O O8 0.500000 0.500000 0.000000
O O9 0.506500 0.642642 0.083846
O O10 0.939209 0.798973 0.961315
O O11 0.975595 0.441193 0.250976
O O12 0.906985 0.382853 0.039321
O O13 0.499381 0.343656 0.681556
O O14 0.081966 0.936273 0.640414
O O15 0.072888 0.993979 0.768618
O O16 0.500000 0.000000 0.000000
O O17 0.203837 0.176199 0.584026
#
# Coordination Sequence:
#
# PCOD8034630 Si02
#       8
#     2   2   2   2   2   2   2   2
#     4  12  25  46  71 101 136 190 234 287 347 415
#     4  12  25  43  69 104 143 179 225 292 354 409
#     4  12  24  45  74 102 139 184 235 285 348 421
#     4  11  24  46  72  98 143 183 233 286 345 421
#     4  11  25  44  68 103 140 183 232 282 353 419
#     4  11  24  45  73 104 133 188 235 282 350 412
#     4  11  26  46  70 100 145 179 233 293 340 413
#     4  12  27  45  68 103 142 185 232 287 356 414
#
# _framework density 22.593519000000001
#
# number of rings (size 3 to 8) (size 9 to 14) (size 15 to 20)
#    0.000    0.500    5.000    3.000    3.500    1.000 
#    0.000    1.250    0.000    0.000    0.000    0.000 
#    0.000    0.000    0.000    0.000    0.000    0.000 
#
# Total GULP energy -198247.172842 kJ/mol
# GULP energy per Si atom -12390.448303 kJ/mol
# Density = 2.254210 g / cm^3
# Si number density = 22.593519 Si / 1000 Ang^3
#
#
#
# Elastic Constant Matrix: (Units=GPa)
#
#
# Indices 1 2 3 4 5 6 
#
# 1 103.2911 48.2939 33.3048 -7.7815 -3.0653 6.7606
# 2 48.2939 150.9473 46.2238 -15.9628 1.4023 -1.9593
# 3 33.3048 46.2238 89.4285 -9.2885 -0.5389 2.1406
# 4 -7.7815 -15.9628 -9.2885 45.4337 2.3418 -0.0844
# 5 -3.0653 1.4023 -0.5389 2.3418 19.9154 0.0345
# 6 6.7606 -1.9593 2.1406 -0.0844 0.0345 29.8804
#
#
#
# Elastic Compliance Matrix: (Units=1/GPa)
#
#
# Indices 1 2 3 4 5 6 
#
# 1 0.012316 -0.003077 -0.002883 0.000331 0.002000 -0.002783
# 2 -0.003077 0.008854 -0.003268 0.001992 -0.001422 0.001518
# 3 -0.002883 -0.003268 0.014087 0.001236 0.000023 -0.000568
# 4 0.000331 0.001992 0.001236 0.023162 -0.002780 0.000036
# 5 0.002000 -0.001422 0.000023 -0.002780 0.050949 -0.000614
# 6 -0.002783 0.001518 -0.000568 0.000036 -0.000614 0.034238
#
#
# Mechanical properties :
#
#
# Convention : Reuss Voigt Hill
#
# Bulk Modulus (GPa) = 59.52520 66.59023 63.05772
# Shear Modulus (GPa) = 29.82159 33.43553 31.62856
#
# Velocity S-wave (km/s) = 3.63701 3.85108 3.74558
# Velocity P-wave (km/s) = 6.63630 7.02222 6.83199
#
# Compressibility (1/GPa) = 0.01679961
#
# Stress axis : x y z
#
# Youngs Moduli (GPa) = 81.19353 112.94650 70.98605
#
# Poissons Ratio (x) = 0.34757 0.20467
# Poissons Ratio (y) = 0.24986 0.23201
# Poissons Ratio (z) = 0.23410 0.36915
#
# Static dielectric constant tensor:
#      x y z
#    x 0.296940 0.473070 -1.767180 
#    y 0.473070 4.299250 0.149620 
#    z -1.767180 0.149620 3.585570 
# 
# 
# High freq. dielectric constant tensor:
#      x y z
#    x 1.885660 0.014430 -0.003150 
#    y 0.014430 1.905280 -0.004370 
#    z -0.003150 -0.004370 1.899080 
# 
# From -- ./inp_files/226200.got.cif
#   From: 2010.06.25/outbox.cif.g09.slc.cpg/sg2_114_cif.got.tgz:226200.got - 2010.06.27 13:26:56.
