data_PCOD8034406
_publ_section_title
;
Structure prediction by ZEFSAII (Michael W. Deem and Ramdas Pophale) SiO2 
 PCOD8034406
Probable space group: P -1
;
_chemical_formula_sum "Si O2"
_cell_formula_units_Z 14
_cell_length_a 14.941249
_cell_length_b 19.110493
_cell_length_c 11.958710
_cell_angle_alpha 26.460446
_cell_angle_beta 150.389443
_cell_angle_gamma 149.127467
_cell_volume 700.405030
_symmetry_space_group_name_H-M "P -1"
_symmetry_group_IT_number 2
_symmetry_cell_setting 'triclinic'
loop_
_space_group_symop_operation_xyz
x,y,z
-x,-y,-z
loop_
_atom_site_type_symbol
_atom_site_label
_atom_site_fract_x
_atom_site_fract_y
_atom_site_fract_z
Si Si1 0.940272 0.379864 0.500719
Si Si2 0.415678 0.528125 0.541727
Si Si3 0.455695 0.637576 0.887421
Si Si4 0.046562 0.947029 0.746817
Si Si5 0.767313 0.732780 0.921485
Si Si6 0.788485 0.688309 0.575927
Si Si7 0.119574 0.661597 0.122581
O O1 0.706487 0.281478 0.376661
O O2 0.000000 0.500000 0.500000
O O3 0.048577 0.248320 0.824735
O O4 0.009566 0.481118 0.316776
O O5 0.631877 0.633135 0.584378
O O6 0.275747 0.433555 0.424569
O O7 0.328328 0.661253 0.309331
O O8 0.424162 0.387331 0.840127
O O9 0.332157 0.452677 0.971308
O O10 0.602382 0.761001 0.779549
O O11 0.185215 0.120752 0.706755
O O12 0.149147 0.809176 0.036909
O O13 0.000000 0.000000 0.500000
O O14 0.846925 0.867334 0.715726
O O15 0.992278 0.683403 0.849163
#
# Coordination Sequence:
#
# PCOD8034406 Si02
#       7
#     2   2   2   2   2   2   2
#     4  10  17  31  53  87 108 134 181 237 268 307
#     4  11  21  36  59  83 106 150 191 220 270 328
#     4  10  18  31  56  85 106 137 188 231 263 321
#     4  10  20  37  56  80 118 143 175 228 281 321
#     4  10  19  32  55  86 108 139 183 231 274 314
#     4  10  23  39  53  80 119 148 178 226 275 332
#     4  11  19  35  60  84 107 142 190 229 270 317
#
# _framework density 19.988434000000002
#
# number of rings (size 3 to 8) (size 9 to 14) (size 15 to 20)
#    0.000    1.714    5.714    1.286    0.000    0.571 
#    0.000    3.571    0.000    0.857    0.000    0.000 
#    0.000    0.000    0.000    0.000    0.000    0.000 
#
# Total GULP energy -173486.118607 kJ/mol
# GULP energy per Si atom -12391.865615 kJ/mol
# Density = 1.994294 g / cm^3
# Si number density = 19.988434 Si / 1000 Ang^3
#
#
#
# Elastic Constant Matrix: (Units=GPa)
#
#
# Indices 1 2 3 4 5 6 
#
# 1 97.1037 28.6122 31.0536 -7.4076 -0.6761 32.1072
# 2 28.6122 51.7046 18.7995 -10.3022 -0.9684 16.9852
# 3 31.0536 18.7995 83.0421 11.3828 -3.1914 14.1176
# 4 -7.4076 -10.3022 11.3828 27.7516 7.5691 -5.2004
# 5 -0.6761 -0.9684 -3.1914 7.5691 31.1815 -1.3794
# 6 32.1072 16.9852 14.1176 -5.2004 -1.3794 29.2229
#
#
#
# Elastic Compliance Matrix: (Units=1/GPa)
#
#
# Indices 1 2 3 4 5 6 
#
# 1 0.017659 -0.002788 -0.003752 0.002692 -0.001429 -0.015558
# 2 -0.002788 0.027820 -0.005381 0.010920 -0.002783 -0.008695
# 3 -0.003752 -0.005381 0.016881 -0.011579 0.004168 -0.002770
# 4 0.002692 0.010920 -0.011579 0.049873 -0.012692 0.004565
# 5 -0.001429 -0.002783 0.004168 -0.012692 0.035486 0.000591
# 6 -0.015558 -0.008695 -0.002770 0.004565 0.000591 0.058545
#
#
# Mechanical properties :
#
#
# Convention : Reuss Voigt Hill
#
# Bulk Modulus (GPa) = 25.96078 43.19789 34.57933
# Shear Modulus (GPa) = 20.58076 27.85687 24.21881
#
# Velocity S-wave (km/s) = 3.21227 3.73721 3.48464
# Velocity P-wave (km/s) = 5.17439 6.34671 5.79030
#
# Compressibility (1/GPa) = 0.03851965
#
# Stress axis : x y z
#
# Youngs Moduli (GPa) = 56.62854 35.94532 59.23694
#
# Poissons Ratio (x) = 0.10020 0.22223
# Poissons Ratio (y) = 0.15786 0.31876
# Poissons Ratio (z) = 0.21244 0.19343
#
# Static dielectric constant tensor:
#      x y z
#    x 3.818900 0.247300 0.184410 
#    y 0.247300 3.713940 0.101770 
#    z 0.184410 0.101770 4.069070 
# 
# 
# High freq. dielectric constant tensor:
#      x y z
#    x 1.782310 0.027520 -0.008700 
#    y 0.027520 1.738170 0.016780 
#    z -0.008700 0.016780 1.776200 
# 
# From -- ./inp_files/423085.got.cif
#   From: 2010.06.25/outbox.cif.g09.slc.cpg/sg2_212_cif.got.tgz:423085.got - 2010.06.27 13:26:56.
