data_PCOD8034603
_publ_section_title
;
Structure prediction by ZEFSAII (Michael W. Deem and Ramdas Pophale) SiO2 
 PCOD8034603
Probable space group: P -1
;
_chemical_formula_sum "Si O2"
_cell_formula_units_Z 16
_cell_length_a 13.480030
_cell_length_b 11.373209
_cell_length_c 10.963720
_cell_angle_alpha 127.925334
_cell_angle_beta 33.111549
_cell_angle_gamma 116.200470
_cell_volume 713.732843
_symmetry_space_group_name_H-M "P -1"
_symmetry_group_IT_number 2
_symmetry_cell_setting 'triclinic'
loop_
_space_group_symop_operation_xyz
x,y,z
-x,-y,-z
loop_
_atom_site_type_symbol
_atom_site_label
_atom_site_fract_x
_atom_site_fract_y
_atom_site_fract_z
Si Si1 0.363427 0.896918 0.791638
Si Si2 0.630341 0.114581 0.684407
Si Si3 0.520214 0.378616 0.145255
Si Si4 0.140154 0.430299 0.654515
Si Si5 0.998414 0.926226 0.825874
Si Si6 0.529403 0.699960 0.266751
Si Si7 0.208977 0.649370 0.937103
Si Si8 0.040288 0.390146 0.274850
O O1 0.464679 0.787236 0.513727
O O2 0.268502 0.803329 0.928688
O O3 0.511374 0.985371 0.759701
O O4 0.203011 0.026763 0.992084
O O5 0.841090 0.028946 0.397078
O O6 0.559749 0.195502 0.683421
O O7 0.630056 0.239802 0.868683
O O8 0.327736 0.327081 0.348992
O O9 0.467574 0.534826 0.222340
O O10 0.645540 0.419496 0.153574
O O11 0.209756 0.528760 0.752640
O O12 0.046346 0.539552 0.715460
O O13 0.998945 0.322104 0.775492
O O14 0.056101 0.748001 0.673709
O O15 0.000000 0.000000 0.000000
O O16 0.747733 0.673085 0.010125
O O17 0.000000 0.500000 0.500000
#
# Coordination Sequence:
#
# PCOD8034603 Si02
#       8
#     2   2   2   2   2   2   2   2
#     4  12  26  45  68 102 142 187 229 281 339 429
#     4  12  26  44  71 106 141 182 223 293 360 405
#     4  12  25  45  74 102 140 178 237 292 343 405
#     4  11  24  45  72 104 134 184 231 291 343 401
#     4  12  24  44  69 100 144 182 226 276 355 420
#     4  12  22  45  72 102 141 176 229 291 350 405
#     4  11  26  46  70 100 138 188 240 278 337 413
#     4  12  24  42  75 107 137 173 227 295 353 403
#
# _framework density 22.417351
#
# number of rings (size 3 to 8) (size 9 to 14) (size 15 to 20)
#    0.000    0.250    5.000    4.875    0.000    1.500 
#    0.000    1.250    0.000    0.000    0.000    0.000 
#    0.000    0.000    0.000    0.000    0.000    0.000 
#
# Total GULP energy -198412.617342 kJ/mol
# GULP energy per Si atom -12400.788584 kJ/mol
# Density = 2.236633 g / cm^3
# Si number density = 22.417351 Si / 1000 Ang^3
#
#
#
# Elastic Constant Matrix: (Units=GPa)
#
#
# Indices 1 2 3 4 5 6 
#
# 1 66.8562 25.0799 32.8824 -3.4534 -4.8113 9.1407
# 2 25.0799 141.5699 41.1639 -13.6256 10.5277 15.4040
# 3 32.8824 41.1639 144.2628 -14.7217 -16.5835 15.0435
# 4 -3.4534 -13.6256 -14.7217 40.7970 9.6830 -0.3637
# 5 -4.8113 10.5277 -16.5835 9.6830 16.2457 -5.6129
# 6 9.1407 15.4040 15.0435 -0.3637 -5.6129 27.3976
#
#
#
# Elastic Compliance Matrix: (Units=1/GPa)
#
#
# Indices 1 2 3 4 5 6 
#
# 1 0.017799 -0.002557 -0.002762 -0.001354 0.004175 -0.002147
# 2 -0.002557 0.011167 -0.003220 0.006468 -0.017617 -0.007181
# 3 -0.002762 -0.003220 0.009775 -0.000500 0.011442 -0.000298
# 4 -0.001354 0.006468 -0.000500 0.032824 -0.027466 -0.008102
# 5 0.004175 -0.017617 0.011442 -0.027466 0.110740 0.024552
# 6 -0.002147 -0.007181 -0.000298 -0.008102 0.024552 0.046339
#
#
# Mechanical properties :
#
#
# Convention : Reuss Voigt Hill
#
# Bulk Modulus (GPa) = 46.15993 61.21572 53.68782
# Shear Modulus (GPa) = 19.76729 33.79225 26.77977
#
# Velocity S-wave (km/s) = 2.97271 3.88676 3.46005
# Velocity P-wave (km/s) = 5.69373 6.89268 6.32169
#
# Compressibility (1/GPa) = 0.02166381
#
# Stress axis : x y z
#
# Youngs Moduli (GPa) = 56.18241 89.55127 102.29784
#
# Poissons Ratio (x) = 0.22902 0.28252
# Poissons Ratio (y) = 0.14368 0.32936
# Poissons Ratio (z) = 0.15516 0.28832
#
# Static dielectric constant tensor:
#      x y z
#    x 3.955980 0.038400 -0.027950 
#    y 0.038400 4.190590 -0.393840 
#    z -0.027950 -0.393840 4.242850 
# 
# 
# High freq. dielectric constant tensor:
#      x y z
#    x 1.879710 0.008510 -0.007690 
#    y 0.008510 1.885030 -0.018910 
#    z -0.007690 -0.018910 1.901350 
# 
# From -- ./inp_files/273797.got.cif
#   From: 2010.06.25/outbox.cif.g09.slc.cpg/sg2_137_cif.got.tgz:273797.got - 2010.06.27 13:26:56.
