data_PCOD8034031
_publ_section_title
;
Structure prediction by ZEFSAII (Michael W. Deem and Ramdas Pophale) SiO2 
 PCOD8034031
Probable space group: P -1
;
_chemical_formula_sum "Si O2"
_cell_formula_units_Z 16
_cell_length_a 9.081823
_cell_length_b 5.415132
_cell_length_c 17.238223
_cell_angle_alpha 55.733439
_cell_angle_beta 118.056331
_cell_angle_gamma 108.099649
_cell_volume 617.059186
_symmetry_space_group_name_H-M "P -1"
_symmetry_group_IT_number 2
_symmetry_cell_setting 'triclinic'
loop_
_space_group_symop_operation_xyz
x,y,z
-x,-y,-z
loop_
_atom_site_type_symbol
_atom_site_label
_atom_site_fract_x
_atom_site_fract_y
_atom_site_fract_z
Si Si1 0.970965 0.815438 0.839726
Si Si2 0.859784 0.748459 0.991293
Si Si3 0.781817 0.681390 0.555611
Si Si4 0.371930 0.892018 0.671259
Si Si5 0.554806 0.063626 0.842304
Si Si6 0.968864 0.220552 0.595455
Si Si7 0.222460 0.265178 0.770575
Si Si8 0.667388 0.655148 0.695697
O O1 0.857713 0.721550 0.901850
O O2 0.844066 0.841652 0.729748
O O3 0.089955 0.124522 0.827089
O O4 0.102553 0.559953 0.902883
O O5 0.672407 0.831130 0.954686
O O6 0.000000 0.000000 0.000000
O O7 0.853839 0.361105 0.610245
O O8 0.651904 0.606717 0.607510
O O9 0.706916 0.812372 0.434282
O O10 0.904429 0.944414 0.575502
O O11 0.230688 0.624468 0.701940
O O12 0.498202 0.802338 0.650760
O O13 0.475138 0.940314 0.765746
O O14 0.408186 0.150629 0.849202
O O15 0.678786 0.346017 0.799761
O O16 0.000000 0.500000 0.500000
O O17 0.143173 0.129346 0.694014
#
# Coordination Sequence:
#
# PCOD8034031 Si02
#       8
#     2   2   2   2   2   2   2   2
#     4  11  24  45  72 107 135 182 243 299 363 439
#     4  11  24  45  76 100 137 182 237 301 368 438
#     4  12  27  42  75 104 148 199 253 295 355 431
#     4  11  25  45  66 102 151 191 232 299 362 423
#     4  11  25  45  70 103 142 189 234 301 366 432
#     4  12  25  45  68 106 146 200 247 300 354 431
#     4  11  26  42  71 102 145 186 237 295 365 427
#     4  11  24  43  70 105 141 188 243 299 359 431
#
# _framework density 25.929442999999999
#
# number of rings (size 3 to 8) (size 9 to 14) (size 15 to 20)
#    0.000    0.750    5.000    1.500    7.000    2.000 
#    0.000    1.250    0.000    0.000    0.000    0.000 
#    0.000    0.000    0.000    0.000    0.000    0.000 
#
# Total GULP energy -198302.014656 kJ/mol
# GULP energy per Si atom -12393.875916 kJ/mol
# Density = 2.587043 g / cm^3
# Si number density = 25.929443 Si / 1000 Ang^3
#
#
#
# Elastic Constant Matrix: (Units=GPa)
#
#
# Indices 1 2 3 4 5 6 
#
# 1 75.2120 25.1144 8.3145 -20.7264 6.8335 17.9909
# 2 25.1144 96.5603 13.2006 -2.0634 15.1088 9.4215
# 3 8.3145 13.2006 78.7717 -13.4125 20.4849 4.3540
# 4 -20.7264 -2.0634 -13.4125 40.0805 -2.2926 -0.5015
# 5 6.8335 15.1088 20.4849 -2.2926 43.9543 0.3986
# 6 17.9909 9.4215 4.3540 -0.5015 0.3986 38.3729
#
#
#
# Elastic Compliance Matrix: (Units=1/GPa)
#
#
# Indices 1 2 3 4 5 6 
#
# 1 0.019306 -0.003931 0.001186 0.009985 -0.001609 -0.008074
# 2 -0.003931 0.012070 -0.001073 -0.001962 -0.003131 -0.000992
# 3 0.001186 -0.001073 0.015521 0.005342 -0.006753 -0.001914
# 4 0.009985 -0.001962 0.005342 0.031649 -0.001677 -0.004375
# 5 -0.001609 -0.003131 -0.006753 -0.001677 0.027119 0.001986
# 6 -0.008074 -0.000992 -0.001914 -0.004375 0.001986 0.030228
#
#
# Mechanical properties :
#
#
# Convention : Reuss Voigt Hill
#
# Bulk Modulus (GPa) = 25.46981 38.20033 31.83507
# Shear Modulus (GPa) = 31.92513 38.07583 35.00048
#
# Velocity S-wave (km/s) = 3.51270 3.83618 3.67800
# Velocity P-wave (km/s) = 5.12797 5.86397 5.50828
#
# Compressibility (1/GPa) = 0.03926218
#
# Stress axis : x y z
#
# Youngs Moduli (GPa) = 51.79677 82.85006 64.42870
#
# Poissons Ratio (x) = 0.32565 -0.07640
# Poissons Ratio (y) = 0.20359 0.06911
# Poissons Ratio (z) = -0.06142 0.08887
#
# Static dielectric constant tensor:
#      x y z
#    x 5.084220 -0.226210 -0.016040 
#    y -0.226210 5.070660 -0.308750 
#    z -0.016040 -0.308750 4.853580 
# 
# 
# High freq. dielectric constant tensor:
#      x y z
#    x 2.035310 0.003710 0.004270 
#    y 0.003710 2.041160 -0.009170 
#    z 0.004270 -0.009170 2.037930 
# 
# From -- ./inp_files/46235.got.cif
#   From: 2010.06.25/outbox.cif.g09.slc.cpg/sg2_24_cif.got.tgz:46235.got - 2010.06.27 13:26:56.
