data_PCOD8034802
_publ_section_title
;
Structure prediction by ZEFSAII (Michael W. Deem and Ramdas Pophale) SiO2 
 PCOD8034802
Probable space group: P -1
;
_chemical_formula_sum "Si O2"
_cell_formula_units_Z 16
_cell_length_a 14.960830
_cell_length_b 8.603414
_cell_length_c 9.335619
_cell_angle_alpha 73.126836
_cell_angle_beta 135.440525
_cell_angle_gamma 83.408024
_cell_volume 708.249080
_symmetry_space_group_name_H-M "P -1"
_symmetry_group_IT_number 2
_symmetry_cell_setting 'triclinic'
loop_
_space_group_symop_operation_xyz
x,y,z
-x,-y,-z
loop_
_atom_site_type_symbol
_atom_site_label
_atom_site_fract_x
_atom_site_fract_y
_atom_site_fract_z
Si Si1 0.059050 0.730206 0.341773
Si Si2 0.202672 0.215699 0.304994
Si Si3 0.515934 0.864694 0.184521
Si Si4 0.217407 0.947348 0.952862
Si Si5 0.202325 0.676706 0.805052
Si Si6 0.975178 0.458778 0.188651
Si Si7 0.216675 0.856275 0.289259
Si Si8 0.521968 0.501221 0.191377
O O1 0.186815 0.694388 0.610098
O O2 0.072810 0.540706 0.348032
O O3 0.078110 0.843248 0.199561
O O4 0.903257 0.842795 0.209753
O O5 0.363695 0.147114 0.564419
O O6 0.087267 0.269549 0.288123
O O7 0.202573 0.054638 0.253544
O O8 0.149047 0.398146 0.097410
O O9 0.564471 0.659851 0.235962
O O10 0.365508 0.946869 0.078665
O O11 0.500000 0.000000 0.000000
O O12 0.156121 0.874423 0.773004
O O13 0.232367 0.825425 0.144374
O O14 0.102360 0.590419 0.761623
O O15 0.368715 0.546703 0.076520
O O16 0.360809 0.695606 0.566130
O O17 0.500000 0.500000 0.000000
#
# Coordination Sequence:
#
# PCOD8034802 Si02
#       8
#     2   2   2   2   2   2   2   2
#     4  12  24  46  72 102 140 184 234 286 350 409
#     4  11  26  45  69 102 141 183 229 293 351 400
#     4  11  27  46  71 103 144 181 231 289 349 413
#     4  11  27  44  72 106 136 188 229 285 350 417
#     4  11  26  43  72 100 144 178 233 288 346 419
#     4  11  26  44  71 104 138 181 237 288 351 406
#     4  12  25  46  73  99 146 183 235 284 342 423
#     4  11  24  46  71 103 135 189 227 281 353 411
#
# _framework density 22.590923
#
# number of rings (size 3 to 8) (size 9 to 14) (size 15 to 20)
#    0.000    0.750    2.500    3.375   10.500    3.500 
#    0.000    0.000    0.000    0.000    0.000    0.000 
#    0.000    0.000    0.000    0.000    0.000    0.000 
#
# Total GULP energy -198473.200890 kJ/mol
# GULP energy per Si atom -12404.575056 kJ/mol
# Density = 2.253951 g / cm^3
# Si number density = 22.590923 Si / 1000 Ang^3
#
#
#
# Elastic Constant Matrix: (Units=GPa)
#
#
# Indices 1 2 3 4 5 6 
#
# 1 124.4595 24.2012 19.9880 4.9761 1.4675 11.5754
# 2 24.2012 79.7314 17.1990 10.4284 4.5387 -0.0202
# 3 19.9880 17.1990 90.3570 10.4185 5.0202 0.9867
# 4 4.9761 10.4284 10.4185 42.9689 -4.7457 3.3872
# 5 1.4675 4.5387 5.0202 -4.7457 35.9334 2.1377
# 6 11.5754 -0.0202 0.9867 3.3872 2.1377 34.9280
#
#
#
# Elastic Compliance Matrix: (Units=1/GPa)
#
#
# Indices 1 2 3 4 5 6 
#
# 1 0.009025 -0.002455 -0.001540 0.000199 0.000361 -0.002990
# 2 -0.002455 0.014165 -0.001708 -0.003054 -0.001930 0.001284
# 3 -0.001540 -0.001708 0.012125 -0.002586 -0.001788 0.000527
# 4 0.000199 -0.003054 -0.002586 0.025300 0.004241 -0.002708
# 5 0.000361 -0.001930 -0.001788 0.004241 0.029003 -0.002257
# 6 -0.002990 0.001284 0.000527 -0.002708 -0.002257 0.030008
#
#
# Mechanical properties :
#
#
# Convention : Reuss Voigt Hill
#
# Bulk Modulus (GPa) = 41.82255 46.36938 44.09596
# Shear Modulus (GPa) = 35.97120 38.31002 37.14061
#
# Velocity S-wave (km/s) = 3.99467 4.12249 4.05909
# Velocity P-wave (km/s) = 6.31108 6.57497 6.44437
#
# Compressibility (1/GPa) = 0.02391054
#
# Stress axis : x y z
#
# Youngs Moduli (GPa) = 110.80061 70.59525 82.47647
#
# Poissons Ratio (x) = 0.17329 0.12698
# Poissons Ratio (y) = 0.27199 0.14086
# Poissons Ratio (z) = 0.17059 0.12057
#
# Static dielectric constant tensor:
#      x y z
#    x 2.459770 -0.533800 0.613250 
#    y -0.533800 3.952830 0.176370 
#    z 0.613250 0.176370 4.039350 
# 
# 
# High freq. dielectric constant tensor:
#      x y z
#    x 1.898860 -0.010540 0.006140 
#    y -0.010540 1.894220 0.007700 
#    z 0.006140 0.007700 1.903360 
# 
# From -- ./inp_files/297987.got.cif
#   From: 2010.06.25/outbox.cif.g09.slc.cpg/sg2_149_cif.got.tgz:297987.got - 2010.06.27 13:26:56.
