data_PCOD8034989
_publ_section_title
;
Structure prediction by ZEFSAII (Michael W. Deem and Ramdas Pophale) SiO2 
 PCOD8034989
Probable space group: P -1
;
_chemical_formula_sum "Si O2"
_cell_formula_units_Z 16
_cell_length_a 17.861844
_cell_length_b 11.432753
_cell_length_c 8.510280
_cell_angle_alpha 50.608190
_cell_angle_beta 127.549093
_cell_angle_gamma 147.705443
_cell_volume 706.269505
_symmetry_space_group_name_H-M "P -1"
_symmetry_group_IT_number 2
_symmetry_cell_setting 'triclinic'
loop_
_space_group_symop_operation_xyz
x,y,z
-x,-y,-z
loop_
_atom_site_type_symbol
_atom_site_label
_atom_site_fract_x
_atom_site_fract_y
_atom_site_fract_z
Si Si1 0.352193 0.885078 0.340605
Si Si2 0.897835 0.965767 0.698531
Si Si3 0.108662 0.375428 0.074341
Si Si4 0.640191 0.093564 0.039755
Si Si5 0.641142 0.649579 0.150620
Si Si6 0.630265 0.747484 0.378616
Si Si7 0.171299 0.390102 0.498723
Si Si8 0.173079 0.940443 0.162893
O O1 0.223077 0.614454 0.433137
O O2 0.302151 0.973625 0.297869
O O3 0.500000 0.000000 0.500000
O O4 0.365051 0.936458 0.128450
O O5 0.888809 0.776900 0.898778
O O6 0.776219 0.836702 0.523149
O O7 0.862379 0.042929 0.723518
O O8 0.050358 0.185583 0.633926
O O9 0.106399 0.322208 0.298528
O O10 0.233933 0.642903 0.970544
O O11 0.965123 0.290523 0.909195
O O12 0.646958 0.944843 0.273837
O O13 0.500000 0.000000 0.000000
O O14 0.609697 0.726330 0.184961
O O15 0.683409 0.536197 0.371400
O O16 0.500000 0.500000 0.000000
O O17 0.776586 0.854260 0.045243
O O18 0.500000 0.500000 0.500000
#
# Coordination Sequence:
#
# PCOD8034989 Si02
#       8
#     2   2   2   2   2   2   2   2
#     4  11  27  48  68 103 148 187 234 295 358 421
#     4  12  25  45  72 105 143 185 241 292 349 427
#     4  11  24  47  71 102 144 182 239 293 356 420
#     4  11  27  45  73 103 141 188 234 296 359 418
#     4  12  24  45  72 103 140 188 237 294 353 420
#     4  12  26  46  73 106 141 187 241 289 354 430
#     4  11  25  43  73 102 141 186 234 297 356 412
#     4  12  26  45  71 103 143 190 238 290 358 422
#
# _framework density 22.654243000000001
#
# number of rings (size 3 to 8) (size 9 to 14) (size 15 to 20)
#    0.000    0.500    3.750    3.750    5.250    2.500 
#    0.000    0.000    0.000    0.000    0.000    0.000 
#    0.000    0.000    0.000    0.000    0.000    0.000 
#
# Total GULP energy -198331.611781 kJ/mol
# GULP energy per Si atom -12395.725736 kJ/mol
# Density = 2.260268 g / cm^3
# Si number density = 22.654243 Si / 1000 Ang^3
#
#
#
# Elastic Constant Matrix: (Units=GPa)
#
#
# Indices 1 2 3 4 5 6 
#
# 1 126.3609 53.4532 39.4703 -1.2146 8.7576 3.8382
# 2 53.4532 148.4928 60.7056 -8.1707 -2.0883 12.7209
# 3 39.4703 60.7056 90.7196 1.6304 15.5133 5.0798
# 4 -1.2146 -8.1707 1.6304 55.1838 -1.1117 4.9225
# 5 8.7576 -2.0883 15.5133 -1.1117 38.2030 1.5024
# 6 3.8382 12.7209 5.0798 4.9225 1.5024 34.1735
#
#
#
# Elastic Compliance Matrix: (Units=1/GPa)
#
#
# Indices 1 2 3 4 5 6 
#
# 1 0.009843 -0.002685 -0.002243 -0.000173 -0.001510 0.000318
# 2 -0.002685 0.010881 -0.006672 0.002121 0.004109 -0.003243
# 3 -0.002243 -0.006672 0.017672 -0.001763 -0.007105 0.000675
# 4 -0.000173 0.002121 -0.001763 0.018808 0.001548 -0.003285
# 5 -0.001510 0.004109 -0.007105 0.001548 0.029749 -0.001835
# 6 0.000318 -0.003243 0.000675 -0.003285 -0.001835 0.030887
#
#
# Mechanical properties :
#
#
# Convention : Reuss Voigt Hill
#
# Bulk Modulus (GPa) = 65.79998 74.75905 70.27951
# Shear Modulus (GPa) = 34.22205 39.64168 36.93186
#
# Velocity S-wave (km/s) = 3.89089 4.18767 4.04200
# Velocity P-wave (km/s) = 7.02095 7.51357 7.27143
#
# Compressibility (1/GPa) = 0.01519757
#
# Stress axis : x y z
#
# Youngs Moduli (GPa) = 101.59182 91.90682 56.58620
#
# Poissons Ratio (x) = 0.24672 0.12691
# Poissons Ratio (y) = 0.27272 0.37754
# Poissons Ratio (z) = 0.22785 0.61320
#
# Static dielectric constant tensor:
#      x y z
#    x 4.017040 -0.060460 -0.009540 
#    y -0.060460 4.058710 -0.027500 
#    z -0.009540 -0.027500 4.505560 
# 
# 
# High freq. dielectric constant tensor:
#      x y z
#    x 1.895650 0.000730 0.012500 
#    y 0.000730 1.906690 0.003780 
#    z 0.012500 0.003780 1.900420 
# 
# From -- ./inp_files/209559.got.cif
#   From: 2010.06.25/outbox.cif.g09.slc.cpg/sg2_105_cif.got.tgz:209559.got - 2010.06.27 13:26:56.
