data_PCOD8034363
_publ_section_title
;
Structure prediction by ZEFSAII (Michael W. Deem and Ramdas Pophale) SiO2 
 PCOD8034363
Probable space group: P -1
;
_chemical_formula_sum "Si O2"
_cell_formula_units_Z 14
_cell_length_a 9.851159
_cell_length_b 16.004038
_cell_length_c 7.540729
_cell_angle_alpha 37.145987
_cell_angle_beta 114.077702
_cell_angle_gamma 122.975303
_cell_volume 601.455867
_symmetry_space_group_name_H-M "P -1"
_symmetry_group_IT_number 2
_symmetry_cell_setting 'triclinic'
loop_
_space_group_symop_operation_xyz
x,y,z
-x,-y,-z
loop_
_atom_site_type_symbol
_atom_site_label
_atom_site_fract_x
_atom_site_fract_y
_atom_site_fract_z
Si Si1 0.167884 0.610082 0.317563
Si Si2 0.941578 0.975542 0.805829
Si Si3 0.436589 0.127791 0.198177
Si Si4 0.976289 0.785537 0.848829
Si Si5 0.510190 0.165568 0.768315
Si Si6 0.346293 0.363550 0.214833
Si Si7 0.370028 0.540996 0.258784
O O1 0.308473 0.702627 0.377630
O O2 0.226324 0.523792 0.347693
O O3 0.000000 0.500000 0.500000
O O4 0.122056 0.734087 0.980915
O O5 0.750517 0.925783 0.762183
O O6 0.998246 0.857232 0.936288
O O7 0.030015 0.122749 0.485249
O O8 0.000000 0.000000 0.000000
O O9 0.500000 0.000000 0.500000
O O10 0.455751 0.164237 0.941221
O O11 0.545622 0.290258 0.070637
O O12 0.793972 0.656394 0.969619
O O13 0.387013 0.213178 0.505441
O O14 0.500000 0.000000 0.000000
O O15 0.291189 0.412480 0.287732
O O16 0.500000 0.500000 0.000000
O O17 0.500000 0.500000 0.500000
#
# Coordination Sequence:
#
# PCOD8034363 Si02
#       7
#     2   2   2   2   2   2   2
#     4  11  25  46  73 105 149 190 241 314 368 434
#     4  11  25  44  70 101 145 192 231 300 373 425
#     4  11  24  44  73 101 135 187 243 298 357 434
#     4  11  27  44  68 110 146 178 252 299 361 445
#     4  11  26  44  70 106 144 188 249 298 362 443
#     4  12  25  46  74 104 143 200 241 299 368 444
#     4  11  24  47  73 103 142 188 251 289 361 452
#
# _framework density 23.276855999999999
#
# number of rings (size 3 to 8) (size 9 to 14) (size 15 to 20)
#    0.000    0.857    2.857    4.286   12.000    0.571 
#    0.000    0.000    0.000    0.000    0.000    0.000 
#    0.000    0.000    0.000    0.000    0.000    0.000 
#
# Total GULP energy -173520.371221 kJ/mol
# GULP energy per Si atom -12394.312230 kJ/mol
# Density = 2.322388 g / cm^3
# Si number density = 23.276856 Si / 1000 Ang^3
#
#
#
# Elastic Constant Matrix: (Units=GPa)
#
#
# Indices 1 2 3 4 5 6 
#
# 1 144.5305 35.3116 33.0581 -4.7456 14.5081 -3.0385
# 2 35.3116 100.2858 18.9839 -3.7689 4.5756 -19.8390
# 3 33.0581 18.9839 82.6055 -8.5536 23.4946 -14.5159
# 4 -4.7456 -3.7689 -8.5536 43.3973 0.1782 -0.7407
# 5 14.5081 4.5756 23.4946 0.1782 49.4621 -6.0451
# 6 -3.0385 -19.8390 -14.5159 -0.7407 -6.0451 39.6359
#
#
#
# Elastic Compliance Matrix: (Units=1/GPa)
#
#
# Indices 1 2 3 4 5 6 
#
# 1 0.008276 -0.002722 -0.002683 0.000112 -0.001131 -0.001881
# 2 -0.002722 0.012215 -0.000862 0.000688 0.000774 0.005721
# 3 -0.002683 -0.000862 0.016255 0.002937 -0.006327 0.004406
# 4 0.000112 0.000688 0.002937 0.023728 -0.001374 0.001662
# 5 -0.001131 0.000774 -0.006327 -0.001374 0.023680 0.001570
# 6 -0.001881 0.005721 0.004406 0.001662 0.001570 0.029833
#
#
# Mechanical properties :
#
#
# Convention : Reuss Voigt Hill
#
# Bulk Modulus (GPa) = 41.30214 55.79210 48.54712
# Shear Modulus (GPa) = 37.14930 42.50361 39.82646
#
# Velocity S-wave (km/s) = 3.99930 4.27781 4.14090
# Velocity P-wave (km/s) = 6.25366 6.95848 6.61547
#
# Compressibility (1/GPa) = 0.02421182
#
# Stress axis : x y z
#
# Youngs Moduli (GPa) = 120.83840 81.86397 61.51785
#
# Poissons Ratio (x) = 0.22286 0.16508
# Poissons Ratio (y) = 0.32895 0.05300
# Poissons Ratio (z) = 0.32426 0.07053
#
# Static dielectric constant tensor:
#      x y z
#    x 4.464800 -0.336080 0.086690 
#    y -0.336080 5.748750 -0.534650 
#    z 0.086690 -0.534650 4.792850 
# 
# 
# High freq. dielectric constant tensor:
#      x y z
#    x 1.936550 0.003780 0.005550 
#    y 0.003780 1.916770 -0.011690 
#    z 0.005550 -0.011690 1.930270 
# 
# From -- ./inp_files/216388.got.cif
#   From: 2010.06.25/outbox.cif.g09.slc.cpg/sg2_109_cif.got.tgz:216388.got - 2010.06.27 13:26:56.
