data_PCOD8034011
_publ_section_title
;
Structure prediction by ZEFSAII (Michael W. Deem and Ramdas Pophale) SiO2 
 PCOD8034011
Probable space group: P -1
;
_chemical_formula_sum "Si O2"
_cell_formula_units_Z 14
_cell_length_a 16.480469
_cell_length_b 19.571931
_cell_length_c 9.445998
_cell_angle_alpha 141.234343
_cell_angle_beta 50.513111
_cell_angle_gamma 159.485760
_cell_volume 603.565721
_symmetry_space_group_name_H-M "P -1"
_symmetry_group_IT_number 2
_symmetry_cell_setting 'triclinic'
loop_
_space_group_symop_operation_xyz
x,y,z
-x,-y,-z
loop_
_atom_site_type_symbol
_atom_site_label
_atom_site_fract_x
_atom_site_fract_y
_atom_site_fract_z
Si Si1 0.047225 0.958878 0.761260
Si Si2 0.276710 0.242336 0.425963
Si Si3 0.166868 0.471889 0.288863
Si Si4 0.427088 0.046263 0.591981
Si Si5 0.380723 0.092566 0.013517
Si Si6 0.860048 0.554001 0.394986
Si Si7 0.597818 0.516794 0.041367
O O1 0.989103 0.964412 0.683816
O O2 0.861930 0.681215 0.545123
O O3 0.343047 0.201298 0.844576
O O4 0.000000 0.000000 0.000000
O O5 0.500000 0.500000 0.500000
O O6 0.305271 0.139829 0.231215
O O7 0.293155 0.307610 0.669086
O O8 0.362886 0.730518 0.400621
O O9 0.223936 0.538083 0.498435
O O10 0.184068 0.360316 0.049117
O O11 0.868002 0.220419 0.184568
O O12 0.500000 0.000000 0.500000
O O13 0.432305 0.141802 0.866354
O O14 0.138345 0.765144 0.394159
O O15 0.632253 0.281742 0.117668
O O16 0.500000 0.500000 0.000000
#
# Coordination Sequence:
#
# PCOD8034011 Si02
#       7
#     2   2   2   2   2   2   2
#     4  12  21  37  62  91 138 183 224 267 323 393
#     4  12  22  36  63  95 140 188 221 262 329 396
#     4  11  25  43  67 100 137 173 227 279 335 404
#     4  11  26  50  73  96 129 174 228 291 351 399
#     4  11  24  44  67 100 138 175 225 280 332 403
#     4  11  24  43  69  97 137 178 220 278 340 397
#     4  12  24  39  62 100 142 184 226 269 325 402
#
# _framework density 23.195484
#
# number of rings (size 3 to 8) (size 9 to 14) (size 15 to 20)
#    0.000    0.571    4.286    5.143    0.000    7.429 
#    0.000    1.429    0.000    0.000    0.000    0.000 
#    0.000    0.000    0.000    0.000    0.000    0.000 
#
# Total GULP energy -173563.914583 kJ/mol
# GULP energy per Si atom -12397.422470 kJ/mol
# Density = 2.314269 g / cm^3
# Si number density = 23.195484 Si / 1000 Ang^3
#
#
#
# Elastic Constant Matrix: (Units=GPa)
#
#
# Indices 1 2 3 4 5 6 
#
# 1 116.8163 46.2895 36.6534 13.9118 24.4308 0.1798
# 2 46.2895 140.1236 38.7768 25.6479 28.9394 -1.4674
# 3 36.6534 38.7768 71.3165 14.2862 42.5242 5.3859
# 4 13.9118 25.6479 14.2862 30.7096 9.2530 15.8249
# 5 24.4308 28.9394 42.5242 9.2530 44.8024 6.0515
# 6 0.1798 -1.4674 5.3859 15.8249 6.0515 43.7051
#
#
#
# Elastic Compliance Matrix: (Units=1/GPa)
#
#
# Indices 1 2 3 4 5 6 
#
# 1 0.010938 -0.002060 -0.003667 -0.001831 -0.000928 0.001129
# 2 -0.002060 0.010380 -0.001398 -0.008171 -0.003096 0.003916
# 3 -0.003667 -0.001398 0.035422 -0.005569 -0.029804 0.001746
# 4 -0.001831 -0.008171 -0.005569 0.051379 0.003472 -0.018665
# 5 -0.000928 -0.003096 -0.029804 0.003472 0.053077 -0.005034
# 6 0.001129 0.003916 0.001746 -0.018665 -0.005034 0.030247
#
#
# Mechanical properties :
#
#
# Convention : Reuss Voigt Hill
#
# Bulk Modulus (GPa) = 23.53502 63.52174 43.52838
# Shear Modulus (GPa) = 22.74223 37.61254 30.17739
#
# Velocity S-wave (km/s) = 3.13463 4.03121 3.61085
# Velocity P-wave (km/s) = 4.82386 7.00802 6.01589
#
# Compressibility (1/GPa) = 0.04248986
#
# Stress axis : x y z
#
# Youngs Moduli (GPa) = 91.42814 96.33977 28.23143
#
# Poissons Ratio (x) = 0.19845 0.10351
# Poissons Ratio (y) = 0.18834 0.03947
# Poissons Ratio (z) = 0.33522 0.13469
#
# Static dielectric constant tensor:
#      x y z
#    x 4.185650 0.316630 0.435150 
#    y 0.316630 4.900950 0.401110 
#    z 0.435150 0.401110 4.383570 
# 
# 
# High freq. dielectric constant tensor:
#      x y z
#    x 1.908370 0.006870 0.018780 
#    y 0.006870 1.944090 0.013700 
#    z 0.018780 0.013700 1.905250 
# 
# From -- ./inp_files/337901.got.cif
#   From: 2010.06.25/outbox.cif.g09.slc.cpg/sg2_169_cif.got.tgz:337901.got - 2010.06.27 13:26:56.
