data_PCOD8034631
_publ_section_title
;
Structure prediction by ZEFSAII (Michael W. Deem and Ramdas Pophale) SiO2 
 PCOD8034631
Probable space group: P -1
;
_chemical_formula_sum "Si O2"
_cell_formula_units_Z 16
_cell_length_a 27.339709
_cell_length_b 12.632297
_cell_length_c 6.532447
_cell_angle_alpha 120.912108
_cell_angle_beta 49.583127
_cell_angle_gamma 154.732510
_cell_volume 714.645508
_symmetry_space_group_name_H-M "P -1"
_symmetry_group_IT_number 2
_symmetry_cell_setting 'triclinic'
loop_
_space_group_symop_operation_xyz
x,y,z
-x,-y,-z
loop_
_atom_site_type_symbol
_atom_site_label
_atom_site_fract_x
_atom_site_fract_y
_atom_site_fract_z
Si Si1 0.271462 0.494337 0.601534
Si Si2 0.623626 0.278474 0.863788
Si Si3 0.160339 0.481265 0.206780
Si Si4 0.415818 0.574293 0.613903
Si Si5 0.232037 0.086976 0.825486
Si Si6 0.374867 0.221121 0.953992
Si Si7 0.927868 0.994730 0.592546
Si Si8 0.153437 0.751761 0.404954
O O1 0.365896 0.721315 0.407868
O O2 0.360002 0.578787 0.612393
O O3 0.194995 0.260541 0.455620
O O4 0.176015 0.435647 0.904361
O O5 0.752894 0.437396 0.773190
O O6 0.595629 0.375985 0.086958
O O7 0.500000 0.000000 0.000000
O O8 0.193957 0.680664 0.280746
O O9 0.011030 0.215366 0.425592
O O10 0.331248 0.306552 0.600286
O O11 0.563859 0.790443 0.353051
O O12 0.307132 0.194557 0.943533
O O13 0.166984 0.854454 0.677868
O O14 0.116827 0.993115 0.086977
O O15 0.500000 0.500000 0.000000
O O16 0.259001 0.978341 0.176716
O O17 0.000000 0.000000 0.500000
O O18 0.000000 0.500000 0.500000
#
# Coordination Sequence:
#
# PCOD8034631 Si02
#       8
#     2   2   2   2   2   2   2   2
#     4  11  24  45  73 104 140 180 238 303 361 433
#     4  11  26  43  71 105 145 181 234 306 369 429
#     4  11  27  44  69 106 141 190 236 291 370 429
#     4  11  25  44  74 107 138 187 242 304 363 431
#     4  12  27  48  75 107 150 188 251 305 359 439
#     4  12  27  47  78 107 142 196 248 300 368 445
#     4  12  23  46  76 102 137 186 240 300 362 430
#     4  12  31  48  70 109 153 200 244 301 370 440
#
# _framework density 22.388722000000001
#
# number of rings (size 3 to 8) (size 9 to 14) (size 15 to 20)
#    0.000    0.500    3.750    3.000    8.750    3.000 
#    0.000    0.000    0.000    0.000    0.000    0.000 
#    0.000    0.000    0.000    0.000    0.000    0.000 
#
# Total GULP energy -198388.327777 kJ/mol
# GULP energy per Si atom -12399.270486 kJ/mol
# Density = 2.233776 g / cm^3
# Si number density = 22.388722 Si / 1000 Ang^3
#
#
#
# Elastic Constant Matrix: (Units=GPa)
#
#
# Indices 1 2 3 4 5 6 
#
# 1 88.6843 31.1258 51.0701 -0.1136 -4.5726 -12.4393
# 2 31.1258 119.3784 55.3744 -16.9503 5.8973 -16.6657
# 3 51.0701 55.3744 162.7036 -12.6198 -4.9400 -12.0838
# 4 -0.1136 -16.9503 -12.6198 48.9308 -8.2472 1.9766
# 5 -4.5726 5.8973 -4.9400 -8.2472 43.2861 -1.8608
# 6 -12.4393 -16.6657 -12.0838 1.9766 -1.8608 34.2953
#
#
#
# Elastic Compliance Matrix: (Units=1/GPa)
#
#
# Indices 1 2 3 4 5 6 
#
# 1 0.014633 -0.001883 -0.003795 -0.001522 0.001217 0.003209
# 2 -0.001883 0.011091 -0.002750 0.002760 -0.001347 0.003506
# 3 -0.003795 -0.002750 0.008438 0.001410 0.001216 0.000245
# 4 -0.001522 0.002760 0.001410 0.022402 0.003901 0.000206
# 5 0.001217 -0.001347 0.001216 0.003901 0.024353 0.001312
# 6 0.003209 0.003506 0.000245 0.000206 0.001312 0.032172
#
#
# Mechanical properties :
#
#
# Convention : Reuss Voigt Hill
#
# Bulk Modulus (GPa) = 57.78495 71.76743 64.77619
# Shear Modulus (GPa) = 36.84221 40.84884 38.84553
#
# Velocity S-wave (km/s) = 4.06096 4.27608 4.16991
# Velocity P-wave (km/s) = 6.91769 7.51695 7.22354
#
# Compressibility (1/GPa) = 0.01730554
#
# Stress axis : x y z
#
# Youngs Moduli (GPa) = 68.33769 90.16142 118.51513
#
# Poissons Ratio (x) = 0.16979 0.44976
# Poissons Ratio (y) = 0.12870 0.32594
# Poissons Ratio (z) = 0.25934 0.24796
#
# Static dielectric constant tensor:
#      x y z
#    x 3.709450 -0.493990 -0.386930 
#    y -0.493990 3.647850 -0.671580 
#    z -0.386930 -0.671580 3.911080 
# 
# 
# High freq. dielectric constant tensor:
#      x y z
#    x 1.882990 -0.009160 -0.003390 
#    y -0.009160 1.882270 -0.006740 
#    z -0.003390 -0.006740 1.907520 
# 
# From -- ./inp_files/126907.got.cif
#   From: 2010.06.25/outbox.cif.g09.slc.cpg/sg2_64_cif.got.tgz:126907.got - 2010.06.27 13:26:56.
