data_PCOD8034181
_publ_section_title
;
Structure prediction by ZEFSAII (Michael W. Deem and Ramdas Pophale) SiO2 
 PCOD8034181
Probable space group: P -1
;
_chemical_formula_sum "Si O2"
_cell_formula_units_Z 16
_cell_length_a 11.690584
_cell_length_b 11.164044
_cell_length_c 25.386849
_cell_angle_alpha 148.990699
_cell_angle_beta 29.984600
_cell_angle_gamma 129.648808
_cell_volume 779.963265
_symmetry_space_group_name_H-M "P -1"
_symmetry_group_IT_number 2
_symmetry_cell_setting 'triclinic'
loop_
_space_group_symop_operation_xyz
x,y,z
-x,-y,-z
loop_
_atom_site_type_symbol
_atom_site_label
_atom_site_fract_x
_atom_site_fract_y
_atom_site_fract_z
Si Si1 0.224600 0.593153 0.621711
Si Si2 0.672466 0.869335 0.667048
Si Si3 0.359111 0.413618 0.979547
Si Si4 0.013768 0.829681 0.076896
Si Si5 0.125775 0.936673 0.484303
Si Si6 0.763237 0.199936 0.137550
Si Si7 0.660407 0.532278 0.105508
Si Si8 0.876178 0.551657 0.288100
O O1 0.500000 0.500000 0.500000
O O2 0.218520 0.391555 0.506334
O O3 0.044813 0.598860 0.744652
O O4 0.126772 0.872487 0.741462
O O5 0.485344 0.864221 0.786730
O O6 0.923389 0.913070 0.598197
O O7 0.508879 0.117777 0.790873
O O8 0.323544 0.575096 0.001042
O O9 0.500000 0.500000 0.000000
O O10 0.099817 0.442020 0.116891
O O11 0.806662 0.715510 0.117847
O O12 0.161089 0.776346 0.943061
O O13 0.219118 0.704893 0.993148
O O14 0.370202 0.677711 0.290986
O O15 0.212508 0.151384 0.552731
O O16 0.000000 0.000000 0.500000
O O17 0.673937 0.471898 0.307703
O O18 0.000000 0.000000 0.000000
#
# Coordination Sequence:
#
# PCOD8034181 Si02
#       8
#     2   2   2   2   2   2   2   2
#     4  12  21  36  64  97 127 162 216 270 319 376
#     4  12  23  36  64  96 128 164 219 268 319 372
#     4  12  21  38  65  98 127 164 216 267 318 379
#     4  11  24  44  67  94 131 172 215 273 327 385
#     4  12  23  40  63  97 132 169 216 267 320 391
#     4  12  21  38  64  98 127 163 222 272 314 377
#     4  11  24  44  66  94 132 173 216 264 332 393
#     4  12  21  34  65  95 124 160 221 270 313 366
#
# _framework density 20.513784999999999
#
# number of rings (size 3 to 8) (size 9 to 14) (size 15 to 20)
#    0.000    0.250    8.750    1.500    0.000    0.000 
#    0.000    3.125    0.000    0.000    0.000    0.000 
#    0.000    0.000    0.000    0.000    0.000    0.000 
#
# Total GULP energy -198252.268796 kJ/mol
# GULP energy per Si atom -12390.766800 kJ/mol
# Density = 2.046709 g / cm^3
# Si number density = 20.513785 Si / 1000 Ang^3
#
#
#
# Elastic Constant Matrix: (Units=GPa)
#
#
# Indices 1 2 3 4 5 6 
#
# 1 98.2040 38.1614 46.5550 14.2732 -3.6409 -18.5997
# 2 38.1614 103.5453 42.8741 -4.9409 -7.3493 -11.5505
# 3 46.5550 42.8741 110.0516 4.8040 -8.9655 -18.6226
# 4 14.2732 -4.9409 4.8040 49.1183 7.4412 3.4024
# 5 -3.6409 -7.3493 -8.9655 7.4412 33.1677 1.7360
# 6 -18.5997 -11.5505 -18.6226 3.4024 1.7360 32.3691
#
#
#
# Elastic Compliance Matrix: (Units=1/GPa)
#
#
# Indices 1 2 3 4 5 6 
#
# 1 0.015198 -0.003576 -0.003796 -0.004902 0.000649 0.005754
# 2 -0.003576 0.012584 -0.003395 0.002487 0.000911 0.000172
# 3 -0.003796 -0.003395 0.012943 -0.001144 0.002375 0.004047
# 4 -0.004902 0.002487 -0.001144 0.023273 -0.005269 -0.004751
# 5 0.000649 0.000911 0.002375 -0.005269 0.032200 0.000891
# 6 0.005754 0.000172 0.004047 -0.004751 0.000891 0.037041
#
#
# Mechanical properties :
#
#
# Convention : Reuss Voigt Hill
#
# Bulk Modulus (GPa) = 52.10443 62.99798 57.55120
# Shear Modulus (GPa) = 31.02333 35.21172 33.11753
#
# Velocity S-wave (km/s) = 3.89307 4.14755 4.02232
# Velocity P-wave (km/s) = 6.75743 7.32891 7.04896
#
# Compressibility (1/GPa) = 0.01919222
#
# Stress axis : x y z
#
# Youngs Moduli (GPa) = 65.79829 79.46821 77.26055
#
# Poissons Ratio (x) = 0.28414 0.29327
# Poissons Ratio (y) = 0.23526 0.26230
# Poissons Ratio (z) = 0.24976 0.26979
#
# Static dielectric constant tensor:
#      x y z
#    x 3.308410 -0.420390 0.434080 
#    y -0.420390 3.091710 0.391690 
#    z 0.434080 0.391690 3.676340 
# 
# 
# High freq. dielectric constant tensor:
#      x y z
#    x 1.760260 0.014720 0.023460 
#    y 0.014720 1.819880 -0.016030 
#    z 0.023460 -0.016030 1.807960 
# 
# From -- ./inp_files/618439.got.cif
#   From: 2010.06.25/outbox.cif.g09.slc.cpg/sg2_310_cif.got.tgz:618439.got - 2010.06.27 13:26:56.
