data_PCOD8034498
_publ_section_title
;
Structure prediction by ZEFSAII (Michael W. Deem and Ramdas Pophale) SiO2 
 PCOD8034498
Probable space group: P -1
;
_chemical_formula_sum "Si O2"
_cell_formula_units_Z 16
_cell_length_a 12.422017
_cell_length_b 14.983771
_cell_length_c 8.900189
_cell_angle_alpha 115.059083
_cell_angle_beta 34.481138
_cell_angle_gamma 129.614683
_cell_volume 702.415042
_symmetry_space_group_name_H-M "P -1"
_symmetry_group_IT_number 2
_symmetry_cell_setting 'triclinic'
loop_
_space_group_symop_operation_xyz
x,y,z
-x,-y,-z
loop_
_atom_site_type_symbol
_atom_site_label
_atom_site_fract_x
_atom_site_fract_y
_atom_site_fract_z
Si Si1 0.646480 0.466684 0.912824
Si Si2 0.189647 0.636129 0.862172
Si Si3 0.775019 0.999546 0.563214
Si Si4 0.001315 0.136870 0.824702
Si Si5 0.734093 0.088539 0.376035
Si Si6 0.262162 0.844497 0.084290
Si Si7 0.156054 0.663847 0.570099
Si Si8 0.557141 0.621921 0.589617
O O1 0.695163 0.382111 0.701270
O O2 0.889726 0.582701 0.768626
O O3 0.500000 0.500000 0.000000
O O4 0.508959 0.395926 0.170902
O O5 0.189188 0.674908 0.720325
O O6 0.433155 0.664766 0.654768
O O7 0.132542 0.704381 0.098777
O O8 0.000000 0.500000 0.000000
O O9 0.939001 0.954789 0.367768
O O10 0.750068 0.008468 0.423125
O O11 0.868440 0.130307 0.618293
O O12 0.529572 0.903923 0.855387
O O13 0.178001 0.271546 0.657422
O O14 0.756910 0.092429 0.997717
O O15 0.961654 0.135346 0.046265
O O16 0.742294 0.203020 0.511659
O O17 0.500000 0.000000 0.500000
O O18 0.500000 0.500000 0.500000
#
# Coordination Sequence:
#
# PCOD8034498 Si02
#       8
#     2   2   2   2   2   2   2   2
#     4  11  26  49  72 110 144 181 240 293 368 436
#     4  12  22  44  73 101 143 187 232 289 360 424
#     4  11  25  44  72  98 144 186 238 295 347 418
#     4  12  24  46  70 104 140 184 246 286 360 420
#     4  12  25  47  71 102 145 192 240 297 356 421
#     4  11  24  45  69 105 138 183 237 292 352 421
#     4  11  25  46  74 102 144 190 234 298 360 429
#     4  12  25  43  73 108 143 184 232 299 353 433
#
# _framework density 22.778556999999999
#
# number of rings (size 3 to 8) (size 9 to 14) (size 15 to 20)
#    0.000    0.500    5.000    3.000    1.750    1.000 
#    4.500    0.000    0.000    0.000    0.000    0.000 
#    0.000    0.000    0.000    0.000    0.000    0.000 
#
# Total GULP energy -198300.892053 kJ/mol
# GULP energy per Si atom -12393.805753 kJ/mol
# Density = 2.272671 g / cm^3
# Si number density = 22.778557 Si / 1000 Ang^3
#
#
#
# Elastic Constant Matrix: (Units=GPa)
#
#
# Indices 1 2 3 4 5 6 
#
# 1 87.3736 14.5872 8.3296 6.5740 -10.8273 2.7881
# 2 14.5872 156.8121 43.6404 26.3962 -5.5256 9.1896
# 3 8.3296 43.6404 89.8620 13.5143 0.8954 5.9507
# 4 6.5740 26.3962 13.5143 42.6306 -7.6507 1.3775
# 5 -10.8273 -5.5256 0.8954 -7.6507 37.3175 8.2513
# 6 2.7881 9.1896 5.9507 1.3775 8.2513 32.5374
#
#
#
# Elastic Compliance Matrix: (Units=1/GPa)
#
#
# Indices 1 2 3 4 5 6 
#
# 1 0.012167 -0.000624 -0.000668 -0.000560 0.003706 -0.001660
# 2 -0.000624 0.008072 -0.003202 -0.003708 0.000698 -0.001661
# 3 -0.000668 -0.003202 0.013168 -0.002274 -0.001220 -0.001041
# 4 -0.000560 -0.003708 -0.002274 0.027526 0.005202 -0.000973
# 5 0.003706 0.000698 -0.001220 0.005202 0.030918 -0.008353
# 6 -0.001660 -0.001661 -0.001041 -0.000973 -0.008353 0.033695
#
#
# Mechanical properties :
#
#
# Convention : Reuss Voigt Hill
#
# Bulk Modulus (GPa) = 40.94829 51.90692 46.42760
# Shear Modulus (GPa) = 35.04512 40.32979 37.68745
#
# Velocity S-wave (km/s) = 3.92664 4.21231 4.07199
# Velocity P-wave (km/s) = 6.21078 6.81874 6.52185
#
# Compressibility (1/GPa) = 0.02442105
#
# Stress axis : x y z
#
# Youngs Moduli (GPa) = 82.18755 123.88154 75.94142
#
# Poissons Ratio (x) = 0.07730 0.05070
# Poissons Ratio (y) = 0.05128 0.24314
# Poissons Ratio (z) = 0.05487 0.39663
#
# Static dielectric constant tensor:
#      x y z
#    x 4.037050 -0.105930 0.039330 
#    y -0.105930 4.621210 0.119020 
#    z 0.039330 0.119020 4.188510 
# 
# 
# High freq. dielectric constant tensor:
#      x y z
#    x 1.912770 0.000980 -0.005430 
#    y 0.000980 1.913440 0.017100 
#    z -0.005430 0.017100 1.891980 
# 
# From -- ./inp_files/273557.got.cif
#   From: 2010.06.25/outbox.cif.g09.slc.cpg/sg2_137_cif.got.tgz:273557.got - 2010.06.27 13:26:56.
