data_PCOD8034737
_publ_section_title
;
Structure prediction by ZEFSAII (Michael W. Deem and Ramdas Pophale) SiO2 
 PCOD8034737
Probable space group: P -1
;
_chemical_formula_sum "Si O2"
_cell_formula_units_Z 12
_cell_length_a 8.541068
_cell_length_b 6.678068
_cell_length_c 18.289678
_cell_angle_alpha 134.752974
_cell_angle_beta 126.379992
_cell_angle_gamma 79.156806
_cell_volume 546.292464
_symmetry_space_group_name_H-M "P -1"
_symmetry_group_IT_number 2
_symmetry_cell_setting 'triclinic'
loop_
_space_group_symop_operation_xyz
x,y,z
-x,-y,-z
loop_
_atom_site_type_symbol
_atom_site_label
_atom_site_fract_x
_atom_site_fract_y
_atom_site_fract_z
Si Si1 0.392975 0.277033 0.978045
Si Si2 0.058685 0.757642 0.142537
Si Si3 0.106154 0.690181 0.302806
Si Si4 0.174247 0.372425 0.541155
Si Si5 0.705453 0.395523 0.209932
Si Si6 0.408675 0.402477 0.370322
O O1 0.143671 0.168678 0.882064
O O2 0.414089 0.956198 0.887372
O O3 0.500000 0.500000 0.000000
O O4 0.516075 0.454436 0.131223
O O5 0.118512 0.649110 0.208433
O O6 0.242809 0.053658 0.235654
O O7 0.000000 0.500000 0.000000
O O8 0.306750 0.639566 0.377846
O O9 0.890424 0.440215 0.213227
O O10 0.111872 0.026541 0.407713
O O11 0.194184 0.377800 0.636079
O O12 0.402859 0.587265 0.627765
O O13 0.000000 0.500000 0.500000
O O14 0.500000 0.500000 0.500000
#
# Coordination Sequence:
#
# PCOD8034737 Si02
#       6
#     2   2   2   2   2   2
#     4  11  24  46  68 102 146 188 234 297 353 431
#     4  12  28  44  74 106 145 192 242 294 366 429
#     4  12  25  50  72 106 148 188 240 305 362 429
#     4  12  27  46  77 107 141 194 246 299 364 433
#     4  11  25  43  74 104 140 185 243 293 362 426
#     4  12  27  49  73 103 152 189 242 300 364 429
#
# _framework density 21.966255
#
# number of rings (size 3 to 8) (size 9 to 14) (size 15 to 20)
#    0.000    0.333    5.000    3.000    4.667    0.667 
#    0.000    0.000    0.000    0.000    0.000    0.000 
#    0.000    0.000    0.000    0.000    0.000    0.000 
#
# Total GULP energy -148809.811826 kJ/mol
# GULP energy per Si atom -12400.817652 kJ/mol
# Density = 2.191626 g / cm^3
# Si number density = 21.966255 Si / 1000 Ang^3
#
#
#
# Elastic Constant Matrix: (Units=GPa)
#
#
# Indices 1 2 3 4 5 6 
#
# 1 106.7371 58.4940 39.6730 3.8683 19.4485 9.0545
# 2 58.4940 155.4537 73.2331 -12.7050 1.4287 2.6731
# 3 39.6730 73.2331 141.7298 -5.6016 -7.1756 4.4639
# 4 3.8683 -12.7050 -5.6016 53.8580 6.0660 10.2400
# 5 19.4485 1.4287 -7.1756 6.0660 54.4388 -4.2080
# 6 9.0545 2.6731 4.4639 10.2400 -4.2080 40.2948
#
#
#
# Elastic Compliance Matrix: (Units=1/GPa)
#
#
# Indices 1 2 3 4 5 6 
#
# 1 0.013572 -0.004242 -0.001817 -0.001055 -0.005078 -0.002829
# 2 -0.004242 0.010030 -0.003891 0.002166 0.000515 0.000222
# 3 -0.001817 -0.003891 0.009684 0.000033 0.002008 -0.000205
# 4 -0.001055 0.002166 0.000033 0.020442 -0.002367 -0.005352
# 5 -0.005078 0.000515 0.002008 -0.002367 0.020983 0.003677
# 6 -0.002829 0.000222 -0.000205 -0.005352 0.003677 0.027205
#
#
# Mechanical properties :
#
#
# Convention : Reuss Voigt Hill
#
# Bulk Modulus (GPa) = 74.69623 82.96896 78.83260
# Shear Modulus (GPa) = 39.59534 45.21969 42.40752
#
# Velocity S-wave (km/s) = 4.25025 4.54210 4.39860
# Velocity P-wave (km/s) = 7.62660 8.08459 7.85893
#
# Compressibility (1/GPa) = 0.01338756
#
# Stress axis : x y z
#
# Youngs Moduli (GPa) = 73.67942 99.69879 103.26263
#
# Poissons Ratio (x) = 0.42291 0.18763
# Poissons Ratio (y) = 0.31254 0.40176
# Poissons Ratio (z) = 0.13388 0.38789
#
# Static dielectric constant tensor:
#      x y z
#    x 3.880650 0.329660 0.129480 
#    y 0.329660 4.707180 -0.146680 
#    z 0.129480 -0.146680 4.052530 
# 
# 
# High freq. dielectric constant tensor:
#      x y z
#    x 1.861850 0.010980 0.016930 
#    y 0.010980 1.880690 -0.009860 
#    z 0.016930 -0.009860 1.878990 
# 
# From -- ./inp_files/17414.got.cif
#   From: 2010.06.25/outbox.cif.g09.slc.cpg/sg2_9_cif.got.tgz:17414.got - 2010.06.27 13:26:56.
