data_PCOD8034992
_publ_section_title
;
Structure prediction by ZEFSAII (Michael W. Deem and Ramdas Pophale) SiO2 
 PCOD8034992
Probable space group: P -1
;
_chemical_formula_sum "Si O2"
_cell_formula_units_Z 16
_cell_length_a 17.592952
_cell_length_b 8.923389
_cell_length_c 17.505523
_cell_angle_alpha 138.104784
_cell_angle_beta 31.759322
_cell_angle_gamma 150.614697
_cell_volume 709.706731
_symmetry_space_group_name_H-M "P -1"
_symmetry_group_IT_number 2
_symmetry_cell_setting 'triclinic'
loop_
_space_group_symop_operation_xyz
x,y,z
-x,-y,-z
loop_
_atom_site_type_symbol
_atom_site_label
_atom_site_fract_x
_atom_site_fract_y
_atom_site_fract_z
Si Si1 0.629893 0.966675 0.425424
Si Si2 0.225318 0.756968 0.432490
Si Si3 0.969723 0.154879 0.717549
Si Si4 0.342649 0.265497 0.420753
Si Si5 0.590455 0.858612 0.843148
Si Si6 0.771088 0.688727 0.990490
Si Si7 0.065069 0.744199 0.852462
Si Si8 0.707122 0.608021 0.846840
O O1 0.500681 0.625902 0.438806
O O2 0.500000 0.000000 0.500000
O O3 0.742694 0.209913 0.490990
O O4 0.792743 0.043602 0.258632
O O5 0.334927 0.654105 0.267572
O O6 0.000000 0.500000 0.500000
O O7 0.326007 0.089020 0.441502
O O8 0.129260 0.152804 0.545523
O O9 0.076432 0.501202 0.780340
O O10 0.816160 0.058053 0.746838
O O11 0.860448 0.938974 0.802276
O O12 0.415248 0.184357 0.258916
O O13 0.461084 0.534004 0.874917
O O14 0.500000 0.000000 0.000000
O O15 0.804261 0.641424 0.857530
O O16 0.851005 0.586719 0.943504
O O17 0.875925 0.039398 0.044039
O O18 0.500000 0.500000 0.000000
#
# Coordination Sequence:
#
# PCOD8034992 Si02
#       8
#     2   2   2   2   2   2   2   2
#     4  12  27  47  76 107 149 194 247 300 366 443
#     4  12  28  49  74 108 147 196 242 306 373 434
#     4  12  26  43  73 110 145 193 248 305 367 436
#     4  12  27  47  72 107 150 194 241 305 369 442
#     4  12  24  44  74 107 145 193 249 300 369 442
#     4  11  24  47  71 103 147 191 240 301 373 436
#     4  11  25  45  73 106 143 193 244 301 364 444
#     4  12  27  46  73 105 146 186 243 309 364 436
#
# _framework density 22.544525
#
# number of rings (size 3 to 8) (size 9 to 14) (size 15 to 20)
#    0.000    0.250    6.250    2.250    5.250    0.500 
#    0.000    0.000    0.000    0.000    0.000    0.000 
#    0.000    0.000    0.000    0.000    0.000    0.000 
#
# Total GULP energy -198415.661586 kJ/mol
# GULP energy per Si atom -12400.978849 kJ/mol
# Density = 2.249321 g / cm^3
# Si number density = 22.544525 Si / 1000 Ang^3
#
#
#
# Elastic Constant Matrix: (Units=GPa)
#
#
# Indices 1 2 3 4 5 6 
#
# 1 89.6484 36.7738 29.8570 13.6133 13.1069 9.3232
# 2 36.7738 125.7619 37.0779 -1.9877 -1.9599 -15.7662
# 3 29.8570 37.0779 129.9618 7.6575 -1.3595 7.9334
# 4 13.6133 -1.9877 7.6575 38.8692 -2.7280 -0.9973
# 5 13.1069 -1.9599 -1.3595 -2.7280 36.7042 3.9752
# 6 9.3232 -15.7662 7.9334 -0.9973 3.9752 41.9515
#
#
#
# Elastic Compliance Matrix: (Units=1/GPa)
#
#
# Indices 1 2 3 4 5 6 
#
# 1 0.016045 -0.004973 -0.001685 -0.006083 -0.006002 -0.004692
# 2 -0.004973 0.010910 -0.002470 0.003062 0.001891 0.005566
# 3 -0.001685 -0.002470 0.009019 -0.001306 0.000965 -0.002382
# 4 -0.006083 0.003062 -0.001306 0.028637 0.004086 0.003043
# 5 -0.006002 0.001891 0.000965 0.004086 0.029923 -0.000876
# 6 -0.004692 0.005566 -0.002382 0.003043 -0.000876 0.027577
#
#
# Mechanical properties :
#
#
# Convention : Reuss Voigt Hill
#
# Bulk Modulus (GPa) = 56.44424 61.42108 58.93266
# Shear Modulus (GPa) = 34.18259 39.61587 36.89923
#
# Velocity S-wave (km/s) = 3.89810 4.19648 4.05004
# Velocity P-wave (km/s) = 6.73434 7.12629 6.93309
#
# Compressibility (1/GPa) = 0.01771660
#
# Stress axis : x y z
#
# Youngs Moduli (GPa) = 62.32502 91.66266 110.87651
#
# Poissons Ratio (x) = 0.45581 0.18687
# Poissons Ratio (y) = 0.30992 0.27392
# Poissons Ratio (z) = 0.10504 0.22645
#
# Static dielectric constant tensor:
#      x y z
#    x 4.012070 0.136950 -0.070410 
#    y 0.136950 4.480460 -0.115520 
#    z -0.070410 -0.115520 4.237250 
# 
# 
# High freq. dielectric constant tensor:
#      x y z
#    x 1.877640 0.001040 -0.002820 
#    y 0.001040 1.902920 -0.002840 
#    z -0.002820 -0.002840 1.899460 
# 
# From -- ./inp_files/336662.got.cif
#   From: 2010.06.25/outbox.cif.g09.slc.cpg/sg2_169_cif.got.tgz:336662.got - 2010.06.27 13:26:56.
