data_PCOD8034563
_publ_section_title
;
Structure prediction by ZEFSAII (Michael W. Deem and Ramdas Pophale) SiO2 
 PCOD8034563
Probable space group: P -1
;
_chemical_formula_sum "Si O2"
_cell_formula_units_Z 14
_cell_length_a 9.097098
_cell_length_b 11.876831
_cell_length_c 8.652161
_cell_angle_alpha 50.399962
_cell_angle_beta 107.998726
_cell_angle_gamma 123.543513
_cell_volume 598.976774
_symmetry_space_group_name_H-M "P -1"
_symmetry_group_IT_number 2
_symmetry_cell_setting 'triclinic'
loop_
_space_group_symop_operation_xyz
x,y,z
-x,-y,-z
loop_
_atom_site_type_symbol
_atom_site_label
_atom_site_fract_x
_atom_site_fract_y
_atom_site_fract_z
Si Si1 0.170229 0.010979 0.623645
Si Si2 0.349101 0.528220 0.991902
Si Si3 0.487996 0.630853 0.266869
Si Si4 0.718460 0.224067 0.764319
Si Si5 0.187972 0.065551 0.923770
Si Si6 0.967637 0.352574 0.999908
Si Si7 0.537729 0.168758 0.443590
O O1 0.168675 0.092027 0.714753
O O2 0.349974 0.136175 0.481883
O O3 0.000000 0.000000 0.500000
O O4 0.154994 0.827787 0.803128
O O5 0.161799 0.376747 0.007732
O O6 0.385282 0.703955 0.783089
O O7 0.500000 0.500000 0.000000
O O8 0.345208 0.531786 0.174389
O O9 0.500000 0.500000 0.500000
O O10 0.446320 0.765477 0.221704
O O11 0.674877 0.746884 0.137613
O O12 0.696535 0.245369 0.555755
O O13 0.888037 0.362483 0.796250
O O14 0.721856 0.051116 0.925295
O O15 0.000000 0.000000 0.000000
O O16 0.000000 0.500000 0.000000
O O17 0.500000 0.000000 0.500000
#
# Coordination Sequence:
#
# PCOD8034563 Si02
#       7
#     2   2   2   2   2   2   2
#     4  11  26  44  71 101 144 186 241 298 366 432
#     4  12  27  45  70 106 151 183 245 300 368 440
#     4  12  26  48  77 105 145 199 243 305 372 434
#     4  11  25  49  74 103 148 193 250 297 370 439
#     4  11  27  47  74 106 141 192 248 306 362 433
#     4  11  24  45  71 102 140 192 239 304 363 429
#     4  12  26  46  74 106 142 197 241 300 367 440
#
# _framework density 23.373194000000002
#
# number of rings (size 3 to 8) (size 9 to 14) (size 15 to 20)
#    0.000    0.571    2.857    3.857   14.000    0.571 
#    2.571    0.000    0.000    0.000    0.000    0.000 
#    0.000    0.000    0.000    0.000    0.000    0.000 
#
# Total GULP energy -173443.043990 kJ/mol
# GULP energy per Si atom -12388.788856 kJ/mol
# Density = 2.332000 g / cm^3
# Si number density = 23.373194 Si / 1000 Ang^3
#
#
#
# Elastic Constant Matrix: (Units=GPa)
#
#
# Indices 1 2 3 4 5 6 
#
# 1 113.3274 25.4304 37.9865 4.0860 5.5029 11.0647
# 2 25.4304 113.6459 41.6031 22.8981 9.2995 11.6261
# 3 37.9865 41.6031 130.0035 20.9125 12.2698 10.4271
# 4 4.0860 22.8981 20.9125 52.1270 5.8624 0.4734
# 5 5.5029 9.2995 12.2698 5.8624 35.9207 0.1416
# 6 11.0647 11.6261 10.4271 0.4734 0.1416 45.9210
#
#
#
# Elastic Compliance Matrix: (Units=1/GPa)
#
#
# Indices 1 2 3 4 5 6 
#
# 1 0.010101 -0.001322 -0.002497 0.000859 -0.000486 -0.001539
# 2 -0.001322 0.010954 -0.002262 -0.003642 -0.001259 -0.001900
# 3 -0.002497 -0.002262 0.009819 -0.002519 -0.001971 -0.001023
# 4 0.000859 -0.003642 -0.002519 0.021932 -0.001912 0.001067
# 5 -0.000486 -0.001259 -0.001971 -0.001912 0.029222 0.000813
# 6 -0.001539 -0.001900 -0.001023 0.001067 0.000813 0.022847
#
#
# Mechanical properties :
#
#
# Convention : Reuss Voigt Hill
#
# Bulk Modulus (GPa) = 53.44408 63.00186 58.22297
# Shear Modulus (GPa) = 40.55979 43.59084 42.07532
#
# Velocity S-wave (km/s) = 4.17023 4.32324 4.24742
# Velocity P-wave (km/s) = 6.78991 7.20651 7.00131
#
# Compressibility (1/GPa) = 0.01871115
#
# Stress axis : x y z
#
# Youngs Moduli (GPa) = 99.00407 91.28756 101.84383
#
# Poissons Ratio (x) = 0.12067 0.25432
# Poissons Ratio (y) = 0.13088 0.23040
# Poissons Ratio (z) = 0.24723 0.20652
#
# Static dielectric constant tensor:
#      x y z
#    x 4.650310 0.271950 -0.184600 
#    y 0.271950 4.841720 0.449270 
#    z -0.184600 0.449270 5.189750 
# 
# 
# High freq. dielectric constant tensor:
#      x y z
#    x 1.928410 0.006510 0.011990 
#    y 0.006510 1.941800 0.014840 
#    z 0.011990 0.014840 1.921260 
# 
# From -- ./inp_files/184457.got.cif
#   From: 2010.06.25/outbox.cif.g09.slc.cpg/sg2_93_cif.got.tgz:184457.got - 2010.06.27 13:26:56.
