data_PCOD8034757
_publ_section_title
;
Structure prediction by ZEFSAII (Michael W. Deem and Ramdas Pophale) SiO2 
 PCOD8034757
Probable space group: P -1
;
_chemical_formula_sum "Si O2"
_cell_formula_units_Z 14
_cell_length_a 14.719117
_cell_length_b 5.194312
_cell_length_c 8.558676
_cell_angle_alpha 124.433191
_cell_angle_beta 95.421214
_cell_angle_gamma 89.840663
_cell_volume 536.269655
_symmetry_space_group_name_H-M "P -1"
_symmetry_group_IT_number 2
_symmetry_cell_setting 'triclinic'
loop_
_space_group_symop_operation_xyz
x,y,z
-x,-y,-z
loop_
_atom_site_type_symbol
_atom_site_label
_atom_site_fract_x
_atom_site_fract_y
_atom_site_fract_z
Si Si1 0.435950 0.513100 0.141697
Si Si2 0.709598 0.244112 0.310460
Si Si3 0.270647 0.640355 0.982533
Si Si4 0.865204 0.794998 0.076083
Si Si5 0.797953 0.757868 0.717450
Si Si6 0.494052 0.837942 0.687206
Si Si7 0.023605 0.141998 0.385836
O O1 0.330061 0.453948 0.053345
O O2 0.456903 0.228019 0.161161
O O3 0.454670 0.886580 0.316527
O O4 0.500000 0.500000 0.000000
O O5 0.739770 0.457662 0.537334
O O6 0.611508 0.073507 0.279207
O O7 0.790021 0.024568 0.205223
O O8 0.693770 0.431905 0.210784
O O9 0.276689 0.001301 0.161295
O O10 0.163162 0.520790 0.939218
O O11 0.858744 0.695145 0.859076
O O12 0.966194 0.935682 0.177119
O O13 0.869023 0.884578 0.638869
O O14 0.500000 0.500000 0.500000
O O15 0.000000 0.500000 0.500000
O O16 0.000000 0.000000 0.500000
#
# Coordination Sequence:
#
# PCOD8034757 Si02
#       7
#     2   2   2   2   2   2   2
#     4  12  25  47  71 101 148 190 243 298 365 418
#     4  11  24  46  69 104 146 189 244 300 364 425
#     4  11  26  43  73 105 143 195 242 304 359 429
#     4  11  26  46  76 106 144 191 240 298 364 431
#     4  11  26  46  75 108 146 188 244 298 358 438
#     4  12  27  45  71 105 142 195 244 303 357 431
#     4  12  27  51  79 109 148 191 237 293 370 434
#
# _framework density 26.106268
#
# number of rings (size 3 to 8) (size 9 to 14) (size 15 to 20)
#    0.000    0.571    2.857    3.857   10.000    1.714 
#    0.000    0.000    0.000    0.000    0.000    0.000 
#    0.000    0.000    0.000    0.000    0.000    0.000 
#
# Total GULP energy -173466.242334 kJ/mol
# GULP energy per Si atom -12390.445881 kJ/mol
# Density = 2.604685 g / cm^3
# Si number density = 26.106268 Si / 1000 Ang^3
#
#
#
# Elastic Constant Matrix: (Units=GPa)
#
#
# Indices 1 2 3 4 5 6 
#
# 1 90.7625 2.2664 -0.9001 -5.6176 19.4549 6.8031
# 2 2.2664 67.7944 16.3513 3.3703 10.2481 7.4096
# 3 -0.9001 16.3513 125.5709 -1.5207 13.0089 -8.1362
# 4 -5.6176 3.3703 -1.5207 37.5538 -2.8084 2.0204
# 5 19.4549 10.2481 13.0089 -2.8084 45.1629 1.7560
# 6 6.8031 7.4096 -8.1362 2.0204 1.7560 39.6308
#
#
#
# Elastic Compliance Matrix: (Units=1/GPa)
#
#
# Indices 1 2 3 4 5 6 
#
# 1 0.012413 0.000422 0.000487 0.001539 -0.005412 -0.001948
# 2 0.000422 0.016141 -0.001994 -0.001532 -0.003238 -0.003278
# 3 0.000487 -0.001994 0.008608 0.000313 -0.002301 0.002142
# 4 0.001539 -0.001532 0.000313 0.027182 0.001338 -0.001358
# 5 -0.005412 -0.003238 -0.002301 0.001338 0.025960 -0.000156
# 6 -0.001948 -0.003278 0.002142 -0.001358 -0.000156 0.026696
#
#
# Mechanical properties :
#
#
# Convention : Reuss Voigt Hill
#
# Bulk Modulus (GPa) = 28.57790 35.50701 32.04245
# Shear Modulus (GPa) = 38.21606 42.23020 40.22313
#
# Velocity S-wave (km/s) = 3.83020 4.02634 3.92949
# Velocity P-wave (km/s) = 5.52550 5.93681 5.73484
#
# Compressibility (1/GPa) = 0.03499207
#
# Stress axis : x y z
#
# Youngs Moduli (GPa) = 80.55809 61.95289 116.17443
#
# Poissons Ratio (x) = -0.02615 -0.05659
# Poissons Ratio (y) = -0.03400 0.23169
# Poissons Ratio (z) = -0.03924 0.12356
#
# Static dielectric constant tensor:
#      x y z
#    x 4.898010 0.618840 0.270380 
#    y 0.618840 4.496000 0.287430 
#    z 0.270380 0.287430 5.133460 
# 
# 
# High freq. dielectric constant tensor:
#      x y z
#    x 2.050460 0.012280 0.005210 
#    y 0.012280 2.041120 0.008210 
#    z 0.005210 0.008210 2.060600 
# 
# From -- ./inp_files/45623.got.cif
#   From: 2010.06.25/outbox.cif.g09.slc.cpg/sg2_23_cif.got.tgz:45623.got - 2010.06.27 13:26:56.
