data_PCOD8034272
_publ_section_title
;
Structure prediction by ZEFSAII (Michael W. Deem and Ramdas Pophale) SiO2 
 PCOD8034272
Probable space group: P -1
;
_chemical_formula_sum "Si O2"
_cell_formula_units_Z 14
_cell_length_a 18.628018
_cell_length_b 16.053305
_cell_length_c 6.384234
_cell_angle_alpha 43.142306
_cell_angle_beta 125.274510
_cell_angle_gamma 152.542350
_cell_volume 586.948479
_symmetry_space_group_name_H-M "P -1"
_symmetry_group_IT_number 2
_symmetry_cell_setting 'triclinic'
loop_
_space_group_symop_operation_xyz
x,y,z
-x,-y,-z
loop_
_atom_site_type_symbol
_atom_site_label
_atom_site_fract_x
_atom_site_fract_y
_atom_site_fract_z
Si Si1 0.475322 0.654429 0.289470
Si Si2 0.357278 0.931289 0.399733
Si Si3 0.704335 0.704202 0.679305
Si Si4 0.121827 0.736885 0.674317
Si Si5 0.247889 0.432562 0.656479
Si Si6 0.020305 0.817925 0.643966
Si Si7 0.124247 0.478860 0.671973
O O1 0.567597 0.646948 0.554883
O O2 0.332502 0.439460 0.294768
O O3 0.393705 0.633841 0.378389
O O4 0.591986 0.878688 0.949372
O O5 0.291628 0.875884 0.630593
O O6 0.211414 0.709734 0.422009
O O7 0.500000 0.000000 0.500000
O O8 0.876509 0.965677 0.446560
O O9 0.716648 0.656945 0.015043
O O10 0.144544 0.869560 0.640827
O O11 0.043694 0.699886 0.398523
O O12 0.000000 0.500000 0.000000
O O13 0.242718 0.530387 0.644419
O O14 0.083704 0.236040 0.610234
O O15 0.903341 0.610426 0.982531
#
# Coordination Sequence:
#
# PCOD8034272 Si02
#       7
#     2   2   2   2   2   2   2
#     4  11  27  45  67 101 146 189 227 288 354 418
#     4  12  25  45  72 104 146 182 229 288 353 416
#     4  11  25  46  69  98 142 187 239 286 348 415
#     4  11  25  44  72 103 139 185 233 281 352 419
#     4  11  24  44  70 104 137 183 240 288 349 413
#     4  11  24  44  74 103 136 182 235 296 346 411
#     4  11  25  45  71 105 141 182 232 291 353 419
#
# _framework density 23.852179
#
# number of rings (size 3 to 8) (size 9 to 14) (size 15 to 20)
#    0.000    0.857    1.429    4.714    4.000    9.714 
#    0.000    0.000    0.000    0.000    0.000    0.000 
#    0.000    0.000    0.000    0.000    0.000    0.000 
#
# Total GULP energy -173624.713826 kJ/mol
# GULP energy per Si atom -12401.765273 kJ/mol
# Density = 2.379789 g / cm^3
# Si number density = 23.852179 Si / 1000 Ang^3
#
#
#
# Elastic Constant Matrix: (Units=GPa)
#
#
# Indices 1 2 3 4 5 6 
#
# 1 167.7938 38.1309 67.6498 -8.8539 -29.4640 3.9243
# 2 38.1309 97.6970 48.5428 -13.0595 1.5662 -26.6008
# 3 67.6498 48.5428 131.4526 -6.8632 -2.2580 -3.8047
# 4 -8.8539 -13.0595 -6.8632 44.5378 4.4537 6.9002
# 5 -29.4640 1.5662 -2.2580 4.4537 38.4738 -4.1161
# 6 3.9243 -26.6008 -3.8047 6.9002 -4.1161 34.9436
#
#
#
# Elastic Compliance Matrix: (Units=1/GPa)
#
#
# Indices 1 2 3 4 5 6 
#
# 1 0.009328 -0.002545 -0.003808 0.000263 0.006708 -0.002662
# 2 -0.002545 0.017143 -0.004589 0.002109 -0.001855 0.012202
# 3 -0.003808 -0.004589 0.011169 0.000186 -0.002327 -0.002161
# 4 0.000263 0.002109 0.000186 0.023997 -0.003026 -0.003499
# 5 0.006708 -0.001855 -0.002327 -0.003026 0.031622 0.001903
# 6 -0.002662 0.012202 -0.002161 -0.003499 0.001903 0.038885
#
#
# Mechanical properties :
#
#
# Convention : Reuss Voigt Hill
#
# Bulk Modulus (GPa) = 63.47662 78.39894 70.93778
# Shear Modulus (GPa) = 31.39100 39.76571 35.57836
#
# Velocity S-wave (km/s) = 3.63170 4.08753 3.86634
# Velocity P-wave (km/s) = 6.65251 7.43083 7.05242
#
# Compressibility (1/GPa) = 0.01575383
#
# Stress axis : x y z
#
# Youngs Moduli (GPa) = 107.20828 58.33159 89.53173
#
# Poissons Ratio (x) = 0.14847 0.34098
# Poissons Ratio (y) = 0.27288 0.41090
# Poissons Ratio (z) = 0.40830 0.26771
#
# Static dielectric constant tensor:
#      x y z
#    x 4.497990 -0.050900 0.069060 
#    y -0.050900 4.272470 0.115260 
#    z 0.069060 0.115260 4.232140 
# 
# 
# High freq. dielectric constant tensor:
#      x y z
#    x 1.959320 0.000910 0.002680 
#    y 0.000910 1.939150 0.005900 
#    z 0.002680 0.005900 1.945390 
# 
# From -- ./inp_files/27601.got.cif
#   From: 2010.06.25/outbox.cif.g09.slc.cpg/sg2_14_cif.got.tgz:27601.got - 2010.06.27 13:26:56.
