data_PCOD8034569
_publ_section_title
;
Structure prediction by ZEFSAII (Michael W. Deem and Ramdas Pophale) SiO2 
 PCOD8034569
Probable space group: P -1
;
_chemical_formula_sum "Si O2"
_cell_formula_units_Z 16
_cell_length_a 11.407250
_cell_length_b 5.648211
_cell_length_c 19.345836
_cell_angle_alpha 54.316635
_cell_angle_beta 139.607400
_cell_angle_gamma 120.654777
_cell_volume 650.968744
_symmetry_space_group_name_H-M "P -1"
_symmetry_group_IT_number 2
_symmetry_cell_setting 'triclinic'
loop_
_space_group_symop_operation_xyz
x,y,z
-x,-y,-z
loop_
_atom_site_type_symbol
_atom_site_label
_atom_site_fract_x
_atom_site_fract_y
_atom_site_fract_z
Si Si1 0.362528 0.214990 0.814605
Si Si2 0.857202 0.756720 0.009339
Si Si3 0.147128 0.351308 0.216292
Si Si4 0.880813 0.732959 0.530361
Si Si5 0.968545 0.077648 0.649139
Si Si6 0.360919 0.230106 0.962394
Si Si7 0.486428 0.674081 0.393302
Si Si8 0.397201 0.281440 0.220968
O O1 0.179115 0.035174 0.732538
O O2 0.291970 0.308651 0.842225
O O3 0.429295 0.469728 0.746464
O O4 0.536290 0.054199 0.936914
O O5 0.814637 0.826274 0.057604
O O6 0.948145 0.457476 0.103420
O O7 0.668949 0.749794 0.883243
O O8 0.000000 0.000000 0.000000
O O9 0.302069 0.562849 0.289305
O O10 0.218335 0.342023 0.171884
O O11 0.111340 0.042423 0.292586
O O12 0.665138 0.660895 0.427557
O O13 0.955361 0.429281 0.590803
O O14 0.000000 0.000000 0.500000
O O15 0.870788 0.856922 0.584143
O O16 0.500000 0.500000 0.000000
O O17 0.500000 0.500000 0.500000
O O18 0.472720 0.016668 0.340357
#
# Coordination Sequence:
#
# PCOD8034569 Si02
#       8
#     2   2   2   2   2   2   2   2
#     4  11  27  44  72 112 148 207 256 317 396 459
#     4  12  25  46  74 111 155 202 260 315 391 469
#     4  12  28  46  77 110 155 205 255 322 392 470
#     4  12  29  51  80 113 153 202 268 329 390 464
#     4  12  29  49  79 114 154 205 263 326 394 471
#     4  11  24  45  71 103 157 200 250 316 383 471
#     4  12  27  51  76 108 150 202 256 322 395 457
#     4  12  27  47  75 111 152 203 258 321 388 472
#
# _framework density 24.578755000000001
#
# number of rings (size 3 to 8) (size 9 to 14) (size 15 to 20)
#    0.000    0.250    3.750    3.750   10.500    1.000 
#    0.000    0.000    0.000    0.000    0.000    0.000 
#    0.000    0.000    0.000    0.000    0.000    0.000 
#
# Total GULP energy -198215.907821 kJ/mol
# GULP energy per Si atom -12388.494239 kJ/mol
# Density = 2.452281 g / cm^3
# Si number density = 24.578755 Si / 1000 Ang^3
#
#
#
# Elastic Constant Matrix: (Units=GPa)
#
#
# Indices 1 2 3 4 5 6 
#
# 1 164.7370 27.2725 30.0042 -17.8371 -0.9300 19.9597
# 2 27.2725 86.7280 15.6882 -22.8959 -12.0225 13.7086
# 3 30.0042 15.6882 94.1244 -15.6206 -1.3642 0.0613
# 4 -17.8371 -22.8959 -15.6206 36.9297 9.5683 0.4428
# 5 -0.9300 -12.0225 -1.3642 9.5683 38.1507 -1.2701
# 6 19.9597 13.7086 0.0613 0.4428 -1.2701 53.6341
#
#
#
# Elastic Compliance Matrix: (Units=1/GPa)
#
#
# Indices 1 2 3 4 5 6 
#
# 1 0.007093 -0.001053 -0.001714 0.002304 -0.000878 -0.002408
# 2 -0.001053 0.014971 -0.000826 0.007793 0.002594 -0.003437
# 3 -0.001714 -0.000826 0.011946 0.003919 -0.000832 0.000784
# 4 0.002304 0.007793 0.003919 0.036429 -0.006595 -0.003311
# 5 -0.000878 0.002594 -0.000832 -0.006595 0.028645 0.000398
# 6 -0.002408 -0.003437 0.000784 -0.003311 0.000398 0.020455
#
#
# Mechanical properties :
#
#
# Convention : Reuss Voigt Hill
#
# Bulk Modulus (GPa) = 37.28210 54.61323 45.94767
# Shear Modulus (GPa) = 36.85455 43.91788 40.38621
#
# Velocity S-wave (km/s) = 3.87647 4.23167 4.05796
# Velocity P-wave (km/s) = 5.93611 6.79293 6.37892
#
# Compressibility (1/GPa) = 0.02682252
#
# Stress axis : x y z
#
# Youngs Moduli (GPa) = 140.97949 66.79596 83.70835
#
# Poissons Ratio (x) = 0.07035 0.14350
# Poissons Ratio (y) = 0.14847 0.06918
# Poissons Ratio (z) = 0.24168 0.05521
#
# Static dielectric constant tensor:
#      x y z
#    x 4.745880 -0.003040 0.021600 
#    y -0.003040 4.369760 0.137260 
#    z 0.021600 0.137260 5.146900 
# 
# 
# High freq. dielectric constant tensor:
#      x y z
#    x 1.996610 0.022520 -0.000540 
#    y 0.022520 1.981540 0.002620 
#    z -0.000540 0.002620 1.977430 
# 
# From -- ./inp_files/592665.got.cif
#   From: 2010.06.25/outbox.cif.g09.slc.cpg/sg2_297_cif.got.tgz:592665.got - 2010.06.27 13:26:56.
