data_PCOD8034149
_publ_section_title
;
Structure prediction by ZEFSAII (Michael W. Deem and Ramdas Pophale) SiO2 
 PCOD8034149
Probable space group: P -1
;
_chemical_formula_sum "Si O2"
_cell_formula_units_Z 16
_cell_length_a 11.605614
_cell_length_b 10.844657
_cell_length_c 10.763518
_cell_angle_alpha 126.486612
_cell_angle_beta 61.288098
_cell_angle_gamma 140.110308
_cell_volume 697.724592
_symmetry_space_group_name_H-M "P -1"
_symmetry_group_IT_number 2
_symmetry_cell_setting 'triclinic'
loop_
_space_group_symop_operation_xyz
x,y,z
-x,-y,-z
loop_
_atom_site_type_symbol
_atom_site_label
_atom_site_fract_x
_atom_site_fract_y
_atom_site_fract_z
Si Si1 0.191367 0.782596 0.523079
Si Si2 0.806765 0.553084 0.607376
Si Si3 0.097939 0.157280 0.660704
Si Si4 0.728839 0.106300 0.169362
Si Si5 0.107518 0.065345 0.110109
Si Si6 0.645453 0.067576 0.711993
Si Si7 0.544221 0.676696 0.499698
Si Si8 0.966966 0.547221 0.176137
O O1 0.183744 0.591446 0.399896
O O2 0.221735 0.871175 0.698307
O O3 0.355126 0.964616 0.457499
O O4 0.001243 0.706526 0.526846
O O5 0.781265 0.688047 0.781760
O O6 0.638210 0.404983 0.515228
O O7 0.298264 0.249232 0.631375
O O8 0.115803 0.350792 0.735702
O O9 0.000000 0.000000 0.500000
O O10 0.005613 0.054370 0.778740
O O11 0.833730 0.336958 0.200490
O O12 0.515054 0.953240 0.171903
O O13 0.766737 0.982156 0.999542
O O14 0.000000 0.000000 0.000000
O O15 0.835182 0.296188 0.774022
O O16 0.619419 0.875890 0.667501
O O17 0.500000 0.500000 0.500000
O O18 0.000000 0.500000 0.000000
#
# Coordination Sequence:
#
# PCOD8034149 Si02
#       8
#     2   2   2   2   2   2   2   2
#     4  11  24  46  79 107 145 195 253 303 372 446
#     4  11  24  43  75 107 146 196 253 303 369 453
#     4  12  26  47  75 104 147 199 254 304 370 451
#     4  12  26  49  75 108 151 196 245 306 381 452
#     4  12  27  47  71 109 155 197 237 314 391 438
#     4  12  27  45  79 111 145 197 253 311 364 455
#     4  12  26  42  74 113 145 188 261 312 366 444
#     4  12  27  49  73 106 149 198 247 305 378 442
#
# _framework density 22.931685000000002
#
# number of rings (size 3 to 8) (size 9 to 14) (size 15 to 20)
#    0.000    0.250    5.000    4.125    3.500    1.500 
#    0.000    1.250    0.000    0.000    0.000    0.000 
#    0.000    0.000    0.000    0.000    0.000    0.000 
#
# Total GULP energy -198332.194034 kJ/mol
# GULP energy per Si atom -12395.762127 kJ/mol
# Density = 2.287949 g / cm^3
# Si number density = 22.931685 Si / 1000 Ang^3
#
#
#
# Elastic Constant Matrix: (Units=GPa)
#
#
# Indices 1 2 3 4 5 6 
#
# 1 127.8333 48.1394 48.4565 -12.1732 -27.0670 16.0436
# 2 48.1394 91.6268 50.8220 -12.6095 -10.9105 13.2737
# 3 48.4565 50.8220 129.8098 -7.5012 -25.9164 -5.8886
# 4 -12.1732 -12.6095 -7.5012 42.4031 -8.2765 -7.5888
# 5 -27.0670 -10.9105 -25.9164 -8.2765 50.1978 -4.4627
# 6 16.0436 13.2737 -5.8886 -7.5888 -4.4627 41.9588
#
#
#
# Elastic Compliance Matrix: (Units=1/GPa)
#
#
# Indices 1 2 3 4 5 6 
#
# 1 0.011444 -0.003743 -0.001888 0.002263 0.004527 -0.002566
# 2 -0.003743 0.016659 -0.005479 0.001865 -0.001311 -0.004410
# 3 -0.001888 -0.005479 0.011790 0.001688 0.004593 0.004904
# 4 0.002263 0.001865 0.001688 0.027340 0.007406 0.004514
# 5 0.004527 -0.001311 0.004593 0.007406 0.025975 0.003430
# 6 -0.002566 -0.004410 0.004904 0.004514 0.003430 0.028079
#
#
# Mechanical properties :
#
#
# Convention : Reuss Voigt Hill
#
# Bulk Modulus (GPa) = 56.58358 71.56732 64.07545
# Shear Modulus (GPa) = 33.46787 40.36874 36.91830
#
# Velocity S-wave (km/s) = 3.82443 4.20025 4.01674
# Velocity P-wave (km/s) = 6.65057 7.40267 7.03668
#
# Compressibility (1/GPa) = 0.01767297
#
# Stress axis : x y z
#
# Youngs Moduli (GPa) = 87.38126 60.02887 84.81482
#
# Poissons Ratio (x) = 0.22469 0.16016
# Poissons Ratio (y) = 0.32707 0.46468
# Poissons Ratio (z) = 0.16500 0.32888
#
# Static dielectric constant tensor:
#      x y z
#    x -0.600760 -1.201100 0.475290 
#    y -1.201100 4.131790 0.130660 
#    z 0.475290 0.130660 4.026830 
# 
# 
# High freq. dielectric constant tensor:
#      x y z
#    x 1.917770 -0.005510 -0.021850 
#    y -0.005510 1.915640 0.000330 
#    z -0.021850 0.000330 1.906530 
# 
# From -- ./inp_files/426681.got.cif
#   From: 2010.06.25/outbox.cif.g09.slc.cpg/sg2_214_cif.got.tgz:426681.got - 2010.06.27 13:26:56.
