data_PCOD8034618
_publ_section_title
;
Structure prediction by ZEFSAII (Michael W. Deem and Ramdas Pophale) SiO2 
 PCOD8034618
Probable space group: P -1
;
_chemical_formula_sum "Si O2"
_cell_formula_units_Z 14
_cell_length_a 15.606944
_cell_length_b 9.471917
_cell_length_c 12.760195
_cell_angle_alpha 46.229592
_cell_angle_beta 153.744925
_cell_angle_gamma 125.962968
_cell_volume 599.314781
_symmetry_space_group_name_H-M "P -1"
_symmetry_group_IT_number 2
_symmetry_cell_setting 'triclinic'
loop_
_space_group_symop_operation_xyz
x,y,z
-x,-y,-z
loop_
_atom_site_type_symbol
_atom_site_label
_atom_site_fract_x
_atom_site_fract_y
_atom_site_fract_z
Si Si1 0.810675 0.143536 0.232076
Si Si2 0.612563 0.831137 0.778247
Si Si3 0.962749 0.561375 0.203212
Si Si4 0.609315 0.115623 0.810118
Si Si5 0.667361 0.384098 0.310428
Si Si6 0.227895 0.991087 0.514462
Si Si7 0.083177 0.681524 0.050907
O O1 0.856992 0.369720 0.161345
O O2 0.714853 0.089395 0.265005
O O3 0.674507 0.097683 0.010923
O O4 0.000000 0.000000 0.500000
O O5 0.453253 0.675796 0.690510
O O6 0.500000 0.000000 0.500000
O O7 0.665096 0.915055 0.907431
O O8 0.811005 0.730396 0.998417
O O9 0.150697 0.497755 0.516600
O O10 0.052925 0.664212 0.149641
O O11 0.375030 0.140708 0.552400
O O12 0.690618 0.300168 0.743074
O O13 0.772260 0.197358 0.461530
O O14 0.500000 0.500000 0.000000
O O15 0.018064 0.115661 0.214874
O O16 0.000000 0.500000 0.000000
#
# Coordination Sequence:
#
# PCOD8034618 Si02
#       7
#     2   2   2   2   2   2   2
#     4  12  25  46  69 105 142 189 232 285 356 414
#     4  11  25  48  73 106 139 185 240 286 351 420
#     4  12  26  45  76 102 145 185 232 297 352 415
#     4  11  24  45  72  99 143 178 234 291 342 416
#     4  11  26  45  71 106 138 183 239 291 349 418
#     4  11  25  45  72  99 141 186 234 284 354 412
#     4  12  24  47  67 105 140 182 232 282 353 419
#
# _framework density 23.360012000000001
#
# number of rings (size 3 to 8) (size 9 to 14) (size 15 to 20)
#    0.000    0.571    2.857    4.714    4.000    3.429 
#   10.286    0.000    0.000    0.000    0.000    0.000 
#    0.000    0.000    0.000    0.000    0.000    0.000 
#
# Total GULP energy -173508.477130 kJ/mol
# GULP energy per Si atom -12393.462652 kJ/mol
# Density = 2.330684 g / cm^3
# Si number density = 23.360012 Si / 1000 Ang^3
#
#
#
# Elastic Constant Matrix: (Units=GPa)
#
#
# Indices 1 2 3 4 5 6 
#
# 1 140.4472 26.4311 18.2137 8.9998 -7.0790 17.8299
# 2 26.4311 97.4631 30.0742 11.6441 3.1569 5.3323
# 3 18.2137 30.0742 107.3621 -0.5649 -7.3123 -7.1126
# 4 8.9998 11.6441 -0.5649 34.9742 5.0792 -9.2747
# 5 -7.0790 3.1569 -7.3123 5.0792 33.4647 4.3066
# 6 17.8299 5.3323 -7.1126 -9.2747 4.3066 36.8349
#
#
#
# Elastic Compliance Matrix: (Units=1/GPa)
#
#
# Indices 1 2 3 4 5 6 
#
# 1 0.008613 -0.001293 -0.001283 -0.003691 0.002932 -0.005502
# 2 -0.001293 0.012433 -0.003556 -0.004446 -0.001183 -0.002842
# 3 -0.001283 -0.003556 0.010893 0.002428 0.001604 0.003663
# 4 -0.003691 -0.004446 0.002428 0.035397 -0.006826 0.012610
# 5 0.002932 -0.001183 0.001604 -0.006826 0.032837 -0.006496
# 6 -0.005502 -0.002842 0.003663 0.012610 -0.006496 0.034865
#
#
# Mechanical properties :
#
#
# Convention : Reuss Voigt Hill
#
# Bulk Modulus (GPa) = 50.82536 54.96781 52.89659
# Shear Modulus (GPa) = 32.49750 39.09164 35.79457
#
# Velocity S-wave (km/s) = 3.73387 4.09521 3.91871
# Velocity P-wave (km/s) = 6.35560 6.77811 6.57026
#
# Compressibility (1/GPa) = 0.01967522
#
# Stress axis : x y z
#
# Youngs Moduli (GPa) = 116.10963 80.43129 91.80475
#
# Poissons Ratio (x) = 0.10397 0.11781
# Poissons Ratio (y) = 0.15008 0.32642
# Poissons Ratio (z) = 0.14900 0.28598
#
# Static dielectric constant tensor:
#      x y z
#    x 4.889690 -0.036650 -0.348240 
#    y -0.036650 3.548700 -0.201080 
#    z -0.348240 -0.201080 4.315620 
# 
# 
# High freq. dielectric constant tensor:
#      x y z
#    x 1.948580 0.004150 0.001540 
#    y 0.004150 1.927970 0.014090 
#    z 0.001540 0.014090 1.914730 
# 
# From -- ./inp_files/446865.got.cif
#   From: 2010.06.25/outbox.cif.g09.slc.cpg/sg2_224_cif.got.tgz:446865.got - 2010.06.27 13:26:56.
