data_PCOD8034664
_publ_section_title
;
Structure prediction by ZEFSAII (Michael W. Deem and Ramdas Pophale) SiO2 
 PCOD8034664
Probable space group: P -1
;
_chemical_formula_sum "Si O2"
_cell_formula_units_Z 14
_cell_length_a 20.336285
_cell_length_b 11.720520
_cell_length_c 20.287733
_cell_angle_alpha 157.850333
_cell_angle_beta 19.951228
_cell_angle_gamma 151.803868
_cell_volume 619.935112
_symmetry_space_group_name_H-M "P -1"
_symmetry_group_IT_number 2
_symmetry_cell_setting 'triclinic'
loop_
_space_group_symop_operation_xyz
x,y,z
-x,-y,-z
loop_
_atom_site_type_symbol
_atom_site_label
_atom_site_fract_x
_atom_site_fract_y
_atom_site_fract_z
Si Si1 0.014686 0.377518 0.515019
Si Si2 0.528889 0.650340 0.781800
Si Si3 0.961385 0.653180 0.370526
Si Si4 0.407813 0.695555 0.337531
Si Si5 0.665032 0.743466 0.002197
Si Si6 0.799374 0.742781 0.159660
Si Si7 0.039817 0.833819 0.112070
O O1 0.981025 0.369061 0.619942
O O2 0.240145 0.483387 0.343236
O O3 0.870271 0.600099 0.738466
O O4 0.964931 0.046728 0.353745
O O5 0.738486 0.569201 0.519956
O O6 0.484413 0.500865 0.815721
O O7 0.377417 0.510798 0.795493
O O8 0.500000 0.000000 0.000000
O O9 0.000000 0.000000 0.500000
O O10 0.066595 0.403932 0.098185
O O11 0.296089 0.960684 0.620308
O O12 0.574558 0.839572 0.208419
O O13 0.734577 0.048972 0.057319
O O14 0.500000 0.500000 0.000000
O O15 0.908392 0.845929 0.177939
O O16 0.000000 0.500000 0.000000
#
# Coordination Sequence:
#
# PCOD8034664 Si02
#       7
#     2   2   2   2   2   2   2
#     4  11  24  49  74 101 147 195 244 302 368 444
#     4  11  25  43  71 104 151 191 242 301 373 436
#     4  11  24  45  74 103 143 195 240 300 377 434
#     4  11  25  45  73 109 145 190 252 303 365 444
#     4  12  24  45  77 101 144 202 246 289 377 447
#     4  12  25  46  71 106 149 184 249 309 360 442
#     4  12  27  48  73 108 149 189 248 314 368 430
#
# _framework density 22.583008
#
# number of rings (size 3 to 8) (size 9 to 14) (size 15 to 20)
#    0.000    0.571    4.286    3.429    4.000    2.286 
#    0.000    1.429    0.000    0.000    0.000    0.000 
#    0.000    0.000    0.000    0.000    0.000    0.000 
#
# Total GULP energy -173502.404210 kJ/mol
# GULP energy per Si atom -12393.028872 kJ/mol
# Density = 2.253161 g / cm^3
# Si number density = 22.583008 Si / 1000 Ang^3
#
#
#
# Elastic Constant Matrix: (Units=GPa)
#
#
# Indices 1 2 3 4 5 6 
#
# 1 75.2793 47.8475 42.7103 1.5674 11.0501 18.7703
# 2 47.8475 164.5805 52.6498 5.0698 5.2943 4.0590
# 3 42.7103 52.6498 145.5120 11.3373 20.3240 -3.1160
# 4 1.5674 5.0698 11.3373 45.3716 1.8088 -1.2057
# 5 11.0501 5.2943 20.3240 1.8088 34.1595 3.7947
# 6 18.7703 4.0590 -3.1160 -1.2057 3.7947 48.6292
#
#
#
# Elastic Compliance Matrix: (Units=1/GPa)
#
#
# Indices 1 2 3 4 5 6 
#
# 1 0.020884 -0.004415 -0.004389 0.000768 -0.002640 -0.007749
# 2 -0.004415 0.007842 -0.001654 -0.000333 0.001120 0.000848
# 3 -0.004389 -0.001654 0.009547 -0.001809 -0.004211 0.002728
# 4 0.000768 -0.000333 -0.001809 0.022521 -0.000336 0.000200
# 5 -0.002640 0.001120 -0.004211 -0.000336 0.032689 -0.001904
# 6 -0.007749 0.000848 0.002728 0.000200 -0.001904 0.023812
#
#
# Mechanical properties :
#
#
# Convention : Reuss Voigt Hill
#
# Bulk Modulus (GPa) = 57.61746 74.64297 66.13021
# Shear Modulus (GPa) = 34.72285 41.77633 38.24959
#
# Velocity S-wave (km/s) = 3.92543 4.30571 4.11996
# Velocity P-wave (km/s) = 6.79076 7.60548 7.20964
#
# Compressibility (1/GPa) = 0.01735585
#
# Stress axis : x y z
#
# Youngs Moduli (GPa) = 47.88378 127.51884 104.74936
#
# Poissons Ratio (x) = 0.56298 0.45979
# Poissons Ratio (y) = 0.21140 0.17325
# Poissons Ratio (z) = 0.21018 0.21091
#
# Static dielectric constant tensor:
#      x y z
#    x 4.643660 -0.201250 0.119890 
#    y -0.201250 4.933930 -0.049360 
#    z 0.119890 -0.049360 4.104820 
# 
# 
# High freq. dielectric constant tensor:
#      x y z
#    x 1.890320 0.015350 0.003990 
#    y 0.015350 1.907980 0.000270 
#    z 0.003990 0.000270 1.891590 
# 
# From -- ./inp_files/601464.got.cif
#   From: 2010.06.25/outbox.cif.g09.slc.cpg/sg2_301_cif.got.tgz:601464.got - 2010.06.27 13:26:56.
