data_PCOD8034688
_publ_section_title
;
Structure prediction by ZEFSAII (Michael W. Deem and Ramdas Pophale) SiO2 
 PCOD8034688
Probable space group: P -1
;
_chemical_formula_sum "Si O2"
_cell_formula_units_Z 12
_cell_length_a 22.752320
_cell_length_b 9.073032
_cell_length_c 14.722804
_cell_angle_alpha 32.051088
_cell_angle_beta 21.682759
_cell_angle_gamma 31.800925
_cell_volume 565.037629
_symmetry_space_group_name_H-M "P -1"
_symmetry_group_IT_number 2
_symmetry_cell_setting 'triclinic'
loop_
_space_group_symop_operation_xyz
x,y,z
-x,-y,-z
loop_
_atom_site_type_symbol
_atom_site_label
_atom_site_fract_x
_atom_site_fract_y
_atom_site_fract_z
Si Si1 0.727717 0.554784 0.890110
Si Si2 0.943833 0.969102 0.336346
Si Si3 0.905109 0.237609 0.438025
Si Si4 0.942443 0.285496 0.996368
Si Si5 0.529603 0.308734 0.968670
Si Si6 0.604819 0.653260 0.210558
O O1 0.797190 0.829522 0.639899
O O2 0.615015 0.535379 0.976406
O O3 0.884898 0.263148 0.823713
O O4 0.608241 0.587682 0.132235
O O5 0.987893 0.123213 0.281657
O O6 0.880100 0.205016 0.224661
O O7 0.711318 0.270999 0.687504
O O8 0.000000 0.000000 0.500000
O O9 0.912871 0.562636 0.278966
O O10 0.795582 0.543922 0.026727
O O11 0.000000 0.000000 0.000000
O O12 0.517673 0.994036 0.176589
O O13 0.500000 0.500000 0.000000
O O14 0.500000 0.500000 0.500000
#
# Coordination Sequence:
#
# PCOD8034688 Si02
#       6
#     2   2   2   2   2   2
#     4  11  24  46  72 104 137 187 233 282 357 407
#     4  11  24  45  75 101 140 183 234 290 341 419
#     4  12  25  47  71 102 142 183 237 287 345 414
#     4  12  26  46  71 105 140 184 233 285 351 412
#     4  12  27  44  70 103 140 185 233 287 346 414
#     4  12  26  46  71 102 140 183 232 288 346 417
#
# _framework density 21.237525000000002
#
# number of rings (size 3 to 8) (size 9 to 14) (size 15 to 20)
#    0.000    0.333    5.000    3.000    9.333    0.000 
#    0.000    1.667    0.000    0.000    0.000    0.000 
#    0.000    0.000    0.000    0.000    0.000    0.000 
#
# Total GULP energy -148858.172615 kJ/mol
# GULP energy per Si atom -12404.847718 kJ/mol
# Density = 2.118919 g / cm^3
# Si number density = 21.237525 Si / 1000 Ang^3
#
#
#
# Elastic Constant Matrix: (Units=GPa)
#
#
# Indices 1 2 3 4 5 6 
#
# 1 158.5064 43.1459 34.1119 -5.0475 14.7069 13.5503
# 2 43.1459 81.2982 24.8756 -6.3392 8.8954 22.9647
# 3 34.1119 24.8756 112.9856 -11.9896 7.6649 14.3859
# 4 -5.0475 -6.3392 -11.9896 33.8673 -1.3867 -4.6607
# 5 14.7069 8.8954 7.6649 -1.3867 42.9376 5.1990
# 6 13.5503 22.9647 14.3859 -4.6607 5.1990 45.9561
#
#
#
# Elastic Compliance Matrix: (Units=1/GPa)
#
#
# Indices 1 2 3 4 5 6 
#
# 1 0.007722 -0.003504 -0.001469 -0.000078 -0.001673 0.000116
# 2 -0.003504 0.016717 -0.001591 0.001091 -0.001147 -0.006582
# 3 -0.001469 -0.001591 0.010197 0.002845 -0.000702 -0.001596
# 4 -0.000078 0.001091 0.002845 0.030967 0.000085 0.001718
# 5 -0.001673 -0.001147 -0.000702 0.000085 0.024406 -0.001466
# 6 0.000116 -0.006582 -0.001596 0.001718 -0.001466 0.025855
#
#
# Mechanical properties :
#
#
# Convention : Reuss Voigt Hill
#
# Bulk Modulus (GPa) = 46.49638 61.89524 54.19581
# Shear Modulus (GPa) = 36.72137 41.26266 38.99202
#
# Velocity S-wave (km/s) = 4.16273 4.41263 4.28950
# Velocity P-wave (km/s) = 6.71159 7.42760 7.07866
#
# Compressibility (1/GPa) = 0.02150705
#
# Stress axis : x y z
#
# Youngs Moduli (GPa) = 129.50327 59.82075 98.06529
#
# Poissons Ratio (x) = 0.20962 0.14409
# Poissons Ratio (y) = 0.45380 0.15601
# Poissons Ratio (z) = 0.19028 0.09517
#
# Static dielectric constant tensor:
#      x y z
#    x 4.004810 -0.018100 0.004670 
#    y -0.018100 4.054760 -0.005550 
#    z 0.004670 -0.005550 3.846500 
# 
# 
# High freq. dielectric constant tensor:
#      x y z
#    x 1.851170 0.000200 0.004010 
#    y 0.000200 1.839060 -0.001290 
#    z 0.004010 -0.001290 1.831400 
# 
# From -- ./inp_files/144508.got.cif
#   From: 2010.06.25/outbox.cif.g09.slc.cpg/sg2_73_cif.got.tgz:144508.got - 2010.06.27 13:26:56.
