data_PCOD8034484
_publ_section_title
;
Structure prediction by ZEFSAII (Michael W. Deem and Ramdas Pophale) SiO2 
 PCOD8034484
Probable space group: P -1
;
_chemical_formula_sum "Si O2"
_cell_formula_units_Z 16
_cell_length_a 9.110050
_cell_length_b 19.669835
_cell_length_c 11.343494
_cell_angle_alpha 41.237351
_cell_angle_beta 138.381000
_cell_angle_gamma 144.121273
_cell_volume 733.253565
_symmetry_space_group_name_H-M "P -1"
_symmetry_group_IT_number 2
_symmetry_cell_setting 'triclinic'
loop_
_space_group_symop_operation_xyz
x,y,z
-x,-y,-z
loop_
_atom_site_type_symbol
_atom_site_label
_atom_site_fract_x
_atom_site_fract_y
_atom_site_fract_z
Si Si1 0.701253 0.377800 0.002198
Si Si2 0.903739 0.856375 0.627764
Si Si3 0.832779 0.234977 0.628808
Si Si4 0.930666 0.037779 0.027203
Si Si5 0.352342 0.804756 0.993242
Si Si6 0.406751 0.190769 0.275593
Si Si7 0.393005 0.696751 0.389750
Si Si8 0.640138 0.538937 0.408855
O O1 0.630577 0.270998 0.004750
O O2 0.513048 0.426230 0.816023
O O3 0.622748 0.313252 0.168587
O O4 0.000000 0.500000 0.000000
O O5 0.739868 0.781615 0.745641
O O6 0.712766 0.794232 0.479310
O O7 0.000000 0.000000 0.500000
O O8 0.153857 0.844461 0.785892
O O9 0.577417 0.147613 0.503784
O O10 0.771642 0.307747 0.591431
O O11 0.066733 0.338431 0.550638
O O12 0.926019 0.158743 0.852047
O O13 0.171421 0.072983 0.214700
O O14 0.642084 0.926479 0.043243
O O15 0.000000 0.000000 0.000000
O O16 0.272909 0.725426 0.167936
O O17 0.338447 0.563293 0.509867
O O18 0.500000 0.500000 0.500000
#
# Coordination Sequence:
#
# PCOD8034484 Si02
#       8
#     2   2   2   2   2   2   2   2
#     4  12  25  46  67 103 143 184 236 288 349 417
#     4  11  25  47  69 106 142 181 235 289 352 424
#     4  11  25  45  68 100 139 181 230 283 350 415
#     4  12  24  45  68 104 139 178 234 287 347 415
#     4  12  24  44  73 101 138 185 228 287 352 413
#     4  11  24  45  69 100 139 181 228 290 347 406
#     4  11  25  44  70 102 138 184 231 286 348 415
#     4  12  23  45  69 100 140 183 234 288 341 416
#
# _framework density 21.820554000000001
#
# number of rings (size 3 to 8) (size 9 to 14) (size 15 to 20)
#    0.000    0.500    3.750    4.875    0.000    2.000 
#    2.250    1.875    0.000    0.000    0.000    0.000 
#    0.000    0.000    0.000    0.000    0.000    0.000 
#
# Total GULP energy -198338.912040 kJ/mol
# GULP energy per Si atom -12396.182002 kJ/mol
# Density = 2.177089 g / cm^3
# Si number density = 21.820554 Si / 1000 Ang^3
#
#
#
# Elastic Constant Matrix: (Units=GPa)
#
#
# Indices 1 2 3 4 5 6 
#
# 1 106.0733 26.9413 35.4340 -5.8716 -2.8975 7.4164
# 2 26.9413 117.0353 35.7071 -0.5203 10.0239 7.9990
# 3 35.4340 35.7071 114.3550 3.1282 12.0016 -8.3396
# 4 -5.8716 -0.5203 3.1282 38.5001 0.5279 -0.2322
# 5 -2.8975 10.0239 12.0016 0.5279 38.2497 0.1815
# 6 7.4164 7.9990 -8.3396 -0.2322 0.1815 39.5200
#
#
#
# Elastic Compliance Matrix: (Units=1/GPa)
#
#
# Indices 1 2 3 4 5 6 
#
# 1 0.011349 -0.001558 -0.003517 0.001948 0.002357 -0.002556
# 2 -0.001558 0.010021 -0.002615 0.000123 -0.001915 -0.002278
# 3 -0.003517 -0.002615 0.011278 -0.001424 -0.003117 0.003575
# 4 0.001948 0.000123 -0.001424 0.026382 0.000201 -0.000537
# 5 0.002357 -0.001915 -0.003117 0.000201 0.027804 -0.000839
# 6 -0.002556 -0.002278 0.003575 -0.000537 -0.000839 0.027000
#
#
# Mechanical properties :
#
#
# Convention : Reuss Voigt Hill
#
# Bulk Modulus (GPa) = 57.91084 59.29205 58.60144
# Shear Modulus (GPa) = 37.04543 39.21269 38.12906
#
# Velocity S-wave (km/s) = 4.12482 4.24377 4.18472
# Velocity P-wave (km/s) = 7.02017 7.15851 7.08968
#
# Compressibility (1/GPa) = 0.01726792
#
# Stress axis : x y z
#
# Youngs Moduli (GPa) = 88.11371 99.78940 88.66944
#
# Poissons Ratio (x) = 0.15547 0.31187
# Poissons Ratio (y) = 0.13728 0.23186
# Poissons Ratio (z) = 0.30991 0.26094
#
# Static dielectric constant tensor:
#      x y z
#    x 4.145080 0.262010 0.069550 
#    y 0.262010 4.438160 0.335250 
#    z 0.069550 0.335250 4.230850 
# 
# 
# High freq. dielectric constant tensor:
#      x y z
#    x 1.867900 0.010070 0.001290 
#    y 0.010070 1.860770 0.011710 
#    z 0.001290 0.011710 1.868360 
# 
# From -- ./inp_files/402906.got.cif
#   From: 2010.06.25/outbox.cif.g09.slc.cpg/sg2_202_cif.got.tgz:402906.got - 2010.06.27 13:26:56.
