data_PCOD8034097
_publ_section_title
;
Structure prediction by ZEFSAII (Michael W. Deem and Ramdas Pophale) SiO2 
 PCOD8034097
Probable space group: P -1
;
_chemical_formula_sum "Si O2"
_cell_formula_units_Z 14
_cell_length_a 11.962067
_cell_length_b 9.683200
_cell_length_c 19.300052
_cell_angle_alpha 43.264961
_cell_angle_beta 150.723052
_cell_angle_gamma 144.932200
_cell_volume 627.312999
_symmetry_space_group_name_H-M "P -1"
_symmetry_group_IT_number 2
_symmetry_cell_setting 'triclinic'
loop_
_space_group_symop_operation_xyz
x,y,z
-x,-y,-z
loop_
_atom_site_type_symbol
_atom_site_label
_atom_site_fract_x
_atom_site_fract_y
_atom_site_fract_z
Si Si1 0.851579 0.358047 0.156641
Si Si2 0.825447 0.028338 0.628885
Si Si3 0.405270 0.452209 0.387761
Si Si4 0.455564 0.313413 0.842190
Si Si5 0.509939 0.869615 0.212787
Si Si6 0.473595 0.178664 0.324109
Si Si7 0.830606 0.117021 0.857261
O O1 0.094673 0.377240 0.236859
O O2 0.972567 0.614729 0.166231
O O3 0.754574 0.150191 0.237890
O O4 0.598195 0.299478 0.993081
O O5 0.751139 0.216569 0.492058
O O6 0.132327 0.117440 0.743335
O O7 0.595660 0.770145 0.564258
O O8 0.782459 0.993554 0.700947
O O9 0.500000 0.500000 0.500000
O O10 0.601290 0.706118 0.360665
O O11 0.578892 0.241540 0.871892
O O12 0.505109 0.572990 0.764414
O O13 0.267064 0.858945 0.128148
O O14 0.421025 0.046029 0.270327
O O15 0.000000 0.000000 0.000000
#
# Coordination Sequence:
#
# PCOD8034097 Si02
#       7
#     2   2   2   2   2   2   2
#     4  11  25  43  71 105 136 176 232 281 346 405
#     4  11  24  43  72  96 138 183 232 280 343 404
#     4  11  24  45  68 102 140 178 227 279 343 412
#     4  12  24  44  73 105 136 175 235 288 341 409
#     4  11  25  43  71 104 135 179 228 288 343 400
#     4  11  25  47  67  99 140 186 228 282 341 409
#     4  11  25  45  68  98 141 184 223 277 347 411
#
# _framework density 22.317409000000001
#
# number of rings (size 3 to 8) (size 9 to 14) (size 15 to 20)
#    0.000    0.857    4.286    2.571    2.000    4.571 
#    2.571    0.000    0.000    0.000    0.000    0.000 
#    0.000    0.000    0.000    0.000    0.000    0.000 
#
# Total GULP energy -173547.241615 kJ/mol
# GULP energy per Si atom -12396.231544 kJ/mol
# Density = 2.226661 g / cm^3
# Si number density = 22.317409 Si / 1000 Ang^3
#
#
#
# Elastic Constant Matrix: (Units=GPa)
#
#
# Indices 1 2 3 4 5 6 
#
# 1 106.6704 42.9429 34.5343 2.8371 1.1325 -5.8208
# 2 42.9429 158.4649 29.1453 -14.5490 -2.2276 5.3352
# 3 34.5343 29.1453 83.4823 -3.8204 2.2815 6.0990
# 4 2.8371 -14.5490 -3.8204 34.1933 -1.0219 -6.3231
# 5 1.1325 -2.2276 2.2815 -1.0219 19.4299 -6.7867
# 6 -5.8208 5.3352 6.0990 -6.3231 -6.7867 39.4764
#
#
#
# Elastic Compliance Matrix: (Units=1/GPa)
#
#
# Indices 1 2 3 4 5 6 
#
# 1 0.012078 -0.002760 -0.004324 -0.002187 0.000251 0.002515
# 2 -0.002760 0.007645 -0.001374 0.003272 0.001197 -0.000498
# 3 -0.004324 -0.001374 0.014575 0.000763 -0.002637 -0.003035
# 4 -0.002187 0.003272 0.000763 0.031921 0.003798 0.004883
# 5 0.000251 0.001197 -0.002637 0.003798 0.055758 0.010477
# 6 0.002515 -0.000498 -0.003035 0.004883 0.010477 0.028822
#
#
# Mechanical properties :
#
#
# Convention : Reuss Voigt Hill
#
# Bulk Modulus (GPa) = 57.52385 62.42918 59.97651
# Shear Modulus (GPa) = 28.81688 34.75293 31.78490
#
# Velocity S-wave (km/s) = 3.59727 3.95043 3.77798
# Velocity P-wave (km/s) = 6.56392 6.98870 6.77964
#
# Compressibility (1/GPa) = 0.01738409
#
# Stress axis : x y z
#
# Youngs Moduli (GPa) = 82.79386 130.80156 68.60830
#
# Poissons Ratio (x) = 0.36099 0.29663
# Poissons Ratio (y) = 0.22850 0.09427
# Poissons Ratio (z) = 0.35796 0.17972
#
# Static dielectric constant tensor:
#      x y z
#    x 4.089400 -0.073140 -0.108660 
#    y -0.073140 4.543500 -0.234600 
#    z -0.108660 -0.234600 3.874550 
# 
# 
# High freq. dielectric constant tensor:
#      x y z
#    x 1.868920 -0.008280 -0.003650 
#    y -0.008280 1.903330 -0.023140 
#    z -0.003650 -0.023140 1.867930 
# 
# From -- ./inp_files/566605.got.cif
#   From: 2010.06.25/outbox.cif.g09.slc.cpg/sg2_284_cif.got.tgz:566605.got - 2010.06.27 13:26:56.
