data_PCOD8034595
_publ_section_title
;
Structure prediction by ZEFSAII (Michael W. Deem and Ramdas Pophale) SiO2 
 PCOD8034595
Probable space group: P -1
;
_chemical_formula_sum "Si O2"
_cell_formula_units_Z 16
_cell_length_a 9.726015
_cell_length_b 9.506885
_cell_length_c 12.543380
_cell_angle_alpha 49.100783
_cell_angle_beta 65.374201
_cell_angle_gamma 52.540360
_cell_volume 695.545589
_symmetry_space_group_name_H-M "P -1"
_symmetry_group_IT_number 2
_symmetry_cell_setting 'triclinic'
loop_
_space_group_symop_operation_xyz
x,y,z
-x,-y,-z
loop_
_atom_site_type_symbol
_atom_site_label
_atom_site_fract_x
_atom_site_fract_y
_atom_site_fract_z
Si Si1 0.888572 0.824870 0.440848
Si Si2 0.487401 0.550227 0.204685
Si Si3 0.712919 0.665213 0.720008
Si Si4 0.461679 0.094547 0.079138
Si Si5 0.096281 0.343946 0.143790
Si Si6 0.276736 0.593580 0.442256
Si Si7 0.609942 0.896605 0.337660
Si Si8 0.186839 0.760985 0.626200
O O1 0.841852 0.653741 0.591687
O O2 0.764712 0.923505 0.328773
O O3 0.085819 0.695073 0.403346
O O4 0.875010 0.990851 0.455817
O O5 0.377831 0.468961 0.214564
O O6 0.387057 0.661365 0.293470
O O7 0.674519 0.360794 0.267204
O O8 0.519439 0.695053 0.038846
O O9 0.824779 0.558251 0.843761
O O10 0.573303 0.917983 0.650556
O O11 0.268035 0.138062 0.146855
O O12 0.608089 0.932947 0.193373
O O13 0.500000 0.000000 0.000000
O O14 0.975111 0.276741 0.281442
O O15 0.000000 0.500000 0.000000
O O16 0.371153 0.335476 0.534223
O O17 0.268649 0.681076 0.521498
#
# Coordination Sequence:
#
# PCOD8034595 Si02
#       8
#     2   2   2   2   2   2   2   2
#     4  12  24  44  70 108 143 183 245 299 357 421
#     4  12  25  46  74 107 143 189 241 294 364 431
#     4  11  24  45  73 101 145 187 239 296 363 427
#     4  11  27  47  72 105 149 187 239 294 361 430
#     4  11  25  46  72 100 140 195 236 292 358 430
#     4  12  26  43  73 108 142 188 241 302 354 418
#     4  11  24  45  72 100 144 192 235 294 359 423
#     4  12  25  45  74 106 144 188 245 295 358 430
#
# _framework density 23.003523999999999
#
# number of rings (size 3 to 8) (size 9 to 14) (size 15 to 20)
#    0.000    0.500    5.000    3.000    1.750    4.000 
#    0.000    0.625    0.000    0.000    0.000    0.000 
#    0.000    0.000    0.000    0.000    0.000    0.000 
#
# Total GULP energy -198330.132384 kJ/mol
# GULP energy per Si atom -12395.633274 kJ/mol
# Density = 2.295117 g / cm^3
# Si number density = 23.003524 Si / 1000 Ang^3
#
#
#
# Elastic Constant Matrix: (Units=GPa)
#
#
# Indices 1 2 3 4 5 6 
#
# 1 131.4123 12.8148 25.2882 6.1302 21.6402 -1.8862
# 2 12.8148 59.6209 -2.5296 8.7172 4.3722 5.9568
# 3 25.2882 -2.5296 65.4584 12.0580 21.3804 -4.8692
# 4 6.1302 8.7172 12.0580 36.8732 -1.6038 4.4297
# 5 21.6402 4.3722 21.3804 -1.6038 49.1098 3.3864
# 6 -1.8862 5.9568 -4.8692 4.4297 3.3864 37.7037
#
#
#
# Elastic Compliance Matrix: (Units=1/GPa)
#
#
# Indices 1 2 3 4 5 6 
#
# 1 0.008725 -0.001787 -0.002429 -0.000434 -0.002690 0.000698
# 2 -0.001787 0.018324 0.002839 -0.004832 -0.002109 -0.001861
# 3 -0.002429 0.002839 0.020968 -0.007973 -0.008838 0.003868
# 4 -0.000434 -0.004832 -0.007973 0.031719 0.005439 -0.004503
# 5 -0.002690 -0.002109 -0.008838 0.005439 0.026032 -0.003920
# 6 0.000698 -0.001861 0.003868 -0.004503 -0.003920 0.028232
#
#
# Mechanical properties :
#
#
# Convention : Reuss Voigt Hill
#
# Bulk Modulus (GPa) = 22.09299 36.40426 29.24863
# Shear Modulus (GPa) = 32.92891 39.46521 36.19706
#
# Velocity S-wave (km/s) = 3.78758 4.14649 3.97110
# Velocity P-wave (km/s) = 5.36216 6.22771 5.81107
#
# Compressibility (1/GPa) = 0.04526322
#
# Stress axis : x y z
#
# Youngs Moduli (GPa) = 114.61807 54.57244 47.69087
#
# Poissons Ratio (x) = 0.09753 0.11584
# Poissons Ratio (y) = 0.20485 -0.13540
# Poissons Ratio (z) = 0.27840 -0.15494
#
# Static dielectric constant tensor:
#      x y z
#    x 4.519540 -0.125070 0.116520 
#    y -0.125070 4.058060 0.382100 
#    z 0.116520 0.382100 3.911260 
# 
# 
# High freq. dielectric constant tensor:
#      x y z
#    x 1.934490 -0.002240 0.011110 
#    y -0.002240 1.901660 0.013460 
#    z 0.011110 0.013460 1.903690 
# 
# From -- ./inp_files/381312.got.cif
#   From: 2010.06.25/outbox.cif.g09.slc.cpg/sg2_191_cif.got.tgz:381312.got - 2010.06.27 13:26:56.
