data_PCOD8034239
_publ_section_title
;
Structure prediction by ZEFSAII (Michael W. Deem and Ramdas Pophale) SiO2 
 PCOD8034239
Probable space group: P -1
;
_chemical_formula_sum "Si O2"
_cell_formula_units_Z 16
_cell_length_a 11.469190
_cell_length_b 11.529219
_cell_length_c 9.226977
_cell_angle_alpha 41.658690
_cell_angle_beta 121.114448
_cell_angle_gamma 110.743096
_cell_volume 693.222146
_symmetry_space_group_name_H-M "P -1"
_symmetry_group_IT_number 2
_symmetry_cell_setting 'triclinic'
loop_
_space_group_symop_operation_xyz
x,y,z
-x,-y,-z
loop_
_atom_site_type_symbol
_atom_site_label
_atom_site_fract_x
_atom_site_fract_y
_atom_site_fract_z
Si Si1 0.242892 0.290071 0.473840
Si Si2 0.663307 0.819630 0.670352
Si Si3 0.367449 0.864878 0.445327
Si Si4 0.799513 0.320351 0.911121
Si Si5 0.363917 0.995681 0.009035
Si Si6 0.088475 0.730345 0.425480
Si Si7 0.040673 0.822535 0.611456
Si Si8 0.063730 0.340758 0.874748
O O1 0.317525 0.191313 0.479837
O O2 0.282821 0.490781 0.332454
O O3 0.081414 0.306233 0.330073
O O4 0.274293 0.173194 0.746380
O O5 0.511228 0.752298 0.667258
O O6 0.664349 0.018848 0.540502
O O7 0.783126 0.708755 0.931453
O O8 0.387064 0.992282 0.199996
O O9 0.243228 0.738917 0.457060
O O10 0.708622 0.180409 0.910398
O O11 0.951653 0.311197 0.951823
O O12 0.823784 0.271868 0.141823
O O13 0.500000 0.000000 0.000000
O O14 0.066259 0.866542 0.417180
O O15 0.061489 0.542613 0.646518
O O16 0.979634 0.772287 0.188017
O O17 0.000000 0.000000 0.500000
#
# Coordination Sequence:
#
# PCOD8034239 Si02
#       8
#     2   2   2   2   2   2   2   2
#     4  12  24  45  72 106 140 184 237 300 353 417
#     4  11  25  45  70 101 144 188 232 292 354 425
#     4  11  26  47  69  99 146 188 236 288 357 430
#     4  12  25  44  74 107 142 182 241 302 351 421
#     4  12  27  48  72 101 140 191 245 290 354 427
#     4  11  25  42  70 105 143 182 235 294 352 424
#     4  12  23  40  71 108 142 183 232 295 358 414
#     4  11  24  44  69 105 141 180 239 295 352 418
#
# _framework density 23.080625000000001
#
# number of rings (size 3 to 8) (size 9 to 14) (size 15 to 20)
#    0.000    0.500    6.250    1.875    1.750    1.500 
#    0.000    0.000    0.000    0.000    0.000    0.000 
#    0.000    0.000    0.000    0.000    0.000    0.000 
#
# Total GULP energy -198361.592364 kJ/mol
# GULP energy per Si atom -12397.599523 kJ/mol
# Density = 2.302809 g / cm^3
# Si number density = 23.080625 Si / 1000 Ang^3
#
#
#
# Elastic Constant Matrix: (Units=GPa)
#
#
# Indices 1 2 3 4 5 6 
#
# 1 101.9086 37.5172 27.9127 4.0469 4.8688 0.5220
# 2 37.5172 94.5721 60.3308 6.5137 1.3499 -7.6309
# 3 27.9127 60.3308 104.0180 4.1104 5.2537 -3.1803
# 4 4.0469 6.5137 4.1104 31.9848 0.4192 -6.7341
# 5 4.8688 1.3499 5.2537 0.4192 32.0546 6.4747
# 6 0.5220 -7.6309 -3.1803 -6.7341 6.4747 42.7327
#
#
#
# Elastic Compliance Matrix: (Units=1/GPa)
#
#
# Indices 1 2 3 4 5 6 
#
# 1 0.011630 -0.004235 -0.000597 -0.000695 -0.001309 -0.000854
# 2 -0.004235 0.018658 -0.009604 -0.001564 0.000993 0.002272
# 3 -0.000597 -0.009604 0.015436 0.000020 -0.001983 -0.000255
# 4 -0.000695 -0.001564 0.000020 0.032757 -0.001288 0.005088
# 5 -0.001309 0.000993 -0.001983 -0.001288 0.032729 -0.005116
# 6 -0.000854 0.002272 -0.000255 0.005088 -0.005116 0.025375
#
#
# Mechanical properties :
#
#
# Convention : Reuss Voigt Hill
#
# Bulk Modulus (GPa) = 59.34285 61.33559 60.33922
# Shear Modulus (GPa) = 29.22720 33.00362 31.11541
#
# Velocity S-wave (km/s) = 3.56238 3.78554 3.67566
# Velocity P-wave (km/s) = 6.53358 6.76308 6.64932
#
# Compressibility (1/GPa) = 0.01685123
#
# Stress axis : x y z
#
# Youngs Moduli (GPa) = 85.98545 53.59761 64.78461
#
# Poissons Ratio (x) = 0.22700 0.03867
# Poissons Ratio (y) = 0.36416 0.62218
# Poissons Ratio (z) = 0.05133 0.51474
#
# Static dielectric constant tensor:
#      x y z
#    x 4.398330 -0.039040 -0.055960 
#    y -0.039040 4.362420 0.390850 
#    z -0.055960 0.390850 4.250310 
# 
# 
# High freq. dielectric constant tensor:
#      x y z
#    x 1.915890 -0.000290 -0.001190 
#    y -0.000290 1.914290 0.020000 
#    z -0.001190 0.020000 1.907410 
# 
# From -- ./inp_files/261725.got.cif
#   From: 2010.06.25/outbox.cif.g09.slc.cpg/sg2_131_cif.got.tgz:261725.got - 2010.06.27 13:26:56.
