data_PCOD8034336
_publ_section_title
;
Structure prediction by ZEFSAII (Michael W. Deem and Ramdas Pophale) SiO2 
 PCOD8034336
Probable space group: P -1
;
_chemical_formula_sum "Si O2"
_cell_formula_units_Z 14
_cell_length_a 10.042794
_cell_length_b 5.077421
_cell_length_c 19.477601
_cell_angle_alpha 84.644758
_cell_angle_beta 143.343451
_cell_angle_gamma 98.333819
_cell_volume 586.248343
_symmetry_space_group_name_H-M "P -1"
_symmetry_group_IT_number 2
_symmetry_cell_setting 'triclinic'
loop_
_space_group_symop_operation_xyz
x,y,z
-x,-y,-z
loop_
_atom_site_type_symbol
_atom_site_label
_atom_site_fract_x
_atom_site_fract_y
_atom_site_fract_z
Si Si1 0.747148 0.204813 0.284261
Si Si2 0.032833 0.550491 0.932762
Si Si3 0.827719 0.033692 0.781207
Si Si4 0.336696 0.096024 0.613965
Si Si5 0.981473 0.895870 0.288903
Si Si6 0.515541 0.557101 0.085248
Si Si7 0.121036 0.592862 0.468581
O O1 0.641070 0.953943 0.293236
O O2 0.553274 0.298594 0.153222
O O3 0.865351 0.445014 0.376981
O O4 0.957831 0.137934 0.325925
O O5 0.966307 0.285405 0.867934
O O6 0.867811 0.766636 0.842959
O O7 0.000000 0.500000 0.000000
O O8 0.287851 0.662146 0.015726
O O9 0.904972 0.999791 0.736277
O O10 0.564475 0.049667 0.671330
O O11 0.140781 0.868889 0.513021
O O12 0.298359 0.395637 0.570092
O O13 0.722041 0.781654 0.174637
O O14 0.133185 0.683647 0.390908
O O15 0.500000 0.500000 0.000000
#
# Coordination Sequence:
#
# PCOD8034336 Si02
#       7
#     2   2   2   2   2   2   2
#     4  11  25  43  73 106 135 179 239 283 340 420
#     4  12  27  47  72 101 141 184 233 284 344 404
#     4  12  28  47  68 104 142 181 233 285 337 420
#     4  12  26  45  73 100 143 183 227 288 348 400
#     4  11  26  44  72 105 140 178 238 279 343 420
#     4  11  24  44  72 102 140 185 225 288 348 403
#     4  11  25  46  72 104 138 183 229 287 346 407
#
# _framework density 23.880662999999998
#
# number of rings (size 3 to 8) (size 9 to 14) (size 15 to 20)
#    0.000    0.571    2.857    3.857   10.000    2.286 
#    0.000    0.000    0.000    0.000    0.000    0.000 
#    0.000    0.000    0.000    0.000    0.000    0.000 
#
# Total GULP energy -173567.630439 kJ/mol
# GULP energy per Si atom -12397.687888 kJ/mol
# Density = 2.382631 g / cm^3
# Si number density = 23.880663 Si / 1000 Ang^3
#
#
#
# Elastic Constant Matrix: (Units=GPa)
#
#
# Indices 1 2 3 4 5 6 
#
# 1 145.3364 -13.0647 12.2759 12.1761 -16.4129 -4.7751
# 2 -13.0647 113.5930 31.2067 -19.1511 -8.3844 -6.4904
# 3 12.2759 31.2067 93.4835 -23.7495 -5.6594 2.7857
# 4 12.1761 -19.1511 -23.7495 38.7864 -3.8586 -1.6398
# 5 -16.4129 -8.3844 -5.6594 -3.8586 14.2958 -9.7361
# 6 -4.7751 -6.4904 2.7857 -1.6398 -9.7361 32.4727
#
#
#
# Elastic Compliance Matrix: (Units=1/GPa)
#
#
# Indices 1 2 3 4 5 6 
#
# 1 0.009465 0.003103 -0.001583 -0.000432 0.016827 0.007171
# 2 0.003103 0.012595 -0.002291 0.005964 0.017612 0.008752
# 3 -0.001583 -0.002291 0.014103 0.008461 0.004652 -0.000079
# 4 -0.000432 0.005964 0.008461 0.036644 0.022338 0.008951
# 5 0.016827 0.017612 0.004652 0.022338 0.140800 0.048939
# 6 0.007171 0.008752 -0.000079 0.008951 0.048939 0.048731
#
#
# Mechanical properties :
#
#
# Convention : Reuss Voigt Hill
#
# Bulk Modulus (GPa) = 28.88525 45.91653 37.40089
# Shear Modulus (GPa) = 18.15396 38.57730 28.36563
#
# Velocity S-wave (km/s) = 2.76015 4.02359 3.45020
# Velocity P-wave (km/s) = 4.72015 6.39179 5.61849
#
# Compressibility (1/GPa) = 0.03461975
#
# Stress axis : x y z
#
# Youngs Moduli (GPa) = 105.64867 79.39493 70.90539
#
# Poissons Ratio (x) = -0.24633 0.11227
# Poissons Ratio (y) = -0.32779 0.16247
# Poissons Ratio (z) = 0.16728 0.18192
#
# Static dielectric constant tensor:
#      x y z
#    x 4.269280 -0.006250 -0.300650 
#    y -0.006250 4.537080 0.053520 
#    z -0.300650 0.053520 4.799740 
# 
# 
# High freq. dielectric constant tensor:
#      x y z
#    x 1.942370 0.001250 -0.021570 
#    y 0.001250 1.956050 -0.011040 
#    z -0.021570 -0.011040 1.961530 
# 
# From -- ./inp_files/83346.got.cif
#   From: 2010.06.25/outbox.cif.g09.slc.cpg/sg2_42_cif.got.tgz:83346.got - 2010.06.27 13:26:56.
