data_PCOD8034372
_publ_section_title
;
Structure prediction by ZEFSAII (Michael W. Deem and Ramdas Pophale) SiO2 
 PCOD8034372
Probable space group: P -1
;
_chemical_formula_sum "Si O2"
_cell_formula_units_Z 16
_cell_length_a 11.644782
_cell_length_b 14.369624
_cell_length_c 14.288716
_cell_angle_alpha 30.406409
_cell_angle_beta 56.765206
_cell_angle_gamma 38.785886
_cell_volume 697.446575
_symmetry_space_group_name_H-M "P -1"
_symmetry_group_IT_number 2
_symmetry_cell_setting 'triclinic'
loop_
_space_group_symop_operation_xyz
x,y,z
-x,-y,-z
loop_
_atom_site_type_symbol
_atom_site_label
_atom_site_fract_x
_atom_site_fract_y
_atom_site_fract_z
Si Si1 0.658737 0.650574 0.935040
Si Si2 0.661269 0.189458 0.171386
Si Si3 0.470321 0.478790 0.422628
Si Si4 0.956263 0.994078 0.917144
Si Si5 0.196585 0.179802 0.407181
Si Si6 0.582058 0.982955 0.842949
Si Si7 0.212085 0.799800 0.623028
Si Si8 0.176881 0.251826 0.883057
O O1 0.426114 0.825867 0.868968
O O2 0.740325 0.680964 0.781625
O O3 0.687788 0.739179 0.938266
O O4 0.778670 0.342691 0.166347
O O5 0.871435 0.081445 0.155443
O O6 0.679827 0.006043 0.396816
O O7 0.500000 0.500000 0.000000
O O8 0.500000 0.500000 0.500000
O O9 0.625562 0.431214 0.325421
O O10 0.250084 0.725395 0.270730
O O11 0.516795 0.222229 0.606513
O O12 0.948820 0.782756 0.085215
O O13 0.000000 0.000000 0.000000
O O14 0.962898 0.431291 0.321901
O O15 0.239976 0.983630 0.480648
O O16 0.382141 0.090282 0.879590
O O17 0.750591 0.879403 0.932280
O O18 0.000000 0.000000 0.500000
#
# Coordination Sequence:
#
# PCOD8034372 Si02
#       8
#     2   2   2   2   2   2   2   2
#     4  12  26  49  73 107 150 195 254 310 369 451
#     4  12  26  48  76 106 153 199 247 305 383 451
#     4  12  26  47  75 109 154 200 253 309 379 447
#     4  12  27  47  78 111 150 201 253 313 379 449
#     4  12  27  46  73 110 150 195 250 305 383 446
#     4  11  24  44  73 103 150 192 248 310 373 443
#     4  12  28  45  76 111 153 196 248 311 378 446
#     4  11  25  44  70 110 147 192 247 310 373 450
#
# _framework density 22.940826000000001
#
# number of rings (size 3 to 8) (size 9 to 14) (size 15 to 20)
#    0.000    0.250    3.750    4.875    7.000    2.000 
#    0.000    2.500    0.000    0.000    0.000    0.000 
#    0.000    0.000    0.000    0.000    0.000    0.000 
#
# Total GULP energy -198353.522229 kJ/mol
# GULP energy per Si atom -12397.095139 kJ/mol
# Density = 2.288861 g / cm^3
# Si number density = 22.940826 Si / 1000 Ang^3
#
#
#
# Elastic Constant Matrix: (Units=GPa)
#
#
# Indices 1 2 3 4 5 6 
#
# 1 137.6088 46.5874 47.3510 6.0211 19.9479 -1.1685
# 2 46.5874 99.3738 51.2407 -6.0484 14.2547 0.3943
# 3 47.3510 51.2407 173.6256 0.1407 15.5112 -8.9873
# 4 6.0211 -6.0484 0.1407 38.5886 -3.6581 0.6339
# 5 19.9479 14.2547 15.5112 -3.6581 46.7081 -2.5673
# 6 -1.1685 0.3943 -8.9873 0.6339 -2.5673 35.1158
#
#
#
# Elastic Compliance Matrix: (Units=1/GPa)
#
#
# Indices 1 2 3 4 5 6 
#
# 1 0.009379 -0.003479 -0.001295 -0.002258 -0.002698 -0.000137
# 2 -0.003479 0.013621 -0.002997 0.002562 -0.001541 -0.001195
# 3 -0.001295 -0.002997 0.007165 -0.000403 -0.000846 0.001770
# 4 -0.002258 0.002562 -0.000403 0.026905 0.002395 -0.000518
# 5 -0.002698 -0.001541 -0.000846 0.002395 0.023577 0.001392
# 6 -0.000137 -0.001195 0.001770 -0.000518 0.001392 0.029050
#
#
# Mechanical properties :
#
#
# Convention : Reuss Voigt Hill
#
# Bulk Modulus (GPa) = 68.39079 77.88513 73.13796
# Shear Modulus (GPa) = 38.42747 41.77779 40.10263
#
# Velocity S-wave (km/s) = 4.09720 4.27208 4.18555
# Velocity P-wave (km/s) = 7.22906 7.63926 7.43699
#
# Compressibility (1/GPa) = 0.01462185
#
# Stress axis : x y z
#
# Youngs Moduli (GPa) = 106.61819 73.41446 139.56954
#
# Poissons Ratio (x) = 0.25541 0.18080
# Poissons Ratio (y) = 0.37092 0.41835
# Poissons Ratio (z) = 0.13811 0.22005
#
# Static dielectric constant tensor:
#      x y z
#    x 4.297350 -0.102560 0.130830 
#    y -0.102560 4.072590 0.089270 
#    z 0.130830 0.089270 4.334190 
# 
# 
# High freq. dielectric constant tensor:
#      x y z
#    x 1.913450 0.001620 0.001770 
#    y 0.001620 1.907010 -0.001680 
#    z 0.001770 -0.001680 1.922390 
# 
# From -- ./inp_files/522140.got.cif
#   From: 2010.06.25/outbox.cif.g09.slc.cpg/sg2_262_cif.got.tgz:522140.got - 2010.06.27 13:26:56.
