data_PCOD8034153
_publ_section_title
;
Structure prediction by ZEFSAII (Michael W. Deem and Ramdas Pophale) SiO2 
 PCOD8034153
Probable space group: P -1
;
_chemical_formula_sum "Si O2"
_cell_formula_units_Z 16
_cell_length_a 11.274601
_cell_length_b 9.665039
_cell_length_c 21.824933
_cell_angle_alpha 26.902023
_cell_angle_beta 42.692618
_cell_angle_gamma 50.941509
_cell_volume 727.156416
_symmetry_space_group_name_H-M "P -1"
_symmetry_group_IT_number 2
_symmetry_cell_setting 'triclinic'
loop_
_space_group_symop_operation_xyz
x,y,z
-x,-y,-z
loop_
_atom_site_type_symbol
_atom_site_label
_atom_site_fract_x
_atom_site_fract_y
_atom_site_fract_z
Si Si1 0.951634 0.948152 0.108444
Si Si2 0.611484 0.413179 0.800575
Si Si3 0.891409 0.675820 0.676475
Si Si4 0.669319 0.931883 0.875107
Si Si5 0.380508 0.205013 0.181204
Si Si6 0.617129 0.124367 0.350141
Si Si7 0.574605 0.844537 0.344325
Si Si8 0.988035 0.419599 0.105422
O O1 0.745496 0.930820 0.205055
O O2 0.007485 0.632755 0.241806
O O3 0.000000 0.000000 0.000000
O O4 0.045039 0.256681 0.979684
O O5 0.755122 0.657199 0.678795
O O6 0.455807 0.556406 0.766869
O O7 0.717708 0.217626 0.788670
O O8 0.515009 0.224677 0.967205
O O9 0.807187 0.679845 0.774647
O O10 0.000000 0.000000 0.500000
O O11 0.633622 0.027063 0.780213
O O12 0.829065 0.715246 0.893000
O O13 0.437018 0.054257 0.282755
O O14 0.500000 0.500000 0.000000
O O15 0.818025 0.178515 0.276284
O O16 0.500000 0.000000 0.500000
O O17 0.603883 0.906209 0.381257
O O18 0.500000 0.500000 0.500000
O O19 0.000000 0.500000 0.000000
#
# Coordination Sequence:
#
# PCOD8034153 Si02
#       8
#     2   2   2   2   2   2   2   2
#     4  12  27  43  75 110 137 191 244 295 359 428
#     4  11  24  44  70 106 142 184 242 291 365 417
#     4  12  26  46  69 101 152 187 228 299 362 431
#     4  11  24  43  76 107 136 185 241 307 347 421
#     4  12  23  46  74 100 138 186 245 287 352 427
#     4  12  28  47  73 104 150 195 234 298 371 437
#     4  12  27  48  70 105 151 189 237 302 365 430
#     4  12  23  48  72 104 147 181 246 305 354 422
#
# _framework density 22.003518
#
# number of rings (size 3 to 8) (size 9 to 14) (size 15 to 20)
#    0.000    0.250    5.000    3.750    5.250    1.000 
#    0.000    1.250    0.000    0.000    0.000    0.000 
#    0.000    0.000    0.000    0.000    0.000    0.000 
#
# Total GULP energy -198297.121624 kJ/mol
# GULP energy per Si atom -12393.570102 kJ/mol
# Density = 2.195344 g / cm^3
# Si number density = 22.003518 Si / 1000 Ang^3
#
#
#
# Elastic Constant Matrix: (Units=GPa)
#
#
# Indices 1 2 3 4 5 6 
#
# 1 93.4171 51.7177 37.9572 -0.9129 -12.7720 21.7240
# 2 51.7177 156.4582 60.2138 -0.4004 -7.9731 27.2976
# 3 37.9572 60.2138 120.9185 3.7733 -21.1730 23.9764
# 4 -0.9129 -0.4004 3.7733 45.9181 3.6082 4.8377
# 5 -12.7720 -7.9731 -21.1730 3.6082 36.2464 -3.4272
# 6 21.7240 27.2976 23.9764 4.8377 -3.4272 45.6454
#
#
#
# Elastic Compliance Matrix: (Units=1/GPa)
#
#
# Indices 1 2 3 4 5 6 
#
# 1 0.014540 -0.003350 -0.001611 0.000566 0.003020 -0.003904
# 2 -0.003350 0.009093 -0.003284 0.000632 -0.001378 -0.002289
# 3 -0.001611 -0.003284 0.012025 -0.001165 0.005562 -0.003045
# 4 0.000566 0.000632 -0.001165 0.022388 -0.002818 -0.002620
# 5 0.003020 -0.001378 0.005562 -0.002818 0.031800 -0.000849
# 6 -0.003904 -0.002289 -0.003045 -0.002620 -0.000849 0.026948
#
#
# Mechanical properties :
#
#
# Convention : Reuss Voigt Hill
#
# Bulk Modulus (GPa) = 52.16592 74.50792 63.33692
# Shear Modulus (GPa) = 35.79789 40.28897 38.04343
#
# Velocity S-wave (km/s) = 4.03788 4.28369 4.16260
# Velocity P-wave (km/s) = 6.74528 7.64212 7.20766
#
# Compressibility (1/GPa) = 0.01916960
#
# Stress axis : x y z
#
# Youngs Moduli (GPa) = 68.77567 109.97010 83.16021
#
# Poissons Ratio (x) = 0.36838 0.13396
# Poissons Ratio (y) = 0.23039 0.27307
# Poissons Ratio (z) = 0.11079 0.36111
#
# Static dielectric constant tensor:
#      x y z
#    x 3.636330 0.058500 0.080340 
#    y 0.058500 4.461390 0.009340 
#    z 0.080340 0.009340 3.819810 
# 
# 
# High freq. dielectric constant tensor:
#      x y z
#    x 1.870250 0.009250 -0.004880 
#    y 0.009250 1.891110 0.007270 
#    z -0.004880 0.007270 1.854780 
# 
# From -- ./inp_files/593899.got.cif
#   From: 2010.06.25/outbox.cif.g09.slc.cpg/sg2_297_cif.got.tgz:593899.got - 2010.06.27 13:26:56.
