data_PCOD8034270
_publ_section_title
;
Structure prediction by ZEFSAII (Michael W. Deem and Ramdas Pophale) SiO2 
 PCOD8034270
Probable space group: P -1
;
_chemical_formula_sum "Si O2"
_cell_formula_units_Z 12
_cell_length_a 12.553058
_cell_length_b 8.335593
_cell_length_c 18.975817
_cell_angle_alpha 51.134841
_cell_angle_beta 19.612525
_cell_angle_gamma 51.456618
_cell_volume 515.022975
_symmetry_space_group_name_H-M "P -1"
_symmetry_group_IT_number 2
_symmetry_cell_setting 'triclinic'
loop_
_space_group_symop_operation_xyz
x,y,z
-x,-y,-z
loop_
_atom_site_type_symbol
_atom_site_label
_atom_site_fract_x
_atom_site_fract_y
_atom_site_fract_z
Si Si1 0.085357 0.107917 0.762981
Si Si2 0.376131 0.515988 0.271512
Si Si3 0.257267 0.482294 0.095756
Si Si4 0.840248 0.129974 0.496806
Si Si5 0.668106 0.898810 0.533373
Si Si6 0.741772 0.707007 0.103754
O O1 0.090942 0.189116 0.655881
O O2 0.916109 0.285218 0.870130
O O3 0.431558 0.073480 0.593386
O O4 0.919218 0.900445 0.919570
O O5 0.524920 0.286102 0.267725
O O6 0.454073 0.681340 0.235480
O O7 0.000000 0.500000 0.500000
O O8 0.554404 0.587606 0.072698
O O9 0.026417 0.319243 0.307794
O O10 0.500000 0.500000 0.000000
O O11 0.467817 0.229216 0.713079
O O12 0.854801 0.981851 0.460087
O O13 0.000000 0.000000 0.500000
O O14 0.000000 0.500000 0.000000
#
# Coordination Sequence:
#
# PCOD8034270 Si02
#       6
#     2   2   2   2   2   2
#     4  11  25  44  71 104 144 183 234 294 352 425
#     4  12  25  45  73 104 144 187 237 293 354 428
#     4  12  26  45  72 103 140 188 236 291 357 427
#     4  12  27  47  73 105 142 189 242 297 356 431
#     4  11  24  44  70 103 142 185 235 290 355 415
#     4  12  25  44  71 106 143 184 237 292 356 419
#
# _framework density 23.299931000000001
#
# number of rings (size 3 to 8) (size 9 to 14) (size 15 to 20)
#    0.000    0.333    1.667    8.000    4.667    2.000 
#    0.000    5.000    0.000    0.000    0.000    0.000 
#    0.000    0.000    0.000    0.000    0.000    0.000 
#
# Total GULP energy -148723.504871 kJ/mol
# GULP energy per Si atom -12393.625406 kJ/mol
# Density = 2.324690 g / cm^3
# Si number density = 23.299931 Si / 1000 Ang^3
#
#
#
# Elastic Constant Matrix: (Units=GPa)
#
#
# Indices 1 2 3 4 5 6 
#
# 1 125.0906 18.1976 25.3042 -7.0817 -2.0204 4.9445
# 2 18.1976 102.8713 32.5481 -18.3104 -1.0898 -2.6269
# 3 25.3042 32.5481 119.4846 -11.1821 8.2492 -5.9399
# 4 -7.0817 -18.3104 -11.1821 50.0483 5.7811 -4.5559
# 5 -2.0204 -1.0898 8.2492 5.7811 40.1666 -7.3548
# 6 4.9445 -2.6269 -5.9399 -4.5559 -7.3548 34.3877
#
#
#
# Elastic Compliance Matrix: (Units=1/GPa)
#
#
# Indices 1 2 3 4 5 6 
#
# 1 0.008545 -0.000978 -0.001616 0.000309 0.000425 -0.001451
# 2 -0.000978 0.011352 -0.002535 0.003496 0.000484 0.001137
# 3 -0.001616 -0.002535 0.009749 0.001396 -0.002086 0.001462
# 4 0.000309 0.003496 0.001396 0.022200 -0.002860 0.002793
# 5 0.000425 0.000484 -0.002086 -0.002860 0.026676 0.004942
# 6 -0.001451 0.001137 0.001462 0.002793 0.004942 0.031055
#
#
# Mechanical properties :
#
#
# Convention : Reuss Voigt Hill
#
# Bulk Modulus (GPa) = 51.57493 55.50513 53.54003
# Shear Modulus (GPa) = 39.58879 43.01363 41.30121
#
# Velocity S-wave (km/s) = 4.12648 4.30127 4.21478
# Velocity P-wave (km/s) = 6.69978 6.96718 6.83479
#
# Compressibility (1/GPa) = 0.01938926
#
# Stress axis : x y z
#
# Youngs Moduli (GPa) = 117.02718 88.08715 102.57091
#
# Poissons Ratio (x) = 0.08614 0.16573
# Poissons Ratio (y) = 0.11444 0.26003
# Poissons Ratio (z) = 0.18909 0.22331
#
# Static dielectric constant tensor:
#      x y z
#    x 4.366500 -0.022600 0.054140 
#    y -0.022600 4.375910 0.000430 
#    z 0.054140 0.000430 4.230510 
# 
# 
# High freq. dielectric constant tensor:
#      x y z
#    x 1.930660 0.005420 0.001230 
#    y 0.005420 1.933610 -0.000750 
#    z 0.001230 -0.000750 1.931910 
# 
# From -- ./inp_files/147583.got.cif
#   From: 2010.06.25/outbox.cif.g09.slc.cpg/sg2_74_cif.got.tgz:147583.got - 2010.06.27 13:26:56.
