data_PCOD8034740
_publ_section_title
;
Structure prediction by ZEFSAII (Michael W. Deem and Ramdas Pophale) SiO2 
 PCOD8034740
Probable space group: P -1
;
_chemical_formula_sum "Si O2"
_cell_formula_units_Z 14
_cell_length_a 15.241846
_cell_length_b 8.952907
_cell_length_c 15.294195
_cell_angle_alpha 42.124130
_cell_angle_beta 153.316007
_cell_angle_gamma 138.390377
_cell_volume 603.089324
_symmetry_space_group_name_H-M "P -1"
_symmetry_group_IT_number 2
_symmetry_cell_setting 'triclinic'
loop_
_space_group_symop_operation_xyz
x,y,z
-x,-y,-z
loop_
_atom_site_type_symbol
_atom_site_label
_atom_site_fract_x
_atom_site_fract_y
_atom_site_fract_z
Si Si1 0.389299 0.628917 0.547091
Si Si2 0.900859 0.794580 0.435794
Si Si3 0.445802 0.265939 0.167217
Si Si4 0.811552 0.239730 0.845390
Si Si5 0.383710 0.975533 0.997033
Si Si6 0.745276 0.513061 0.825988
Si Si7 0.714895 0.343200 0.218831
O O1 0.269209 0.377513 0.582836
O O2 0.495291 0.775780 0.662222
O O3 0.235651 0.738554 0.309068
O O4 0.558718 0.617139 0.631769
O O5 0.056956 0.670679 0.584964
O O6 0.790724 0.890561 0.217659
O O7 0.000000 0.000000 0.500000
O O8 0.658773 0.376061 0.256063
O O9 0.304831 0.019620 0.112614
O O10 0.317896 0.454549 0.961816
O O11 0.744955 0.434035 0.759052
O O12 0.052291 0.285357 0.054767
O O13 0.271076 0.708796 0.031093
O O14 0.500000 0.000000 0.000000
O O15 0.555668 0.093129 0.168471
#
# Coordination Sequence:
#
# PCOD8034740 Si02
#       7
#     2   2   2   2   2   2   2
#     4  12  25  44  68 103 138 181 234 278 340 414
#     4  12  24  39  74 107 130 177 228 290 346 401
#     4  11  25  49  70  97 146 188 219 288 346 414
#     4  11  26  46  69 100 136 186 234 278 344 406
#     4  12  20  42  72 101 133 169 226 292 344 393
#     4  11  24  47  72 100 137 180 233 291 338 399
#     4  11  24  46  68 103 141 173 229 287 348 408
#
# _framework density 23.213809000000001
#
# number of rings (size 3 to 8) (size 9 to 14) (size 15 to 20)
#    0.000    0.571    5.714    1.714    2.000    1.143 
#    7.714    0.000    0.000    0.000    0.000    0.000 
#    0.000    0.000    0.000    0.000    0.000    0.000 
#
# Total GULP energy -173596.334730 kJ/mol
# GULP energy per Si atom -12399.738195 kJ/mol
# Density = 2.316097 g / cm^3
# Si number density = 23.213809 Si / 1000 Ang^3
#
#
#
# Elastic Constant Matrix: (Units=GPa)
#
#
# Indices 1 2 3 4 5 6 
#
# 1 83.0195 0.5209 29.3713 12.3489 6.4880 -0.3559
# 2 0.5209 108.9311 8.8593 20.3060 -1.8022 6.1599
# 3 29.3713 8.8593 90.5816 13.7310 3.1818 -5.7768
# 4 12.3489 20.3060 13.7310 29.2019 6.2760 3.0984
# 5 6.4880 -1.8022 3.1818 6.2760 41.8535 -5.8804
# 6 -0.3559 6.1599 -5.7768 3.0984 -5.8804 27.7059
#
#
#
# Elastic Compliance Matrix: (Units=1/GPa)
#
#
# Indices 1 2 3 4 5 6 
#
# 1 0.014241 0.001128 -0.004034 -0.004568 -0.001261 -0.000666
# 2 0.001128 0.010781 -0.000342 -0.007963 0.001329 -0.001281
# 3 -0.004034 -0.000342 0.013314 -0.004868 0.000823 0.003519
# 4 -0.004568 -0.007963 -0.004868 0.046143 -0.007020 -0.005953
# 5 -0.001261 0.001329 0.000823 -0.007020 0.026002 0.006163
# 6 -0.000666 -0.001281 0.003519 -0.005953 0.006163 0.039077
#
#
# Mechanical properties :
#
#
# Convention : Reuss Voigt Hill
#
# Bulk Modulus (GPa) = 31.40428 40.00391 35.70410
# Shear Modulus (GPa) = 30.00011 36.00431 33.00221
#
# Velocity S-wave (km/s) = 3.59881 3.94253 3.77459
# Velocity P-wave (km/s) = 5.55214 6.16400 5.86605
#
# Compressibility (1/GPa) = 0.03184279
#
# Stress axis : x y z
#
# Youngs Moduli (GPa) = 70.22214 92.75241 75.10637
#
# Poissons Ratio (x) = -0.10466 0.30294
# Poissons Ratio (y) = -0.07924 0.02566
# Poissons Ratio (z) = 0.28324 0.03168
#
# Static dielectric constant tensor:
#      x y z
#    x 4.226950 -0.015600 0.132400 
#    y -0.015600 4.258330 0.097310 
#    z 0.132400 0.097310 4.073570 
# 
# 
# High freq. dielectric constant tensor:
#      x y z
#    x 1.922260 0.002170 -0.002560 
#    y 0.002170 1.925260 0.009850 
#    z -0.002560 0.009850 1.906890 
# 
# From -- ./inp_files/498867.got.cif
#   From: 2010.06.25/outbox.cif.g09.slc.cpg/sg2_250_cif.got.tgz:498867.got - 2010.06.27 13:26:56.
