data_PCOD8034488
_publ_section_title
;
Structure prediction by ZEFSAII (Michael W. Deem and Ramdas Pophale) SiO2 
 PCOD8034488
Probable space group: P -1
;
_chemical_formula_sum "Si O2"
_cell_formula_units_Z 16
_cell_length_a 10.066714
_cell_length_b 17.402294
_cell_length_c 7.087690
_cell_angle_alpha 60.028676
_cell_angle_beta 135.077852
_cell_angle_gamma 106.329995
_cell_volume 754.175385
_symmetry_space_group_name_H-M "P -1"
_symmetry_group_IT_number 2
_symmetry_cell_setting 'triclinic'
loop_
_space_group_symop_operation_xyz
x,y,z
-x,-y,-z
loop_
_atom_site_type_symbol
_atom_site_label
_atom_site_fract_x
_atom_site_fract_y
_atom_site_fract_z
Si Si1 0.121117 0.820816 0.469445
Si Si2 0.624663 0.613479 0.115354
Si Si3 0.854697 0.954267 0.286207
Si Si4 0.417031 0.706388 0.136750
Si Si5 0.350154 0.177176 0.522146
Si Si6 0.947199 0.701633 0.141098
Si Si7 0.672072 0.404600 0.474806
Si Si8 0.602283 0.075398 0.608287
O O1 0.282940 0.878741 0.491728
O O2 0.955425 0.882370 0.331668
O O3 0.028521 0.777212 0.252944
O O4 0.214621 0.745390 0.798974
O O5 0.562350 0.671464 0.163536
O O6 0.822991 0.642100 0.213584
O O7 0.654386 0.510462 0.325861
O O8 0.466391 0.633188 0.770369
O O9 0.714478 0.909208 0.336976
O O10 0.000000 0.000000 0.500000
O O11 0.739827 0.034383 0.959957
O O12 0.500491 0.784196 0.239081
O O13 0.385512 0.624243 0.340472
O O14 0.448098 0.149609 0.454346
O O15 0.172313 0.250778 0.210308
O O16 0.113954 0.634492 0.303409
O O17 0.500000 0.000000 0.500000
#
# Coordination Sequence:
#
# PCOD8034488 Si02
#       8
#     2   2   2   2   2   2   2   2
#     4  12  24  41  67  96 131 175 224 274 329 399
#     4  11  24  45  69 101 139 177 218 277 336 396
#     4  12  24  41  60  94 129 172 223 274 329 393
#     4  12  23  45  68 102 133 179 224 273 336 392
#     4  12  24  41  67  96 131 175 224 274 329 399
#     4  12  23  45  68 102 133 179 224 273 336 392
#     4  11  24  45  69 101 139 176 220 276 334 398
#     4  12  24  43  64  94 133 178 217 274 339 389
#
# _framework density 21.215223999999999
#
# number of rings (size 3 to 8) (size 9 to 14) (size 15 to 20)
#    0.000    0.250    2.500    8.250    0.000    0.000 
#    0.000    1.250    0.000    0.000    0.000    0.000 
#    0.000    0.000    0.000    0.000    0.000    0.000 
#
# Total GULP energy -198565.787876 kJ/mol
# GULP energy per Si atom -12410.361742 kJ/mol
# Density = 2.116694 g / cm^3
# Si number density = 21.215224 Si / 1000 Ang^3
#
#
#
# Elastic Constant Matrix: (Units=GPa)
#
#
# Indices 1 2 3 4 5 6 
#
# 1 82.0477 10.7448 15.5806 -2.3514 -0.8647 6.3063
# 2 10.7448 76.5962 3.2364 8.9880 -2.7374 9.5050
# 3 15.5806 3.2364 107.6622 -9.6669 -0.3472 7.3772
# 4 -2.3514 8.9880 -9.6669 34.2631 1.8453 -2.0693
# 5 -0.8647 -2.7374 -0.3472 1.8453 39.3976 -6.4674
# 6 6.3063 9.5050 7.3772 -2.0693 -6.4674 30.2543
#
#
#
# Elastic Compliance Matrix: (Units=1/GPa)
#
#
# Indices 1 2 3 4 5 6 
#
# 1 0.012863 -0.001611 -0.001625 0.000749 -0.000169 -0.001764
# 2 -0.001611 0.014339 -0.000283 -0.004235 0.000452 -0.004293
# 3 -0.001625 -0.000283 0.009899 0.002663 -0.000403 -0.001890
# 4 0.000749 -0.004235 0.002663 0.031315 -0.001330 0.002383
# 5 -0.000169 0.000452 -0.000403 -0.001330 0.026378 0.005539
# 6 -0.001764 -0.004293 -0.001890 0.002383 0.005539 0.036578
#
#
# Mechanical properties :
#
#
# Convention : Reuss Voigt Hill
#
# Bulk Modulus (GPa) = 33.26260 36.15886 34.71073
# Shear Modulus (GPa) = 33.68556 36.56596 35.12576
#
# Velocity S-wave (km/s) = 3.98905 4.15610 4.07343
# Velocity P-wave (km/s) = 6.07695 6.33338 6.20649
#
# Compressibility (1/GPa) = 0.03006379
#
# Stress axis : x y z
#
# Youngs Moduli (GPa) = 77.74292 69.73840 101.01643
#
# Poissons Ratio (x) = 0.11234 0.16420
# Poissons Ratio (y) = 0.12523 0.02855
# Poissons Ratio (z) = 0.12637 0.01971
#
# Static dielectric constant tensor:
#      x y z
#    x 4.148500 -0.014190 0.053090 
#    y -0.014190 3.810020 0.008420 
#    z 0.053090 0.008420 3.919200 
# 
# 
# High freq. dielectric constant tensor:
#      x y z
#    x 1.846180 0.002070 -0.000370 
#    y 0.002070 1.841130 -0.003010 
#    z -0.000370 -0.003010 1.847760 
# 
# From -- ./inp_files/46825.got.cif
#   From: 2010.06.25/outbox.cif.g09.slc.cpg/sg2_24_cif.got.tgz:46825.got - 2010.06.27 13:26:56.
