data_PCOD8034458
_publ_section_title
;
Structure prediction by ZEFSAII (Michael W. Deem and Ramdas Pophale) SiO2 
 PCOD8034458
Probable space group: P -1
;
_chemical_formula_sum "Si O2"
_cell_formula_units_Z 16
_cell_length_a 5.192919
_cell_length_b 19.978548
_cell_length_c 8.888377
_cell_angle_alpha 79.483634
_cell_angle_beta 128.224725
_cell_angle_gamma 98.878877
_cell_volume 711.232817
_symmetry_space_group_name_H-M "P -1"
_symmetry_group_IT_number 2
_symmetry_cell_setting 'triclinic'
loop_
_space_group_symop_operation_xyz
x,y,z
-x,-y,-z
loop_
_atom_site_type_symbol
_atom_site_label
_atom_site_fract_x
_atom_site_fract_y
_atom_site_fract_z
Si Si1 0.368708 0.930814 0.402603
Si Si2 0.247097 0.536833 0.687519
Si Si3 0.644748 0.199158 0.056134
Si Si4 0.594713 0.932169 0.141812
Si Si5 0.768301 0.441853 0.007967
Si Si6 0.449367 0.325577 0.763060
Si Si7 0.306222 0.665010 0.488519
Si Si8 0.401630 0.203730 0.302803
O O1 0.482124 0.932330 0.272109
O O2 0.517615 0.867024 0.563540
O O3 0.979121 0.922288 0.275537
O O4 0.500000 0.000000 0.500000
O O5 0.419059 0.474521 0.851923
O O6 0.453244 0.597973 0.648903
O O7 0.000000 0.500000 0.500000
O O8 0.109050 0.574061 0.771368
O O9 0.462503 0.198920 0.149606
O O10 0.029171 0.219811 0.199943
O O11 0.609435 0.125743 0.998450
O O12 0.462774 0.249485 0.860101
O O13 0.500000 0.000000 0.000000
O O14 0.734811 0.371543 0.932047
O O15 0.000000 0.500000 0.000000
O O16 0.528296 0.326808 0.615865
O O17 0.086751 0.350766 0.653070
O O18 0.371279 0.733755 0.577696
#
# Coordination Sequence:
#
# PCOD8034458 Si02
#       8
#     2   2   2   2   2   2   2   2
#     4  12  24  43  68  99 135 174 226 271 331 400
#     4  11  24  45  66  99 132 177 223 281 339 408
#     4  12  25  44  68  97 137 172 225 274 334 397
#     4  12  24  43  68  99 135 177 219 275 335 392
#     4  11  26  41  70  96 135 174 227 278 342 404
#     4  12  26  45  67  99 132 177 221 278 334 404
#     4  12  26  44  70  95 135 175 224 273 340 398
#     4  12  25  44  68  99 132 178 221 276 331 398
#
# _framework density 22.496148000000002
#
# number of rings (size 3 to 8) (size 9 to 14) (size 15 to 20)
#    0.000    0.250    1.250    8.250    5.250    1.000 
#    0.000    0.000    0.000    0.000    0.000    0.000 
#    0.000    0.000    0.000    0.000    0.000    0.000 
#
# Total GULP energy -198385.222631 kJ/mol
# GULP energy per Si atom -12399.076414 kJ/mol
# Density = 2.244495 g / cm^3
# Si number density = 22.496148 Si / 1000 Ang^3
#
#
#
# Elastic Constant Matrix: (Units=GPa)
#
#
# Indices 1 2 3 4 5 6 
#
# 1 122.8077 2.5844 35.4563 -8.2638 -18.2209 7.7003
# 2 2.5844 140.2783 36.9696 6.4630 -25.5274 10.2820
# 3 35.4563 36.9696 110.9324 -0.6339 -32.2254 5.0268
# 4 -8.2638 6.4630 -0.6339 58.5355 8.8780 -2.4683
# 5 -18.2209 -25.5274 -32.2254 8.8780 51.9039 -1.4868
# 6 7.7003 10.2820 5.0268 -2.4683 -1.4868 32.6532
#
#
#
# Elastic Compliance Matrix: (Units=1/GPa)
#
#
# Indices 1 2 3 4 5 6 
#
# 1 0.009354 0.000986 -0.002668 0.000809 0.001918 -0.001957
# 2 0.000986 0.008532 -0.002050 -0.001455 0.003445 -0.002557
# 3 -0.002668 -0.002050 0.012251 -0.000916 0.005806 -0.000416
# 4 0.000809 -0.001455 -0.000916 0.018028 -0.004038 0.001587
# 5 0.001918 0.003445 0.005806 -0.004038 0.025885 -0.001558
# 6 -0.001957 -0.002557 -0.000416 0.001587 -0.001558 0.032005
#
#
# Mechanical properties :
#
#
# Convention : Reuss Voigt Hill
#
# Bulk Modulus (GPa) = 44.10632 58.22656 51.16644
# Shear Modulus (GPa) = 41.29622 48.55238 44.92430
#
# Velocity S-wave (km/s) = 4.28916 4.65074 4.47360
# Velocity P-wave (km/s) = 6.64664 7.40123 7.03407
#
# Compressibility (1/GPa) = 0.02267249
#
# Stress axis : x y z
#
# Youngs Moduli (GPa) = 106.90564 117.20231 81.62822
#
# Poissons Ratio (x) = -0.11555 0.21778
# Poissons Ratio (y) = -0.10540 0.16736
# Poissons Ratio (z) = 0.28522 0.24029
#
# Static dielectric constant tensor:
#      x y z
#    x 4.125970 -0.065410 -0.294140 
#    y -0.065410 4.461100 0.269830 
#    z -0.294140 0.269830 4.078300 
# 
# 
# High freq. dielectric constant tensor:
#      x y z
#    x 1.893640 0.003420 -0.009700 
#    y 0.003420 1.910820 0.000010 
#    z -0.009700 0.000010 1.905620 
# 
# From -- ./inp_files/13145.got.cif
#   From: 2010.06.25/outbox.cif.g09.slc.cpg/sg2_7_cif.got.tgz:13145.got - 2010.06.27 13:26:56.
