data_PCOD8034884
_publ_section_title
;
Structure prediction by ZEFSAII (Michael W. Deem and Ramdas Pophale) SiO2 
 PCOD8034884
Probable space group: P -1
;
_chemical_formula_sum "Si O2"
_cell_formula_units_Z 12
_cell_length_a 8.197614
_cell_length_b 15.600683
_cell_length_c 15.879551
_cell_angle_alpha 161.313770
_cell_angle_beta 125.911398
_cell_angle_gamma 55.550137
_cell_volume 526.574113
_symmetry_space_group_name_H-M "P -1"
_symmetry_group_IT_number 2
_symmetry_cell_setting 'triclinic'
loop_
_space_group_symop_operation_xyz
x,y,z
-x,-y,-z
loop_
_atom_site_type_symbol
_atom_site_label
_atom_site_fract_x
_atom_site_fract_y
_atom_site_fract_z
Si Si1 0.967885 0.641718 0.439444
Si Si2 0.803074 0.020636 0.515647
Si Si3 0.612904 0.047962 0.737715
Si Si4 0.371458 0.743109 0.725632
Si Si5 0.825775 0.214400 0.120714
Si Si6 0.795103 0.444501 0.051163
O O1 0.782863 0.852907 0.565960
O O2 0.936588 0.465763 0.349682
O O3 0.173459 0.794616 0.655966
O O4 0.979809 0.456094 0.186099
O O5 0.604238 0.087776 0.460793
O O6 0.848603 0.256439 0.813634
O O7 0.751146 0.746236 0.289475
O O8 0.000000 0.000000 0.500000
O O9 0.611188 0.323937 0.938150
O O10 0.668755 0.096007 0.896347
O O11 0.500000 0.500000 0.500000
O O12 0.307991 0.683959 0.746873
O O13 0.500000 0.000000 0.000000
O O14 0.000000 0.000000 0.000000
#
# Coordination Sequence:
#
# PCOD8034884 Si02
#       6
#     2   2   2   2   2   2
#     4  11  25  46  75 103 135 194 246 283 352 429
#     4  12  27  46  69 108 146 181 228 299 364 416
#     4  11  25  44  78 100 135 193 245 286 348 423
#     4  12  28  45  69 105 148 183 229 301 363 410
#     4  11  24  46  74 103 144 192 248 292 345 434
#     4  11  25  47  73  99 143 183 239 288 347 430
#
# _framework density 22.788813999999999
#
# number of rings (size 3 to 8) (size 9 to 14) (size 15 to 20)
#    0.000    0.667    3.333    3.000    9.333    2.667 
#    0.000    0.000    0.000    0.000    0.000    0.000 
#    0.000    0.000    0.000    0.000    0.000    0.000 
#
# Total GULP energy -148769.786592 kJ/mol
# GULP energy per Si atom -12397.482216 kJ/mol
# Density = 2.273695 g / cm^3
# Si number density = 22.788814 Si / 1000 Ang^3
#
#
#
# Elastic Constant Matrix: (Units=GPa)
#
#
# Indices 1 2 3 4 5 6 
#
# 1 115.3935 65.2297 59.4867 -35.7359 -2.2238 -28.7818
# 2 65.2297 93.8541 49.6234 -23.7530 9.5893 -11.9826
# 3 59.4867 49.6234 154.4551 -29.2279 1.9006 -13.3025
# 4 -35.7359 -23.7530 -29.2279 58.4497 2.6069 0.8799
# 5 -2.2238 9.5893 1.9006 2.6069 47.4947 -8.9915
# 6 -28.7818 -11.9826 -13.3025 0.8799 -8.9915 35.1767
#
#
#
# Elastic Compliance Matrix: (Units=1/GPa)
#
#
# Indices 1 2 3 4 5 6 
#
# 1 0.022236 -0.010987 -0.002421 0.007440 0.005754 0.014820
# 2 -0.010987 0.019564 -0.002309 0.000381 -0.005255 -0.004552
# 3 -0.002421 -0.002309 0.008533 0.001843 -0.000012 0.000411
# 4 0.007440 0.000381 0.001843 0.022630 0.000165 0.006390
# 5 0.005754 -0.005255 -0.000012 0.000165 0.024093 0.009068
# 6 0.014820 -0.004552 0.000411 0.006390 0.009068 0.041317
#
#
# Mechanical properties :
#
#
# Convention : Reuss Voigt Hill
#
# Bulk Modulus (GPa) = 52.91248 79.15359 66.03304
# Shear Modulus (GPa) = 28.39164 40.84840 34.62002
#
# Velocity S-wave (km/s) = 3.53350 4.23836 3.90188
# Velocity P-wave (km/s) = 6.31795 7.66554 7.02414
#
# Compressibility (1/GPa) = 0.01889913
#
# Stress axis : x y z
#
# Youngs Moduli (GPa) = 44.97143 51.11316 117.19576
#
# Poissons Ratio (x) = 0.56161 0.28368
# Poissons Ratio (y) = 0.49412 0.27062
# Poissons Ratio (z) = 0.10885 0.11803
#
# Static dielectric constant tensor:
#      x y z
#    x 3.978770 0.085660 0.068960 
#    y 0.085660 4.267940 -0.303990 
#    z 0.068960 -0.303990 4.580840 
# 
# 
# High freq. dielectric constant tensor:
#      x y z
#    x 1.877450 0.004500 0.002880 
#    y 0.004500 1.910810 -0.019940 
#    z 0.002880 -0.019940 1.925440 
# 
# From -- ./inp_files/228377.got.cif
#   From: 2010.06.25/outbox.cif.g09.slc.cpg/sg2_115_cif.got.tgz:228377.got - 2010.06.27 13:26:56.
