data_PCOD8034708
_publ_section_title
;
Structure prediction by ZEFSAII (Michael W. Deem and Ramdas Pophale) SiO2 
 PCOD8034708
Probable space group: P -1
;
_chemical_formula_sum "Si O2"
_cell_formula_units_Z 16
_cell_length_a 15.544056
_cell_length_b 9.117902
_cell_length_c 9.390223
_cell_angle_alpha 61.231054
_cell_angle_beta 145.872065
_cell_angle_gamma 118.459738
_cell_volume 646.194734
_symmetry_space_group_name_H-M "P -1"
_symmetry_group_IT_number 2
_symmetry_cell_setting 'triclinic'
loop_
_space_group_symop_operation_xyz
x,y,z
-x,-y,-z
loop_
_atom_site_type_symbol
_atom_site_label
_atom_site_fract_x
_atom_site_fract_y
_atom_site_fract_z
Si Si1 0.189885 0.119997 0.940521
Si Si2 0.335151 0.483891 0.455012
Si Si3 0.935502 0.500234 0.752087
Si Si4 0.892454 0.236813 0.359541
Si Si5 0.325563 0.156858 0.403000
Si Si6 0.318271 0.823808 0.145384
Si Si7 0.520795 0.656147 0.854956
Si Si8 0.228410 0.788656 0.500375
O O1 0.016969 0.123371 0.643626
O O2 0.221110 0.194479 0.107541
O O3 0.310089 0.234422 0.947134
O O4 0.232358 0.929325 0.092946
O O5 0.229967 0.436596 0.474764
O O6 0.351079 0.317125 0.467984
O O7 0.267694 0.621421 0.197942
O O8 0.498068 0.584874 0.692975
O O9 0.905249 0.306719 0.743029
O O10 0.026901 0.613967 0.701761
O O11 0.000000 0.500000 0.000000
O O12 0.806963 0.300230 0.351182
O O13 0.753733 0.129668 0.127172
O O14 0.497166 0.119471 0.616657
O O15 0.227294 0.990190 0.420286
O O16 0.395428 0.772777 0.672566
O O17 0.500000 0.500000 0.000000
#
# Coordination Sequence:
#
# PCOD8034708 Si02
#       8
#     2   2   2   2   2   2   2   2
#     4  12  25  47  77 115 147 203 253 317 374 456
#     4  11  25  45  75 112 143 205 255 315 370 458
#     4  11  24  49  79 105 157 204 247 305 393 452
#     4  12  29  46  79 115 158 194 255 314 389 447
#     4  12  27  47  82 109 152 198 268 305 376 456
#     4  12  25  49  76 109 155 197 250 312 386 446
#     4  11  24  45  76 105 153 199 258 309 381 446
#     4  11  27  50  74 114 152 205 250 320 372 455
#
# _framework density 24.760338999999998
#
# number of rings (size 3 to 8) (size 9 to 14) (size 15 to 20)
#    0.000    0.500    3.750    4.500    3.500    5.000 
#    0.000    0.000    0.000    0.000    0.000    0.000 
#    0.000    0.000    0.000    0.000    0.000    0.000 
#
# Total GULP energy -198248.431745 kJ/mol
# GULP energy per Si atom -12390.526984 kJ/mol
# Density = 2.470398 g / cm^3
# Si number density = 24.760339 Si / 1000 Ang^3
#
#
#
# Elastic Constant Matrix: (Units=GPa)
#
#
# Indices 1 2 3 4 5 6 
#
# 1 91.8518 38.5040 16.9075 7.1109 -21.3181 2.6441
# 2 38.5040 131.8573 26.6308 -6.4266 -9.6105 -12.7531
# 3 16.9075 26.6308 131.6418 8.1666 -12.4538 -0.9451
# 4 7.1109 -6.4266 8.1666 30.2511 -3.0024 -7.3529
# 5 -21.3181 -9.6105 -12.4538 -3.0024 25.6250 -0.0174
# 6 2.6441 -12.7531 -0.9451 -7.3529 -0.0174 43.5892
#
#
#
# Elastic Compliance Matrix: (Units=1/GPa)
#
#
# Indices 1 2 3 4 5 6 
#
# 1 0.015606 -0.004274 0.000138 -0.004233 0.010949 -0.002904
# 2 -0.004274 0.009745 -0.001689 0.004440 -0.000199 0.003823
# 3 0.000138 -0.001689 0.008379 -0.002510 0.003259 -0.000743
# 4 -0.004233 0.004440 -0.002510 0.037718 0.001349 0.007864
# 5 0.010949 -0.000199 0.003259 0.001349 0.049800 -0.000404
# 6 -0.002904 0.003823 -0.000743 0.007864 -0.000404 0.025546
#
#
# Mechanical properties :
#
#
# Convention : Reuss Voigt Hill
#
# Bulk Modulus (GPa) = 45.29232 57.71506 51.50369
# Shear Modulus (GPa) = 30.15594 38.11362 34.13478
#
# Velocity S-wave (km/s) = 3.49365 3.92765 3.71699
# Velocity P-wave (km/s) = 5.88269 6.62787 6.26637
#
# Compressibility (1/GPa) = 0.02207880
#
# Stress axis : x y z
#
# Youngs Moduli (GPa) = 64.07850 102.61843 119.34470
#
# Poissons Ratio (x) = 0.43860 -0.01645
# Poissons Ratio (y) = 0.27388 0.20160
# Poissons Ratio (z) = -0.00883 0.17335
#
# Static dielectric constant tensor:
#      x y z
#    x 4.644210 0.327910 0.316870 
#    y 0.327910 4.425590 0.430190 
#    z 0.316870 0.430190 5.192150 
# 
# 
# High freq. dielectric constant tensor:
#      x y z
#    x 1.988660 0.009290 -0.004590 
#    y 0.009290 1.982880 0.018300 
#    z -0.004590 0.018300 1.990400 
# 
# From -- ./inp_files/298059.got.cif
#   From: 2010.06.25/outbox.cif.g09.slc.cpg/sg2_150_cif.got.tgz:298059.got - 2010.06.27 13:26:56.
