data_PCOD8034427
_publ_section_title
;
Structure prediction by ZEFSAII (Michael W. Deem and Ramdas Pophale) SiO2 
 PCOD8034427
Probable space group: P -1
;
_chemical_formula_sum "Si O2"
_cell_formula_units_Z 16
_cell_length_a 13.379616
_cell_length_b 10.784322
_cell_length_c 11.396985
_cell_angle_alpha 74.654488
_cell_angle_beta 56.450778
_cell_angle_gamma 33.354563
_cell_volume 680.357879
_symmetry_space_group_name_H-M "P -1"
_symmetry_group_IT_number 2
_symmetry_cell_setting 'triclinic'
loop_
_space_group_symop_operation_xyz
x,y,z
-x,-y,-z
loop_
_atom_site_type_symbol
_atom_site_label
_atom_site_fract_x
_atom_site_fract_y
_atom_site_fract_z
Si Si1 0.820583 0.952284 0.395056
Si Si2 0.430831 0.182284 0.708425
Si Si3 0.668572 0.162121 0.948113
Si Si4 0.692052 0.901642 0.836440
Si Si5 0.917530 0.654971 0.236831
Si Si6 0.890659 0.342033 0.078104
Si Si7 0.295906 0.597465 0.254100
Si Si8 0.413439 0.608305 0.662980
O O1 0.863452 0.769112 0.366860
O O2 0.030221 0.791276 0.388916
O O3 0.560424 0.180821 0.560018
O O4 0.791713 0.095586 0.284605
O O5 0.333173 0.150151 0.706826
O O6 0.192664 0.457572 0.846103
O O7 0.627070 0.955143 0.728943
O O8 0.708436 0.262302 0.840601
O O9 0.665034 0.069231 0.863639
O O10 0.443352 0.367499 0.129337
O O11 0.880195 0.931189 0.951509
O O12 0.941396 0.606978 0.770579
O O13 0.500000 0.000000 0.000000
O O14 0.057308 0.643291 0.085714
O O15 0.687987 0.420734 0.192008
O O16 0.384404 0.522924 0.349906
O O17 0.500000 0.500000 0.500000
#
# Coordination Sequence:
#
# PCOD8034427 Si02
#       8
#     2   2   2   2   2   2   2   2
#     4  12  28  48  73 109 151 193 243 304 375 434
#     4  12  26  47  73 108 146 195 246 303 363 442
#     4  11  24  44  75 108 146 188 246 307 361 424
#     4  12  24  43  73 106 143 195 244 298 363 429
#     4  12  27  46  74 108 148 195 252 300 360 437
#     4  12  23  47  77 106 144 191 249 303 360 438
#     4  11  27  46  71 110 148 189 243 306 364 433
#     4  12  27  48  75 109 150 196 237 302 378 442
#
# _framework density 23.517033000000001
#
# number of rings (size 3 to 8) (size 9 to 14) (size 15 to 20)
#    0.000    0.250    5.000    3.750    3.500    5.000 
#    0.000    0.000    0.000    0.000    0.000    0.000 
#    0.000    0.000    0.000    0.000    0.000    0.000 
#
# Total GULP energy -198287.232821 kJ/mol
# GULP energy per Si atom -12392.952051 kJ/mol
# Density = 2.346351 g / cm^3
# Si number density = 23.517033 Si / 1000 Ang^3
#
#
#
# Elastic Constant Matrix: (Units=GPa)
#
#
# Indices 1 2 3 4 5 6 
#
# 1 145.1908 55.7996 30.9292 3.0289 -0.7029 -14.9551
# 2 55.7996 129.4595 28.6486 5.8761 8.7241 -17.1882
# 3 30.9292 28.6486 61.6949 2.5548 -10.6799 -4.4029
# 4 3.0289 5.8761 2.5548 31.9781 -0.2830 -3.1658
# 5 -0.7029 8.7241 -10.6799 -0.2830 33.5338 -6.0662
# 6 -14.9551 -17.1882 -4.4029 -3.1658 -6.0662 25.6376
#
#
#
# Elastic Compliance Matrix: (Units=1/GPa)
#
#
# Indices 1 2 3 4 5 6 
#
# 1 0.008892 -0.002864 -0.002829 0.000206 0.000564 0.002940
# 2 -0.002864 0.010565 -0.003724 -0.001019 -0.003304 0.003865
# 3 -0.002829 -0.003724 0.020804 -0.000523 0.007747 0.001194
# 4 0.000206 -0.001019 -0.000523 0.031838 0.001008 0.003517
# 5 0.000564 -0.003304 0.007747 0.001008 0.034570 0.007748
# 6 0.002940 0.003865 0.001194 0.003517 0.007748 0.045784
#
#
# Mechanical properties :
#
#
# Convention : Reuss Voigt Hill
#
# Bulk Modulus (GPa) = 46.66901 63.01110 54.84006
# Shear Modulus (GPa) = 28.02223 32.96108 30.49166
#
# Velocity S-wave (km/s) = 3.45566 3.74783 3.60471
# Velocity P-wave (km/s) = 5.98414 6.75132 6.37927
#
# Compressibility (1/GPa) = 0.02142749
#
# Stress axis : x y z
#
# Youngs Moduli (GPa) = 112.46128 94.65265 48.06664
#
# Poissons Ratio (x) = 0.27104 0.13599
# Poissons Ratio (y) = 0.32204 0.17901
# Poissons Ratio (z) = 0.31817 0.35251
#
# Static dielectric constant tensor:
#      x y z
#    x 4.103890 -0.061830 -0.116520 
#    y -0.061830 4.008360 0.070730 
#    z -0.116520 0.070730 4.247070 
# 
# 
# High freq. dielectric constant tensor:
#      x y z
#    x 1.940220 0.003770 -0.002680 
#    y 0.003770 1.944520 0.007090 
#    z -0.002680 0.007090 1.920870 
# 
# From -- ./inp_files/452267.got.cif
#   From: 2010.06.25/outbox.cif.g09.slc.cpg/sg2_227_cif.got.tgz:452267.got - 2010.06.27 13:26:56.
