data_PCOD8034329
_publ_section_title
;
Structure prediction by ZEFSAII (Michael W. Deem and Ramdas Pophale) SiO2 
 PCOD8034329
Probable space group: P -1
;
_chemical_formula_sum "Si O2"
_cell_formula_units_Z 16
_cell_length_a 17.463746
_cell_length_b 9.239047
_cell_length_c 6.743846
_cell_angle_alpha 133.697558
_cell_angle_beta 93.998813
_cell_angle_gamma 74.737269
_cell_volume 749.080018
_symmetry_space_group_name_H-M "P -1"
_symmetry_group_IT_number 2
_symmetry_cell_setting 'triclinic'
loop_
_space_group_symop_operation_xyz
x,y,z
-x,-y,-z
loop_
_atom_site_type_symbol
_atom_site_label
_atom_site_fract_x
_atom_site_fract_y
_atom_site_fract_z
Si Si1 0.920773 0.428839 0.441428
Si Si2 0.825049 0.437294 0.035606
Si Si3 0.166276 0.229014 0.957706
Si Si4 0.666273 0.049121 0.339197
Si Si5 0.556295 0.813707 0.209866
Si Si6 0.923028 0.092527 0.441890
Si Si7 0.446859 0.711440 0.784017
Si Si8 0.346160 0.607033 0.005588
O O1 0.885726 0.390907 0.187790
O O2 0.942334 0.214851 0.370207
O O3 0.000000 0.500000 0.500000
O O4 0.852085 0.609797 0.711334
O O5 0.828851 0.651924 0.135154
O O6 0.852529 0.245424 0.704940
O O7 0.734931 0.455740 0.109151
O O8 0.248773 0.047129 0.843846
O O9 0.098325 0.113470 0.827100
O O10 0.595529 0.140615 0.259645
O O11 0.671366 0.218765 0.662365
O O12 0.642472 0.853172 0.240253
O O13 0.500000 0.000000 0.500000
O O14 0.508164 0.812035 0.998212
O O15 0.577419 0.588313 0.105373
O O16 0.000000 0.000000 0.500000
O O17 0.500000 0.500000 0.500000
O O18 0.374177 0.691289 0.890084
#
# Coordination Sequence:
#
# PCOD8034329 Si02
#       8
#     2   2   2   2   2   2   2   2
#     4  11  26  45  69 106 141 175 226 281 331 407
#     4  11  25  44  70  98 139 180 222 282 342 398
#     4  11  25  44  69 100 136 179 227 277 338 405
#     4  12  25  45  69 100 137 178 231 285 340 405
#     4  12  24  45  70  96 135 182 227 279 345 403
#     4  11  24  44  72 100 137 180 222 272 336 407
#     4  12  26  43  71  99 136 181 231 285 342 409
#     4  12  25  45  68 100 139 176 225 290 343 397
#
# _framework density 21.359537
#
# number of rings (size 3 to 8) (size 9 to 14) (size 15 to 20)
#    0.000    0.500    5.000    3.000    1.750    8.000 
#    0.000    0.000    0.000    0.000    0.000    0.000 
#    0.000    0.000    0.000    0.000    0.000    0.000 
#
# Total GULP energy -198441.455339 kJ/mol
# GULP energy per Si atom -12402.590959 kJ/mol
# Density = 2.131092 g / cm^3
# Si number density = 21.359537 Si / 1000 Ang^3
#
#
#
# Elastic Constant Matrix: (Units=GPa)
#
#
# Indices 1 2 3 4 5 6 
#
# 1 103.7410 21.9373 16.7811 -0.5479 11.1024 8.5166
# 2 21.9373 85.2485 22.8875 3.6600 8.2283 0.6674
# 3 16.7811 22.8875 97.2127 1.8833 5.6367 -0.5525
# 4 -0.5479 3.6600 1.8833 33.7163 -4.3693 3.2583
# 5 11.1024 8.2283 5.6367 -4.3693 43.5059 4.7176
# 6 8.5166 0.6674 -0.5525 3.2583 4.7176 41.1069
#
#
#
# Elastic Compliance Matrix: (Units=1/GPa)
#
#
# Indices 1 2 3 4 5 6 
#
# 1 0.010680 -0.002240 -0.001227 0.000436 -0.001881 -0.002012
# 2 -0.002240 0.013243 -0.002591 -0.001618 -0.001820 0.000551
# 3 -0.001227 -0.002591 0.011166 -0.000516 -0.000758 0.000574
# 4 0.000436 -0.001618 -0.000516 0.030626 0.003654 -0.002918
# 5 -0.001881 -0.001820 -0.000758 0.003654 0.024567 -0.002700
# 6 -0.002012 0.000551 0.000574 -0.002918 -0.002700 0.025284
#
#
# Mechanical properties :
#
#
# Convention : Reuss Voigt Hill
#
# Bulk Modulus (GPa) = 43.53081 45.49046 44.51064
# Shear Modulus (GPa) = 36.94353 38.63890 37.79121
#
# Velocity S-wave (km/s) = 4.16336 4.25782 4.21086
# Velocity P-wave (km/s) = 6.59816 6.74654 6.67276
#
# Compressibility (1/GPa) = 0.02297224
#
# Stress axis : x y z
#
# Youngs Moduli (GPa) = 93.62962 75.50905 89.55927
#
# Poissons Ratio (x) = 0.16917 0.10989
# Poissons Ratio (y) = 0.20977 0.23207
# Poissons Ratio (z) = 0.11489 0.19566
#
# Static dielectric constant tensor:
#      x y z
#    x 3.301940 -0.244950 -0.755260 
#    y -0.244950 3.746640 -0.335310 
#    z -0.755260 -0.335310 3.072400 
# 
# 
# High freq. dielectric constant tensor:
#      x y z
#    x 1.853720 0.001840 -0.000100 
#    y 0.001840 1.845170 0.009520 
#    z -0.000100 0.009520 1.844340 
# 
# From -- ./inp_files/12654.got.cif
#   From: 2010.06.25/outbox.cif.g09.slc.cpg/sg2_7_cif.got.tgz:12654.got - 2010.06.27 13:26:56.
