data_PCOD8034850
_publ_section_title
;
Structure prediction by ZEFSAII (Michael W. Deem and Ramdas Pophale) SiO2 
 PCOD8034850
Probable space group: P -1
;
_chemical_formula_sum "Si O2"
_cell_formula_units_Z 14
_cell_length_a 5.436953
_cell_length_b 30.272475
_cell_length_c 12.204357
_cell_angle_alpha 20.574267
_cell_angle_beta 120.931857
_cell_angle_gamma 120.898959
_cell_volume 602.026260
_symmetry_space_group_name_H-M "P -1"
_symmetry_group_IT_number 2
_symmetry_cell_setting 'triclinic'
loop_
_space_group_symop_operation_xyz
x,y,z
-x,-y,-z
loop_
_atom_site_type_symbol
_atom_site_label
_atom_site_fract_x
_atom_site_fract_y
_atom_site_fract_z
Si Si1 0.790919 0.578651 0.340308
Si Si2 0.964762 0.352161 0.347425
Si Si3 0.556621 0.111846 0.335438
Si Si4 0.038544 0.254160 0.821506
Si Si5 0.427905 0.963832 0.853960
Si Si6 0.310562 0.237693 0.497251
Si Si7 0.844854 0.797815 0.695437
O O1 0.500000 0.500000 0.500000
O O2 0.995281 0.631089 0.368641
O O3 0.000000 0.500000 0.500000
O O4 0.667168 0.687465 0.982100
O O5 0.124678 0.308447 0.594542
O O6 0.115089 0.295726 0.408668
O O7 0.625198 0.311410 0.377483
O O8 0.000000 0.500000 0.000000
O O9 0.848356 0.201456 0.173463
O O10 0.500000 0.000000 0.500000
O O11 0.611151 0.049543 0.609696
O O12 0.293009 0.192876 0.082512
O O13 0.764716 0.149145 0.992058
O O14 0.247679 0.060529 0.652668
O O15 0.642703 0.904587 0.124398
O O16 0.137223 0.239871 0.339809
#
# Coordination Sequence:
#
# PCOD8034850 Si02
#       7
#     2   2   2   2   2   2   2
#     4  12  29  47  72 107 147 195 242 305 365 432
#     4  11  27  50  77 103 145 208 250 304 358 448
#     4  12  22  41  75 107 151 190 244 302 376 443
#     4  11  24  48  75 110 146 192 258 307 371 442
#     4  11  24  46  72 112 144 196 245 310 376 442
#     4  11  28  46  75 112 151 189 252 306 376 437
#     4  12  27  46  75 111 152 195 243 311 377 447
#
# _framework density 23.254798999999998
#
# number of rings (size 3 to 8) (size 9 to 14) (size 15 to 20)
#    0.000    0.571    2.857    3.857    8.000    4.000 
#    0.000    0.000    0.000    0.000    0.000    0.000 
#    0.000    0.000    0.000    0.000    0.000    0.000 
#
# Total GULP energy -173523.459496 kJ/mol
# GULP energy per Si atom -12394.532821 kJ/mol
# Density = 2.320187 g / cm^3
# Si number density = 23.254799 Si / 1000 Ang^3
#
#
#
# Elastic Constant Matrix: (Units=GPa)
#
#
# Indices 1 2 3 4 5 6 
#
# 1 111.4108 38.0106 28.3761 -12.3702 -8.1231 -17.2509
# 2 38.0106 135.9589 43.6212 -1.4375 -6.5534 -31.9836
# 3 28.3761 43.6212 124.4213 -1.6465 -16.7903 -0.3989
# 4 -12.3702 -1.4375 -1.6465 36.0989 -8.5151 3.9109
# 5 -8.1231 -6.5534 -16.7903 -8.5151 32.0553 0.5751
# 6 -17.2509 -31.9836 -0.3989 3.9109 0.5751 41.0738
#
#
#
# Elastic Compliance Matrix: (Units=1/GPa)
#
#
# Indices 1 2 3 4 5 6 
#
# 1 0.011028 -0.001778 -0.001471 0.003964 0.002663 0.002818
# 2 -0.001778 0.010720 -0.003417 -0.001298 -0.000532 0.007699
# 3 -0.001471 -0.003417 0.010209 0.001294 0.004680 -0.003368
# 4 0.003964 -0.001298 0.001294 0.031666 0.009873 -0.002486
# 5 0.002663 -0.000532 0.004680 0.009873 0.036849 -0.000706
# 6 0.002818 0.007699 -0.003368 -0.002486 -0.000706 0.031739
#
#
# Mechanical properties :
#
#
# Convention : Reuss Voigt Hill
#
# Bulk Modulus (GPa) = 53.69223 65.75630 59.72427
# Shear Modulus (GPa) = 32.94877 39.29780 36.12329
#
# Velocity S-wave (km/s) = 3.76820 4.11527 3.94556
# Velocity P-wave (km/s) = 6.48624 7.13572 6.81871
#
# Compressibility (1/GPa) = 0.01862467
#
# Stress axis : x y z
#
# Youngs Moduli (GPa) = 90.68138 93.28008 97.95648
#
# Poissons Ratio (x) = 0.16584 0.14408
# Poissons Ratio (y) = 0.16122 0.33474
# Poissons Ratio (z) = 0.13338 0.31876
#
# Static dielectric constant tensor:
#      x y z
#    x 3.664840 0.037050 -0.323300 
#    y 0.037050 4.223240 0.062130 
#    z -0.323300 0.062130 4.437090 
# 
# 
# High freq. dielectric constant tensor:
#      x y z
#    x 1.918480 -0.015010 -0.011380 
#    y -0.015010 1.928890 -0.000210 
#    z -0.011380 -0.000210 1.936190 
# 
# From -- ./inp_files/67460.got.cif
#   From: 2010.06.25/outbox.cif.g09.slc.cpg/sg2_34_cif.got.tgz:67460.got - 2010.06.27 13:26:56.
