data_PCOD8034351
_publ_section_title
;
Structure prediction by ZEFSAII (Michael W. Deem and Ramdas Pophale) SiO2 
 PCOD8034351
Probable space group: P -1
;
_chemical_formula_sum "Si O2"
_cell_formula_units_Z 12
_cell_length_a 15.333308
_cell_length_b 9.772807
_cell_length_c 5.733164
_cell_angle_alpha 102.281779
_cell_angle_beta 63.852778
_cell_angle_gamma 54.676160
_cell_volume 484.342802
_symmetry_space_group_name_H-M "P -1"
_symmetry_group_IT_number 2
_symmetry_cell_setting 'triclinic'
loop_
_space_group_symop_operation_xyz
x,y,z
-x,-y,-z
loop_
_atom_site_type_symbol
_atom_site_label
_atom_site_fract_x
_atom_site_fract_y
_atom_site_fract_z
Si Si1 0.351198 0.214455 0.531166
Si Si2 0.952944 0.485057 0.801402
Si Si3 0.339497 0.715152 0.658260
Si Si4 0.766940 0.434020 0.533680
Si Si5 0.045679 0.099493 0.386731
Si Si6 0.494139 0.785212 0.286639
O O1 0.265431 0.380793 0.478860
O O2 0.476581 0.180622 0.479025
O O3 0.428541 0.982783 0.271444
O O4 0.229573 0.314700 0.915207
O O5 0.000000 0.500000 0.500000
O O6 0.015497 0.256835 0.663266
O O7 0.000000 0.500000 0.000000
O O8 0.500000 0.500000 0.500000
O O9 0.256288 0.670251 0.646812
O O10 0.370659 0.797672 0.453623
O O11 0.223400 0.908894 0.050584
O O12 0.940518 0.245622 0.338587
O O13 0.649529 0.546441 0.925006
O O14 0.000000 0.000000 0.500000
#
# Coordination Sequence:
#
# PCOD8034351 Si02
#       6
#     2   2   2   2   2   2
#     4  11  24  45  73 105 150 198 251 314 388 459
#     4  12  27  49  78 113 157 202 264 323 390 468
#     4  12  25  46  73 110 151 196 259 317 384 466
#     4  12  24  48  77 106 153 204 254 319 392 465
#     4  12  27  49  77 111 154 205 256 323 396 465
#     4  11  24  44  72 107 148 195 254 310 388 458
#
# _framework density 24.775842000000001
#
# number of rings (size 3 to 8) (size 9 to 14) (size 15 to 20)
#    0.000    0.333    3.333    5.500    0.000    4.000 
#    0.000    0.000    0.000    0.000    0.000    0.000 
#    0.000    0.000    0.000    0.000    0.000    0.000 
#
# Total GULP energy -148782.877920 kJ/mol
# GULP energy per Si atom -12398.573160 kJ/mol
# Density = 2.471945 g / cm^3
# Si number density = 24.775842 Si / 1000 Ang^3
#
#
#
# Elastic Constant Matrix: (Units=GPa)
#
#
# Indices 1 2 3 4 5 6 
#
# 1 111.8369 48.0962 36.9800 7.7152 10.5194 0.4568
# 2 48.0962 153.1719 19.5063 6.8993 0.8145 0.0301
# 3 36.9800 19.5063 104.1027 20.2776 -11.5822 -2.1758
# 4 7.7152 6.8993 20.2776 52.8132 1.9666 -3.4806
# 5 10.5194 0.8145 -11.5822 1.9666 46.8996 5.2977
# 6 0.4568 0.0301 -2.1758 -3.4806 5.2977 43.2574
#
#
#
# Elastic Compliance Matrix: (Units=1/GPa)
#
#
# Indices 1 2 3 4 5 6 
#
# 1 0.012031 -0.003248 -0.004154 0.000409 -0.003702 0.000153
# 2 -0.003248 0.007581 -0.000103 -0.000505 0.000603 -0.000091
# 3 -0.004154 -0.000103 0.012404 -0.004311 0.004199 -0.000193
# 4 0.000409 -0.000505 -0.004311 0.020792 -0.002214 0.001723
# 5 -0.003702 0.000603 0.004199 -0.002214 0.023590 -0.002817
# 6 0.000153 -0.000091 -0.000193 0.001723 -0.002817 0.023590
#
#
# Mechanical properties :
#
#
# Convention : Reuss Voigt Hill
#
# Bulk Modulus (GPa) = 58.80142 64.25295 61.52718
# Shear Modulus (GPa) = 41.43659 46.22931 43.83295
#
# Velocity S-wave (km/s) = 4.09401 4.32430 4.21073
# Velocity P-wave (km/s) = 6.79211 7.13602 6.96619
#
# Compressibility (1/GPa) = 0.01700639
#
# Stress axis : x y z
#
# Youngs Moduli (GPa) = 83.11801 131.90742 80.62106
#
# Poissons Ratio (x) = 0.42838 0.33488
# Poissons Ratio (y) = 0.26993 0.00834
# Poissons Ratio (z) = 0.34525 0.01364
#
# Static dielectric constant tensor:
#      x y z
#    x 4.516940 0.325160 -0.273800 
#    y 0.325160 4.758820 0.262100 
#    z -0.273800 0.262100 4.564320 
# 
# 
# High freq. dielectric constant tensor:
#      x y z
#    x 1.985190 0.016160 -0.009720 
#    y 0.016160 1.995770 0.015400 
#    z -0.009720 0.015400 1.991630 
# 
# From -- ./inp_files/22882.got.cif
#   From: 2010.06.25/outbox.cif.g09.slc.cpg/sg2_12_cif.got.tgz:22882.got - 2010.06.27 13:26:56.
