data_PCOD8034007
_publ_section_title
;
Structure prediction by ZEFSAII (Michael W. Deem and Ramdas Pophale) SiO2 
 PCOD8034007
Probable space group: P -1
;
_chemical_formula_sum "Si O2"
_cell_formula_units_Z 16
_cell_length_a 6.503428
_cell_length_b 11.592801
_cell_length_c 11.093070
_cell_angle_alpha 88.037998
_cell_angle_beta 78.571245
_cell_angle_gamma 56.519394
_cell_volume 680.847244
_symmetry_space_group_name_H-M "P -1"
_symmetry_group_IT_number 2
_symmetry_cell_setting 'triclinic'
loop_
_space_group_symop_operation_xyz
x,y,z
-x,-y,-z
loop_
_atom_site_type_symbol
_atom_site_label
_atom_site_fract_x
_atom_site_fract_y
_atom_site_fract_z
Si Si1 0.203495 0.160538 0.903870
Si Si2 0.971706 0.435272 0.626184
Si Si3 0.045816 0.909648 0.675238
Si Si4 0.409188 0.305596 0.747457
Si Si5 0.526597 0.698438 0.766889
Si Si6 0.384163 0.657370 0.038067
Si Si7 0.062903 0.820874 0.412654
Si Si8 0.665294 0.874187 0.848356
O O1 0.351438 0.190617 0.787377
O O2 0.910956 0.245320 0.893799
O O3 0.362676 0.992196 0.893281
O O4 0.219342 0.207014 0.035713
O O5 0.694002 0.538045 0.712180
O O6 0.018932 0.284516 0.604986
O O7 0.000000 0.500000 0.500000
O O8 0.167422 0.428648 0.699826
O O9 0.306617 0.775400 0.692774
O O10 0.978348 0.877352 0.554741
O O11 0.820686 0.940463 0.789239
O O12 0.065848 0.044019 0.666210
O O13 0.450538 0.355742 0.867141
O O14 0.638501 0.250915 0.630735
O O15 0.695135 0.763884 0.749025
O O16 0.416626 0.724925 0.913671
O O17 0.500000 0.500000 0.000000
#
# Coordination Sequence:
#
# PCOD8034007 Si02
#       8
#     2   2   2   2   2   2   2   2
#     4  11  24  43  69 107 146 191 234 293 357 428
#     4  12  29  50  74 106 144 197 243 300 361 435
#     4  11  25  47  76 108 145 188 245 307 355 430
#     4  12  25  46  73 103 149 186 243 292 365 426
#     4  12  26  44  72 107 148 189 240 299 360 436
#     4  12  27  43  70 107 149 193 236 294 358 439
#     4  11  26  48  76 107 141 194 245 301 364 425
#     4  11  24  43  73 106 148 188 242 292 362 427
#
# _framework density 23.500132000000001
#
# number of rings (size 3 to 8) (size 9 to 14) (size 15 to 20)
#    0.000    0.500    3.750    3.750    5.250    5.500 
#    0.000    3.125    0.000    0.000    0.000    0.000 
#    0.000    0.000    0.000    0.000    0.000    0.000 
#
# Total GULP energy -198384.556166 kJ/mol
# GULP energy per Si atom -12399.034760 kJ/mol
# Density = 2.344664 g / cm^3
# Si number density = 23.500132 Si / 1000 Ang^3
#
#
#
# Elastic Constant Matrix: (Units=GPa)
#
#
# Indices 1 2 3 4 5 6 
#
# 1 96.1145 49.3697 27.2333 -11.5193 6.6220 -10.5337
# 2 49.3697 124.7807 25.0283 -0.2657 14.8955 -11.1664
# 3 27.2333 25.0283 84.2495 -13.8318 -1.2555 -1.3870
# 4 -11.5193 -0.2657 -13.8318 39.3458 -3.8483 3.6888
# 5 6.6220 14.8955 -1.2555 -3.8483 41.0237 -4.3859
# 6 -10.5337 -11.1664 -1.3870 3.6888 -4.3859 47.3234
#
#
#
# Elastic Compliance Matrix: (Units=1/GPa)
#
#
# Indices 1 2 3 4 5 6 
#
# 1 0.014238 -0.004939 -0.002609 0.003049 -0.000119 0.001679
# 2 -0.004939 0.010895 -0.002087 -0.002553 -0.003323 0.001301
# 3 -0.002609 -0.002087 0.014077 0.004438 0.001938 -0.000827
# 4 0.003049 -0.002553 0.004438 0.028310 0.003043 -0.001718
# 5 -0.000119 -0.003323 0.001938 0.003043 0.026099 0.001428
# 6 0.001679 0.001301 -0.000827 -0.001718 0.001428 0.022054
#
#
# Mechanical properties :
#
#
# Convention : Reuss Voigt Hill
#
# Bulk Modulus (GPa) = 50.15237 56.48969 53.32103
# Shear Modulus (GPa) = 35.31360 39.10615 37.20987
#
# Velocity S-wave (km/s) = 3.88067 4.08374 3.98350
# Velocity P-wave (km/s) = 6.43950 6.80633 6.62545
#
# Compressibility (1/GPa) = 0.01993924
#
# Stress axis : x y z
#
# Youngs Moduli (GPa) = 70.23453 91.78931 71.03971
#
# Poissons Ratio (x) = 0.45336 0.18532
# Poissons Ratio (y) = 0.34690 0.14827
# Poissons Ratio (z) = 0.18322 0.19158
#
# Static dielectric constant tensor:
#      x y z
#    x 4.285610 -0.009030 0.006730 
#    y -0.009030 4.227180 -0.175230 
#    z 0.006730 -0.175230 4.354490 
# 
# 
# High freq. dielectric constant tensor:
#      x y z
#    x 1.923910 -0.003030 0.001130 
#    y -0.003030 1.934500 -0.010810 
#    z 0.001130 -0.010810 1.944270 
# 
# From -- ./inp_files/364486.got.cif
#   From: 2010.06.25/outbox.cif.g09.slc.cpg/sg2_183_cif.got.tgz:364486.got - 2010.06.27 13:26:56.
