data_PCOD8034252
_publ_section_title
;
Structure prediction by ZEFSAII (Michael W. Deem and Ramdas Pophale) SiO2 
 PCOD8034252
Probable space group: P -1
;
_chemical_formula_sum "Si O2"
_cell_formula_units_Z 16
_cell_length_a 11.944502
_cell_length_b 6.934235
_cell_length_c 23.494845
_cell_angle_alpha 120.366284
_cell_angle_beta 28.673937
_cell_angle_gamma 129.082357
_cell_volume 718.857020
_symmetry_space_group_name_H-M "P -1"
_symmetry_group_IT_number 2
_symmetry_cell_setting 'triclinic'
loop_
_space_group_symop_operation_xyz
x,y,z
-x,-y,-z
loop_
_atom_site_type_symbol
_atom_site_label
_atom_site_fract_x
_atom_site_fract_y
_atom_site_fract_z
Si Si1 0.004583 0.304111 0.597334
Si Si2 0.340990 0.663334 0.932004
Si Si3 0.123065 0.872027 0.245988
Si Si4 0.782167 0.592764 0.165994
Si Si5 0.779989 0.086206 0.253867
Si Si6 0.190696 0.853508 0.623181
Si Si7 0.277061 0.495405 0.058144
Si Si8 0.418079 0.153174 0.340289
O O1 0.060291 0.592437 0.607396
O O2 0.225431 0.270258 0.458763
O O3 0.011629 0.243601 0.651455
O O4 0.727074 0.118204 0.665626
O O5 0.277527 0.451249 0.881105
O O6 0.588136 0.911663 0.838645
O O7 0.404954 0.575453 0.950779
O O8 0.091527 0.716006 0.058322
O O9 0.149084 0.670780 0.163254
O O10 0.939407 0.972155 0.311987
O O11 0.639366 0.336151 0.226072
O O12 0.682772 0.790519 0.259796
O O13 0.862552 0.218870 0.297795
O O14 0.543669 0.124938 0.338760
O O15 0.039388 0.215416 0.118132
O O16 0.500000 0.000000 0.500000
O O17 0.500000 0.500000 0.000000
#
# Coordination Sequence:
#
# PCOD8034252 Si02
#       8
#     2   2   2   2   2   2   2   2
#     4  11  26  46  74 103 139 184 233 286 359 413
#     4  11  24  44  69  99 140 190 224 290 347 410
#     4  12  25  46  71 102 147 179 237 289 349 418
#     4  11  24  45  69 102 141 180 236 284 351 413
#     4  12  25  42  71 100 138 182 232 289 344 418
#     4  12  27  45  73 105 139 186 233 289 350 419
#     4  12  25  43  69 103 141 187 236 286 347 412
#     4  11  25  47  71 103 141 182 231 295 345 422
#
# _framework density 22.257555
#
# number of rings (size 3 to 8) (size 9 to 14) (size 15 to 20)
#    0.000    0.500    3.750    4.125    3.500    1.500 
#    0.000    3.125    0.000    0.000    0.000    0.000 
#    0.000    0.000    0.000    0.000    0.000    0.000 
#
# Total GULP energy -198490.823981 kJ/mol
# GULP energy per Si atom -12405.676499 kJ/mol
# Density = 2.220690 g / cm^3
# Si number density = 22.257555 Si / 1000 Ang^3
#
#
#
# Elastic Constant Matrix: (Units=GPa)
#
#
# Indices 1 2 3 4 5 6 
#
# 1 121.5353 35.3168 21.9356 10.7500 -4.5086 -7.8453
# 2 35.3168 120.4127 32.5114 5.6859 -13.1948 4.3896
# 3 21.9356 32.5114 87.7737 -3.3455 -11.3976 -2.2142
# 4 10.7500 5.6859 -3.3455 32.8768 2.5386 -1.6112
# 5 -4.5086 -13.1948 -11.3976 2.5386 43.3140 1.5405
# 6 -7.8453 4.3896 -2.2142 -1.6112 1.5405 32.0342
#
#
#
# Elastic Compliance Matrix: (Units=1/GPa)
#
#
# Indices 1 2 3 4 5 6 
#
# 1 0.009596 -0.002352 -0.001579 -0.002768 -0.000057 0.002427
# 2 -0.002352 0.010220 -0.003026 -0.001596 0.002250 -0.002374
# 3 -0.001579 -0.003026 0.013311 0.002267 0.002250 0.000954
# 4 -0.002768 -0.001596 0.002267 0.032060 -0.002107 0.001411
# 5 -0.000057 0.002250 0.002250 -0.002107 0.024534 -0.001453
# 6 0.002427 -0.002374 0.000954 0.001411 -0.001453 0.032343
#
#
# Mechanical properties :
#
#
# Convention : Reuss Voigt Hill
#
# Bulk Modulus (GPa) = 52.04824 56.58325 54.31574
# Shear Modulus (GPa) = 35.11655 37.64221 36.37938
#
# Velocity S-wave (km/s) = 3.97638 4.11689 4.04725
# Velocity P-wave (km/s) = 6.67214 6.93366 6.80416
#
# Compressibility (1/GPa) = 0.01921294
#
# Stress axis : x y z
#
# Youngs Moduli (GPa) = 104.21123 97.84439 75.12610
#
# Poissons Ratio (x) = 0.23016 0.11859
# Poissons Ratio (y) = 0.24513 0.22735
# Poissons Ratio (z) = 0.16450 0.29610
#
# Static dielectric constant tensor:
#      x y z
#    x 4.071440 0.102070 0.044580 
#    y 0.102070 3.992640 -0.115350 
#    z 0.044580 -0.115350 4.014490 
# 
# 
# High freq. dielectric constant tensor:
#      x y z
#    x 1.885400 0.005440 -0.000120 
#    y 0.005440 1.879520 -0.010100 
#    z -0.000120 -0.010100 1.883470 
# 
# From -- ./inp_files/69618.got.cif
#   From: 2010.06.25/outbox.cif.g09.slc.cpg/sg2_35_cif.got.tgz:69618.got - 2010.06.27 13:26:56.
