data_PCOD8034601
_publ_section_title
;
Structure prediction by ZEFSAII (Michael W. Deem and Ramdas Pophale) SiO2 
 PCOD8034601
Probable space group: P -1
;
_chemical_formula_sum "Si O2"
_cell_formula_units_Z 16
_cell_length_a 9.002297
_cell_length_b 17.041374
_cell_length_c 14.044062
_cell_angle_alpha 41.330629
_cell_angle_beta 30.585756
_cell_angle_gamma 40.894564
_cell_volume 684.484099
_symmetry_space_group_name_H-M "P -1"
_symmetry_group_IT_number 2
_symmetry_cell_setting 'triclinic'
loop_
_space_group_symop_operation_xyz
x,y,z
-x,-y,-z
loop_
_atom_site_type_symbol
_atom_site_label
_atom_site_fract_x
_atom_site_fract_y
_atom_site_fract_z
Si Si1 0.622243 0.655764 0.604615
Si Si2 0.331680 0.807076 0.160949
Si Si3 0.198076 0.052836 0.218766
Si Si4 0.770956 0.367123 0.460473
Si Si5 0.790394 0.037159 0.278101
Si Si6 0.275468 0.817028 0.493882
Si Si7 0.687223 0.391483 0.783690
Si Si8 0.479712 0.307010 0.155325
O O1 0.496599 0.780251 0.496967
O O2 0.521796 0.540284 0.722112
O O3 0.482608 0.674970 0.769950
O O4 0.984890 0.631214 0.426714
O O5 0.247983 0.731421 0.360878
O O6 0.462791 0.705112 0.096215
O O7 0.571178 0.873493 0.006870
O O8 0.025476 0.921429 0.194758
O O9 0.957683 0.064822 0.255488
O O10 0.060097 0.111919 0.342496
O O11 0.373707 0.905982 0.282592
O O12 0.500000 0.500000 0.500000
O O13 0.719043 0.312883 0.437568
O O14 0.120210 0.370997 0.266272
O O15 0.647709 0.158404 0.178902
O O16 0.500000 0.000000 0.500000
O O17 0.678819 0.371515 0.921094
#
# Coordination Sequence:
#
# PCOD8034601 Si02
#       8
#     2   2   2   2   2   2   2   2
#     4  11  24  48  74 105 146 194 247 307 355 436
#     4  12  25  46  70 110 148 188 249 302 367 436
#     4  11  25  44  72 106 146 190 245 303 368 438
#     4  12  26  46  73 105 150 195 244 304 369 436
#     4  12  23  45  75 103 149 190 241 307 359 438
#     4  11  24  45  72 102 146 192 241 300 370 432
#     4  11  26  45  74 106 147 191 249 298 366 437
#     4  12  25  48  73 108 142 197 246 300 370 432
#
# _framework density 23.375268999999999
#
# number of rings (size 3 to 8) (size 9 to 14) (size 15 to 20)
#    0.000    0.500    5.000    2.250    3.500    2.500 
#    0.000    2.500    0.000    0.000    0.000    0.000 
#    0.000    0.000    0.000    0.000    0.000    0.000 
#
# Total GULP energy -198237.066905 kJ/mol
# GULP energy per Si atom -12389.816682 kJ/mol
# Density = 2.332207 g / cm^3
# Si number density = 23.375269 Si / 1000 Ang^3
#
#
#
# Elastic Constant Matrix: (Units=GPa)
#
#
# Indices 1 2 3 4 5 6 
#
# 1 80.1904 20.6411 19.1474 -2.9379 -1.8404 7.6987
# 2 20.6411 131.8734 24.5214 -7.9158 -5.9905 -3.5638
# 3 19.1474 24.5214 92.5447 -9.9251 2.5779 4.8143
# 4 -2.9379 -7.9158 -9.9251 29.1443 6.1761 6.7078
# 5 -1.8404 -5.9905 2.5779 6.1761 41.4167 -4.7774
# 6 7.6987 -3.5638 4.8143 6.7078 -4.7774 37.9256
#
#
#
# Elastic Compliance Matrix: (Units=1/GPa)
#
#
# Indices 1 2 3 4 5 6 
#
# 1 0.013741 -0.001779 -0.002138 0.000816 0.000039 -0.002824
# 2 -0.001779 0.008355 -0.001861 0.000866 0.001276 0.001390
# 3 -0.002138 -0.001861 0.012404 0.004490 -0.002079 -0.002371
# 4 0.000816 0.000866 0.004490 0.039610 -0.007010 -0.008543
# 5 0.000039 0.001276 -0.002079 -0.007010 0.026071 0.004900
# 6 -0.002824 0.001390 -0.002371 -0.008543 0.004900 0.029501
#
#
# Mechanical properties :
#
#
# Convention : Reuss Voigt Hill
#
# Bulk Modulus (GPa) = 43.58474 48.13651 45.86062
# Shear Modulus (GPa) = 33.58298 37.71722 35.65010
#
# Velocity S-wave (km/s) = 3.79448 4.02126 3.90952
# Velocity P-wave (km/s) = 6.15496 6.49603 6.32779
#
# Compressibility (1/GPa) = 0.02294381
#
# Stress axis : x y z
#
# Youngs Moduli (GPa) = 72.77664 119.68929 80.62033
#
# Poissons Ratio (x) = 0.21289 0.17239
# Poissons Ratio (y) = 0.12945 0.15002
# Poissons Ratio (z) = 0.15562 0.22272
#
# Static dielectric constant tensor:
#      x y z
#    x 4.054070 0.396270 0.175390 
#    y 0.396270 4.572950 -0.309390 
#    z 0.175390 -0.309390 4.084080 
# 
# 
# High freq. dielectric constant tensor:
#      x y z
#    x 1.914510 0.012140 0.016300 
#    y 0.012140 1.946420 -0.007700 
#    z 0.016300 -0.007700 1.919310 
# 
# From -- ./inp_files/507277.got.cif
#   From: 2010.06.25/outbox.cif.g09.slc.cpg/sg2_254_cif.got.tgz:507277.got - 2010.06.27 13:26:56.
