data_PCOD8034151
_publ_section_title
;
Structure prediction by ZEFSAII (Michael W. Deem and Ramdas Pophale) SiO2 
 PCOD8034151
Probable space group: P -1
;
_chemical_formula_sum "Si O2"
_cell_formula_units_Z 12
_cell_length_a 6.686540
_cell_length_b 5.472338
_cell_length_c 26.388617
_cell_angle_alpha 56.832932
_cell_angle_beta 49.780754
_cell_angle_gamma 47.650470
_cell_volume 534.043617
_symmetry_space_group_name_H-M "P -1"
_symmetry_group_IT_number 2
_symmetry_cell_setting 'triclinic'
loop_
_space_group_symop_operation_xyz
x,y,z
-x,-y,-z
loop_
_atom_site_type_symbol
_atom_site_label
_atom_site_fract_x
_atom_site_fract_y
_atom_site_fract_z
Si Si1 0.714852 0.121126 0.499843
Si Si2 0.585109 0.291828 0.708192
Si Si3 0.736798 0.122371 0.380452
Si Si4 0.740726 0.109188 0.883405
Si Si5 0.424480 0.700574 0.792759
Si Si6 0.172635 0.105184 0.998328
O O1 0.500000 0.500000 0.500000
O O2 0.826498 0.078188 0.429306
O O3 0.544856 0.936764 0.569988
O O4 0.000000 0.000000 0.500000
O O5 0.400106 0.514249 0.664615
O O6 0.491832 0.516335 0.748562
O O7 0.500711 0.998997 0.752037
O O8 0.946645 0.143018 0.666686
O O9 0.628605 0.454593 0.832179
O O10 0.486294 0.001929 0.929679
O O11 0.070388 0.828694 0.842390
O O12 0.760498 0.145108 0.936638
O O13 0.000000 0.500000 0.000000
O O14 0.000000 0.000000 0.000000
#
# Coordination Sequence:
#
# PCOD8034151 Si02
#       6
#     2   2   2   2   2   2
#     4  11  24  43  76 103 141 184 232 309 360 421
#     4  12  28  47  74 103 146 196 240 294 354 430
#     4  11  26  46  70 108 140 185 246 294 362 427
#     4  11  26  50  74 108 146 187 246 296 364 427
#     4  12  28  47  74 103 146 196 240 294 354 430
#     4  11  26  46  77 109 143 188 234 310 361 423
#
# _framework density 22.470078999999998
#
# number of rings (size 3 to 8) (size 9 to 14) (size 15 to 20)
#    0.000    0.667    1.667    4.000    9.333    8.000 
#    0.000    0.000    0.000    0.000    0.000    0.000 
#    0.000    0.000    0.000    0.000    0.000    0.000 
#
# Total GULP energy -148660.428864 kJ/mol
# GULP energy per Si atom -12388.369072 kJ/mol
# Density = 2.241894 g / cm^3
# Si number density = 22.470079 Si / 1000 Ang^3
#
#
#
# Elastic Constant Matrix: (Units=GPa)
#
#
# Indices 1 2 3 4 5 6 
#
# 1 171.9239 43.8718 45.5854 -6.2103 -5.3831 -1.1493
# 2 43.8718 100.3541 31.9301 -7.1713 9.4857 -10.0897
# 3 45.5854 31.9301 115.0380 -6.8219 -0.2666 0.2896
# 4 -6.2103 -7.1713 -6.8219 50.6019 -38.3330 2.1192
# 5 -5.3831 9.4857 -0.2666 -38.3330 46.6850 -1.5762
# 6 -1.1493 -10.0897 0.2896 2.1192 -1.5762 55.9694
#
#
#
# Elastic Compliance Matrix: (Units=1/GPa)
#
#
# Indices 1 2 3 4 5 6 
#
# 1 0.007281 -0.002764 -0.001902 0.003450 0.004212 -0.000351
# 2 -0.002764 0.012491 -0.002566 -0.002978 -0.005243 0.002173
# 3 -0.001902 -0.002566 0.010336 0.002856 0.002686 -0.000588
# 4 0.003450 -0.002978 0.002856 0.055403 0.046467 -0.001270
# 5 0.004212 -0.005243 0.002686 0.046467 0.061110 -0.000911
# 6 -0.000351 0.002173 -0.000588 -0.001270 -0.000911 0.018277
#
#
# Mechanical properties :
#
#
# Convention : Reuss Voigt Hill
#
# Bulk Modulus (GPa) = 63.93009 70.01004 66.97007
# Shear Modulus (GPa) = 27.08910 48.37983 37.73447
#
# Velocity S-wave (km/s) = 3.47589 4.64516 4.10240
# Velocity P-wave (km/s) = 6.67997 7.74562 7.23245
#
# Compressibility (1/GPa) = 0.01564209
#
# Stress axis : x y z
#
# Youngs Moduli (GPa) = 137.35266 80.05846 96.75042
#
# Poissons Ratio (x) = 0.22131 0.18407
# Poissons Ratio (y) = 0.37969 0.24824
# Poissons Ratio (z) = 0.26131 0.20541
#
# Static dielectric constant tensor:
#      x y z
#    x 4.172790 -0.250570 -0.023970 
#    y -0.250570 4.350630 0.013830 
#    z -0.023970 0.013830 4.558590 
# 
# 
# High freq. dielectric constant tensor:
#      x y z
#    x 1.896400 -0.025380 -0.001760 
#    y -0.025380 1.893990 -0.001980 
#    z -0.001760 -0.001980 1.913590 
# 
# From -- ./inp_files/114346.got.cif
#   From: 2010.06.25/outbox.cif.g09.slc.cpg/sg2_58_cif.got.tgz:114346.got - 2010.06.27 13:26:56.
