data_PCOD8034505
_publ_section_title
;
Structure prediction by ZEFSAII (Michael W. Deem and Ramdas Pophale) SiO2 
 PCOD8034505
Probable space group: P -1
;
_chemical_formula_sum "Si O2"
_cell_formula_units_Z 14
_cell_length_a 15.386636
_cell_length_b 12.388175
_cell_length_c 8.575212
_cell_angle_alpha 120.450874
_cell_angle_beta 151.098823
_cell_angle_gamma 51.952368
_cell_volume 619.795263
_symmetry_space_group_name_H-M "P -1"
_symmetry_group_IT_number 2
_symmetry_cell_setting 'triclinic'
loop_
_space_group_symop_operation_xyz
x,y,z
-x,-y,-z
loop_
_atom_site_type_symbol
_atom_site_label
_atom_site_fract_x
_atom_site_fract_y
_atom_site_fract_z
Si Si1 0.942255 0.080305 0.304886
Si Si2 0.653733 0.649524 0.848335
Si Si3 0.745165 0.362951 0.876168
Si Si4 0.060362 0.347723 0.934879
Si Si5 0.894747 0.855579 0.862218
Si Si6 0.703247 0.376524 0.173078
Si Si7 0.701535 0.876146 0.268034
O O1 0.119142 0.119334 0.551385
O O2 0.732287 0.216202 0.096046
O O3 0.000000 0.000000 0.500000
O O4 0.902192 0.991049 0.042801
O O5 0.781048 0.484433 0.933903
O O6 0.430642 0.668763 0.493616
O O7 0.728626 0.707554 0.860710
O O8 0.680722 0.732322 0.100673
O O9 0.721019 0.416737 0.053838
O O10 0.927565 0.218842 0.034576
O O11 0.885176 0.358418 0.554314
O O12 0.095369 0.246437 0.058961
O O13 0.000000 0.500000 0.000000
O O14 0.711970 0.892552 0.484355
O O15 0.500000 0.500000 0.000000
O O16 0.500000 0.000000 0.000000
#
# Coordination Sequence:
#
# PCOD8034505 Si02
#       7
#     2   2   2   2   2   2   2
#     4  12  25  50  74 103 150 194 243 300 370 442
#     4  11  24  45  69 108 142 189 242 301 364 429
#     4  11  25  45  76 103 144 190 247 302 365 438
#     4  12  24  46  72 107 149 183 244 302 363 438
#     4  12  25  47  75 106 142 198 238 304 373 437
#     4  12  27  46  74 110 146 198 243 303 366 436
#     4  12  27  47  72 106 144 187 249 306 364 441
#
# _framework density 22.588104999999999
#
# number of rings (size 3 to 8) (size 9 to 14) (size 15 to 20)
#    0.000    0.286    5.714    2.143    6.000    2.286 
#    2.571    1.429    0.000    0.000    0.000    0.000 
#    0.000    0.000    0.000    0.000    0.000    0.000 
#
# Total GULP energy -173459.516524 kJ/mol
# GULP energy per Si atom -12389.965466 kJ/mol
# Density = 2.253669 g / cm^3
# Si number density = 22.588105 Si / 1000 Ang^3
#
#
#
# Elastic Constant Matrix: (Units=GPa)
#
#
# Indices 1 2 3 4 5 6 
#
# 1 108.5394 50.1977 57.9836 14.5386 -11.1480 -6.2186
# 2 50.1977 168.4777 77.5587 5.3231 2.2758 -17.8544
# 3 57.9836 77.5587 128.0093 15.8433 -24.9438 2.3355
# 4 14.5386 5.3231 15.8433 39.4761 -9.8428 1.5503
# 5 -11.1480 2.2758 -24.9438 -9.8428 37.5364 0.1926
# 6 -6.2186 -17.8544 2.3355 1.5503 0.1926 42.9762
#
#
#
# Elastic Compliance Matrix: (Units=1/GPa)
#
#
# Indices 1 2 3 4 5 6 
#
# 1 0.012803 -0.001447 -0.004593 -0.002710 0.000119 0.001598
# 2 -0.001447 0.009847 -0.006451 0.000318 -0.005252 0.004244
# 3 -0.004593 -0.006451 0.015840 -0.001331 0.009226 -0.004199
# 4 -0.002710 0.000318 -0.001331 0.028295 0.005718 -0.001234
# 5 0.000119 -0.005252 0.009226 0.005718 0.034640 -0.003028
# 6 0.001598 0.004244 -0.004199 -0.001234 -0.003028 0.025549
#
#
# Mechanical properties :
#
#
# Convention : Reuss Voigt Hill
#
# Bulk Modulus (GPa) = 74.03048 86.27848 80.15448
# Shear Modulus (GPa) = 31.95726 38.61682 35.28704
#
# Velocity S-wave (km/s) = 3.76544 4.13923 3.95675
# Velocity P-wave (km/s) = 7.19375 7.81816 7.51244
#
# Compressibility (1/GPa) = 0.01350795
#
# Stress axis : x y z
#
# Youngs Moduli (GPa) = 78.10734 101.55481 63.13108
#
# Poissons Ratio (x) = 0.14692 0.28998
# Poissons Ratio (y) = 0.11299 0.40725
# Poissons Ratio (z) = 0.35877 0.65512
#
# Static dielectric constant tensor:
#      x y z
#    x 4.185360 -0.063690 -0.177190 
#    y -0.063690 4.558100 0.058400 
#    z -0.177190 0.058400 4.171070 
# 
# 
# High freq. dielectric constant tensor:
#      x y z
#    x 1.895530 -0.006640 -0.020590 
#    y -0.006640 1.915830 0.004950 
#    z -0.020590 0.004950 1.890540 
# 
# From -- ./inp_files/217508.got.cif
#   From: 2010.06.25/outbox.cif.g09.slc.cpg/sg2_109_cif.got.tgz:217508.got - 2010.06.27 13:26:56.
