data_PCOD8034412
_publ_section_title
;
Structure prediction by ZEFSAII (Michael W. Deem and Ramdas Pophale) SiO2 
 PCOD8034412
Probable space group: P -1
;
_chemical_formula_sum "Si O2"
_cell_formula_units_Z 12
_cell_length_a 6.687587
_cell_length_b 16.228861
_cell_length_c 12.478318
_cell_angle_alpha 146.091081
_cell_angle_beta 46.023844
_cell_angle_gamma 137.367278
_cell_volume 498.979666
_symmetry_space_group_name_H-M "P -1"
_symmetry_group_IT_number 2
_symmetry_cell_setting 'triclinic'
loop_
_space_group_symop_operation_xyz
x,y,z
-x,-y,-z
loop_
_atom_site_type_symbol
_atom_site_label
_atom_site_fract_x
_atom_site_fract_y
_atom_site_fract_z
Si Si1 0.312382 0.237859 0.772799
Si Si2 0.842936 0.308622 0.338762
Si Si3 0.811622 0.163693 0.422699
Si Si4 0.335919 0.519402 0.915959
Si Si5 0.139237 0.926001 0.078064
Si Si6 0.374298 0.411836 0.562410
O O1 0.472532 0.117612 0.545507
O O2 0.331431 0.357108 0.797788
O O3 0.961400 0.130437 0.821707
O O4 0.478914 0.328989 0.916815
O O5 0.822621 0.212583 0.349429
O O6 0.504384 0.273678 0.383079
O O7 0.000000 0.500000 0.500000
O O8 0.002671 0.238751 0.116172
O O9 0.013784 0.320367 0.587157
O O10 0.947472 0.029436 0.229201
O O11 0.474465 0.533140 0.758261
O O12 0.000000 0.500000 0.000000
O O13 0.500000 0.000000 0.000000
O O14 0.500000 0.500000 0.500000
#
# Coordination Sequence:
#
# PCOD8034412 Si02
#       6
#     2   2   2   2   2   2
#     4  11  26  47  75 105 155 196 251 304 374 452
#     4  12  25  47  75 107 147 197 252 307 363 441
#     4  12  25  48  71 105 152 196 245 305 377 441
#     4  11  24  44  74 116 145 193 252 313 368 433
#     4  12  28  49  73 110 153 199 248 309 379 445
#     4  12  24  41  74 112 148 187 249 307 367 439
#
# _framework density 24.049078000000002
#
# number of rings (size 3 to 8) (size 9 to 14) (size 15 to 20)
#    0.000    0.333    6.667    2.000    4.667    0.000 
#    3.000    1.667    0.000    0.000    0.000    0.000 
#    0.000    0.000    0.000    0.000    0.000    0.000 
#
# Total GULP energy -148673.445360 kJ/mol
# GULP energy per Si atom -12389.453780 kJ/mol
# Density = 2.399434 g / cm^3
# Si number density = 24.049078 Si / 1000 Ang^3
#
#
#
# Elastic Constant Matrix: (Units=GPa)
#
#
# Indices 1 2 3 4 5 6 
#
# 1 91.2000 12.3292 40.8994 -12.0905 -7.4672 -18.3175
# 2 12.3292 98.3717 50.9508 -27.1443 -5.2369 -10.6798
# 3 40.8994 50.9508 170.5489 -21.8527 -19.4987 -11.3878
# 4 -12.0905 -27.1443 -21.8527 39.7592 -2.3146 -1.6644
# 5 -7.4672 -5.2369 -19.4987 -2.3146 41.9109 -9.6375
# 6 -18.3175 -10.6798 -11.3878 -1.6644 -9.6375 42.6531
#
#
#
# Elastic Compliance Matrix: (Units=1/GPa)
#
#
# Indices 1 2 3 4 5 6 
#
# 1 0.014076 0.001678 -0.002456 0.004555 0.003379 0.006750
# 2 0.001678 0.014668 -0.003059 0.009159 0.002235 0.004439
# 3 -0.002456 -0.003059 0.008054 0.001831 0.003291 0.001145
# 4 0.004555 0.009159 0.001831 0.034487 0.006446 0.007540
# 5 0.003379 0.002235 0.003291 0.006446 0.028850 0.009660
# 6 0.006750 0.004439 0.001145 0.007540 0.009660 0.030238
#
#
# Mechanical properties :
#
#
# Convention : Reuss Voigt Hill
#
# Bulk Modulus (GPa) = 34.33768 63.16437 48.75103
# Shear Modulus (GPa) = 33.84019 41.92739 37.88379
#
# Velocity S-wave (km/s) = 3.75524 4.17995 3.97327
# Velocity P-wave (km/s) = 5.75427 7.04398 6.43154
#
# Compressibility (1/GPa) = 0.02912253
#
# Stress axis : x y z
#
# Youngs Moduli (GPa) = 71.04351 68.17731 124.16941
#
# Poissons Ratio (x) = -0.11437 0.30497
# Poissons Ratio (y) = -0.11918 0.37980
# Poissons Ratio (z) = 0.17449 0.20854
#
# Static dielectric constant tensor:
#      x y z
#    x 4.093320 0.816220 -0.122650 
#    y 0.816220 3.647130 -0.381600 
#    z -0.122650 -0.381600 4.933430 
# 
# 
# High freq. dielectric constant tensor:
#      x y z
#    x 1.961710 -0.001180 -0.010210 
#    y -0.001180 1.947070 -0.020090 
#    z -0.010210 -0.020090 1.976440 
# 
# From -- ./inp_files/368141.got.cif
#   From: 2010.06.25/outbox.cif.g09.slc.cpg/sg2_185_cif.got.tgz:368141.got - 2010.06.27 13:26:56.
