data_PCOD8034349
_publ_section_title
;
Structure prediction by ZEFSAII (Michael W. Deem and Ramdas Pophale) SiO2 
 PCOD8034349
Probable space group: P -1
;
_chemical_formula_sum "Si O2"
_cell_formula_units_Z 14
_cell_length_a 16.977597
_cell_length_b 10.909138
_cell_length_c 11.460296
_cell_angle_alpha 46.195703
_cell_angle_beta 147.680480
_cell_angle_gamma 150.064797
_cell_volume 559.848392
_symmetry_space_group_name_H-M "P -1"
_symmetry_group_IT_number 2
_symmetry_cell_setting 'triclinic'
loop_
_space_group_symop_operation_xyz
x,y,z
-x,-y,-z
loop_
_atom_site_type_symbol
_atom_site_label
_atom_site_fract_x
_atom_site_fract_y
_atom_site_fract_z
Si Si1 0.384159 0.260321 0.086275
Si Si2 0.278913 0.627973 0.907046
Si Si3 0.312925 0.179886 0.587210
Si Si4 0.064501 0.718289 0.732849
Si Si5 0.371037 0.583174 0.491893
Si Si6 0.570560 0.024061 0.815396
Si Si7 0.007155 0.097419 0.821804
O O1 0.442246 0.331852 0.247846
O O2 0.456723 0.137930 0.212948
O O3 0.500000 0.500000 0.000000
O O4 0.127584 0.080574 0.886344
O O5 0.445484 0.687042 0.171428
O O6 0.103985 0.593293 0.778470
O O7 0.410513 0.861767 0.830951
O O8 0.143857 0.384450 0.819901
O O9 0.307018 0.379187 0.458234
O O10 0.147118 0.962017 0.617098
O O11 0.228896 0.067142 0.423795
O O12 0.815559 0.519366 0.583932
O O13 0.185432 0.789102 0.959011
O O14 0.465879 0.820940 0.383351
O O15 0.000000 0.000000 0.000000
#
# Coordination Sequence:
#
# PCOD8034349 Si02
#       7
#     2   2   2   2   2   2   2
#     4  12  23  48  71 105 149 190 243 296 355 435
#     4  11  26  52  72 106 151 190 237 303 367 425
#     4  11  24  50  76 103 143 200 238 290 370 432
#     4  11  25  46  72 108 143 190 242 297 363 431
#     4  12  25  44  77 108 142 195 244 297 361 429
#     4  11  24  44  72 105 146 191 238 302 361 427
#     4  12  28  45  77 110 143 189 248 300 354 435
#
# _framework density 25.006771000000001
#
# number of rings (size 3 to 8) (size 9 to 14) (size 15 to 20)
#    0.000    0.571    2.857    5.571    4.000    3.429 
#    2.571    0.000    0.000    0.000    0.000    0.000 
#    0.000    0.000    0.000    0.000    0.000    0.000 
#
# Total GULP energy -173637.158759 kJ/mol
# GULP energy per Si atom -12402.654197 kJ/mol
# Density = 2.494985 g / cm^3
# Si number density = 25.006771 Si / 1000 Ang^3
#
#
#
# Elastic Constant Matrix: (Units=GPa)
#
#
# Indices 1 2 3 4 5 6 
#
# 1 91.4123 39.7062 36.7399 -4.7908 12.5804 -11.3784
# 2 39.7062 116.1976 60.6290 -24.6664 2.7505 -21.2752
# 3 36.7399 60.6290 113.4431 -21.2912 -16.6906 -25.1945
# 4 -4.7908 -24.6664 -21.2912 49.3797 1.1204 -10.7292
# 5 12.5804 2.7505 -16.6906 1.1204 52.2729 9.4856
# 6 -11.3784 -21.2752 -25.1945 -10.7292 9.4856 29.7585
#
#
#
# Elastic Compliance Matrix: (Units=1/GPa)
#
#
# Indices 1 2 3 4 5 6 
#
# 1 0.014466 -0.002883 -0.003791 -0.001278 -0.004751 0.001314
# 2 -0.002883 0.015376 -0.003924 0.008089 -0.003463 0.010589
# 3 -0.003791 -0.003924 0.016520 0.007072 0.004260 0.010923
# 4 -0.001278 0.008089 0.007072 0.032479 -0.002896 0.023914
# 5 -0.004751 -0.003463 0.004260 -0.002896 0.023555 -0.009238
# 6 0.001314 0.010589 0.010923 0.023914 -0.009238 0.062491
#
#
# Mechanical properties :
#
#
# Convention : Reuss Voigt Hill
#
# Bulk Modulus (GPa) = 39.73716 66.13369 52.93543
# Shear Modulus (GPa) = 25.71073 38.54740 32.12907
#
# Velocity S-wave (km/s) = 3.20996 3.93043 3.58832
# Velocity P-wave (km/s) = 5.44642 6.86305 6.19536
#
# Compressibility (1/GPa) = 0.02516536
#
# Stress axis : x y z
#
# Youngs Moduli (GPa) = 69.12739 65.03472 60.53367
#
# Poissons Ratio (x) = 0.18753 0.22949
# Poissons Ratio (y) = 0.19933 0.23752
# Poissons Ratio (z) = 0.26207 0.25518
#
# Static dielectric constant tensor:
#      x y z
#    x 4.631580 -0.048720 -0.385400 
#    y -0.048720 4.860300 -0.912820 
#    z -0.385400 -0.912820 7.580930 
# 
# 
# High freq. dielectric constant tensor:
#      x y z
#    x 2.004260 -0.001670 0.001670 
#    y -0.001670 1.996720 -0.001540 
#    z 0.001670 -0.001540 2.006470 
# 
# From -- ./inp_files/465041.got.cif
#   From: 2010.06.25/outbox.cif.g09.slc.cpg/sg2_233_cif.got.tgz:465041.got - 2010.06.27 13:26:56.
