data_PCOD8034772
_publ_section_title
;
Structure prediction by ZEFSAII (Michael W. Deem and Ramdas Pophale) SiO2 
 PCOD8034772
Probable space group: P -1
;
_chemical_formula_sum "Si O2"
_cell_formula_units_Z 16
_cell_length_a 9.430313
_cell_length_b 14.213586
_cell_length_c 11.653214
_cell_angle_alpha 29.881322
_cell_angle_beta 87.102288
_cell_angle_gamma 98.765949
_cell_volume 714.198041
_symmetry_space_group_name_H-M "P -1"
_symmetry_group_IT_number 2
_symmetry_cell_setting 'triclinic'
loop_
_space_group_symop_operation_xyz
x,y,z
-x,-y,-z
loop_
_atom_site_type_symbol
_atom_site_label
_atom_site_fract_x
_atom_site_fract_y
_atom_site_fract_z
Si Si1 0.650363 0.979001 0.467592
Si Si2 0.464468 0.199171 0.775967
Si Si3 0.426291 0.409732 0.775030
Si Si4 0.163314 0.094123 0.257487
Si Si5 0.923005 0.251266 0.041850
Si Si6 0.872248 0.950851 0.153464
Si Si7 0.387625 0.415476 0.200811
Si Si8 0.065635 0.322900 0.380012
O O1 0.728620 0.889797 0.656384
O O2 0.615093 0.814253 0.539506
O O3 0.500000 0.000000 0.500000
O O4 0.762080 0.191178 0.181708
O O5 0.493168 0.310498 0.779367
O O6 0.575663 0.371763 0.499420
O O7 0.289311 0.120286 0.827275
O O8 0.500000 0.000000 0.000000
O O9 0.541481 0.445901 0.838620
O O10 0.257514 0.245124 0.990949
O O11 0.027288 0.174065 0.203332
O O12 0.087461 0.856276 0.474008
O O13 0.905525 0.147570 0.027049
O O14 0.988659 0.497033 0.769576
O O15 0.870702 0.756129 0.429692
O O16 0.000000 0.000000 0.000000
O O17 0.211938 0.400597 0.203176
O O18 0.500000 0.500000 0.000000
#
# Coordination Sequence:
#
# PCOD8034772 Si02
#       8
#     2   2   2   2   2   2   2   2
#     4  12  25  43  72 106 144 190 238 296 368 438
#     4  11  25  43  72 105 143 186 244 302 363 430
#     4  11  25  44  71 102 146 188 237 302 364 422
#     4  11  25  46  68 103 149 181 244 293 356 434
#     4  11  25  44  73  98 143 192 233 301 366 427
#     4  11  24  46  70 101 142 185 240 301 361 433
#     4  12  23  45  72 105 144 188 237 300 359 435
#     4  11  25  46  71 101 142 187 242 297 361 429
#
# _framework density 22.402750999999999
#
# number of rings (size 3 to 8) (size 9 to 14) (size 15 to 20)
#    0.000    0.750    5.000    2.625    1.750    5.000 
#    0.000    0.000    0.000    0.000    0.000    0.000 
#    0.000    0.000    0.000    0.000    0.000    0.000 
#
# Total GULP energy -198338.765220 kJ/mol
# GULP energy per Si atom -12396.172826 kJ/mol
# Density = 2.235176 g / cm^3
# Si number density = 22.402751 Si / 1000 Ang^3
#
#
#
# Elastic Constant Matrix: (Units=GPa)
#
#
# Indices 1 2 3 4 5 6 
#
# 1 102.7163 59.6021 44.8262 -6.7544 -8.6283 -0.1211
# 2 59.6021 125.0236 52.8804 -15.9606 7.0834 1.9201
# 3 44.8262 52.8804 139.7420 -22.9545 -8.0753 -10.9216
# 4 -6.7544 -15.9606 -22.9545 46.2855 -10.8947 1.8598
# 5 -8.6283 7.0834 -8.0753 -10.8947 48.5511 -0.4127
# 6 -0.1211 1.9201 -10.9216 1.8598 -0.4127 35.3044
#
#
#
# Elastic Compliance Matrix: (Units=1/GPa)
#
#
# Indices 1 2 3 4 5 6 
#
# 1 0.014536 -0.006208 -0.002223 -0.000400 0.003027 -0.000244
# 2 -0.006208 0.012535 -0.002844 0.001340 -0.003119 -0.001690
# 3 -0.002223 -0.002844 0.010022 0.004165 0.002647 0.003059
# 4 -0.000400 0.001340 0.004165 0.025525 0.006153 -0.000058
# 5 0.003027 -0.003119 0.002647 0.006153 0.023419 0.000949
# 6 -0.000244 -0.001690 0.003059 -0.000058 0.000949 0.029377
#
#
# Mechanical properties :
#
#
# Convention : Reuss Voigt Hill
#
# Bulk Modulus (GPa) = 68.77014 75.78881 72.27947
# Shear Modulus (GPa) = 35.01130 40.03977 37.52553
#
# Velocity S-wave (km/s) = 3.95753 4.23220 4.09717
# Velocity P-wave (km/s) = 7.18655 7.60168 7.39703
#
# Compressibility (1/GPa) = 0.01454119
#
# Stress axis : x y z
#
# Youngs Moduli (GPa) = 68.79549 79.77868 99.78308
#
# Poissons Ratio (x) = 0.49527 0.22185
# Poissons Ratio (y) = 0.42709 0.28380
# Poissons Ratio (z) = 0.15296 0.22690
#
# Static dielectric constant tensor:
#      x y z
#    x 3.751030 0.190800 -0.329030 
#    y 0.190800 4.135530 -0.155980 
#    z -0.329030 -0.155980 4.420960 
# 
# 
# High freq. dielectric constant tensor:
#      x y z
#    x 1.875230 0.003410 -0.018020 
#    y 0.003410 1.888230 -0.009510 
#    z -0.018020 -0.009510 1.897220 
# 
# From -- ./inp_files/398187.got.cif
#   From: 2010.06.25/outbox.cif.g09.slc.cpg/sg2_200_cif.got.tgz:398187.got - 2010.06.27 13:26:56.
