data_PCOD8034268
_publ_section_title
;
Structure prediction by ZEFSAII (Michael W. Deem and Ramdas Pophale) SiO2 
 PCOD8034268
Probable space group: P -1
;
_chemical_formula_sum "Si O2"
_cell_formula_units_Z 16
_cell_length_a 9.528822
_cell_length_b 22.578468
_cell_length_c 18.772395
_cell_angle_alpha 163.198253
_cell_angle_beta 40.129772
_cell_angle_gamma 141.719830
_cell_volume 721.311751
_symmetry_space_group_name_H-M "P -1"
_symmetry_group_IT_number 2
_symmetry_cell_setting 'triclinic'
loop_
_space_group_symop_operation_xyz
x,y,z
-x,-y,-z
loop_
_atom_site_type_symbol
_atom_site_label
_atom_site_fract_x
_atom_site_fract_y
_atom_site_fract_z
Si Si1 0.557238 0.382831 0.150109
Si Si2 0.749430 0.013183 0.601823
Si Si3 0.030062 0.222979 0.208703
Si Si4 0.092117 0.305863 0.535417
Si Si5 0.761549 0.083410 0.013723
Si Si6 0.716018 0.175245 0.645522
Si Si7 0.549623 0.541199 0.183009
Si Si8 0.951373 0.522503 0.709085
O O1 0.285805 0.305684 0.174388
O O2 0.671142 0.531719 0.343338
O O3 0.625426 0.528183 0.220337
O O4 0.665147 0.182933 0.877201
O O5 0.585400 0.780328 0.415907
O O6 0.752558 0.083975 0.601739
O O7 0.000000 0.000000 0.500000
O O8 0.982411 0.381371 0.467761
O O9 0.000000 0.000000 0.000000
O O10 0.839838 0.200633 0.194481
O O11 0.140534 0.117499 0.254665
O O12 0.933995 0.201042 0.541779
O O13 0.962561 0.420102 0.663498
O O14 0.500000 0.000000 0.000000
O O15 0.859448 0.250508 0.105252
O O16 0.500000 0.000000 0.500000
O O17 0.681682 0.411300 0.934181
O O18 0.284897 0.422486 0.142179
#
# Coordination Sequence:
#
# PCOD8034268 Si02
#       8
#     2   2   2   2   2   2   2   2
#     4  11  26  45  70 101 144 179 231 288 338 412
#     4  11  24  44  70 102 135 183 232 279 345 407
#     4  12  25  48  73  99 140 185 227 285 347 408
#     4  12  27  45  67 106 141 179 231 289 339 406
#     4  12  28  46  71 104 138 178 234 287 343 409
#     4  11  25  44  69 101 144 177 229 291 340 406
#     4  11  24  44  72 100 134 187 230 277 349 412
#     4  12  26  45  72 100 140 184 232 278 348 411
#
# _framework density 22.181809000000001
#
# number of rings (size 3 to 8) (size 9 to 14) (size 15 to 20)
#    0.000    0.500    2.500    4.875    5.250    9.000 
#    0.000    0.000    0.000    0.000    0.000    0.000 
#    0.000    0.000    0.000    0.000    0.000    0.000 
#
# Total GULP energy -198408.307963 kJ/mol
# GULP energy per Si atom -12400.519248 kJ/mol
# Density = 2.213132 g / cm^3
# Si number density = 22.181809 Si / 1000 Ang^3
#
#
#
# Elastic Constant Matrix: (Units=GPa)
#
#
# Indices 1 2 3 4 5 6 
#
# 1 112.5523 34.3538 45.2824 -1.0021 7.6998 11.1652
# 2 34.3538 106.2114 24.1935 13.0070 1.1402 8.8331
# 3 45.2824 24.1935 67.5345 19.3790 -8.9738 -8.7519
# 4 -1.0021 13.0070 19.3790 41.7642 -0.8204 -5.5080
# 5 7.6998 1.1402 -8.9738 -0.8204 36.9597 3.1301
# 6 11.1652 8.8331 -8.7519 -5.5080 3.1301 43.0334
#
#
#
# Elastic Compliance Matrix: (Units=1/GPa)
#
#
# Indices 1 2 3 4 5 6 
#
# 1 0.015800 -0.002463 -0.012962 0.006389 -0.005798 -0.004991
# 2 -0.002463 0.011199 -0.001824 -0.003021 -0.000138 -0.002407
# 3 -0.012962 -0.001824 0.029913 -0.012446 0.009103 0.007566
# 4 0.006389 -0.003021 -0.012446 0.030826 -0.003630 0.000641
# 5 -0.005798 -0.000138 0.009103 -0.003630 0.030338 0.000713
# 6 -0.004991 -0.002407 0.007566 0.000641 0.000713 0.026596
#
#
# Mechanical properties :
#
#
# Convention : Reuss Voigt Hill
#
# Bulk Modulus (GPa) = 44.61475 54.88419 49.74947
# Shear Modulus (GPa) = 26.78922 36.51604 31.65263
#
# Velocity S-wave (km/s) = 3.47898 4.06176 3.78161
# Velocity P-wave (km/s) = 6.02450 6.84060 6.44548
#
# Compressibility (1/GPa) = 0.02241411
#
# Stress axis : x y z
#
# Youngs Moduli (GPa) = 63.29050 89.29434 33.42978
#
# Poissons Ratio (x) = 0.21993 0.43332
# Poissons Ratio (y) = 0.15588 0.06098
# Poissons Ratio (z) = 0.82039 0.16287
#
# Static dielectric constant tensor:
#      x y z
#    x 4.035710 -0.027690 -0.150580 
#    y -0.027690 4.221910 0.102630 
#    z -0.150580 0.102630 4.566630 
# 
# 
# High freq. dielectric constant tensor:
#      x y z
#    x 1.883950 0.000830 -0.006790 
#    y 0.000830 1.884490 0.008220 
#    z -0.006790 0.008220 1.887880 
# 
# From -- ./inp_files/562967.got.cif
#   From: 2010.06.25/outbox.cif.g09.slc.cpg/sg2_282_cif.got.tgz:562967.got - 2010.06.27 13:26:56.
