data_PCOD8034741
_publ_section_title
;
Structure prediction by ZEFSAII (Michael W. Deem and Ramdas Pophale) SiO2 
 PCOD8034741
Probable space group: P -1
;
_chemical_formula_sum "Si O2"
_cell_formula_units_Z 16
_cell_length_a 11.345180
_cell_length_b 8.970345
_cell_length_c 14.724731
_cell_angle_alpha 71.160914
_cell_angle_beta 52.118482
_cell_angle_gamma 113.410911
_cell_volume 675.621592
_symmetry_space_group_name_H-M "P -1"
_symmetry_group_IT_number 2
_symmetry_cell_setting 'triclinic'
loop_
_space_group_symop_operation_xyz
x,y,z
-x,-y,-z
loop_
_atom_site_type_symbol
_atom_site_label
_atom_site_fract_x
_atom_site_fract_y
_atom_site_fract_z
Si Si1 0.425021 0.462916 0.144523
Si Si2 0.423648 0.077461 0.455775
Si Si3 0.350225 0.644804 0.869800
Si Si4 0.126613 0.972809 0.102613
Si Si5 0.976830 0.292764 0.437178
Si Si6 0.045282 0.383260 0.584241
Si Si7 0.142749 0.944444 0.773804
Si Si8 0.599074 0.962374 0.194832
O O1 0.431929 0.299772 0.224024
O O2 0.155088 0.312024 0.306763
O O3 0.500000 0.500000 0.000000
O O4 0.613035 0.744669 0.042501
O O5 0.288604 0.092114 0.580301
O O6 0.262288 0.893066 0.478693
O O7 0.500000 0.000000 0.500000
O O8 0.662706 0.348994 0.236672
O O9 0.409265 0.856642 0.852859
O O10 0.089754 0.359998 0.083258
O O11 0.983957 0.756798 0.290004
O O12 0.187432 0.921768 0.995677
O O13 0.942422 0.959872 0.164915
O O14 0.919547 0.202228 0.588566
O O15 0.089226 0.565136 0.335353
O O16 0.333584 0.656943 0.368117
O O17 0.317358 0.000034 0.749369
#
# Coordination Sequence:
#
# PCOD8034741 Si02
#       8
#     2   2   2   2   2   2   2   2
#     4  11  26  46  71 108 145 188 242 292 367 424
#     4  12  25  45  74 106 140 188 240 288 363 427
#     4  11  26  45  75 105 146 187 238 304 351 424
#     4  11  27  44  73 103 145 193 240 297 359 429
#     4  11  24  46  68 104 146 184 235 298 354 430
#     4  11  26  45  70 105 144 188 241 291 367 425
#     4  11  26  46  71 110 143 192 246 293 364 420
#     4  12  24  48  72 106 147 190 242 295 359 429
#
# _framework density 23.681894
#
# number of rings (size 3 to 8) (size 9 to 14) (size 15 to 20)
#    0.000    0.750    3.750    2.250    7.000    2.500 
#    0.000    0.000    0.000    0.000    0.000    0.000 
#    0.000    0.000    0.000    0.000    0.000    0.000 
#
# Total GULP energy -198348.287412 kJ/mol
# GULP energy per Si atom -12396.767963 kJ/mol
# Density = 2.362799 g / cm^3
# Si number density = 23.681894 Si / 1000 Ang^3
#
#
#
# Elastic Constant Matrix: (Units=GPa)
#
#
# Indices 1 2 3 4 5 6 
#
# 1 117.4607 33.6982 23.8612 5.0232 3.1899 -8.6863
# 2 33.6982 105.9411 40.5070 27.2688 0.7627 -8.0076
# 3 23.8612 40.5070 81.1616 23.9665 16.4854 -14.6290
# 4 5.0232 27.2688 23.9665 42.5470 1.0249 0.6313
# 5 3.1899 0.7627 16.4854 1.0249 43.8126 3.7541
# 6 -8.6863 -8.0076 -14.6290 0.6313 3.7541 44.3466
#
#
#
# Elastic Compliance Matrix: (Units=1/GPa)
#
#
# Indices 1 2 3 4 5 6 
#
# 1 0.009655 -0.002744 -0.001785 0.001615 -0.000089 0.000791
# 2 -0.002744 0.013568 -0.004529 -0.005869 0.001775 0.000352
# 3 -0.001785 -0.004529 0.020230 -0.008188 -0.007750 0.006279
# 4 0.001615 -0.005869 -0.008188 0.031683 0.002678 -0.004122
# 5 -0.000089 0.001775 -0.007750 0.002678 0.026039 -0.004496
# 6 0.000791 0.000352 0.006279 -0.004122 -0.004496 0.025279
#
#
# Mechanical properties :
#
#
# Convention : Reuss Voigt Hill
#
# Bulk Modulus (GPa) = 39.46773 55.63291 47.55032
# Shear Modulus (GPa) = 32.67634 39.90772 36.29203
#
# Velocity S-wave (km/s) = 3.71860 4.10952 3.91894
# Velocity P-wave (km/s) = 5.92784 6.78677 6.37180
#
# Compressibility (1/GPa) = 0.02533716
#
# Stress axis : x y z
#
# Youngs Moduli (GPa) = 103.57139 73.70253 49.43104
#
# Poissons Ratio (x) = 0.20222 0.08825
# Poissons Ratio (y) = 0.28417 0.22388
# Poissons Ratio (z) = 0.18491 0.33381
#
# Static dielectric constant tensor:
#      x y z
#    x 4.534570 -0.129760 0.067410 
#    y -0.129760 4.075910 0.133640 
#    z 0.067410 0.133640 4.334510 
# 
# 
# High freq. dielectric constant tensor:
#      x y z
#    x 1.950350 -0.004610 -0.001260 
#    y -0.004610 1.937540 0.019110 
#    z -0.001260 0.019110 1.940010 
# 
# From -- ./inp_files/515338.got.cif
#   From: 2010.06.25/outbox.cif.g09.slc.cpg/sg2_258_cif.got.tgz:515338.got - 2010.06.27 13:26:56.
