data_PCOD8034332
_publ_section_title
;
Structure prediction by ZEFSAII (Michael W. Deem and Ramdas Pophale) SiO2 
 PCOD8034332
Probable space group: P -1
;
_chemical_formula_sum "Si O2"
_cell_formula_units_Z 16
_cell_length_a 8.260812
_cell_length_b 16.754449
_cell_length_c 8.821558
_cell_angle_alpha 51.533394
_cell_angle_beta 127.056304
_cell_angle_gamma 129.410463
_cell_volume 693.711887
_symmetry_space_group_name_H-M "P -1"
_symmetry_group_IT_number 2
_symmetry_cell_setting 'triclinic'
loop_
_space_group_symop_operation_xyz
x,y,z
-x,-y,-z
loop_
_atom_site_type_symbol
_atom_site_label
_atom_site_fract_x
_atom_site_fract_y
_atom_site_fract_z
Si Si1 0.963976 0.954141 0.744385
Si Si2 0.796682 0.098264 0.315052
Si Si3 0.039988 0.285317 0.449195
Si Si4 0.953293 0.492273 0.805051
Si Si5 0.703541 0.533255 0.185394
Si Si6 0.456989 0.643117 0.436906
Si Si7 0.567562 0.858391 0.102967
Si Si8 0.215010 0.234351 0.886241
O O1 0.002672 0.892255 0.693003
O O2 0.776355 0.000395 0.540042
O O3 0.872459 0.861652 0.927919
O O4 0.191804 0.053396 0.812190
O O5 0.578613 0.075884 0.115642
O O6 0.870179 0.214962 0.306226
O O7 0.965090 0.379727 0.354031
O O8 0.291273 0.344749 0.453164
O O9 0.028263 0.209392 0.678638
O O10 0.689711 0.423697 0.710837
O O11 0.080777 0.437826 0.834131
O O12 0.000000 0.500000 0.000000
O O13 0.660875 0.427516 0.396353
O O14 0.720754 0.642202 0.158416
O O15 0.500000 0.500000 0.000000
O O16 0.459106 0.769338 0.285855
O O17 0.579799 0.779602 0.064348
#
# Coordination Sequence:
#
# PCOD8034332 Si02
#       8
#     2   2   2   2   2   2   2   2
#     4  11  25  48  70 103 143 182 241 299 345 414
#     4  11  25  45  73 106 135 186 244 285 363 416
#     4  11  24  44  72 100 144 189 228 292 359 419
#     4  12  26  43  72 103 142 189 237 285 363 433
#     4  12  29  44  68 109 144 187 236 294 353 428
#     4  11  24  46  71 100 147 179 237 292 351 427
#     4  11  25  45  76 102 138 194 233 292 360 411
#     4  11  26  46  69 100 148 184 232 294 352 416
#
# _framework density 23.064332
#
# number of rings (size 3 to 8) (size 9 to 14) (size 15 to 20)
#    0.000    0.750    3.750    3.000   12.250    0.500 
#    0.000    0.000    0.000    0.000    0.000    0.000 
#    0.000    0.000    0.000    0.000    0.000    0.000 
#
# Total GULP energy -198272.264933 kJ/mol
# GULP energy per Si atom -12392.016558 kJ/mol
# Density = 2.301184 g / cm^3
# Si number density = 23.064332 Si / 1000 Ang^3
#
#
#
# Elastic Constant Matrix: (Units=GPa)
#
#
# Indices 1 2 3 4 5 6 
#
# 1 48.3173 -6.7995 28.4165 -10.2618 -4.1046 -14.0745
# 2 -6.7995 59.0305 49.4830 -9.8351 -5.8763 -0.4334
# 3 28.4165 49.4830 169.0829 -13.7082 -0.3184 16.9166
# 4 -10.2618 -9.8351 -13.7082 45.9943 3.1262 0.0193
# 5 -4.1046 -5.8763 -0.3184 3.1262 44.3987 -4.5205
# 6 -14.0745 -0.4334 16.9166 0.0193 -4.5205 26.8315
#
#
#
# Elastic Compliance Matrix: (Units=1/GPa)
#
#
# Indices 1 2 3 4 5 6 
#
# 1 0.050123 0.024661 -0.018851 0.010061 0.011173 0.040451
# 2 0.024661 0.036063 -0.016614 0.007640 0.008992 0.025503
# 3 -0.018851 -0.016614 0.015832 -0.002637 -0.005792 -0.021113
# 4 0.010061 0.007640 -0.002637 0.024769 0.000911 0.007200
# 5 0.011173 0.008992 -0.005792 0.000911 0.026071 0.014049
# 6 0.040451 0.025503 -0.021113 0.007200 0.014049 0.074573
#
#
# Mechanical properties :
#
#
# Convention : Reuss Voigt Hill
#
# Bulk Modulus (GPa) = 12.43620 46.51451 29.47536
# Shear Modulus (GPa) = 18.12630 37.13363 27.62996
#
# Velocity S-wave (km/s) = 2.80644 4.01684 3.46490
# Velocity P-wave (km/s) = 3.98812 6.45944 5.36794
#
# Compressibility (1/GPa) = 0.08041040
#
# Stress axis : x y z
#
# Youngs Moduli (GPa) = 19.95097 27.72914 63.16253
#
# Poissons Ratio (x) = -0.68384 1.19070
# Poissons Ratio (y) = -0.49202 1.04938
# Poissons Ratio (z) = 0.37610 0.46069
#
# Static dielectric constant tensor:
#      x y z
#    x 3.908280 -0.219490 0.270230 
#    y -0.219490 4.238570 -0.100460 
#    z 0.270230 -0.100460 4.656430 
# 
# 
# High freq. dielectric constant tensor:
#      x y z
#    x 1.886990 -0.016960 0.006930 
#    y -0.016960 1.913610 0.001250 
#    z 0.006930 0.001250 1.938820 
# 
# From -- ./inp_files/216822.got.cif
#   From: 2010.06.25/outbox.cif.g09.slc.cpg/sg2_109_cif.got.tgz:216822.got - 2010.06.27 13:26:56.
