data_PCOD8034485
_publ_section_title
;
Structure prediction by ZEFSAII (Michael W. Deem and Ramdas Pophale) SiO2 
 PCOD8034485
Probable space group: P -1
;
_chemical_formula_sum "Si O2"
_cell_formula_units_Z 16
_cell_length_a 11.138295
_cell_length_b 12.769539
_cell_length_c 11.746844
_cell_angle_alpha 94.127098
_cell_angle_beta 85.465018
_cell_angle_gamma 157.302030
_cell_volume 642.682880
_symmetry_space_group_name_H-M "P -1"
_symmetry_group_IT_number 2
_symmetry_cell_setting 'triclinic'
loop_
_space_group_symop_operation_xyz
x,y,z
-x,-y,-z
loop_
_atom_site_type_symbol
_atom_site_label
_atom_site_fract_x
_atom_site_fract_y
_atom_site_fract_z
Si Si1 0.312584 0.975925 0.395739
Si Si2 0.797380 0.912113 0.731951
Si Si3 0.967403 0.777085 0.873902
Si Si4 0.788798 0.214113 0.278362
Si Si5 0.441700 0.257945 0.024581
Si Si6 0.260741 0.538730 0.457999
Si Si7 0.522939 0.486781 0.684805
Si Si8 0.312299 0.760037 0.933737
O O1 0.299282 0.048663 0.298326
O O2 0.480832 0.999916 0.355914
O O3 0.478623 0.166905 0.504806
O O4 0.968619 0.666250 0.435316
O O5 0.676131 0.778097 0.856189
O O6 0.636659 0.693174 0.646255
O O7 0.166065 0.199185 0.723708
O O8 0.729112 0.629214 0.790293
O O9 0.215271 0.897483 0.802941
O O10 0.765087 0.562759 0.974772
O O11 0.174331 0.038090 0.930255
O O12 0.797515 0.313911 0.193829
O O13 0.087076 0.451257 0.356422
O O14 0.476441 0.170693 0.065330
O O15 0.419754 0.555882 0.417280
O O16 0.000000 0.500000 0.000000
O O17 0.500000 0.000000 0.000000
#
# Coordination Sequence:
#
# PCOD8034485 Si02
#       8
#     2   2   2   2   2   2   2   2
#     4  12  26  45  69 101 128 172 219 282 330 387
#     4  12  26  43  70  96 135 169 226 273 323 388
#     4  11  25  42  70  95 140 174 217 261 326 397
#     4  11  24  45  69 101 136 172 216 270 327 398
#     4  12  23  42  64 104 131 179 215 265 325 388
#     4  11  27  46  70  95 131 172 224 275 335 383
#     4  11  26  47  66  99 127 178 221 274 328 388
#     4  12  23  40  66 101 137 177 211 259 325 401
#
# _framework density 24.895638999999999
#
# number of rings (size 3 to 8) (size 9 to 14) (size 15 to 20)
#    0.000    0.500    3.750    3.750    0.000   12.000 
#    0.000    0.000    0.000    0.000    0.000    0.000 
#    0.000    0.000    0.000    0.000    0.000    0.000 
#
# Total GULP energy -198312.173217 kJ/mol
# GULP energy per Si atom -12394.510826 kJ/mol
# Density = 2.483898 g / cm^3
# Si number density = 24.895639 Si / 1000 Ang^3
#
#
#
# Elastic Constant Matrix: (Units=GPa)
#
#
# Indices 1 2 3 4 5 6 
#
# 1 78.1098 35.1135 11.1783 -9.9661 -28.5453 10.4225
# 2 35.1135 108.5171 18.2182 -1.9509 -19.2131 5.9480
# 3 11.1783 18.2182 89.3252 2.2547 -7.1187 12.0539
# 4 -9.9661 -1.9509 2.2547 24.8370 2.8119 -2.0700
# 5 -28.5453 -19.2131 -7.1187 2.8119 31.8811 -8.4163
# 6 10.4225 5.9480 12.0539 -2.0700 -8.4163 36.4704
#
#
#
# Elastic Compliance Matrix: (Units=1/GPa)
#
#
# Indices 1 2 3 4 5 6 
#
# 1 0.021374 -0.003831 -0.000627 0.006440 0.015787 -0.001268
# 2 -0.003831 0.011248 -0.001604 -0.000829 0.003190 0.000480
# 3 -0.000627 -0.001604 0.012163 -0.001826 0.000401 -0.003590
# 4 0.006440 -0.000829 -0.001826 0.042916 0.001518 0.001685
# 5 0.015787 0.003190 0.000401 0.001518 0.049026 0.006235
# 6 -0.001268 0.000480 -0.003590 0.001685 0.006235 0.030425
#
#
# Mechanical properties :
#
#
# Convention : Reuss Voigt Hill
#
# Bulk Modulus (GPa) = 30.61693 44.99690 37.80692
# Shear Modulus (GPa) = 26.29337 32.73383 29.51360
#
# Velocity S-wave (km/s) = 3.25336 3.63001 3.44683
# Velocity P-wave (km/s) = 5.14172 5.97350 5.57315
#
# Compressibility (1/GPa) = 0.03266167
#
# Stress axis : x y z
#
# Youngs Moduli (GPa) = 46.78515 88.90810 82.21485
#
# Poissons Ratio (x) = 0.34058 0.05154
# Poissons Ratio (y) = 0.17922 0.13189
# Poissons Ratio (z) = 0.02933 0.14262
#
# Static dielectric constant tensor:
#      x y z
#    x 5.153840 0.085040 -0.240300 
#    y 0.085040 4.334120 0.085900 
#    z -0.240300 0.085900 4.698560 
# 
# 
# High freq. dielectric constant tensor:
#      x y z
#    x 2.009610 0.015150 -0.001600 
#    y 0.015150 1.987070 0.000960 
#    z -0.001600 0.000960 2.000960 
# 
# From -- ./inp_files/434132.got.cif
#   From: 2010.06.25/outbox.cif.g09.slc.cpg/sg2_218_cif.got.tgz:434132.got - 2010.06.27 13:26:56.
