data_PCOD8034017
_publ_section_title
;
Structure prediction by ZEFSAII (Michael W. Deem and Ramdas Pophale) SiO2 
 PCOD8034017
Probable space group: P -1
;
_chemical_formula_sum "Si O2"
_cell_formula_units_Z 16
_cell_length_a 14.760675
_cell_length_b 8.253736
_cell_length_c 10.010746
_cell_angle_alpha 111.057323
_cell_angle_beta 99.027011
_cell_angle_gamma 41.442228
_cell_volume 740.728447
_symmetry_space_group_name_H-M "P -1"
_symmetry_group_IT_number 2
_symmetry_cell_setting 'triclinic'
loop_
_space_group_symop_operation_xyz
x,y,z
-x,-y,-z
loop_
_atom_site_type_symbol
_atom_site_label
_atom_site_fract_x
_atom_site_fract_y
_atom_site_fract_z
Si Si1 0.699272 0.568404 0.960263
Si Si2 0.153136 0.999416 0.165765
Si Si3 0.715034 0.880622 0.613971
Si Si4 0.391565 0.804847 0.582676
Si Si5 0.011540 0.685976 0.037932
Si Si6 0.939809 0.288715 0.431951
Si Si7 0.465259 0.074837 0.219153
Si Si8 0.878964 0.996338 0.360875
O O1 0.832571 0.484775 0.020192
O O2 0.658026 0.693356 0.840425
O O3 0.733574 0.315087 0.890223
O O4 0.569470 0.786129 0.092773
O O5 0.225339 0.076219 0.246675
O O6 0.018639 0.151391 0.269947
O O7 0.100272 0.088631 0.028541
O O8 0.837286 0.596478 0.489534
O O9 0.602318 0.914363 0.663486
O O10 0.643286 0.089642 0.543330
O O11 0.500000 0.500000 0.500000
O O12 0.448249 0.879514 0.707071
O O13 0.261535 0.910814 0.665020
O O14 0.983773 0.817487 0.210854
O O15 0.000000 0.500000 0.000000
O O16 0.851641 0.242100 0.435743
O O17 0.053609 0.167345 0.535230
#
# Coordination Sequence:
#
# PCOD8034017 Si02
#       8
#     2   2   2   2   2   2   2   2
#     4  11  25  47  68  97 139 180 229 277 341 405
#     4  12  25  43  73 101 139 176 223 291 342 404
#     4  12  26  43  69 101 137 178 232 280 342 401
#     4  12  26  44  67  99 138 184 230 278 333 409
#     4  12  25  42  71 103 137 175 226 282 346 404
#     4  11  24  43  72 102 138 174 223 293 347 394
#     4  11  26  45  69  95 139 187 226 278 331 410
#     4  11  24  43  70 101 135 179 223 283 345 399
#
# _framework density 21.600359000000001
#
# number of rings (size 3 to 8) (size 9 to 14) (size 15 to 20)
#    0.000    0.500    2.500    5.625    5.250    2.500 
#    0.000    0.000    0.000    0.000    0.000    0.000 
#    0.000    0.000    0.000    0.000    0.000    0.000 
#
# Total GULP energy -198530.545850 kJ/mol
# GULP energy per Si atom -12408.159116 kJ/mol
# Density = 2.155120 g / cm^3
# Si number density = 21.600359 Si / 1000 Ang^3
#
#
#
# Elastic Constant Matrix: (Units=GPa)
#
#
# Indices 1 2 3 4 5 6 
#
# 1 106.1820 49.9600 22.7481 12.4556 13.8427 0.9480
# 2 49.9600 132.2287 27.5687 10.3831 -2.5594 14.2705
# 3 22.7481 27.5687 70.1006 5.7604 0.3584 7.1016
# 4 12.4556 10.3831 5.7604 35.3795 -2.2405 2.0953
# 5 13.8427 -2.5594 0.3584 -2.2405 35.5609 -3.1085
# 6 0.9480 14.2705 7.1016 2.0953 -3.1085 29.4502
#
#
#
# Elastic Compliance Matrix: (Units=1/GPa)
#
#
# Indices 1 2 3 4 5 6 
#
# 1 0.013149 -0.004528 -0.002384 -0.003377 -0.005457 0.002010
# 2 -0.004528 0.010244 -0.002104 -0.000696 0.002124 -0.004037
# 3 -0.002384 -0.002104 0.016222 -0.001004 0.000313 -0.002711
# 4 -0.003377 -0.000696 -0.001004 0.030083 0.003071 -0.001128
# 5 -0.005457 0.002124 0.000313 0.003071 0.030772 0.002100
# 6 0.002010 -0.004037 -0.002711 -0.001128 0.002100 0.036803
#
#
# Mechanical properties :
#
#
# Convention : Reuss Voigt Hill
#
# Bulk Modulus (GPa) = 46.33599 56.56278 51.44939
# Shear Modulus (GPa) = 30.76952 33.96043 32.36498
#
# Velocity S-wave (km/s) = 3.77834 3.96942 3.87506
# Velocity P-wave (km/s) = 6.36651 6.87396 6.62510
#
# Compressibility (1/GPa) = 0.02158149
#
# Stress axis : x y z
#
# Youngs Moduli (GPa) = 76.05223 97.62122 61.64522
#
# Poissons Ratio (x) = 0.44206 0.14698
# Poissons Ratio (y) = 0.34439 0.12969
# Poissons Ratio (z) = 0.18133 0.20538
#
# Static dielectric constant tensor:
#      x y z
#    x 4.043890 0.077600 0.112230 
#    y 0.077600 3.970730 0.036970 
#    z 0.112230 0.036970 3.991000 
# 
# 
# High freq. dielectric constant tensor:
#      x y z
#    x 1.861490 0.006750 0.004950 
#    y 0.006750 1.858180 0.000750 
#    z 0.004950 0.000750 1.853110 
# 
# From -- ./inp_files/299240.got.cif
#   From: 2010.06.25/outbox.cif.g09.slc.cpg/sg2_150_cif.got.tgz:299240.got - 2010.06.27 13:26:56.
