data_PCOD8034839
_publ_section_title
;
Structure prediction by ZEFSAII (Michael W. Deem and Ramdas Pophale) SiO2 
 PCOD8034839
Probable space group: P -1
;
_chemical_formula_sum "Si O2"
_cell_formula_units_Z 16
_cell_length_a 8.951714
_cell_length_b 26.004929
_cell_length_c 9.763462
_cell_angle_alpha 44.860189
_cell_angle_beta 76.032135
_cell_angle_gamma 39.540074
_cell_volume 748.549246
_symmetry_space_group_name_H-M "P -1"
_symmetry_group_IT_number 2
_symmetry_cell_setting 'triclinic'
loop_
_space_group_symop_operation_xyz
x,y,z
-x,-y,-z
loop_
_atom_site_type_symbol
_atom_site_label
_atom_site_fract_x
_atom_site_fract_y
_atom_site_fract_z
Si Si1 0.413522 0.500551 0.878549
Si Si2 0.907632 0.601799 0.225051
Si Si3 0.888596 0.105988 0.713888
Si Si4 0.117678 0.165741 0.650051
Si Si5 0.238044 0.431011 0.187190
Si Si6 0.199538 0.627257 0.223216
Si Si7 0.789377 0.916699 0.911176
Si Si8 0.850463 0.084025 0.231833
O O1 0.689960 0.388494 0.916998
O O2 0.105168 0.672847 0.569335
O O3 0.500000 0.500000 0.000000
O O4 0.381105 0.431110 0.054451
O O5 0.000000 0.500000 0.500000
O O6 0.086223 0.523709 0.186891
O O7 0.021771 0.624841 0.240964
O O8 0.532671 0.752464 0.989306
O O9 0.503922 0.260200 0.491671
O O10 0.951277 0.165358 0.616442
O O11 0.062688 0.014993 0.706631
O O12 0.000000 0.000000 0.000000
O O13 0.408558 0.076037 0.659829
O O14 0.223088 0.090536 0.912323
O O15 0.000000 0.500000 0.000000
O O16 0.500000 0.500000 0.500000
O O17 0.936216 0.790104 0.032983
O O18 0.988807 0.906559 0.861152
O O19 0.000000 0.000000 0.500000
#
# Coordination Sequence:
#
# PCOD8034839 Si02
#       8
#     2   2   2   2   2   2   2   2
#     4  12  25  47  73 102 147 185 241 301 359 428
#     4  12  27  48  74 105 147 191 241 295 360 438
#     4  12  24  47  74 101 143 189 239 288 360 436
#     4  11  24  46  72 104 138 191 236 296 355 429
#     4  12  29  46  74 111 143 190 240 300 368 427
#     4  12  25  46  74 108 143 191 242 298 360 431
#     4  11  26  44  71 105 143 183 243 291 360 430
#     4  12  28  46  69 106 149 186 235 304 362 425
#
# _framework density 21.374679
#
# number of rings (size 3 to 8) (size 9 to 14) (size 15 to 20)
#    0.000    0.250    5.000    3.000    8.750    0.000 
#    0.000    1.875    0.000    0.000    0.000    0.000 
#    0.000    0.000    0.000    0.000    0.000    0.000 
#
# Total GULP energy -198262.708331 kJ/mol
# GULP energy per Si atom -12391.419271 kJ/mol
# Density = 2.132603 g / cm^3
# Si number density = 21.374679 Si / 1000 Ang^3
#
#
#
# Elastic Constant Matrix: (Units=GPa)
#
#
# Indices 1 2 3 4 5 6 
#
# 1 119.2038 38.2660 49.0570 4.6671 -0.9530 -13.8166
# 2 38.2660 116.6367 34.9698 1.6039 -2.0737 -2.8648
# 3 49.0570 34.9698 127.4209 -6.2821 9.2556 -11.6620
# 4 4.6671 1.6039 -6.2821 42.6363 -0.4494 2.2033
# 5 -0.9530 -2.0737 9.2556 -0.4494 38.5304 -0.9715
# 6 -13.8166 -2.8648 -11.6620 2.2033 -0.9715 42.5982
#
#
#
# Elastic Compliance Matrix: (Units=1/GPa)
#
#
# Indices 1 2 3 4 5 6 
#
# 1 0.010982 -0.002455 -0.003480 -0.001744 0.001020 0.002558
# 2 -0.002455 0.009964 -0.001930 -0.000349 0.000919 -0.000615
# 3 -0.003480 -0.001930 0.010119 0.001847 -0.002565 0.001358
# 4 -0.001744 -0.000349 0.001847 0.023996 -0.000259 -0.001330
# 5 0.001020 0.000919 -0.002565 -0.000259 0.026649 0.000312
# 6 0.002558 -0.000615 0.001358 -0.001330 0.000312 0.024711
#
#
# Mechanical properties :
#
#
# Convention : Reuss Voigt Hill
#
# Bulk Modulus (GPa) = 65.20863 67.53855 66.37359
# Shear Modulus (GPa) = 39.28876 40.81755 40.05316
#
# Velocity S-wave (km/s) = 4.29196 4.37466 4.33351
# Velocity P-wave (km/s) = 7.42528 7.56194 7.49392
#
# Compressibility (1/GPa) = 0.01533539
#
# Stress axis : x y z
#
# Youngs Moduli (GPa) = 91.05673 100.36615 98.82178
#
# Poissons Ratio (x) = 0.24636 0.34395
# Poissons Ratio (y) = 0.22351 0.19070
# Poissons Ratio (z) = 0.31692 0.19368
#
# Static dielectric constant tensor:
#      x y z
#    x 3.824500 0.181130 0.138180 
#    y 0.181130 4.562710 0.022790 
#    z 0.138180 0.022790 3.853930 
# 
# 
# High freq. dielectric constant tensor:
#      x y z
#    x 1.854470 0.001370 0.004680 
#    y 0.001370 1.857160 -0.000670 
#    z 0.004680 -0.000670 1.849440 
# 
# From -- ./inp_files/226125.got.cif
#   From: 2010.06.25/outbox.cif.g09.slc.cpg/sg2_114_cif.got.tgz:226125.got - 2010.06.27 13:26:56.
