data_PCOD8034361
_publ_section_title
;
Structure prediction by ZEFSAII (Michael W. Deem and Ramdas Pophale) SiO2 
 PCOD8034361
Probable space group: P -1
;
_chemical_formula_sum "Si O2"
_cell_formula_units_Z 14
_cell_length_a 9.727296
_cell_length_b 15.671037
_cell_length_c 15.315433
_cell_angle_alpha 144.528727
_cell_angle_beta 26.107965
_cell_angle_gamma 143.650922
_cell_volume 570.529526
_symmetry_space_group_name_H-M "P -1"
_symmetry_group_IT_number 2
_symmetry_cell_setting 'triclinic'
loop_
_space_group_symop_operation_xyz
x,y,z
-x,-y,-z
loop_
_atom_site_type_symbol
_atom_site_label
_atom_site_fract_x
_atom_site_fract_y
_atom_site_fract_z
Si Si1 0.718141 0.165169 0.991848
Si Si2 0.185219 0.265421 0.949739
Si Si3 0.065388 0.973895 0.540126
Si Si4 0.152725 0.375714 0.576152
Si Si5 0.499569 0.556488 0.927245
Si Si6 0.245650 0.314362 0.287221
Si Si7 0.791605 0.023275 0.219520
O O1 0.540526 0.253041 0.102532
O O2 0.019007 0.124548 0.739570
O O3 0.848650 0.260146 0.086155
O O4 0.500000 0.000000 0.000000
O O5 0.475083 0.384601 0.829923
O O6 0.205369 0.326521 0.089295
O O7 0.221915 0.095048 0.791158
O O8 0.844103 0.802404 0.555444
O O9 0.438126 0.987811 0.351977
O O10 0.000000 0.000000 0.500000
O O11 0.500000 0.500000 0.500000
O O12 0.105871 0.390699 0.510686
O O13 0.848649 0.407956 0.827112
O O14 0.588163 0.563817 0.781003
O O15 0.941649 0.187958 0.313802
O O16 0.000000 0.000000 0.000000
#
# Coordination Sequence:
#
# PCOD8034361 Si02
#       7
#     2   2   2   2   2   2   2
#     4  12  24  42  72 104 142 182 243 296 358 421
#     4  11  24  44  72  99 144 191 230 304 361 420
#     4  12  27  44  73 110 144 187 244 302 363 432
#     4  12  26  45  73 104 148 190 243 297 360 434
#     4  11  26  47  70 104 147 190 241 294 365 436
#     4  12  26  48  77 109 142 199 241 299 367 432
#     4  12  23  45  77 104 145 189 241 302 361 428
#
# _framework density 24.538606000000001
#
# number of rings (size 3 to 8) (size 9 to 14) (size 15 to 20)
#    0.000    0.286    5.714    2.571    2.000    4.571 
#    0.000    2.857    0.000    0.000    0.000    0.000 
#    0.000    0.000    0.000    0.000    0.000    0.000 
#
# Total GULP energy -173473.002136 kJ/mol
# GULP energy per Si atom -12390.928724 kJ/mol
# Density = 2.448276 g / cm^3
# Si number density = 24.538606 Si / 1000 Ang^3
#
#
#
# Elastic Constant Matrix: (Units=GPa)
#
#
# Indices 1 2 3 4 5 6 
#
# 1 159.9846 50.5839 10.8464 -24.9885 3.1175 3.2321
# 2 50.5839 106.6491 18.3446 -15.6498 -1.0804 4.8167
# 3 10.8464 18.3446 58.4955 -12.2928 -0.9909 -3.6874
# 4 -24.9885 -15.6498 -12.2928 25.6098 -3.9197 -3.7557
# 5 3.1175 -1.0804 -0.9909 -3.9197 41.7958 -7.7676
# 6 3.2321 4.8167 -3.6874 -3.7557 -7.7676 64.9376
#
#
#
# Elastic Compliance Matrix: (Units=1/GPa)
#
#
# Indices 1 2 3 4 5 6 
#
# 1 0.008184 -0.003077 0.000837 0.006541 -0.000011 0.000245
# 2 -0.003077 0.011739 -0.002514 0.002972 0.000638 -0.000612
# 3 0.000837 -0.002514 0.019845 0.009344 0.001592 0.002002
# 4 0.006541 0.002972 0.009344 0.053115 0.005482 0.003712
# 5 -0.000011 0.000638 0.001592 0.005482 0.025120 0.003365
# 6 0.000245 -0.000612 0.002002 0.003712 0.003365 0.016164
#
#
# Mechanical properties :
#
#
# Convention : Reuss Voigt Hill
#
# Bulk Modulus (GPa) = 33.04618 53.85321 43.44970
# Shear Modulus (GPa) = 32.51818 42.82560 37.67189
#
# Velocity S-wave (km/s) = 3.64426 4.18213 3.92242
# Velocity P-wave (km/s) = 5.58603 6.73159 6.18539
#
# Compressibility (1/GPa) = 0.03026068
#
# Stress axis : x y z
#
# Youngs Moduli (GPa) = 122.19537 85.18900 50.38982
#
# Poissons Ratio (x) = 0.26212 -0.04220
# Poissons Ratio (y) = 0.37598 0.12668
# Poissons Ratio (z) = -0.10233 0.21416
#
# Static dielectric constant tensor:
#      x y z
#    x 4.772850 -0.023260 0.016320 
#    y -0.023260 4.606420 -0.195800 
#    z 0.016320 -0.195800 3.794050 
# 
# 
# High freq. dielectric constant tensor:
#      x y z
#    x 1.995060 0.004490 -0.004820 
#    y 0.004490 1.989040 -0.001360 
#    z -0.004820 -0.001360 1.963320 
# 
# From -- ./inp_files/297810.got.cif
#   From: 2010.06.25/outbox.cif.g09.slc.cpg/sg2_149_cif.got.tgz:297810.got - 2010.06.27 13:26:56.
