data_PCOD8034851
_publ_section_title
;
Structure prediction by ZEFSAII (Michael W. Deem and Ramdas Pophale) SiO2 
 PCOD8034851
Probable space group: P -1
;
_chemical_formula_sum "Si O2"
_cell_formula_units_Z 14
_cell_length_a 5.204879
_cell_length_b 9.014680
_cell_length_c 15.752596
_cell_angle_alpha 54.291326
_cell_angle_beta 96.208573
_cell_angle_gamma 109.211956
_cell_volume 563.330998
_symmetry_space_group_name_H-M "P -1"
_symmetry_group_IT_number 2
_symmetry_cell_setting 'triclinic'
loop_
_space_group_symop_operation_xyz
x,y,z
-x,-y,-z
loop_
_atom_site_type_symbol
_atom_site_label
_atom_site_fract_x
_atom_site_fract_y
_atom_site_fract_z
Si Si1 0.277209 0.319519 0.388400
Si Si2 0.926758 0.934353 0.192384
Si Si3 0.130178 0.749051 0.011828
Si Si4 0.725891 0.919567 0.693006
Si Si5 0.685814 0.268263 0.796781
Si Si6 0.818917 0.317998 0.499040
Si Si7 0.346176 0.623326 0.904063
O O1 0.222682 0.148726 0.375394
O O2 0.256475 0.504805 0.276699
O O3 0.576688 0.368992 0.425497
O O4 0.029713 0.257303 0.467053
O O5 0.604856 0.834175 0.221230
O O6 0.078362 0.777644 0.233346
O O7 0.011739 0.042178 0.249433
O O8 0.016762 0.090398 0.065534
O O9 0.322010 0.803662 0.082537
O O10 0.930149 0.530621 0.090863
O O11 0.304902 0.768324 0.925168
O O12 0.483386 0.749504 0.785841
O O13 0.669734 0.124735 0.613795
O O14 0.000000 0.500000 0.500000
O O15 0.500000 0.500000 0.000000
#
# Coordination Sequence:
#
# PCOD8034851 Si02
#       7
#     2   2   2   2   2   2   2
#     4  12  28  50  79 113 150 199 258 312 379 459
#     4  12  27  47  73 113 154 203 253 311 385 447
#     4  11  26  43  74 109 157 204 261 310 375 456
#     4  12  27  49  81 110 157 199 255 316 384 454
#     4  12  27  47  75 109 154 204 255 315 379 445
#     4  12  28  53  81 114 153 194 253 321 386 452
#     4  11  24  46  72 115 154 202 255 317 375 452
#
# _framework density 24.852174000000002
#
# number of rings (size 3 to 8) (size 9 to 14) (size 15 to 20)
#    0.000    0.286    1.429    6.429    8.000    3.429 
#    0.000    0.000    0.000    0.000    0.000    0.000 
#    0.000    0.000    0.000    0.000    0.000    0.000 
#
# Total GULP energy -173593.294971 kJ/mol
# GULP energy per Si atom -12399.521069 kJ/mol
# Density = 2.479561 g / cm^3
# Si number density = 24.852174 Si / 1000 Ang^3
#
#
#
# Elastic Constant Matrix: (Units=GPa)
#
#
# Indices 1 2 3 4 5 6 
#
# 1 133.4004 33.3520 35.8181 10.4597 13.2566 0.4497
# 2 33.3520 100.8150 43.6459 -2.4326 12.5085 -2.1510
# 3 35.8181 43.6459 123.8404 -6.5610 11.0435 -7.8029
# 4 10.4597 -2.4326 -6.5610 48.7567 1.8064 9.4435
# 5 13.2566 12.5085 11.0435 1.8064 43.6639 4.7726
# 6 0.4497 -2.1510 -7.8029 9.4435 4.7726 30.7517
#
#
#
# Elastic Compliance Matrix: (Units=1/GPa)
#
#
# Indices 1 2 3 4 5 6 
#
# 1 0.008808 -0.001983 -0.001813 -0.002212 -0.001578 0.000197
# 2 -0.001983 0.012397 -0.003569 0.000617 -0.002086 0.000125
# 3 -0.001813 -0.003569 0.010174 0.001204 -0.001289 0.002189
# 4 -0.002212 0.000617 0.001204 0.022438 -0.000027 -0.006506
# 5 -0.001578 -0.002086 -0.001289 -0.000027 0.024775 -0.004287
# 6 0.000197 0.000125 0.002189 -0.006506 -0.004287 0.035743
#
#
# Mechanical properties :
#
#
# Convention : Reuss Voigt Hill
#
# Bulk Modulus (GPa) = 60.06197 64.85419 62.45808
# Shear Modulus (GPa) = 37.14348 40.98379 39.06363
#
# Velocity S-wave (km/s) = 3.87017 4.06532 3.96894
# Velocity P-wave (km/s) = 6.64764 6.94179 6.79630
#
# Compressibility (1/GPa) = 0.01664947
#
# Stress axis : x y z
#
# Youngs Moduli (GPa) = 113.52997 80.66789 98.29172
#
# Poissons Ratio (x) = 0.15992 0.17820
# Poissons Ratio (y) = 0.22507 0.35081
# Poissons Ratio (z) = 0.20583 0.28791
#
# Static dielectric constant tensor:
#      x y z
#    x 4.452360 -0.111670 0.242220 
#    y -0.111670 4.724460 -0.204610 
#    z 0.242220 -0.204610 4.673390 
# 
# 
# High freq. dielectric constant tensor:
#      x y z
#    x 1.983270 0.001900 0.013850 
#    y 0.001900 2.008670 -0.009900 
#    z 0.013850 -0.009900 2.003000 
# 
# From -- ./inp_files/480223.got.cif
#   From: 2010.06.25/outbox.cif.g09.slc.cpg/sg2_241_cif.got.tgz:480223.got - 2010.06.27 13:26:56.
