data_PCOD8034889
_publ_section_title
;
Structure prediction by ZEFSAII (Michael W. Deem and Ramdas Pophale) SiO2 
 PCOD8034889
Probable space group: P -1
;
_chemical_formula_sum "Si O2"
_cell_formula_units_Z 16
_cell_length_a 8.454694
_cell_length_b 16.939766
_cell_length_c 8.853704
_cell_angle_alpha 120.176122
_cell_angle_beta 79.069162
_cell_angle_gamma 139.678785
_cell_volume 665.471871
_symmetry_space_group_name_H-M "P -1"
_symmetry_group_IT_number 2
_symmetry_cell_setting 'triclinic'
loop_
_space_group_symop_operation_xyz
x,y,z
-x,-y,-z
loop_
_atom_site_type_symbol
_atom_site_label
_atom_site_fract_x
_atom_site_fract_y
_atom_site_fract_z
Si Si1 0.662182 0.489530 0.893754
Si Si2 0.364620 0.726820 0.742435
Si Si3 0.616984 0.818490 0.277873
Si Si4 0.838556 0.910501 0.643086
Si Si5 0.478778 0.043991 0.891072
Si Si6 0.812181 0.544679 0.570634
Si Si7 0.823945 0.234734 0.772848
Si Si8 0.959636 0.768988 0.560997
O O1 0.508901 0.335423 0.834832
O O2 0.686540 0.500567 0.717214
O O3 0.500000 0.500000 0.000000
O O4 0.946422 0.612694 0.032715
O O5 0.636943 0.871401 0.750594
O O6 0.316093 0.596405 0.636472
O O7 0.122466 0.664309 0.637320
O O8 0.414976 0.802694 0.963195
O O9 0.756598 0.909887 0.494241
O O10 0.396255 0.792099 0.257891
O O11 0.859313 0.928113 0.219440
O O12 0.792004 0.779921 0.543188
O O13 0.680499 0.096655 0.776856
O O14 0.184801 0.909224 0.760532
O O15 0.500000 0.000000 0.000000
O O16 0.774726 0.619504 0.549284
O O17 0.928793 0.232667 0.604748
#
# Coordination Sequence:
#
# PCOD8034889 Si02
#       8
#     2   2   2   2   2   2   2   2
#     4  12  26  50  76 116 151 198 249 318 379 447
#     4  11  24  46  74 104 152 199 246 308 374 453
#     4  11  25  46  71 111 151 199 248 308 374 448
#     4  11  25  45  75 106 151 194 252 308 382 424
#     4  12  25  45  74 110 146 198 249 306 376 446
#     4  11  25  49  77 109 151 199 254 302 390 448
#     4  12  26  47  77 110 150 200 259 303 383 453
#     4  12  26  47  74 115 145 198 253 315 371 450
#
# _framework density 24.043091
#
# number of rings (size 3 to 8) (size 9 to 14) (size 15 to 20)
#    0.000    0.500    5.000    2.250    1.750    5.000 
#    2.250    0.000    0.000    0.000    0.000    0.000 
#    0.000    0.000    0.000    0.000    0.000    0.000 
#
# Total GULP energy -198314.265720 kJ/mol
# GULP energy per Si atom -12394.641608 kJ/mol
# Density = 2.398837 g / cm^3
# Si number density = 24.043091 Si / 1000 Ang^3
#
#
#
# Elastic Constant Matrix: (Units=GPa)
#
#
# Indices 1 2 3 4 5 6 
#
# 1 63.4376 65.4609 16.4381 -11.7630 2.1984 6.1701
# 2 65.4609 142.8941 31.7093 -0.8677 -9.6891 -12.0678
# 3 16.4381 31.7093 103.7394 4.8293 -3.4231 -13.8764
# 4 -11.7630 -0.8677 4.8293 35.8740 4.2682 3.5670
# 5 2.1984 -9.6891 -3.4231 4.2682 30.0447 -3.7665
# 6 6.1701 -12.0678 -13.8764 3.5670 -3.7665 40.2053
#
#
#
# Elastic Compliance Matrix: (Units=1/GPa)
#
#
# Indices 1 2 3 4 5 6 
#
# 1 0.046365 -0.022856 -0.004281 0.019021 -0.016293 -0.018667
# 2 -0.022856 0.019047 0.000066 -0.009398 0.010545 0.011069
# 3 -0.004281 0.000066 0.011255 -0.003763 0.002798 0.005157
# 4 0.019021 -0.009398 -0.003763 0.036895 -0.011521 -0.011391
# 5 -0.016293 0.010545 0.002798 -0.011521 0.041276 0.011520
# 6 -0.018667 0.011069 0.005157 -0.011391 0.011520 0.034929
#
#
# Mechanical properties :
#
#
# Convention : Reuss Voigt Hill
#
# Bulk Modulus (GPa) = 44.39471 59.69865 52.04668
# Shear Modulus (GPa) = 19.88726 34.32232 27.10479
#
# Velocity S-wave (km/s) = 2.87914 3.78237 3.36123
# Velocity P-wave (km/s) = 5.43667 6.63015 6.06285
#
# Compressibility (1/GPa) = 0.02252520
#
# Stress axis : x y z
#
# Youngs Moduli (GPa) = 21.56800 52.50204 88.84924
#
# Poissons Ratio (x) = 1.19999 0.38033
# Poissons Ratio (y) = 0.49296 -0.00584
# Poissons Ratio (z) = 0.09232 -0.00345
#
# Static dielectric constant tensor:
#      x y z
#    x 4.396330 0.298280 0.082650 
#    y 0.298280 4.561920 0.012220 
#    z 0.082650 0.012220 4.504050 
# 
# 
# High freq. dielectric constant tensor:
#      x y z
#    x 1.953110 0.012520 0.005760 
#    y 0.012520 1.978690 0.007050 
#    z 0.005760 0.007050 1.955120 
# 
# From -- ./inp_files/218261.got.cif
#   From: 2010.06.25/outbox.cif.g09.slc.cpg/sg2_110_cif.got.tgz:218261.got - 2010.06.27 13:26:56.
