data_PCOD8034073
_publ_section_title
;
Structure prediction by ZEFSAII (Michael W. Deem and Ramdas Pophale) SiO2 
 PCOD8034073
Probable space group: P -1
;
_chemical_formula_sum "Si O2"
_cell_formula_units_Z 16
_cell_length_a 8.962372
_cell_length_b 8.703569
_cell_length_c 16.819607
_cell_angle_alpha 115.791363
_cell_angle_beta 141.052758
_cell_angle_gamma 83.312814
_cell_volume 683.106326
_symmetry_space_group_name_H-M "P -1"
_symmetry_group_IT_number 2
_symmetry_cell_setting 'triclinic'
loop_
_space_group_symop_operation_xyz
x,y,z
-x,-y,-z
loop_
_atom_site_type_symbol
_atom_site_label
_atom_site_fract_x
_atom_site_fract_y
_atom_site_fract_z
Si Si1 0.884683 0.385072 0.347446
Si Si2 0.472912 0.715466 0.081376
Si Si3 0.406301 0.370345 0.057496
Si Si4 0.261160 0.554469 0.397349
Si Si5 0.654492 0.050261 0.426354
Si Si6 0.079546 0.933602 0.620865
Si Si7 0.015914 0.243499 0.110913
Si Si8 0.068842 0.902411 0.123768
O O1 0.594282 0.371153 0.208447
O O2 0.886564 0.181840 0.316324
O O3 0.000000 0.500000 0.500000
O O4 0.054575 0.472251 0.361817
O O5 0.371025 0.564122 0.076650
O O6 0.763422 0.848639 0.251119
O O7 0.449067 0.633484 0.965179
O O8 0.294590 0.833101 0.033684
O O9 0.126305 0.199873 0.908689
O O10 0.500000 0.500000 0.500000
O O11 0.334761 0.776329 0.474919
O O12 0.140671 0.457194 0.241109
O O13 0.812269 0.130758 0.427998
O O14 0.356748 0.911659 0.258395
O O15 0.785091 0.918669 0.489994
O O16 0.103033 0.115331 0.175959
O O17 0.084227 0.221987 0.043117
#
# Coordination Sequence:
#
# PCOD8034073 Si02
#       8
#     2   2   2   2   2   2   2   2
#     4  12  26  44  72 108 137 190 243 291 355 432
#     4  11  24  47  71 102 137 192 231 295 356 417
#     4  11  27  44  72 104 144 178 243 295 351 426
#     4  12  25  45  70 107 147 184 233 298 361 421
#     4  11  24  47  69 104 148 187 234 291 365 419
#     4  11  25  44  75 100 142 189 240 293 352 433
#     4  11  24  43  72 100 142 186 233 290 361 416
#     4  11  25  46  70 106 139 188 237 294 353 428
#
# _framework density 23.422415999999998
#
# number of rings (size 3 to 8) (size 9 to 14) (size 15 to 20)
#    0.000    0.750    5.000    1.500    8.750    1.500 
#    2.250    1.250    0.000    0.000    0.000    0.000 
#    0.000    0.000    0.000    0.000    0.000    0.000 
#
# Total GULP energy -198359.963881 kJ/mol
# GULP energy per Si atom -12397.497743 kJ/mol
# Density = 2.336911 g / cm^3
# Si number density = 23.422416 Si / 1000 Ang^3
#
#
#
# Elastic Constant Matrix: (Units=GPa)
#
#
# Indices 1 2 3 4 5 6 
#
# 1 60.2882 29.4232 32.2021 -3.7018 10.5896 -10.7738
# 2 29.4232 104.1995 52.9038 -13.3314 7.5734 -7.0098
# 3 32.2021 52.9038 130.0743 -8.6696 5.0224 -9.5102
# 4 -3.7018 -13.3314 -8.6696 44.2554 -16.1564 3.2816
# 5 10.5896 7.5734 5.0224 -16.1564 49.9088 -0.8732
# 6 -10.7738 -7.0098 -9.5102 3.2816 -0.8732 32.9888
#
#
#
# Elastic Compliance Matrix: (Units=1/GPa)
#
#
# Indices 1 2 3 4 5 6 
#
# 1 0.021963 -0.004084 -0.003349 -0.002006 -0.004258 0.005427
# 2 -0.004084 0.013230 -0.004186 0.002905 0.000220 -0.000012
# 3 -0.003349 -0.004186 0.010308 0.000598 0.000518 0.000943
# 4 -0.002006 0.002905 0.000598 0.026705 0.008529 -0.002296
# 5 -0.004258 0.000220 0.000518 0.008529 0.023591 -0.001418
# 6 0.005427 -0.000012 0.000943 -0.002296 -0.001418 0.032546
#
#
# Mechanical properties :
#
#
# Convention : Reuss Voigt Hill
#
# Bulk Modulus (GPa) = 44.91387 58.18003 51.54695
# Shear Modulus (GPa) = 31.44636 37.43280 34.43958
#
# Velocity S-wave (km/s) = 3.66809 4.00204 3.83870
# Velocity P-wave (km/s) = 6.09566 6.80062 6.45777
#
# Compressibility (1/GPa) = 0.02226484
#
# Stress axis : x y z
#
# Youngs Moduli (GPa) = 45.53051 75.58518 97.01004
#
# Poissons Ratio (x) = 0.30866 0.32489
# Poissons Ratio (y) = 0.18593 0.40606
# Poissons Ratio (z) = 0.15248 0.31638
#
# Static dielectric constant tensor:
#      x y z
#    x 4.102460 -0.232240 -0.085580 
#    y -0.232240 4.363090 -0.117840 
#    z -0.085580 -0.117840 4.262400 
# 
# 
# High freq. dielectric constant tensor:
#      x y z
#    x 1.914120 -0.019100 0.001290 
#    y -0.019100 1.923960 -0.008060 
#    z 0.001290 -0.008060 1.935850 
# 
# From -- ./inp_files/557522.got.cif
#   From: 2010.06.25/outbox.cif.g09.slc.cpg/sg2_279_cif.got.tgz:557522.got - 2010.06.27 13:26:56.
