data_PCOD8034577
_publ_section_title
;
Structure prediction by ZEFSAII (Michael W. Deem and Ramdas Pophale) SiO2 
 PCOD8034577
Probable space group: P -1
;
_chemical_formula_sum "Si O2"
_cell_formula_units_Z 12
_cell_length_a 9.378322
_cell_length_b 9.482346
_cell_length_c 9.643815
_cell_angle_alpha 103.382903
_cell_angle_beta 133.957034
_cell_angle_gamma 64.616934
_cell_volume 554.873649
_symmetry_space_group_name_H-M "P -1"
_symmetry_group_IT_number 2
_symmetry_cell_setting 'triclinic'
loop_
_space_group_symop_operation_xyz
x,y,z
-x,-y,-z
loop_
_atom_site_type_symbol
_atom_site_label
_atom_site_fract_x
_atom_site_fract_y
_atom_site_fract_z
Si Si1 0.109477 0.334250 0.156897
Si Si2 0.448551 0.676270 0.946196
Si Si3 0.118551 0.312998 0.861218
Si Si4 0.183961 0.834402 0.048913
Si Si5 0.458012 0.847939 0.481797
Si Si6 0.167854 0.833265 0.529105
O O1 0.310154 0.286512 0.382462
O O2 0.034131 0.518998 0.145840
O O3 0.185110 0.233425 0.040178
O O4 0.918745 0.292338 0.081455
O O5 0.306895 0.717354 0.718735
O O6 0.500000 0.500000 0.000000
O O7 0.675535 0.691733 0.084085
O O8 0.322995 0.818659 0.000152
O O9 0.975592 0.247744 0.659121
O O10 0.341504 0.784816 0.273489
O O11 0.000000 0.000000 0.000000
O O12 0.327675 0.870437 0.541489
O O13 0.500000 0.000000 0.500000
O O14 0.000000 0.000000 0.500000
#
# Coordination Sequence:
#
# PCOD8034577 Si02
#       6
#     2   2   2   2   2   2
#     4  11  24  45  71 106 142 189 244 297 367 431
#     4  12  28  48  73 111 148 191 244 303 370 432
#     4  11  26  46  74 102 146 190 241 305 363 436
#     4  12  25  45  72 106 147 190 244 301 360 441
#     4  12  26  44  74 105 139 194 241 294 366 438
#     4  12  29  47  73 108 147 190 246 304 369 434
#
# _framework density 21.626545
#
# number of rings (size 3 to 8) (size 9 to 14) (size 15 to 20)
#    0.000    0.333    6.667    1.000    4.667    2.000 
#    0.000    0.000    0.000    0.000    0.000    0.000 
#    0.000    0.000    0.000    0.000    0.000    0.000 
#
# Total GULP energy -148698.705098 kJ/mol
# GULP energy per Si atom -12391.558758 kJ/mol
# Density = 2.157732 g / cm^3
# Si number density = 21.626545 Si / 1000 Ang^3
#
#
#
# Elastic Constant Matrix: (Units=GPa)
#
#
# Indices 1 2 3 4 5 6 
#
# 1 151.2773 50.1362 63.0885 -1.5654 1.1570 -2.8385
# 2 50.1362 96.2898 57.6044 10.1396 3.8564 -6.1557
# 3 63.0885 57.6044 182.7135 -5.1915 11.9181 -7.6693
# 4 -1.5654 10.1396 -5.1915 30.5029 2.9353 -5.5506
# 5 1.1570 3.8564 11.9181 2.9353 42.0189 5.2994
# 6 -2.8385 -6.1557 -7.6693 -5.5506 5.2994 31.9835
#
#
#
# Elastic Compliance Matrix: (Units=1/GPa)
#
#
# Indices 1 2 3 4 5 6 
#
# 1 0.008551 -0.003502 -0.001862 0.001187 0.000563 -0.000249
# 2 -0.003502 0.015045 -0.003670 -0.005683 0.000064 0.000708
# 3 -0.001862 -0.003670 0.007577 0.002957 -0.002197 0.001823
# 4 0.001187 -0.005683 0.002957 0.036826 -0.003772 0.006737
# 5 0.000563 0.000064 -0.002197 -0.003772 0.025335 -0.005317
# 6 -0.000249 0.000708 0.001823 0.006737 -0.005317 0.033867
#
#
# Mechanical properties :
#
#
# Convention : Reuss Voigt Hill
#
# Bulk Modulus (GPa) = 76.30480 85.77099 81.03789
# Shear Modulus (GPa) = 33.41416 38.19784 35.80600
#
# Velocity S-wave (km/s) = 3.93498 4.20723 4.07338
# Velocity P-wave (km/s) = 7.48365 7.95910 7.72503
#
# Compressibility (1/GPa) = 0.01310534
#
# Stress axis : x y z
#
# Youngs Moduli (GPa) = 116.94965 66.46546 131.97999
#
# Poissons Ratio (x) = 0.23274 0.24573
# Poissons Ratio (y) = 0.40952 0.48440
# Poissons Ratio (z) = 0.21774 0.24394
#
# Static dielectric constant tensor:
#      x y z
#    x 4.167400 0.075830 0.005760 
#    y 0.075830 3.967000 -0.269530 
#    z 0.005760 -0.269530 4.418430 
# 
# 
# High freq. dielectric constant tensor:
#      x y z
#    x 1.869910 -0.001490 0.006050 
#    y -0.001490 1.844240 -0.004190 
#    z 0.006050 -0.004190 1.868920 
# 
# From -- ./inp_files/148777.got.cif
#   From: 2010.06.25/outbox.cif.g09.slc.cpg/sg2_75_cif.got.tgz:148777.got - 2010.06.27 13:26:56.
