data_PCOD8034386
_publ_section_title
;
Structure prediction by ZEFSAII (Michael W. Deem and Ramdas Pophale) SiO2 
 PCOD8034386
Probable space group: P -1
;
_chemical_formula_sum "Si O2"
_cell_formula_units_Z 16
_cell_length_a 24.131119
_cell_length_b 18.338828
_cell_length_c 5.189581
_cell_angle_alpha 113.097020
_cell_angle_beta 77.518570
_cell_angle_gamma 159.238756
_cell_volume 664.053181
_symmetry_space_group_name_H-M "P -1"
_symmetry_group_IT_number 2
_symmetry_cell_setting 'triclinic'
loop_
_space_group_symop_operation_xyz
x,y,z
-x,-y,-z
loop_
_atom_site_type_symbol
_atom_site_label
_atom_site_fract_x
_atom_site_fract_y
_atom_site_fract_z
Si Si1 0.838670 0.884062 0.803125
Si Si2 0.872797 0.406278 0.020274
Si Si3 0.800556 0.577149 0.912272
Si Si4 0.566357 0.892424 0.621689
Si Si5 0.304298 0.226052 0.720053
Si Si6 0.375609 0.544913 0.713626
Si Si7 0.963727 0.622458 0.734221
Si Si8 0.682547 0.911450 0.215291
O O1 0.740680 0.807321 0.573459
O O2 0.761647 0.693223 0.624009
O O3 0.821444 0.896631 0.121781
O O4 0.049231 0.159147 0.936946
O O5 0.916154 0.527710 0.364753
O O6 0.885236 0.460920 0.802350
O O7 0.000000 0.500000 0.000000
O O8 0.673127 0.113677 0.882467
O O9 0.637671 0.358191 0.578122
O O10 0.886757 0.605403 0.867418
O O11 0.724603 0.508494 0.163773
O O12 0.546305 0.801739 0.742193
O O13 0.682977 0.003254 0.438855
O O14 0.271009 0.087666 0.597360
O O15 0.500000 0.500000 0.000000
O O16 0.477308 0.625378 0.937148
O O17 0.176071 0.910315 0.912484
#
# Coordination Sequence:
#
# PCOD8034386 Si02
#       8
#     2   2   2   2   2   2   2   2
#     4  12  27  45  74 106 149 200 244 298 362 440
#     4  12  27  49  80 110 144 186 248 307 377 432
#     4  11  29  48  70 110 149 199 243 300 361 447
#     4  11  27  47  76 103 151 195 245 305 369 441
#     4  12  25  43  73 111 146 189 252 305 362 422
#     4  11  26  47  73 104 152 199 246 295 368 436
#     4  12  28  47  78 110 144 189 245 308 368 433
#     4  11  24  44  73 109 146 191 244 310 366 432
#
# _framework density 24.094455
#
# number of rings (size 3 to 8) (size 9 to 14) (size 15 to 20)
#    0.000    0.500    3.750    2.625   12.250    1.500 
#    0.000    0.000    0.000    0.000    0.000    0.000 
#    0.000    0.000    0.000    0.000    0.000    0.000 
#
# Total GULP energy -198252.905164 kJ/mol
# GULP energy per Si atom -12390.806573 kJ/mol
# Density = 2.403961 g / cm^3
# Si number density = 24.094455 Si / 1000 Ang^3
#
#
#
# Elastic Constant Matrix: (Units=GPa)
#
#
# Indices 1 2 3 4 5 6 
#
# 1 100.3723 46.8383 20.6296 -5.2705 -18.9098 22.9708
# 2 46.8383 131.0775 27.6118 14.9246 -5.7470 1.6234
# 3 20.6296 27.6118 65.3598 7.7754 -14.2069 10.5781
# 4 -5.2705 14.9246 7.7754 42.4778 -6.4788 -0.5521
# 5 -18.9098 -5.7470 -14.2069 -6.4788 27.8173 0.5105
# 6 22.9708 1.6234 10.5781 -0.5521 0.5105 45.0070
#
#
#
# Elastic Compliance Matrix: (Units=1/GPa)
#
#
# Indices 1 2 3 4 5 6 
#
# 1 0.017573 -0.006447 0.000618 0.006126 0.012520 -0.008948
# 2 -0.006447 0.010994 -0.003796 -0.004714 -0.005218 0.003787
# 3 0.000618 -0.003796 0.019685 -0.000794 0.009595 -0.004924
# 4 0.006126 -0.004714 -0.000794 0.027478 0.009231 -0.002538
# 5 0.012520 -0.005218 0.009595 0.009231 0.050596 -0.008918
# 6 -0.008948 0.003787 -0.004924 -0.002538 -0.008918 0.027877
#
#
# Mechanical properties :
#
#
# Convention : Reuss Voigt Hill
#
# Bulk Modulus (GPa) = 34.48009 54.10766 44.29388
# Shear Modulus (GPa) = 27.30453 36.50908 31.90681
#
# Velocity S-wave (km/s) = 3.37000 3.89684 3.64296
# Velocity P-wave (km/s) = 5.42991 6.53853 6.00984
#
# Compressibility (1/GPa) = 0.02900224
#
# Stress axis : x y z
#
# Youngs Moduli (GPa) = 56.90605 90.96237 50.79941
#
# Poissons Ratio (x) = 0.58646 -0.03140
# Poissons Ratio (y) = 0.36689 0.19281
# Poissons Ratio (z) = -0.03518 0.34526
#
# Static dielectric constant tensor:
#      x y z
#    x 4.583110 -0.118750 -0.417580 
#    y -0.118750 4.977690 -0.000950 
#    z -0.417580 -0.000950 5.232200 
# 
# 
# High freq. dielectric constant tensor:
#      x y z
#    x 1.952010 0.004190 -0.006300 
#    y 0.004190 1.969600 0.006110 
#    z -0.006300 0.006110 1.958380 
# 
# From -- ./inp_files/124850.got.cif
#   From: 2010.06.25/outbox.cif.g09.slc.cpg/sg2_63_cif.got.tgz:124850.got - 2010.06.27 13:26:56.
