data_PCOD8034738
_publ_section_title
;
Structure prediction by ZEFSAII (Michael W. Deem and Ramdas Pophale) SiO2 
 PCOD8034738
Probable space group: P -1
;
_chemical_formula_sum "Si O2"
_cell_formula_units_Z 14
_cell_length_a 18.013730
_cell_length_b 15.466992
_cell_length_c 5.294865
_cell_angle_alpha 111.757709
_cell_angle_beta 55.417255
_cell_angle_gamma 149.437069
_cell_volume 592.529128
_symmetry_space_group_name_H-M "P -1"
_symmetry_group_IT_number 2
_symmetry_cell_setting 'triclinic'
loop_
_space_group_symop_operation_xyz
x,y,z
-x,-y,-z
loop_
_atom_site_type_symbol
_atom_site_label
_atom_site_fract_x
_atom_site_fract_y
_atom_site_fract_z
Si Si1 0.409826 0.605611 0.898527
Si Si2 0.392083 0.911976 0.862848
Si Si3 0.533448 0.629040 0.192130
Si Si4 0.898790 0.003953 0.769480
Si Si5 0.957592 0.707383 0.918777
Si Si6 0.077045 0.523620 0.120647
Si Si7 0.269951 0.999912 0.286405
O O1 0.442291 0.556115 0.563683
O O2 0.536789 0.801597 0.783625
O O3 0.453280 0.624912 0.127718
O O4 0.205537 0.445868 0.120337
O O5 0.500000 0.000000 0.500000
O O6 0.276435 0.719950 0.920234
O O7 0.285599 0.914135 0.027379
O O8 0.500000 0.000000 0.000000
O O9 0.500000 0.500000 0.000000
O O10 0.735775 0.829003 0.064879
O O11 0.820173 0.994599 0.682512
O O12 0.000000 0.000000 0.500000
O O13 0.044603 0.196204 0.826064
O O14 0.949900 0.610252 0.003864
O O15 0.146994 0.871131 0.616328
O O16 0.000000 0.500000 0.500000
O O17 0.000000 0.500000 0.000000
#
# Coordination Sequence:
#
# PCOD8034738 Si02
#       7
#     2   2   2   2   2   2   2
#     4  11  26  44  71 104 141 195 244 302 374 439
#     4  12  27  48  79 112 152 198 252 312 389 460
#     4  11  24  46  68 102 147 186 251 314 361 433
#     4  11  26  46  75 108 152 204 253 311 375 445
#     4  12  26  46  78 104 153 199 254 310 382 451
#     4  12  26  46  74 109 148 193 248 312 383 451
#     4  11  26  49  73 109 156 197 250 319 373 454
#
# _framework density 23.627528000000002
#
# number of rings (size 3 to 8) (size 9 to 14) (size 15 to 20)
#    0.000    0.571    2.857    3.857    6.000    4.000 
#    0.000    0.000    0.000    0.000    0.000    0.000 
#    0.000    0.000    0.000    0.000    0.000    0.000 
#
# Total GULP energy -173441.298102 kJ/mol
# GULP energy per Si atom -12388.664150 kJ/mol
# Density = 2.357375 g / cm^3
# Si number density = 23.627528 Si / 1000 Ang^3
#
#
#
# Elastic Constant Matrix: (Units=GPa)
#
#
# Indices 1 2 3 4 5 6 
#
# 1 116.8221 39.9536 33.1509 3.4053 -10.2102 -0.3495
# 2 39.9536 182.8365 22.0939 -15.8435 -8.9930 -5.7251
# 3 33.1509 22.0939 102.0649 5.8038 3.9432 -11.9188
# 4 3.4053 -15.8435 5.8038 36.4030 -5.9179 -4.6849
# 5 -10.2102 -8.9930 3.9432 -5.9179 40.6546 10.2515
# 6 -0.3495 -5.7251 -11.9188 -4.6849 10.2515 48.8581
#
#
#
# Elastic Compliance Matrix: (Units=1/GPa)
#
#
# Indices 1 2 3 4 5 6 
#
# 1 0.010379 -0.001887 -0.003197 -0.001041 0.002752 -0.001604
# 2 -0.001887 0.006376 -0.000952 0.003398 0.001388 0.000536
# 3 -0.003197 -0.000952 0.011660 -0.002092 -0.003254 0.003192
# 4 -0.001041 0.003398 -0.002092 0.030371 0.004656 0.001816
# 5 0.002752 0.001388 -0.003254 0.004656 0.028118 -0.006065
# 6 -0.001604 0.000536 0.003192 0.001816 -0.006065 0.022744
#
#
# Mechanical properties :
#
#
# Convention : Reuss Voigt Hill
#
# Bulk Modulus (GPa) = 61.18658 65.79115 63.48886
# Shear Modulus (GPa) = 39.31861 45.61814 42.46838
#
# Velocity S-wave (km/s) = 4.08377 4.39876 4.24419
# Velocity P-wave (km/s) = 6.94181 7.32833 7.13769
#
# Compressibility (1/GPa) = 0.01634345
#
# Stress axis : x y z
#
# Youngs Moduli (GPa) = 96.35208 156.83380 85.76682
#
# Poissons Ratio (x) = 0.29590 0.27420
# Poissons Ratio (y) = 0.18179 0.08162
# Poissons Ratio (z) = 0.30804 0.14926
#
# Static dielectric constant tensor:
#      x y z
#    x 4.671280 -0.822020 -0.469820 
#    y -0.822020 6.591710 0.808380 
#    z -0.469820 0.808380 4.919060 
# 
# 
# High freq. dielectric constant tensor:
#      x y z
#    x 1.931490 -0.003990 -0.002310 
#    y -0.003990 1.969830 -0.007530 
#    z -0.002310 -0.007530 1.929470 
# 
# From -- ./inp_files/37100.got.cif
#   From: 2010.06.25/outbox.cif.g09.slc.cpg/sg2_19_cif.got.tgz:37100.got - 2010.06.27 13:26:56.
