data_PCOD8034769
_publ_section_title
;
Structure prediction by ZEFSAII (Michael W. Deem and Ramdas Pophale) SiO2 
 PCOD8034769
Probable space group: P -1
;
_chemical_formula_sum "Si O2"
_cell_formula_units_Z 14
_cell_length_a 8.996248
_cell_length_b 9.646891
_cell_length_c 18.029230
_cell_angle_alpha 54.055836
_cell_angle_beta 151.332713
_cell_angle_gamma 127.927522
_cell_volume 587.356743
_symmetry_space_group_name_H-M "P -1"
_symmetry_group_IT_number 2
_symmetry_cell_setting 'triclinic'
loop_
_space_group_symop_operation_xyz
x,y,z
-x,-y,-z
loop_
_atom_site_type_symbol
_atom_site_label
_atom_site_fract_x
_atom_site_fract_y
_atom_site_fract_z
Si Si1 0.309008 0.897320 0.047936
Si Si2 0.606920 0.482292 0.633779
Si Si3 0.201987 0.205185 0.802530
Si Si4 0.244946 0.529661 0.824936
Si Si5 0.612428 0.815574 0.789375
Si Si6 0.738048 0.327178 0.466889
Si Si7 0.353943 0.075215 0.666962
O O1 0.462579 0.770889 0.103149
O O2 0.570401 0.989587 0.196170
O O3 0.967788 0.784156 0.968094
O O4 0.178938 0.039325 0.898095
O O5 0.500000 0.500000 0.500000
O O6 0.504535 0.621550 0.597717
O O7 0.441624 0.285063 0.651240
O O8 0.984828 0.532667 0.773323
O O9 0.168605 0.376816 0.778110
O O10 0.910939 0.182638 0.622723
O O11 0.357777 0.710920 0.771612
O O12 0.500000 0.500000 0.000000
O O13 0.487981 0.764607 0.669170
O O14 0.604213 0.019231 0.737818
O O15 0.000000 0.500000 0.500000
O O16 0.000000 0.000000 0.500000
#
# Coordination Sequence:
#
# PCOD8034769 Si02
#       7
#     2   2   2   2   2   2   2
#     4  11  26  46  71 109 143 193 238 309 362 434
#     4  12  25  46  73 107 146 189 242 296 364 433
#     4  11  24  46  70 100 155 185 247 298 365 431
#     4  12  25  43  71 105 147 191 241 301 359 434
#     4  12  26  45  75 107 145 190 246 296 366 424
#     4  12  24  47  74 107 147 191 244 298 359 436
#     4  12  25  47  75 104 146 188 241 299 369 434
#
# _framework density 23.835601
#
# number of rings (size 3 to 8) (size 9 to 14) (size 15 to 20)
#    0.000    0.286    2.857    6.429    2.000    1.143 
#    2.571    0.000    0.000    0.000    0.000    0.000 
#    0.000    0.000    0.000    0.000    0.000    0.000 
#
# Total GULP energy -173465.284334 kJ/mol
# GULP energy per Si atom -12390.377452 kJ/mol
# Density = 2.378135 g / cm^3
# Si number density = 23.835601 Si / 1000 Ang^3
#
#
#
# Elastic Constant Matrix: (Units=GPa)
#
#
# Indices 1 2 3 4 5 6 
#
# 1 139.0997 30.9195 65.2300 -5.1582 17.7289 -18.1204
# 2 30.9195 57.7491 30.0544 -10.0223 0.9433 -7.9023
# 3 65.2300 30.0544 185.2393 3.2144 -3.9156 0.2614
# 4 -5.1582 -10.0223 3.2144 38.1055 -4.7055 2.9775
# 5 17.7289 0.9433 -3.9156 -4.7055 59.6398 -2.6577
# 6 -18.1204 -7.9023 0.2614 2.9775 -2.6577 41.2606
#
#
#
# Elastic Compliance Matrix: (Units=1/GPa)
#
#
# Indices 1 2 3 4 5 6 
#
# 1 0.010271 -0.003278 -0.003157 0.000131 -0.003034 0.003698
# 2 -0.003278 0.021574 -0.002421 0.005372 0.001004 0.002385
# 3 -0.003157 -0.002421 0.006955 -0.001363 0.001249 -0.001715
# 4 0.000131 0.005372 -0.001363 0.028095 0.001967 -0.000806
# 5 -0.003034 0.001004 0.001249 0.001967 0.017884 -0.000138
# 6 0.003698 0.002385 -0.001715 -0.000806 -0.000138 0.026377
#
#
# Mechanical properties :
#
#
# Convention : Reuss Voigt Hill
#
# Bulk Modulus (GPa) = 47.41987 70.49955 58.95971
# Shear Modulus (GPa) = 36.79223 44.86012 40.82617
#
# Velocity S-wave (km/s) = 3.93311 4.34298 4.14312
# Velocity P-wave (km/s) = 6.36895 7.40205 6.90485
#
# Compressibility (1/GPa) = 0.02108821
#
# Stress axis : x y z
#
# Youngs Moduli (GPa) = 97.35824 46.35239 143.77476
#
# Poissons Ratio (x) = 0.15195 0.45385
# Poissons Ratio (y) = 0.31916 0.34811
# Poissons Ratio (z) = 0.30733 0.11223
#
# Static dielectric constant tensor:
#      x y z
#    x 4.330290 0.010540 -0.210230 
#    y 0.010540 4.236350 -0.359880 
#    z -0.210230 -0.359880 4.988740 
# 
# 
# High freq. dielectric constant tensor:
#      x y z
#    x 1.963890 -0.016980 -0.000250 
#    y -0.016980 1.921810 -0.009820 
#    z -0.000250 -0.009820 1.974310 
# 
# From -- ./inp_files/157898.got.cif
#   From: 2010.06.25/outbox.cif.g09.slc.cpg/sg2_79_cif.got.tgz:157898.got - 2010.06.27 13:26:56.
