data_PCOD8034955
_publ_section_title
;
Structure prediction by ZEFSAII (Michael W. Deem and Ramdas Pophale) SiO2 
 PCOD8034955
Probable space group: P -1
;
_chemical_formula_sum "Si O2"
_cell_formula_units_Z 14
_cell_length_a 19.877040
_cell_length_b 13.594069
_cell_length_c 13.020093
_cell_angle_alpha 148.615453
_cell_angle_beta 25.780938
_cell_angle_gamma 155.444095
_cell_volume 624.097181
_symmetry_space_group_name_H-M "P -1"
_symmetry_group_IT_number 2
_symmetry_cell_setting 'triclinic'
loop_
_space_group_symop_operation_xyz
x,y,z
-x,-y,-z
loop_
_atom_site_type_symbol
_atom_site_label
_atom_site_fract_x
_atom_site_fract_y
_atom_site_fract_z
Si Si1 0.878695 0.216932 0.919290
Si Si2 0.233884 0.287783 0.578491
Si Si3 0.523937 0.851018 0.204926
Si Si4 0.417968 0.473142 0.844925
Si Si5 0.717640 0.087671 0.802311
Si Si6 0.859945 0.564533 0.966107
Si Si7 0.286740 0.013834 0.726069
O O1 0.753030 0.085566 0.872961
O O2 0.025770 0.154744 0.686469
O O3 0.000000 0.500000 0.000000
O O4 0.720066 0.113250 0.135523
O O5 0.402976 0.449887 0.406398
O O6 0.252696 0.454976 0.792743
O O7 0.250335 0.100521 0.449921
O O8 0.558372 0.818797 0.247160
O O9 0.341534 0.858778 0.456023
O O10 0.490185 0.639604 0.994821
O O11 0.270259 0.498011 0.010439
O O12 0.299342 0.194705 0.789922
O O13 0.877542 0.349954 0.764376
O O14 0.500000 0.000000 0.000000
O O15 0.067127 0.826868 0.905565
#
# Coordination Sequence:
#
# PCOD8034955 Si02
#       7
#     2   2   2   2   2   2   2
#     4  12  22  43  72 103 142 180 232 290 350 414
#     4  12  25  43  76 105 143 182 238 288 359 412
#     4  11  24  47  67 101 138 185 235 285 352 418
#     4  12  26  43  73 101 140 183 236 289 356 413
#     4  12  25  43  70 104 145 180 229 292 350 417
#     4  12  26  47  68 107 139 187 232 292 354 416
#     4  11  26  46  71  97 142 185 235 288 348 420
#
# _framework density 22.432403999999998
#
# number of rings (size 3 to 8) (size 9 to 14) (size 15 to 20)
#    0.000    0.286    5.714    2.571    0.000    4.000 
#    0.000    0.000    0.000    0.000    0.000    0.000 
#    0.000    0.000    0.000    0.000    0.000    0.000 
#
# Total GULP energy -173630.875959 kJ/mol
# GULP energy per Si atom -12402.205426 kJ/mol
# Density = 2.238135 g / cm^3
# Si number density = 22.432404 Si / 1000 Ang^3
#
#
#
# Elastic Constant Matrix: (Units=GPa)
#
#
# Indices 1 2 3 4 5 6 
#
# 1 106.7327 24.3154 24.4659 -3.4696 -23.2116 -5.3282
# 2 24.3154 108.3688 40.9469 1.5460 0.8728 -18.4491
# 3 24.4659 40.9469 93.6504 -8.3302 -8.5841 -8.4344
# 4 -3.4696 1.5460 -8.3302 22.3613 -6.6154 -4.2154
# 5 -23.2116 0.8728 -8.5841 -6.6154 38.5232 0.9435
# 6 -5.3282 -18.4491 -8.4344 -4.2154 0.9435 41.2423
#
#
#
# Elastic Compliance Matrix: (Units=1/GPa)
#
#
# Indices 1 2 3 4 5 6 
#
# 1 0.011966 -0.002341 -0.000988 0.004036 0.007723 0.000533
# 2 -0.002341 0.012425 -0.005091 -0.003413 -0.003509 0.003946
# 3 -0.000988 -0.005091 0.014223 0.006842 0.003837 0.001115
# 4 0.004036 -0.003413 0.006842 0.053018 0.013003 0.005515
# 5 0.007723 -0.003509 0.003837 0.013003 0.033760 0.000769
# 6 0.000533 0.003946 0.001115 0.005515 0.000769 0.026855
#
#
# Mechanical properties :
#
#
# Convention : Reuss Voigt Hill
#
# Bulk Modulus (GPa) = 45.92412 54.24537 50.08475
# Shear Modulus (GPa) = 28.35341 35.02696 31.69019
#
# Velocity S-wave (km/s) = 3.55906 3.95580 3.76266
# Velocity P-wave (km/s) = 6.11604 6.71555 6.42279
#
# Compressibility (1/GPa) = 0.02177505
#
# Stress axis : x y z
#
# Youngs Moduli (GPa) = 83.56840 80.48041 70.30945
#
# Poissons Ratio (x) = 0.18839 0.06945
# Poissons Ratio (y) = 0.19562 0.35795
# Poissons Ratio (z) = 0.08255 0.40973
#
# Static dielectric constant tensor:
#      x y z
#    x 4.250340 -0.095410 -0.119420 
#    y -0.095410 4.090080 0.081670 
#    z -0.119420 0.081670 4.087860 
# 
# 
# High freq. dielectric constant tensor:
#      x y z
#    x 1.898110 -0.004330 -0.006690 
#    y -0.004330 1.887330 0.004690 
#    z -0.006690 0.004690 1.876430 
# 
# From -- ./inp_files/403464.got.cif
#   From: 2010.06.25/outbox.cif.g09.slc.cpg/sg2_202_cif.got.tgz:403464.got - 2010.06.27 13:26:56.
