data_PCOD8034852
_publ_section_title
;
Structure prediction by ZEFSAII (Michael W. Deem and Ramdas Pophale) SiO2 
 PCOD8034852
Probable space group: P -1
;
_chemical_formula_sum "Si O2"
_cell_formula_units_Z 14
_cell_length_a 6.522065
_cell_length_b 17.359567
_cell_length_c 9.266697
_cell_angle_alpha 123.511995
_cell_angle_beta 48.482419
_cell_angle_gamma 102.350158
_cell_volume 635.256027
_symmetry_space_group_name_H-M "P -1"
_symmetry_group_IT_number 2
_symmetry_cell_setting 'triclinic'
loop_
_space_group_symop_operation_xyz
x,y,z
-x,-y,-z
loop_
_atom_site_type_symbol
_atom_site_label
_atom_site_fract_x
_atom_site_fract_y
_atom_site_fract_z
Si Si1 0.892865 0.404679 0.970129
Si Si2 0.146126 0.949349 0.521392
Si Si3 0.941384 0.304707 0.148126
Si Si4 0.259122 0.409513 0.299262
Si Si5 0.223446 0.104279 0.866620
Si Si6 0.657354 0.697769 0.561668
Si Si7 0.708197 0.897347 0.838205
O O1 0.085561 0.323507 0.694033
O O2 0.934706 0.367405 0.074303
O O3 0.556635 0.425054 0.114279
O O4 0.000000 0.500000 0.000000
O O5 0.453463 0.889765 0.277318
O O6 0.966830 0.877483 0.584882
O O7 0.161890 0.016057 0.719865
O O8 0.000000 0.000000 0.500000
O O9 0.634701 0.320271 0.385428
O O10 0.178213 0.324605 0.163427
O O11 0.041360 0.192880 0.954118
O O12 0.271802 0.381416 0.430013
O O13 0.000000 0.500000 0.500000
O O14 0.156837 0.100647 0.063913
O O15 0.582433 0.805421 0.773754
O O16 0.500000 0.000000 0.000000
#
# Coordination Sequence:
#
# PCOD8034852 Si02
#       7
#     2   2   2   2   2   2   2
#     4  11  26  45  70 103 139 176 230 289 348 414
#     4  11  25  42  69  96 138 178 233 282 345 402
#     4  11  25  43  69  97 139 175 226 283 342 408
#     4  11  24  46  72  97 138 179 224 287 348 413
#     4  11  25  44  65 100 133 183 229 285 344 407
#     4  11  26  43  68 103 137 183 230 282 347 409
#     4  12  24  43  70  95 141 184 230 283 342 409
#
# _framework density 22.038360999999998
#
# number of rings (size 3 to 8) (size 9 to 14) (size 15 to 20)
#    0.000    0.857    2.857    3.000    4.000    6.857 
#    0.000    0.000    0.000    0.000    0.000    0.000 
#    0.000    0.000    0.000    0.000    0.000    0.000 
#
# Total GULP energy -173506.948216 kJ/mol
# GULP energy per Si atom -12393.353444 kJ/mol
# Density = 2.198820 g / cm^3
# Si number density = 22.038361 Si / 1000 Ang^3
#
#
#
# Elastic Constant Matrix: (Units=GPa)
#
#
# Indices 1 2 3 4 5 6 
#
# 1 114.6482 29.3065 37.5278 -12.9931 -17.8773 7.5611
# 2 29.3065 98.4171 34.0370 -5.1044 -17.0639 -6.5783
# 3 37.5278 34.0370 112.3984 -13.9636 -20.0726 4.0805
# 4 -12.9931 -5.1044 -13.9636 45.7121 1.7241 -6.3291
# 5 -17.8773 -17.0639 -20.0726 1.7241 44.7318 -1.5264
# 6 7.5611 -6.5783 4.0805 -6.3291 -1.5264 31.4407
#
#
#
# Elastic Compliance Matrix: (Units=1/GPa)
#
#
# Indices 1 2 3 4 5 6 
#
# 1 0.010690 -0.002068 -0.002229 0.001726 0.002340 -0.002253
# 2 -0.002068 0.012454 -0.002658 0.000391 0.002842 0.003665
# 3 -0.002229 -0.002658 0.011307 0.002287 0.003051 -0.000879
# 4 0.001726 0.000391 0.002287 0.023647 0.001097 0.004183
# 5 0.002340 0.002842 0.003051 0.001097 0.025739 0.001106
# 6 -0.002253 0.003665 -0.000879 0.004183 0.001106 0.034124
#
#
# Mechanical properties :
#
#
# Convention : Reuss Voigt Hill
#
# Bulk Modulus (GPa) = 48.68221 58.57848 53.63035
# Shear Modulus (GPa) = 36.04485 39.34976 37.69731
#
# Velocity S-wave (km/s) = 4.04858 4.23012 4.14034
# Velocity P-wave (km/s) = 6.63268 7.10609 6.87346
#
# Compressibility (1/GPa) = 0.02054138
#
# Stress axis : x y z
#
# Youngs Moduli (GPa) = 93.54970 80.29742 88.44241
#
# Poissons Ratio (x) = 0.16603 0.19712
# Poissons Ratio (y) = 0.19343 0.23507
# Poissons Ratio (z) = 0.20850 0.21342
#
# Static dielectric constant tensor:
#      x y z
#    x 4.091040 0.211730 -0.171280 
#    y 0.211730 4.033400 -0.142120 
#    z -0.171280 -0.142120 4.115970 
# 
# 
# High freq. dielectric constant tensor:
#      x y z
#    x 1.877220 0.003820 -0.010720 
#    y 0.003820 1.877570 -0.003640 
#    z -0.010720 -0.003640 1.870300 
# 
# From -- ./inp_files/46446.got.cif
#   From: 2010.06.25/outbox.cif.g09.slc.cpg/sg2_24_cif.got.tgz:46446.got - 2010.06.27 13:26:56.
