data_PCOD8034582
_publ_section_title
;
Structure prediction by ZEFSAII (Michael W. Deem and Ramdas Pophale) SiO2 
 PCOD8034582
Probable space group: P -1
;
_chemical_formula_sum "Si O2"
_cell_formula_units_Z 14
_cell_length_a 12.297214
_cell_length_b 8.469465
_cell_length_c 20.596485
_cell_angle_alpha 134.682461
_cell_angle_beta 29.668733
_cell_angle_gamma 144.664786
_cell_volume 613.988504
_symmetry_space_group_name_H-M "P -1"
_symmetry_group_IT_number 2
_symmetry_cell_setting 'triclinic'
loop_
_space_group_symop_operation_xyz
x,y,z
-x,-y,-z
loop_
_atom_site_type_symbol
_atom_site_label
_atom_site_fract_x
_atom_site_fract_y
_atom_site_fract_z
Si Si1 0.823395 0.698753 0.972694
Si Si2 0.019400 0.625851 0.123533
Si Si3 0.575422 0.120894 0.124310
Si Si4 0.741543 0.886882 0.404178
Si Si5 0.691949 0.435278 0.834830
Si Si6 0.179889 0.596152 0.551724
Si Si7 0.063242 0.086231 0.416437
O O1 0.917222 0.513372 0.893821
O O2 0.842719 0.690082 0.881068
O O3 0.502438 0.547808 0.110736
O O4 0.000000 0.000000 0.000000
O O5 0.778611 0.387710 0.137258
O O6 0.915319 0.796448 0.254835
O O7 0.297241 0.826679 0.998104
O O8 0.282336 0.062516 0.260340
O O9 0.532804 0.850579 0.095846
O O10 0.422501 0.681197 0.499623
O O11 0.826405 0.166813 0.407723
O O12 0.792546 0.914228 0.463200
O O13 0.907755 0.407983 0.680002
O O14 0.175862 0.404027 0.443653
O O15 0.000000 0.000000 0.500000
#
# Coordination Sequence:
#
# PCOD8034582 Si02
#       7
#     2   2   2   2   2   2   2
#     4  11  25  44  68 105 142 183 229 289 353 412
#     4  11  25  45  74 102 143 184 231 297 355 414
#     4  11  24  45  71 108 140 180 238 290 352 423
#     4  11  27  47  72 101 144 190 235 291 359 413
#     4  11  25  43  70 103 140 181 237 283 348 424
#     4  11  26  48  69 105 141 188 238 289 350 429
#     4  12  25  46  72 103 143 185 240 292 348 426
#
# _framework density 22.801729999999999
#
# number of rings (size 3 to 8) (size 9 to 14) (size 15 to 20)
#    0.000    0.857    4.286    1.286    6.000    4.000 
#    0.000    0.000    0.000    0.000    0.000    0.000 
#    0.000    0.000    0.000    0.000    0.000    0.000 
#
# Total GULP energy -173502.111814 kJ/mol
# GULP energy per Si atom -12393.007987 kJ/mol
# Density = 2.274983 g / cm^3
# Si number density = 22.801730 Si / 1000 Ang^3
#
#
#
# Elastic Constant Matrix: (Units=GPa)
#
#
# Indices 1 2 3 4 5 6 
#
# 1 132.2962 26.4863 54.3776 7.9027 -15.8658 16.8637
# 2 26.4863 69.2242 27.8293 21.0807 -3.1379 2.9113
# 3 54.3776 27.8293 127.8080 6.0209 -24.8269 -6.7468
# 4 7.9027 21.0807 6.0209 42.2963 -4.3972 -3.9659
# 5 -15.8658 -3.1379 -24.8269 -4.3972 33.7541 4.3085
# 6 16.8637 2.9113 -6.7468 -3.9659 4.3085 38.1572
#
#
#
# Elastic Compliance Matrix: (Units=1/GPa)
#
#
# Indices 1 2 3 4 5 6 
#
# 1 0.010590 -0.001936 -0.003842 -0.000721 0.002591 -0.005579
# 2 -0.001936 0.019410 -0.003594 -0.009262 -0.002711 -0.001917
# 3 -0.003842 -0.003594 0.011531 0.001834 0.006133 0.003509
# 4 -0.000721 -0.009262 0.001834 0.028858 0.003403 0.003965
# 5 0.002591 -0.002711 0.006133 0.003403 0.036001 -0.003565
# 6 -0.005579 -0.001917 0.003509 0.003965 -0.003565 0.030255
#
#
# Mechanical properties :
#
#
# Convention : Reuss Voigt Hill
#
# Bulk Modulus (GPa) = 43.88269 60.74609 52.31439
# Shear Modulus (GPa) = 30.67769 37.55053 34.11411
#
# Velocity S-wave (km/s) = 3.67196 4.06252 3.87217
# Velocity P-wave (km/s) = 6.10450 6.97884 6.55626
#
# Compressibility (1/GPa) = 0.02278803
#
# Stress axis : x y z
#
# Youngs Moduli (GPa) = 94.42565 51.52021 86.71943
#
# Poissons Ratio (x) = 0.09975 0.33314
# Poissons Ratio (y) = 0.18282 0.31168
# Poissons Ratio (z) = 0.36274 0.18517
#
# Static dielectric constant tensor:
#      x y z
#    x 4.178360 0.125920 -0.273460 
#    y 0.125920 4.245200 0.132370 
#    z -0.273460 0.132370 4.178090 
# 
# 
# High freq. dielectric constant tensor:
#      x y z
#    x 1.902070 0.010710 -0.024680 
#    y 0.010710 1.911470 0.021490 
#    z -0.024680 0.021490 1.907520 
# 
# From -- ./inp_files/567062.got.cif
#   From: 2010.06.25/outbox.cif.g09.slc.cpg/sg2_284_cif.got.tgz:567062.got - 2010.06.27 13:26:56.
