data_PCOD8034205
_publ_section_title
;
Structure prediction by ZEFSAII (Michael W. Deem and Ramdas Pophale) SiO2 
 PCOD8034205
Probable space group: P -1
;
_chemical_formula_sum "Si O2"
_cell_formula_units_Z 14
_cell_length_a 9.280069
_cell_length_b 12.227708
_cell_length_c 12.088551
_cell_angle_alpha 126.781084
_cell_angle_beta 143.784691
_cell_angle_gamma 58.352337
_cell_volume 646.598754
_symmetry_space_group_name_H-M "P -1"
_symmetry_group_IT_number 2
_symmetry_cell_setting 'triclinic'
loop_
_space_group_symop_operation_xyz
x,y,z
-x,-y,-z
loop_
_atom_site_type_symbol
_atom_site_label
_atom_site_fract_x
_atom_site_fract_y
_atom_site_fract_z
Si Si1 0.069863 0.822323 0.048048
Si Si2 0.395514 0.120330 0.930276
Si Si3 0.447225 0.418623 0.239892
Si Si4 0.855388 0.148457 0.633897
Si Si5 0.832531 0.416586 0.655672
Si Si6 0.689915 0.469994 0.002413
Si Si7 0.616857 0.997197 0.787183
O O1 0.076551 0.811018 0.176203
O O2 0.253074 0.933512 0.191513
O O3 0.160176 0.674393 0.965335
O O4 0.794550 0.867651 0.863077
O O5 0.116340 0.090288 0.708062
O O6 0.562326 0.110806 0.917858
O O7 0.415582 0.265626 0.088318
O O8 0.500000 0.000000 0.000000
O O9 0.705434 0.433914 0.468249
O O10 0.238276 0.458472 0.226758
O O11 0.439422 0.523047 0.193969
O O12 0.752809 0.279968 0.580092
O O13 0.644504 0.046118 0.441354
O O14 0.122532 0.411085 0.810705
O O15 0.500000 0.500000 0.000000
#
# Coordination Sequence:
#
# PCOD8034205 Si02
#       7
#     2   2   2   2   2   2   2
#     4  11  25  45  67  94 139 181 222 274 335 404
#     4  12  23  42  68 101 136 174 219 282 333 391
#     4  11  24  44  68 102 134 170 231 275 334 400
#     4  12  23  44  72  98 131 176 229 275 331 402
#     4  11  25  42  74 100 128 178 225 281 333 398
#     4  12  25  45  69  99 140 175 222 278 343 398
#     4  11  26  44  66 100 135 181 223 274 337 396
#
# _framework density 21.651758000000001
#
# number of rings (size 3 to 8) (size 9 to 14) (size 15 to 20)
#    0.000    0.571    4.286    3.857    4.000    0.571 
#    0.000    0.000    0.000    0.000    0.000    0.000 
#    0.000    0.000    0.000    0.000    0.000    0.000 
#
# Total GULP energy -173625.674645 kJ/mol
# GULP energy per Si atom -12401.833903 kJ/mol
# Density = 2.160248 g / cm^3
# Si number density = 21.651758 Si / 1000 Ang^3
#
#
#
# Elastic Constant Matrix: (Units=GPa)
#
#
# Indices 1 2 3 4 5 6 
#
# 1 108.5216 29.2172 36.9111 -16.3060 5.2913 -6.2433
# 2 29.2172 105.7668 36.4827 -10.5985 -0.6258 -6.9301
# 3 36.9111 36.4827 94.1562 -14.9696 -1.2056 0.6176
# 4 -16.3060 -10.5985 -14.9696 36.5006 4.9221 -3.9526
# 5 5.2913 -0.6258 -1.2056 4.9221 23.7028 -2.9104
# 6 -6.2433 -6.9301 0.6176 -3.9526 -2.9104 34.6895
#
#
#
# Elastic Compliance Matrix: (Units=1/GPa)
#
#
# Indices 1 2 3 4 5 6 
#
# 1 0.011675 -0.001535 -0.003394 0.004058 -0.003413 0.002031
# 2 -0.001535 0.011410 -0.003617 0.001326 0.000462 0.002257
# 3 -0.003394 -0.003617 0.013828 0.002892 0.000618 -0.001198
# 4 0.004058 0.001326 0.002892 0.032148 -0.006905 0.004028
# 5 -0.003413 0.000462 0.000618 -0.006905 0.044727 0.002433
# 6 0.002031 0.002257 -0.001198 0.004028 0.002433 0.030328
#
#
# Mechanical properties :
#
#
# Convention : Reuss Voigt Hill
#
# Bulk Modulus (GPa) = 50.45155 57.07408 53.76282
# Shear Modulus (GPa) = 29.79436 32.70082 31.24759
#
# Velocity S-wave (km/s) = 3.71357 3.89048 3.80305
# Velocity P-wave (km/s) = 6.46060 6.82630 6.64597
#
# Compressibility (1/GPa) = 0.01982100
#
# Stress axis : x y z
#
# Youngs Moduli (GPa) = 85.64966 87.64186 72.31534
#
# Poissons Ratio (x) = 0.13453 0.24544
# Poissons Ratio (y) = 0.13147 0.26159
# Poissons Ratio (z) = 0.29070 0.31704
#
# Static dielectric constant tensor:
#      x y z
#    x 4.044430 -0.096770 -0.046060 
#    y -0.096770 4.172310 -0.211470 
#    z -0.046060 -0.211470 3.752610 
# 
# 
# High freq. dielectric constant tensor:
#      x y z
#    x 1.855960 -0.000500 0.000670 
#    y -0.000500 1.863380 -0.012300 
#    z 0.000670 -0.012300 1.843820 
# 
# From -- ./inp_files/392255.got.cif
#   From: 2010.06.25/outbox.cif.g09.slc.cpg/sg2_197_cif.got.tgz:392255.got - 2010.06.27 13:26:56.
