data_PCOD8034525
_publ_section_title
;
Structure prediction by ZEFSAII (Michael W. Deem and Ramdas Pophale) SiO2 
 PCOD8034525
Probable space group: P -1
;
_chemical_formula_sum "Si O2"
_cell_formula_units_Z 16
_cell_length_a 8.056083
_cell_length_b 16.122084
_cell_length_c 6.725670
_cell_angle_alpha 99.715091
_cell_angle_beta 99.324579
_cell_angle_gamma 122.481380
_cell_volume 691.974823
_symmetry_space_group_name_H-M "P -1"
_symmetry_group_IT_number 2
_symmetry_cell_setting 'triclinic'
loop_
_space_group_symop_operation_xyz
x,y,z
-x,-y,-z
loop_
_atom_site_type_symbol
_atom_site_label
_atom_site_fract_x
_atom_site_fract_y
_atom_site_fract_z
Si Si1 0.221968 0.003784 0.442733
Si Si2 0.691568 0.534033 0.913643
Si Si3 0.923756 0.192406 0.390964
Si Si4 0.744208 0.727231 0.828280
Si Si5 0.677904 0.409912 0.509371
Si Si6 0.515548 0.922294 0.842516
Si Si7 0.054441 0.402345 0.646879
Si Si8 0.211446 0.108625 0.839732
O O1 0.143088 0.901740 0.513892
O O2 0.032682 0.982922 0.261440
O O3 0.407889 0.031834 0.345901
O O4 0.305203 0.103159 0.644924
O O5 0.757261 0.632298 0.834191
O O6 0.632734 0.439008 0.724536
O O7 0.500000 0.500000 0.000000
O O8 0.885290 0.563145 0.098930
O O9 0.719376 0.179243 0.258074
O O10 0.053423 0.301626 0.573215
O O11 0.061531 0.192460 0.241173
O O12 0.532157 0.688933 0.659524
O O13 0.757390 0.783269 0.061387
O O14 0.832677 0.377369 0.549978
O O15 0.769548 0.507263 0.421540
O O16 0.675884 0.904416 0.961600
O O17 0.500000 0.000000 0.000000
#
# Coordination Sequence:
#
# PCOD8034525 Si02
#       8
#     2   2   2   2   2   2   2   2
#     4  11  26  48  70 101 143 185 231 286 349 412
#     4  12  23  45  71  99 137 188 226 283 352 406
#     4  12  25  45  72 103 138 187 234 287 344 417
#     4  12  25  46  71 104 139 185 236 286 344 416
#     4  11  24  47  70  99 145 176 227 295 345 411
#     4  12  25  47  71 102 141 186 226 291 350 402
#     4  11  24  45  70 103 137 181 229 284 351 412
#     4  11  26  45  73 101 139 184 233 287 345 413
#
# _framework density 23.122229000000001
#
# number of rings (size 3 to 8) (size 9 to 14) (size 15 to 20)
#    0.000    0.500    3.750    4.500    3.500    0.000 
#    2.250    0.000    0.000    0.000    0.000    0.000 
#    0.000    0.000    0.000    0.000    0.000    0.000 
#
# Total GULP energy -198423.030436 kJ/mol
# GULP energy per Si atom -12401.439402 kJ/mol
# Density = 2.306960 g / cm^3
# Si number density = 23.122229 Si / 1000 Ang^3
#
#
#
# Elastic Constant Matrix: (Units=GPa)
#
#
# Indices 1 2 3 4 5 6 
#
# 1 95.5588 47.5298 55.5208 -6.9130 -1.2698 17.3466
# 2 47.5298 71.4836 43.9553 6.7502 -9.6935 12.9539
# 3 55.5208 43.9553 148.9113 21.6968 -12.9009 11.3956
# 4 -6.9130 6.7502 21.6968 38.8233 -4.8800 -8.8895
# 5 -1.2698 -9.6935 -12.9009 -4.8800 62.5213 4.2696
# 6 17.3466 12.9539 11.3956 -8.8895 4.2696 38.4120
#
#
#
# Elastic Compliance Matrix: (Units=1/GPa)
#
#
# Indices 1 2 3 4 5 6 
#
# 1 0.019587 -0.010333 -0.005369 0.007669 -0.001589 -0.001817
# 2 -0.010333 0.023650 -0.001710 -0.005639 0.002967 -0.004437
# 3 -0.005369 -0.001710 0.010464 -0.006749 0.001382 -0.001819
# 4 0.007669 -0.005639 -0.006749 0.033762 -0.000040 0.008259
# 5 -0.001589 0.002967 0.001382 -0.000040 0.016880 -0.002578
# 6 -0.001817 -0.004437 -0.001819 0.008259 -0.002578 0.031088
#
#
# Mechanical properties :
#
#
# Convention : Reuss Voigt Hill
#
# Bulk Modulus (GPa) = 52.97315 67.77394 60.37354
# Shear Modulus (GPa) = 28.32102 39.21451 33.76776
#
# Velocity S-wave (km/s) = 3.50357 4.12268 3.82567
# Velocity P-wave (km/s) = 6.27108 7.21365 6.75882
#
# Compressibility (1/GPa) = 0.01887749
#
# Stress axis : x y z
#
# Youngs Moduli (GPa) = 51.05437 42.28347 95.56188
#
# Poissons Ratio (x) = 0.43690 0.51307
# Poissons Ratio (y) = 0.52752 0.16344
# Poissons Ratio (z) = 0.27411 0.07232
#
# Static dielectric constant tensor:
#      x y z
#    x 4.870670 0.052530 0.434640 
#    y 0.052530 3.984430 0.161270 
#    z 0.434640 0.161270 4.602870 
# 
# 
# High freq. dielectric constant tensor:
#      x y z
#    x 1.928950 -0.000800 0.002310 
#    y -0.000800 1.895180 0.011960 
#    z 0.002310 0.011960 1.930050 
# 
# From -- ./inp_files/48290.got.cif
#   From: 2010.06.25/outbox.cif.g09.slc.cpg/sg2_25_cif.got.tgz:48290.got - 2010.06.27 13:26:56.
