data_PCOD8034278
_publ_section_title
;
Structure prediction by ZEFSAII (Michael W. Deem and Ramdas Pophale) SiO2 
 PCOD8034278
Probable space group: P -1
;
_chemical_formula_sum "Si O2"
_cell_formula_units_Z 16
_cell_length_a 9.467696
_cell_length_b 8.572844
_cell_length_c 14.051914
_cell_angle_alpha 37.178906
_cell_angle_beta 112.625580
_cell_angle_gamma 96.016782
_cell_volume 593.134834
_symmetry_space_group_name_H-M "P -1"
_symmetry_group_IT_number 2
_symmetry_cell_setting 'triclinic'
loop_
_space_group_symop_operation_xyz
x,y,z
-x,-y,-z
loop_
_atom_site_type_symbol
_atom_site_label
_atom_site_fract_x
_atom_site_fract_y
_atom_site_fract_z
Si Si1 0.759033 0.073199 0.649735
Si Si2 0.763195 0.191224 0.099952
Si Si3 0.831791 0.013850 0.497711
Si Si4 0.598354 0.639321 0.142516
Si Si5 0.388496 0.293950 0.481203
Si Si6 0.699870 0.669011 0.356563
Si Si7 0.187485 0.375084 0.959716
Si Si8 0.894790 0.266821 0.900814
O O1 0.561655 0.182026 0.526627
O O2 0.813586 0.342073 0.544726
O O3 0.853652 0.892478 0.671108
O O4 0.802872 0.872760 0.847454
O O5 0.801582 0.873091 0.297041
O O6 0.578571 0.347895 0.941283
O O7 0.787734 0.360986 0.114830
O O8 0.883817 0.189411 0.046066
O O9 0.720136 0.896818 0.462265
O O10 0.723267 0.330549 0.335169
O O11 0.000000 0.000000 0.500000
O O12 0.594724 0.779685 0.177831
O O13 0.676905 0.767468 0.016936
O O14 0.420805 0.307739 0.596020
O O15 0.282687 0.589728 0.262822
O O16 0.000657 0.472545 0.821359
O O17 0.000000 0.000000 0.000000
#
# Coordination Sequence:
#
# PCOD8034278 Si02
#       8
#     2   2   2   2   2   2   2   2
#     4  11  25  47  74 105 140 190 244 296 355 432
#     4  12  25  46  75 106 142 190 243 299 360 433
#     4  11  24  44  70 105 146 188 236 299 367 430
#     4  11  24  46  72 105 143 189 241 300 360 429
#     4  12  24  46  74 104 142 193 244 296 356 434
#     4  11  25  42  71 107 141 184 242 300 356 420
#     4  12  25  47  75 109 144 187 243 303 359 427
#     4  12  27  46  70 107 150 191 235 297 368 433
#
# _framework density 26.975318999999999
#
# number of rings (size 3 to 8) (size 9 to 14) (size 15 to 20)
#    0.000    0.500    0.000    8.625    0.000    5.000 
#    0.000    8.125    0.000    0.000    0.000    0.000 
#    0.000    0.000    0.000    0.000    0.000    0.000 
#
# Total GULP energy -198377.811149 kJ/mol
# GULP energy per Si atom -12398.613197 kJ/mol
# Density = 2.691392 g / cm^3
# Si number density = 26.975319 Si / 1000 Ang^3
#
#
#
# Elastic Constant Matrix: (Units=GPa)
#
#
# Indices 1 2 3 4 5 6 
#
# 1 160.7488 62.8563 21.4801 -1.9310 -18.7630 -19.7598
# 2 62.8563 141.6397 32.5133 6.3326 -14.3249 -14.7495
# 3 21.4801 32.5133 86.8119 1.4663 -21.4606 5.3226
# 4 -1.9310 6.3326 1.4663 40.1461 -6.4869 -21.5261
# 5 -18.7630 -14.3249 -21.4606 -6.4869 38.2882 9.0721
# 6 -19.7598 -14.7495 5.3226 -21.5261 9.0721 42.4897
#
#
#
# Elastic Compliance Matrix: (Units=1/GPa)
#
#
# Indices 1 2 3 4 5 6 
#
# 1 0.008310 -0.003025 -0.000715 0.003516 0.002134 0.004230
# 2 -0.003025 0.009272 -0.002880 -0.000475 -0.000175 0.001969
# 3 -0.000715 -0.002880 0.015197 -0.002039 0.008170 -0.006013
# 4 0.003516 -0.000475 -0.002039 0.036027 0.001867 0.019579
# 5 0.002134 -0.000175 0.008170 0.001867 0.033485 -0.006296
# 6 0.004230 0.001969 -0.006013 0.019579 -0.006296 0.038202
#
#
# Mechanical properties :
#
#
# Convention : Reuss Voigt Hill
#
# Bulk Modulus (GPa) = 51.17490 69.21110 60.19300
# Shear Modulus (GPa) = 31.20163 42.34151 36.77157
#
# Velocity S-wave (km/s) = 3.40468 3.96616 3.69610
# Velocity P-wave (km/s) = 5.87094 6.83278 6.37004
#
# Compressibility (1/GPa) = 0.01954083
#
# Stress axis : x y z
#
# Youngs Moduli (GPa) = 120.33147 107.84789 65.80037
#
# Poissons Ratio (x) = 0.32622 0.04702
# Poissons Ratio (y) = 0.36398 0.18952
# Poissons Ratio (z) = 0.08599 0.31062
#
# Static dielectric constant tensor:
#      x y z
#    x 5.707640 -1.054130 -0.499190 
#    y -1.054130 7.281810 0.660340 
#    z -0.499190 0.660340 5.353850 
# 
# 
# High freq. dielectric constant tensor:
#      x y z
#    x 2.094900 -0.009810 -0.011480 
#    y -0.009810 2.096920 -0.001650 
#    z -0.011480 -0.001650 2.100790 
# 
# From -- ./inp_files/494322.got.cif
#   From: 2010.06.25/outbox.cif.g09.slc.cpg/sg2_248_cif.got.tgz:494322.got - 2010.06.27 13:26:56.
