data_PCOD8034043
_publ_section_title
;
Structure prediction by ZEFSAII (Michael W. Deem and Ramdas Pophale) SiO2 
 PCOD8034043
Probable space group: P -1
;
_chemical_formula_sum "Si O2"
_cell_formula_units_Z 12
_cell_length_a 8.857659
_cell_length_b 8.445117
_cell_length_c 9.702136
_cell_angle_alpha 101.037671
_cell_angle_beta 109.584651
_cell_angle_gamma 52.828578
_cell_volume 544.791050
_symmetry_space_group_name_H-M "P -1"
_symmetry_group_IT_number 2
_symmetry_cell_setting 'triclinic'
loop_
_space_group_symop_operation_xyz
x,y,z
-x,-y,-z
loop_
_atom_site_type_symbol
_atom_site_label
_atom_site_fract_x
_atom_site_fract_y
_atom_site_fract_z
Si Si1 0.408902 0.222227 0.552419
Si Si2 0.762034 0.563662 0.195973
Si Si3 0.179475 0.806775 0.697839
Si Si4 0.477713 0.192038 0.080084
Si Si5 0.178260 0.450556 0.261624
Si Si6 0.224099 0.781947 0.389393
O O1 0.313034 0.266935 0.681993
O O2 0.233925 0.371649 0.420994
O O3 0.574927 0.262144 0.613806
O O4 0.500000 0.000000 0.500000
O O5 0.799196 0.367346 0.237828
O O6 0.957981 0.519182 0.177932
O O7 0.601241 0.646157 0.039141
O O8 0.310358 0.869815 0.815695
O O9 0.250515 0.734124 0.551914
O O10 0.951845 0.991740 0.659843
O O11 0.326837 0.276089 0.174709
O O12 0.500000 0.000000 0.000000
O O13 0.187806 0.637168 0.273783
#
# Coordination Sequence:
#
# PCOD8034043 Si02
#       6
#     2   2   2   2   2   2
#     4  12  24  41  68 102 134 174 229 278 327 394
#     4  12  26  43  68 105 135 176 227 276 333 403
#     4  11  24  44  69 100 136 178 225 279 331 398
#     4  12  26  47  68  98 139 182 220 274 345 402
#     4  12  24  45  70  99 136 178 225 274 340 395
#     4  11  24  43  71 100 135 176 226 279 338 388
#
# _framework density 22.026795
#
# number of rings (size 3 to 8) (size 9 to 14) (size 15 to 20)
#    0.000    0.333    3.333    6.000    4.667    0.000 
#    0.000    2.500    0.000    0.000    0.000    0.000 
#    0.000    0.000    0.000    0.000    0.000    0.000 
#
# Total GULP energy -148913.837599 kJ/mol
# GULP energy per Si atom -12409.486467 kJ/mol
# Density = 2.197666 g / cm^3
# Si number density = 22.026795 Si / 1000 Ang^3
#
#
#
# Elastic Constant Matrix: (Units=GPa)
#
#
# Indices 1 2 3 4 5 6 
#
# 1 89.6531 30.1556 21.8592 6.4593 7.2706 6.1189
# 2 30.1556 84.7447 19.3757 4.1028 11.4497 13.1863
# 3 21.8592 19.3757 99.8065 -6.2392 3.7783 -5.3240
# 4 6.4593 4.1028 -6.2392 46.6233 3.5834 1.1569
# 5 7.2706 11.4497 3.7783 3.5834 28.4258 4.5323
# 6 6.1189 13.1863 -5.3240 1.1569 4.5323 37.8387
#
#
#
# Elastic Compliance Matrix: (Units=1/GPa)
#
#
# Indices 1 2 3 4 5 6 
#
# 1 0.013275 -0.003813 -0.002278 -0.001693 -0.001193 -0.000944
# 2 -0.003813 0.014906 -0.002185 -0.000663 -0.003955 -0.004391
# 3 -0.002278 -0.002185 0.011241 0.002000 -0.000720 0.002736
# 4 -0.001693 -0.000663 0.002000 0.022186 -0.002426 0.000398
# 5 -0.001193 -0.003955 -0.000720 -0.002426 0.037958 -0.003003
# 6 -0.000944 -0.004391 0.002736 0.000398 -0.003003 0.028843
#
#
# Mechanical properties :
#
#
# Convention : Reuss Voigt Hill
#
# Bulk Modulus (GPa) = 43.72490 46.33169 45.02830
# Shear Modulus (GPa) = 32.76882 36.09848 34.43365
#
# Velocity S-wave (km/s) = 3.86123 4.05266 3.95810
# Velocity P-wave (km/s) = 6.30656 6.55581 6.43239
#
# Compressibility (1/GPa) = 0.02287026
#
# Stress axis : x y z
#
# Youngs Moduli (GPa) = 75.32794 67.08636 88.96241
#
# Poissons Ratio (x) = 0.25580 0.20269
# Poissons Ratio (y) = 0.28722 0.19435
# Poissons Ratio (z) = 0.17162 0.14656
#
# Static dielectric constant tensor:
#      x y z
#    x 3.972120 -0.071630 0.057970 
#    y -0.071630 4.031470 -0.053970 
#    z 0.057970 -0.053970 4.170690 
# 
# 
# High freq. dielectric constant tensor:
#      x y z
#    x 1.869910 -0.003490 0.006010 
#    y -0.003490 1.883440 -0.003810 
#    z 0.006010 -0.003810 1.870980 
# 
# From -- ./inp_files/147304.got.cif
#   From: 2010.06.25/outbox.cif.g09.slc.cpg/sg2_74_cif.got.tgz:147304.got - 2010.06.27 13:26:56.
