data_PCOD8034892
_publ_section_title
;
Structure prediction by ZEFSAII (Michael W. Deem and Ramdas Pophale) SiO2 
 PCOD8034892
Probable space group: P -1
;
_chemical_formula_sum "Si O2"
_cell_formula_units_Z 14
_cell_length_a 8.382480
_cell_length_b 12.110942
_cell_length_c 16.945026
_cell_angle_alpha 31.935797
_cell_angle_beta 43.804950
_cell_angle_gamma 54.221287
_cell_volume 628.060601
_symmetry_space_group_name_H-M "P -1"
_symmetry_group_IT_number 2
_symmetry_cell_setting 'triclinic'
loop_
_space_group_symop_operation_xyz
x,y,z
-x,-y,-z
loop_
_atom_site_type_symbol
_atom_site_label
_atom_site_fract_x
_atom_site_fract_y
_atom_site_fract_z
Si Si1 0.428876 0.916006 0.450640
Si Si2 0.489580 0.708695 0.926792
Si Si3 0.130020 0.554622 0.500479
Si Si4 0.857594 0.931479 0.400200
Si Si5 0.996258 0.756262 0.134513
Si Si6 0.170603 0.321321 0.035687
Si Si7 0.634224 0.553251 0.269925
O O1 0.498556 0.086643 0.256222
O O2 0.226142 0.997040 0.527669
O O3 0.645986 0.868367 0.456149
O O4 0.344181 0.695441 0.574181
O O5 0.702288 0.725077 0.900650
O O6 0.500000 0.500000 0.000000
O O7 0.254343 0.690789 0.070824
O O8 0.118834 0.350715 0.682350
O O9 0.396934 0.626886 0.345137
O O10 0.000000 0.500000 0.500000
O O11 0.009487 0.736675 0.478591
O O12 0.016731 0.114235 0.190264
O O13 0.846203 0.684719 0.155554
O O14 0.000000 0.000000 0.000000
O O15 0.356163 0.390438 0.860372
O O16 0.000000 0.500000 0.000000
#
# Coordination Sequence:
#
# PCOD8034892 Si02
#       7
#     2   2   2   2   2   2   2
#     4  11  24  46  74 105 138 190 234 298 352 420
#     4  12  27  46  74 105 144 186 241 293 357 420
#     4  12  26  46  71 105 140 191 238 290 356 424
#     4  11  25  43  75 101 146 181 242 290 356 419
#     4  12  29  49  70 104 149 188 236 295 358 427
#     4  12  26  47  73 108 140 186 238 297 356 422
#     4  12  26  47  74 100 146 186 242 289 359 425
#
# _framework density 22.290842000000001
#
# number of rings (size 3 to 8) (size 9 to 14) (size 15 to 20)
#    0.000    0.286    2.857    5.571    8.000    1.143 
#    0.000    0.000    0.000    0.000    0.000    0.000 
#    0.000    0.000    0.000    0.000    0.000    0.000 
#
# Total GULP energy -173725.159407 kJ/mol
# GULP energy per Si atom -12408.939958 kJ/mol
# Density = 2.224011 g / cm^3
# Si number density = 22.290842 Si / 1000 Ang^3
#
#
#
# Elastic Constant Matrix: (Units=GPa)
#
#
# Indices 1 2 3 4 5 6 
#
# 1 91.5808 38.6729 22.7358 -2.0114 -4.8239 -2.3738
# 2 38.6729 146.5203 44.4059 -4.1595 -11.8583 -15.5118
# 3 22.7358 44.4059 129.6459 -2.6284 1.2018 -0.0279
# 4 -2.0114 -4.1595 -2.6284 52.7145 6.3414 -7.9162
# 5 -4.8239 -11.8583 1.2018 6.3414 43.2035 2.3605
# 6 -2.3738 -15.5118 -0.0279 -7.9162 2.3605 34.8149
#
#
#
# Elastic Compliance Matrix: (Units=1/GPa)
#
#
# Indices 1 2 3 4 5 6 
#
# 1 0.012474 -0.002931 -0.001189 0.000034 0.000643 -0.000492
# 2 -0.002931 0.008954 -0.002553 0.000820 0.001871 0.003847
# 3 -0.001189 -0.002553 0.008809 0.000151 -0.001040 -0.001106
# 4 0.000034 0.000820 0.000151 0.020182 -0.003020 0.005162
# 5 0.000643 0.001871 -0.001040 -0.003020 0.024283 -0.001456
# 6 -0.000492 0.003847 -0.001106 0.005162 -0.001456 0.031675
#
#
# Mechanical properties :
#
#
# Convention : Reuss Voigt Hill
#
# Bulk Modulus (GPa) = 59.20265 64.37515 61.78890
# Shear Modulus (GPa) = 39.88687 43.60874 41.74780
#
# Velocity S-wave (km/s) = 4.23470 4.42787 4.33236
# Velocity P-wave (km/s) = 7.10824 7.42184 7.26673
#
# Compressibility (1/GPa) = 0.01689113
#
# Stress axis : x y z
#
# Youngs Moduli (GPa) = 80.16577 111.67727 113.52414
#
# Poissons Ratio (x) = 0.32735 0.13498
# Poissons Ratio (y) = 0.23498 0.28981
# Poissons Ratio (z) = 0.09531 0.28510
#
# Static dielectric constant tensor:
#      x y z
#    x 4.109610 -0.135600 0.106770 
#    y -0.135600 4.270350 0.006280 
#    z 0.106770 0.006280 4.422270 
# 
# 
# High freq. dielectric constant tensor:
#      x y z
#    x 1.878670 -0.002560 -0.003430 
#    y -0.002560 1.892670 0.002710 
#    z -0.003430 0.002710 1.896410 
# 
# From -- ./inp_files/157856.got.cif
#   From: 2010.06.25/outbox.cif.g09.slc.cpg/sg2_79_cif.got.tgz:157856.got - 2010.06.27 13:26:56.
