data_PCOD8034283
_publ_section_title
;
Structure prediction by ZEFSAII (Michael W. Deem and Ramdas Pophale) SiO2 
 PCOD8034283
Probable space group: P -1
;
_chemical_formula_sum "Si O2"
_cell_formula_units_Z 16
_cell_length_a 6.379792
_cell_length_b 17.570537
_cell_length_c 9.427744
_cell_angle_alpha 133.500030
_cell_angle_beta 85.925145
_cell_angle_gamma 107.724257
_cell_volume 715.378544
_symmetry_space_group_name_H-M "P -1"
_symmetry_group_IT_number 2
_symmetry_cell_setting 'triclinic'
loop_
_space_group_symop_operation_xyz
x,y,z
-x,-y,-z
loop_
_atom_site_type_symbol
_atom_site_label
_atom_site_fract_x
_atom_site_fract_y
_atom_site_fract_z
Si Si1 0.852068 0.565038 0.649249
Si Si2 0.134725 0.103376 0.803239
Si Si3 0.565380 0.858507 0.903090
Si Si4 0.638959 0.629404 0.194070
Si Si5 0.661097 0.985155 0.771397
Si Si6 0.417208 0.365011 0.470682
Si Si7 0.021538 0.715444 0.084363
Si Si8 0.505376 0.172696 0.661913
O O1 0.611260 0.485708 0.617346
O O2 0.793314 0.641030 0.628452
O O3 0.000000 0.500000 0.500000
O O4 0.012044 0.625960 0.849710
O O5 0.310363 0.085817 0.659077
O O6 0.114161 0.217045 0.897701
O O7 0.222298 0.116862 0.975368
O O8 0.892474 0.004553 0.699010
O O9 0.662256 0.927434 0.846221
O O10 0.472279 0.726219 0.701955
O O11 0.380080 0.898472 0.043508
O O12 0.673603 0.657743 0.394543
O O13 0.525874 0.711706 0.233577
O O14 0.889362 0.656478 0.156083
O O15 0.500000 0.500000 0.000000
O O16 0.471598 0.898770 0.568893
O O17 0.271163 0.793667 0.212286
#
# Coordination Sequence:
#
# PCOD8034283 Si02
#       8
#     2   2   2   2   2   2   2   2
#     4  11  26  41  74 102 135 176 228 275 342 406
#     4  11  24  44  70  93 136 178 226 283 338 396
#     4  11  24  44  71  98 137 172 233 287 334 405
#     4  11  24  45  68  98 138 179 224 275 337 409
#     4  11  25  46  68 101 131 184 231 283 340 398
#     4  11  24  47  70 100 136 182 224 278 337 405
#     4  11  25  44  67 102 133 179 222 278 341 403
#     4  11  26  44  69  98 139 175 230 278 341 408
#
# _framework density 22.365780000000001
#
# number of rings (size 3 to 8) (size 9 to 14) (size 15 to 20)
#    0.000    1.000    3.750    1.500    5.250    5.500 
#    4.500    0.000    0.000    0.000    0.000    0.000 
#    0.000    0.000    0.000    0.000    0.000    0.000 
#
# Total GULP energy -198327.487989 kJ/mol
# GULP energy per Si atom -12395.467999 kJ/mol
# Density = 2.231487 g / cm^3
# Si number density = 22.365780 Si / 1000 Ang^3
#
#
#
# Elastic Constant Matrix: (Units=GPa)
#
#
# Indices 1 2 3 4 5 6 
#
# 1 104.2003 42.1227 52.0278 -20.9019 4.6609 6.2130
# 2 42.1227 96.4683 50.4117 -20.3752 2.7064 -5.6084
# 3 52.0278 50.4117 171.0679 -21.5155 7.2937 -5.5894
# 4 -20.9019 -20.3752 -21.5155 36.2586 -3.3284 -1.8728
# 5 4.6609 2.7064 7.2937 -3.3284 33.6842 -0.2861
# 6 6.2130 -5.6084 -5.5894 -1.8728 -0.2861 33.5635
#
#
#
# Elastic Compliance Matrix: (Units=1/GPa)
#
#
# Indices 1 2 3 4 5 6 
#
# 1 0.013439 -0.003915 -0.002537 0.003809 -0.000648 -0.003357
# 2 -0.003915 0.014479 -0.002411 0.004639 0.000384 0.003005
# 3 -0.002537 -0.002411 0.007627 0.001697 -0.000927 0.001424
# 4 0.003809 0.004639 0.001697 0.033697 0.002081 0.002251
# 5 -0.000648 0.000384 -0.000927 0.002081 0.030156 0.000403
# 6 -0.003357 0.003005 0.001424 0.002251 0.000403 0.031284
#
#
# Mechanical properties :
#
#
# Convention : Reuss Voigt Hill
#
# Bulk Modulus (GPa) = 56.11520 73.42900 64.77210
# Shear Modulus (GPa) = 32.39422 35.84620 34.12021
#
# Velocity S-wave (km/s) = 3.80989 4.00775 3.91007
# Velocity P-wave (km/s) = 6.67068 7.37009 7.02909
#
# Compressibility (1/GPa) = 0.01782048
#
# Stress axis : x y z
#
# Youngs Moduli (GPa) = 74.40790 69.06398 131.11224
#
# Poissons Ratio (x) = 0.27040 0.33258
# Poissons Ratio (y) = 0.29132 0.31609
# Poissons Ratio (z) = 0.18874 0.16650
#
# Static dielectric constant tensor:
#      x y z
#    x 3.900930 -0.021710 -0.092470 
#    y -0.021710 4.267530 -0.141960 
#    z -0.092470 -0.141960 4.250620 
# 
# 
# High freq. dielectric constant tensor:
#      x y z
#    x 1.867260 -0.005930 -0.002910 
#    y -0.005930 1.892970 -0.012550 
#    z -0.002910 -0.012550 1.897240 
# 
# From -- ./inp_files/48292.got.cif
#   From: 2010.06.25/outbox.cif.g09.slc.cpg/sg2_25_cif.got.tgz:48292.got - 2010.06.27 13:26:56.
