data_PCOD8034472
_publ_section_title
;
Structure prediction by ZEFSAII (Michael W. Deem and Ramdas Pophale) SiO2 
 PCOD8034472
Probable space group: P -1
;
_chemical_formula_sum "Si O2"
_cell_formula_units_Z 16
_cell_length_a 18.683361
_cell_length_b 8.754892
_cell_length_c 9.656336
_cell_angle_alpha 103.494576
_cell_angle_beta 51.187504
_cell_angle_gamma 137.999707
_cell_volume 737.177528
_symmetry_space_group_name_H-M "P -1"
_symmetry_group_IT_number 2
_symmetry_cell_setting 'triclinic'
loop_
_space_group_symop_operation_xyz
x,y,z
-x,-y,-z
loop_
_atom_site_type_symbol
_atom_site_label
_atom_site_fract_x
_atom_site_fract_y
_atom_site_fract_z
Si Si1 0.407389 0.462667 0.988862
Si Si2 0.873233 0.197541 0.225473
Si Si3 0.638651 0.284362 0.338258
Si Si4 0.878408 0.974538 0.910245
Si Si5 0.460906 0.305415 0.410278
Si Si6 0.663146 0.286547 0.824895
Si Si7 0.142137 0.423500 0.093096
Si Si8 0.166739 0.509261 0.612772
O O1 0.517961 0.637845 0.764861
O O2 0.500000 0.500000 0.000000
O O3 0.263619 0.173652 0.044826
O O4 0.350660 0.546521 0.143093
O O5 0.897021 0.417135 0.220185
O O6 0.977988 0.273752 0.237995
O O7 0.705867 0.971397 0.432396
O O8 0.889206 0.108774 0.053800
O O9 0.580187 0.341752 0.324553
O O10 0.730144 0.453887 0.400237
O O11 0.500000 0.000000 0.500000
O O12 0.759013 0.367515 0.107185
O O13 0.867384 0.780245 0.936951
O O14 0.026083 0.205709 0.686871
O O15 0.500000 0.500000 0.500000
O O16 0.784284 0.410410 0.821808
O O17 0.733275 0.311763 0.604344
O O18 0.500000 0.000000 0.000000
#
# Coordination Sequence:
#
# PCOD8034472 Si02
#       8
#     2   2   2   2   2   2   2   2
#     4  11  26  46  70 102 139 185 232 288 352 417
#     4  12  24  43  70 106 141 174 237 294 343 415
#     4  12  23  43  68 100 135 184 233 280 344 408
#     4  11  24  45  68 103 141 178 232 296 348 413
#     4  12  24  43  71 104 135 180 237 286 343 411
#     4  11  25  49  67  99 145 186 231 286 353 422
#     4  11  25  45  72  97 142 189 223 293 358 404
#     4  12  27  39  72 104 137 187 232 283 356 418
#
# _framework density 21.704405000000001
#
# number of rings (size 3 to 8) (size 9 to 14) (size 15 to 20)
#    0.000    0.500    6.250    2.250    3.500    4.500 
#    0.000    0.000    0.000    0.000    0.000    0.000 
#    0.000    0.000    0.000    0.000    0.000    0.000 
#
# Total GULP energy -198287.112812 kJ/mol
# GULP energy per Si atom -12392.944551 kJ/mol
# Density = 2.165500 g / cm^3
# Si number density = 21.704405 Si / 1000 Ang^3
#
#
#
# Elastic Constant Matrix: (Units=GPa)
#
#
# Indices 1 2 3 4 5 6 
#
# 1 144.8232 48.5272 22.4543 1.9456 10.2892 38.7090
# 2 48.5272 95.4616 18.4731 -10.4069 0.6275 18.8892
# 3 22.4543 18.4731 75.5167 -2.9822 11.9664 2.9328
# 4 1.9456 -10.4069 -2.9822 44.3055 3.6278 -1.8145
# 5 10.2892 0.6275 11.9664 3.6278 34.0479 -1.2124
# 6 38.7090 18.8892 2.9328 -1.8145 -1.2124 42.6955
#
#
#
# Elastic Compliance Matrix: (Units=1/GPa)
#
#
# Indices 1 2 3 4 5 6 
#
# 1 0.010804 -0.003713 -0.001612 -0.001565 -0.002755 -0.008186
# 2 -0.003713 0.013568 -0.002203 0.003005 0.001243 -0.002322
# 3 -0.001612 -0.002203 0.015011 0.001011 -0.004809 0.001311
# 4 -0.001565 0.003005 0.001011 0.023651 -0.002424 0.000956
# 5 -0.002755 0.001243 -0.004809 -0.002424 0.032239 0.003090
# 6 -0.008186 -0.002322 0.001311 0.000956 0.003090 0.031909
#
#
# Mechanical properties :
#
#
# Convention : Reuss Voigt Hill
#
# Bulk Modulus (GPa) = 41.10479 54.96786 48.03632
# Shear Modulus (GPa) = 33.25653 39.29957 36.27805
#
# Velocity S-wave (km/s) = 3.91864 4.25982 4.09279
# Velocity P-wave (km/s) = 6.28123 7.04098 6.67193
#
# Compressibility (1/GPa) = 0.02432807
#
# Stress axis : x y z
#
# Youngs Moduli (GPa) = 92.56040 73.70256 66.61632
#
# Poissons Ratio (x) = 0.27364 0.10735
# Poissons Ratio (y) = 0.34365 0.14677
# Poissons Ratio (z) = 0.14916 0.16239
#
# Static dielectric constant tensor:
#      x y z
#    x 4.118680 0.140350 -0.092600 
#    y 0.140350 4.210640 -0.209190 
#    z -0.092600 -0.209190 4.026360 
# 
# 
# High freq. dielectric constant tensor:
#      x y z
#    x 1.856270 0.016280 -0.003950 
#    y 0.016280 1.859550 -0.017150 
#    z -0.003950 -0.017150 1.860420 
# 
# From -- ./inp_files/329149.got.cif
#   From: 2010.06.25/outbox.cif.g09.slc.cpg/sg2_165_cif.got.tgz:329149.got - 2010.06.27 13:26:56.
