data_PCOD8034108
_publ_section_title
;
Structure prediction by ZEFSAII (Michael W. Deem and Ramdas Pophale) SiO2 
 PCOD8034108
Probable space group: P -1
;
_chemical_formula_sum "Si O2"
_cell_formula_units_Z 16
_cell_length_a 9.584120
_cell_length_b 11.845101
_cell_length_c 8.994159
_cell_angle_alpha 126.459053
_cell_angle_beta 82.598809
_cell_angle_gamma 118.954150
_cell_volume 700.025901
_symmetry_space_group_name_H-M "P -1"
_symmetry_group_IT_number 2
_symmetry_cell_setting 'triclinic'
loop_
_space_group_symop_operation_xyz
x,y,z
-x,-y,-z
loop_
_atom_site_type_symbol
_atom_site_label
_atom_site_fract_x
_atom_site_fract_y
_atom_site_fract_z
Si Si1 0.847591 0.517429 0.051618
Si Si2 0.664709 0.330600 0.198792
Si Si3 0.604986 0.817027 0.095886
Si Si4 0.499221 0.276411 0.641947
Si Si5 0.906166 0.669102 0.575707
Si Si6 0.136433 0.171667 0.553714
Si Si7 0.747072 0.613299 0.856852
Si Si8 0.274854 0.812468 0.649304
O O1 0.739285 0.360725 0.047330
O O2 0.874868 0.683293 0.251189
O O3 0.786992 0.510934 0.888387
O O4 0.000000 0.500000 0.000000
O O5 0.750245 0.498057 0.410813
O O6 0.685168 0.201766 0.194724
O O7 0.474739 0.249310 0.110158
O O8 0.484341 0.738912 0.193682
O O9 0.698654 0.010533 0.241730
O O10 0.740019 0.762385 0.049924
O O11 0.308203 0.177722 0.548524
O O12 0.565103 0.462820 0.720566
O O13 0.601889 0.208286 0.490581
O O14 0.900268 0.814310 0.603734
O O15 0.881300 0.684695 0.765377
O O16 0.082538 0.681516 0.538644
O O17 0.000000 0.000000 0.500000
#
# Coordination Sequence:
#
# PCOD8034108 Si02
#       8
#     2   2   2   2   2   2   2   2
#     4  11  24  43  73 102 138 190 243 292 345 433
#     4  11  24  44  71 104 141 188 248 287 353 428
#     4  12  26  45  71 110 142 188 240 306 359 418
#     4  12  25  47  75 102 144 194 237 294 356 437
#     4  11  26  45  74 105 143 197 237 295 354 433
#     4  11  26  48  70 106 147 183 239 294 370 423
#     4  12  24  46  75 102 147 186 246 290 359 426
#     4  12  27  47  73 108 149 186 244 295 364 421
#
# _framework density 22.856299
#
# number of rings (size 3 to 8) (size 9 to 14) (size 15 to 20)
#    0.000    0.500    3.750    4.500    5.250    2.500 
#    2.250    0.000    0.000    0.000    0.000    0.000 
#    0.000    0.000    0.000    0.000    0.000    0.000 
#
# Total GULP energy -198244.131554 kJ/mol
# GULP energy per Si atom -12390.258222 kJ/mol
# Density = 2.280428 g / cm^3
# Si number density = 22.856299 Si / 1000 Ang^3
#
#
#
# Elastic Constant Matrix: (Units=GPa)
#
#
# Indices 1 2 3 4 5 6 
#
# 1 129.8051 50.9484 58.0723 -9.1807 -10.1118 0.7856
# 2 50.9484 136.5490 43.0756 -21.1946 -15.5276 -5.6146
# 3 58.0723 43.0756 90.7981 -20.4816 -11.7703 3.0990
# 4 -9.1807 -21.1946 -20.4816 47.6747 -9.6003 5.9084
# 5 -10.1118 -15.5276 -11.7703 -9.6003 36.7446 -5.3467
# 6 0.7856 -5.6146 3.0990 5.9084 -5.3467 36.0598
#
#
#
# Elastic Compliance Matrix: (Units=1/GPa)
#
#
# Indices 1 2 3 4 5 6 
#
# 1 0.011501 -0.002538 -0.006650 -0.001893 -0.000509 0.000160
# 2 -0.002538 0.009968 -0.001760 0.003815 0.004202 0.001757
# 3 -0.006650 -0.001760 0.018404 0.007089 0.004861 -0.002152
# 4 -0.001893 0.003815 0.007089 0.027776 0.010180 -0.003016
# 5 -0.000509 0.004202 0.004861 0.010180 0.033585 0.003559
# 6 0.000160 0.001757 -0.002152 -0.003016 0.003559 0.029209
#
#
# Mechanical properties :
#
#
# Convention : Reuss Voigt Hill
#
# Bulk Modulus (GPa) = 55.62910 73.48277 64.55593
# Shear Modulus (GPa) = 31.57931 37.76620 34.67276
#
# Velocity S-wave (km/s) = 3.72108 4.06930 3.89908
# Velocity P-wave (km/s) = 6.54625 7.36876 6.96965
#
# Compressibility (1/GPa) = 0.01797620
#
# Stress axis : x y z
#
# Youngs Moduli (GPa) = 86.95155 100.32135 54.33571
#
# Poissons Ratio (x) = 0.25466 0.36132
# Poissons Ratio (y) = 0.22072 0.09563
# Poissons Ratio (z) = 0.57821 0.17657
#
# Static dielectric constant tensor:
#      x y z
#    x 4.120990 -0.169560 0.273190 
#    y -0.169560 4.280620 -0.579860 
#    z 0.273190 -0.579860 3.664870 
# 
# 
# High freq. dielectric constant tensor:
#      x y z
#    x 1.905360 -0.005860 0.014230 
#    y -0.005860 1.920790 -0.016840 
#    z 0.014230 -0.016840 1.888390 
# 
# From -- ./inp_files/190012.got.cif
#   From: 2010.06.25/outbox.cif.g09.slc.cpg/sg2_96_cif.got.tgz:190012.got - 2010.06.27 13:26:56.
