data_PCOD8034390
_publ_section_title
;
Structure prediction by ZEFSAII (Michael W. Deem and Ramdas Pophale) SiO2 
 PCOD8034390
Probable space group: P -1
;
_chemical_formula_sum "Si O2"
_cell_formula_units_Z 16
_cell_length_a 12.692012
_cell_length_b 9.456037
_cell_length_c 9.159787
_cell_angle_alpha 102.869006
_cell_angle_beta 125.803411
_cell_angle_gamma 56.390525
_cell_volume 734.172118
_symmetry_space_group_name_H-M "P -1"
_symmetry_group_IT_number 2
_symmetry_cell_setting 'triclinic'
loop_
_space_group_symop_operation_xyz
x,y,z
-x,-y,-z
loop_
_atom_site_type_symbol
_atom_site_label
_atom_site_fract_x
_atom_site_fract_y
_atom_site_fract_z
Si Si1 0.322094 0.140415 0.353445
Si Si2 0.844958 0.037244 0.310505
Si Si3 0.692774 0.375623 0.761971
Si Si4 0.650679 0.377888 0.401218
Si Si5 0.156799 0.961769 0.041959
Si Si6 0.863280 0.702020 0.273288
Si Si7 0.205134 0.423947 0.536993
Si Si8 0.173224 0.413478 0.071785
O O1 0.244828 0.241409 0.462862
O O2 0.302390 0.293547 0.268906
O O3 0.500000 0.000000 0.500000
O O4 0.218254 0.076849 0.183055
O O5 0.708859 0.223667 0.297040
O O6 0.812215 0.896127 0.315251
O O7 0.859734 0.023850 0.143261
O O8 0.000000 0.000000 0.500000
O O9 0.731864 0.312105 0.610129
O O10 0.526721 0.543526 0.692106
O O11 0.710855 0.229225 0.849843
O O12 0.813426 0.425706 0.919640
O O13 0.669205 0.527630 0.381830
O O14 0.000000 0.000000 0.000000
O O15 0.804369 0.608672 0.308338
O O16 0.047543 0.584131 0.384155
O O17 0.788172 0.712188 0.060625
O O18 0.000000 0.500000 0.000000
#
# Coordination Sequence:
#
# PCOD8034390 Si02
#       8
#     2   2   2   2   2   2   2   2
#     4  12  26  46  72 104 146 186 240 300 361 423
#     4  12  26  45  71 104 148 186 237 303 361 425
#     4  11  26  44  73 102 137 189 239 288 366 429
#     4  11  24  47  69 100 143 185 232 296 361 430
#     4  12  28  44  73 109 143 189 246 298 359 439
#     4  11  25  43  70 105 134 184 243 291 355 419
#     4  11  24  44  73  96 139 187 236 295 355 422
#     4  12  23  47  74 101 140 191 247 295 349 438
#
# _framework density 21.793256
#
# number of rings (size 3 to 8) (size 9 to 14) (size 15 to 20)
#    0.000    0.500    5.000    2.250    7.000    0.500 
#    2.250    1.250    0.000    0.000    0.000    0.000 
#    0.000    0.000    0.000    0.000    0.000    0.000 
#
# Total GULP energy -198345.749694 kJ/mol
# GULP energy per Si atom -12396.609356 kJ/mol
# Density = 2.174365 g / cm^3
# Si number density = 21.793256 Si / 1000 Ang^3
#
#
#
# Elastic Constant Matrix: (Units=GPa)
#
#
# Indices 1 2 3 4 5 6 
#
# 1 94.6739 34.0764 36.4182 4.7794 0.1589 -0.9874
# 2 34.0764 127.6515 40.3882 10.4323 -1.5171 -4.1351
# 3 36.4182 40.3882 96.7314 3.9278 -1.1501 -7.8873
# 4 4.7794 10.4323 3.9278 41.8169 8.5124 -5.2886
# 5 0.1589 -1.5171 -1.1501 8.5124 21.9900 5.1650
# 6 -0.9874 -4.1351 -7.8873 -5.2886 5.1650 36.5744
#
#
#
# Elastic Compliance Matrix: (Units=1/GPa)
#
#
# Indices 1 2 3 4 5 6 
#
# 1 0.012901 -0.002150 -0.004002 -0.000673 0.000011 -0.000857
# 2 -0.002150 0.009575 -0.003097 -0.002153 0.001383 -0.000150
# 3 -0.004002 -0.003097 0.013325 0.000335 -0.000203 0.002492
# 4 -0.000673 -0.002153 0.000335 0.027665 -0.012133 0.005524
# 5 0.000011 0.001383 -0.000203 -0.012133 0.052380 -0.009039
# 6 -0.000857 -0.000150 0.002492 0.005524 -0.009039 0.029914
#
#
# Mechanical properties :
#
#
# Convention : Reuss Voigt Hill
#
# Bulk Modulus (GPa) = 57.79242 60.09138 58.94190
# Shear Modulus (GPa) = 29.40758 33.95451 31.68104
#
# Velocity S-wave (km/s) = 3.67739 3.95147 3.81689
# Velocity P-wave (km/s) = 6.67884 6.96075 6.82125
#
# Compressibility (1/GPa) = 0.01730331
#
# Stress axis : x y z
#
# Youngs Moduli (GPa) = 77.51411 104.43699 75.04915
#
# Poissons Ratio (x) = 0.22459 0.30031
# Poissons Ratio (y) = 0.16669 0.23240
# Poissons Ratio (z) = 0.31018 0.32341
#
# Static dielectric constant tensor:
#      x y z
#    x 3.137410 -2.581110 -0.836440 
#    y -2.581110 -5.745200 -2.421590 
#    z -0.836440 -2.421590 3.413340 
# 
# 
# High freq. dielectric constant tensor:
#      x y z
#    x 1.855220 0.008620 -0.007520 
#    y 0.008620 1.870030 0.004920 
#    z -0.007520 0.004920 1.859010 
# 
# From -- ./inp_files/244723.got.cif
#   From: 2010.06.25/outbox.cif.g09.slc.cpg/sg2_123_cif.got.tgz:244723.got - 2010.06.27 13:26:56.
