data_PCOD8034937
_publ_section_title
;
Structure prediction by ZEFSAII (Michael W. Deem and Ramdas Pophale) SiO2 
 PCOD8034937
Probable space group: P -1
;
_chemical_formula_sum "Si O2"
_cell_formula_units_Z 12
_cell_length_a 14.068980
_cell_length_b 8.104893
_cell_length_c 10.620903
_cell_angle_alpha 91.516428
_cell_angle_beta 29.272098
_cell_angle_gamma 109.752682
_cell_volume 452.762712
_symmetry_space_group_name_H-M "P -1"
_symmetry_group_IT_number 2
_symmetry_cell_setting 'triclinic'
loop_
_space_group_symop_operation_xyz
x,y,z
-x,-y,-z
loop_
_atom_site_type_symbol
_atom_site_label
_atom_site_fract_x
_atom_site_fract_y
_atom_site_fract_z
Si Si1 0.030443 0.660895 0.109648
Si Si2 0.397961 0.791019 0.295725
Si Si3 0.523746 0.818750 0.662684
Si Si4 0.077315 0.019278 0.207606
Si Si5 0.214010 0.276595 0.812037
Si Si6 0.536961 0.700836 0.903822
O O1 0.827531 0.413604 0.372367
O O2 0.972265 0.687918 0.034628
O O3 0.014189 0.803421 0.225261
O O4 0.309298 0.731786 0.802837
O O5 0.402874 0.980688 0.338228
O O6 0.369040 0.743963 0.177564
O O7 0.659830 0.836008 0.019672
O O8 0.763808 0.874626 0.308426
O O9 0.442444 0.646966 0.864929
O O10 0.831945 0.924793 0.574361
O O11 0.097316 0.167884 0.078757
O O12 0.500000 0.500000 0.500000
O O13 0.500000 0.500000 0.000000
#
# Coordination Sequence:
#
# PCOD8034937 Si02
#       6
#     2   2   2   2   2   2
#     4  11  24  49  73 110 150 193 246 302 371 443
#     4  11  24  48  72 113 149 194 249 303 371 432
#     4  11  28  47  75 112 148 194 246 313 365 440
#     4  11  24  46  78 107 146 196 248 301 366 438
#     4  12  25  50  77 108 152 197 246 302 376 441
#     4  12  24  49  80 104 151 200 248 303 369 442
#
# _framework density 26.503948999999999
#
# number of rings (size 3 to 8) (size 9 to 14) (size 15 to 20)
#    0.000    0.667    5.000    1.500    0.000    5.333 
#    3.000    0.000    0.000    0.000    0.000    0.000 
#    0.000    0.000    0.000    0.000    0.000    0.000 
#
# Total GULP energy -148784.698068 kJ/mol
# GULP energy per Si atom -12398.724839 kJ/mol
# Density = 2.644363 g / cm^3
# Si number density = 26.503949 Si / 1000 Ang^3
#
#
#
# Elastic Constant Matrix: (Units=GPa)
#
#
# Indices 1 2 3 4 5 6 
#
# 1 118.8865 28.2112 33.3351 11.7687 -1.9512 -27.1447
# 2 28.2112 72.0203 50.1531 -4.3555 20.2012 -5.5767
# 3 33.3351 50.1531 116.3960 3.5229 16.7884 -20.5100
# 4 11.7687 -4.3555 3.5229 41.7740 -2.2472 2.0292
# 5 -1.9512 20.2012 16.7884 -2.2472 60.6637 0.7721
# 6 -27.1447 -5.5767 -20.5100 2.0292 0.7721 44.3498
#
#
#
# Elastic Compliance Matrix: (Units=1/GPa)
#
#
# Indices 1 2 3 4 5 6 
#
# 1 0.011450 -0.004457 -0.000357 -0.003880 0.001726 0.006430
# 2 -0.004457 0.023165 -0.008786 0.004325 -0.005215 -0.003985
# 3 -0.000357 -0.008786 0.013586 -0.002261 -0.000994 0.005081
# 4 -0.003880 0.004325 -0.002261 0.025874 0.000071 -0.004062
# 5 0.001726 -0.005215 -0.000994 0.000071 0.018559 -0.000386
# 6 0.006430 -0.003985 0.005081 -0.004062 -0.000386 0.028524
#
#
# Mechanical properties :
#
#
# Convention : Reuss Voigt Hill
#
# Bulk Modulus (GPa) = 47.61740 58.96683 53.29211
# Shear Modulus (GPa) = 32.18359 42.39773 37.29066
#
# Velocity S-wave (km/s) = 3.48845 4.00393 3.75505
# Velocity P-wave (km/s) = 5.85072 6.60847 6.24111
#
# Compressibility (1/GPa) = 0.02100073
#
# Stress axis : x y z
#
# Youngs Moduli (GPa) = 87.33935 43.16892 73.60294
#
# Poissons Ratio (x) = 0.19241 0.02629
# Poissons Ratio (y) = 0.38928 0.64666
# Poissons Ratio (z) = 0.03119 0.37928
#
# Static dielectric constant tensor:
#      x y z
#    x 5.142910 -0.030190 -0.156280 
#    y -0.030190 4.924410 0.023130 
#    z -0.156280 0.023130 4.859640 
# 
# 
# High freq. dielectric constant tensor:
#      x y z
#    x 2.069590 0.000570 0.001390 
#    y 0.000570 2.073740 -0.001950 
#    z 0.001390 -0.001950 2.071700 
# 
# From -- ./inp_files/442878.got.cif
#   From: 2010.06.25/outbox.cif.g09.slc.cpg/sg2_222_cif.got.tgz:442878.got - 2010.06.27 13:26:56.
