data_PCOD8034622
_publ_section_title
;
Structure prediction by ZEFSAII (Michael W. Deem and Ramdas Pophale) SiO2 
 PCOD8034622
Probable space group: P -1
;
_chemical_formula_sum "Si O2"
_cell_formula_units_Z 12
_cell_length_a 8.644625
_cell_length_b 6.210567
_cell_length_c 18.841362
_cell_angle_alpha 132.937162
_cell_angle_beta 44.887950
_cell_angle_gamma 127.528582
_cell_volume 506.713684
_symmetry_space_group_name_H-M "P -1"
_symmetry_group_IT_number 2
_symmetry_cell_setting 'triclinic'
loop_
_space_group_symop_operation_xyz
x,y,z
-x,-y,-z
loop_
_atom_site_type_symbol
_atom_site_label
_atom_site_fract_x
_atom_site_fract_y
_atom_site_fract_z
Si Si1 0.836160 0.716459 0.924068
Si Si2 0.592714 0.746250 0.875243
Si Si3 0.161390 0.162798 0.545975
Si Si4 0.280623 0.160794 0.864957
Si Si5 0.643654 0.138584 0.355975
Si Si6 0.007306 0.872049 0.251497
O O1 0.718861 0.597231 0.861523
O O2 0.962563 0.462500 0.852642
O O3 0.661252 0.780395 0.056145
O O4 0.008106 0.044264 0.925834
O O5 0.382019 0.473356 0.858303
O O6 0.763134 0.875157 0.785268
O O7 0.500000 0.000000 0.000000
O O8 0.391440 0.046511 0.449019
O O9 0.228541 0.520729 0.589254
O O10 0.028387 0.082046 0.643891
O O11 0.000000 0.000000 0.500000
O O12 0.374402 0.904534 0.734401
O O13 0.791352 0.916736 0.287980
#
# Coordination Sequence:
#
# PCOD8034622 Si02
#       6
#     2   2   2   2   2   2
#     4  11  25  46  69 106 148 187 235 286 355 424
#     4  12  26  43  68 111 148 187 237 282 351 431
#     4  11  27  51  74 100 140 187 242 303 352 417
#     4  11  24  45  73 101 148 187 228 295 351 421
#     4  11  26  48  73 107 137 185 248 289 356 422
#     4  12  24  49  72 103 149 180 240 297 349 429
#
# _framework density 23.682010999999999
#
# number of rings (size 3 to 8) (size 9 to 14) (size 15 to 20)
#    0.000    0.667    5.000    1.000    4.667    4.667 
#    6.000    0.000    0.000    0.000    0.000    0.000 
#    0.000    0.000    0.000    0.000    0.000    0.000 
#
# Total GULP energy -148716.473527 kJ/mol
# GULP energy per Si atom -12393.039461 kJ/mol
# Density = 2.362811 g / cm^3
# Si number density = 23.682011 Si / 1000 Ang^3
#
#
#
# Elastic Constant Matrix: (Units=GPa)
#
#
# Indices 1 2 3 4 5 6 
#
# 1 89.7620 60.9626 53.5678 -0.2502 -7.0154 -5.5981
# 2 60.9626 163.8232 59.1468 -17.0159 -4.4333 32.8330
# 3 53.5678 59.1468 156.6240 -16.6258 16.9674 10.1507
# 4 -0.2502 -17.0159 -16.6258 50.0859 -2.9447 -4.5465
# 5 -7.0154 -4.4333 16.9674 -2.9447 43.1979 2.8712
# 6 -5.5981 32.8330 10.1507 -4.5465 2.8712 29.0997
#
#
#
# Elastic Compliance Matrix: (Units=1/GPa)
#
#
# Indices 1 2 3 4 5 6 
#
# 1 0.022717 -0.009960 -0.005855 -0.003481 0.003616 0.016750
# 2 -0.009960 0.013724 -0.000507 0.002989 0.001316 -0.016887
# 3 -0.005855 -0.000507 0.009507 0.002420 -0.004369 -0.003062
# 4 -0.003481 0.002989 0.002420 0.021649 0.000369 -0.001540
# 5 0.003616 0.001316 -0.004369 0.000369 0.025729 -0.001746
# 6 0.016750 -0.016887 -0.003062 -0.001540 -0.001746 0.057640
#
#
# Mechanical properties :
#
#
# Convention : Reuss Voigt Hill
#
# Bulk Modulus (GPa) = 75.16713 84.17373 79.67043
# Shear Modulus (GPa) = 26.58939 40.24551 33.41745
#
# Velocity S-wave (km/s) = 3.35441 4.12687 3.76052
# Velocity P-wave (km/s) = 6.84192 7.63731 7.25053
#
# Compressibility (1/GPa) = 0.01330369
#
# Stress axis : x y z
#
# Youngs Moduli (GPa) = 44.02030 72.86401 105.18345
#
# Poissons Ratio (x) = 0.72575 0.61584
# Poissons Ratio (y) = 0.43845 0.05333
# Poissons Ratio (z) = 0.25774 0.03695
#
# Static dielectric constant tensor:
#      x y z
#    x 4.495500 0.116420 0.156180 
#    y 0.116420 4.445640 -0.259470 
#    z 0.156180 -0.259470 4.683870 
# 
# 
# High freq. dielectric constant tensor:
#      x y z
#    x 1.911710 0.018830 0.004390 
#    y 0.018830 1.949850 -0.012810 
#    z 0.004390 -0.012810 1.955220 
# 
# From -- ./inp_files/487698.got.cif
#   From: 2010.06.25/outbox.cif.g09.slc.cpg/sg2_244_cif.got.tgz:487698.got - 2010.06.27 13:26:56.
