data_PCOD8034805
_publ_section_title
;
Structure prediction by ZEFSAII (Michael W. Deem and Ramdas Pophale) SiO2 
 PCOD8034805
Probable space group: P -1
;
_chemical_formula_sum "Si O2"
_cell_formula_units_Z 14
_cell_length_a 13.869065
_cell_length_b 8.354094
_cell_length_c 11.034756
_cell_angle_alpha 116.068861
_cell_angle_beta 35.969831
_cell_angle_gamma 127.513832
_cell_volume 591.736868
_symmetry_space_group_name_H-M "P -1"
_symmetry_group_IT_number 2
_symmetry_cell_setting 'triclinic'
loop_
_space_group_symop_operation_xyz
x,y,z
-x,-y,-z
loop_
_atom_site_type_symbol
_atom_site_label
_atom_site_fract_x
_atom_site_fract_y
_atom_site_fract_z
Si Si1 0.659568 0.389191 0.507741
Si Si2 0.042744 0.745380 0.860657
Si Si3 0.197241 0.951458 0.204068
Si Si4 0.808637 0.851297 0.495344
Si Si5 0.534534 0.309200 0.877404
Si Si6 0.878680 0.444229 0.726038
Si Si7 0.266570 0.191214 0.709675
O O1 0.813307 0.336463 0.272290
O O2 0.752698 0.625003 0.510610
O O3 0.614208 0.302517 0.661426
O O4 0.477532 0.321339 0.586304
O O5 0.952630 0.657823 0.791666
O O6 0.167641 0.987177 0.819645
O O7 0.860242 0.691972 0.114261
O O8 0.116458 0.710637 0.228919
O O9 0.032881 0.984953 0.323251
O O10 0.275197 0.060252 0.290341
O O11 0.364111 0.078883 0.983330
O O12 0.726333 0.867066 0.455657
O O13 0.667660 0.336518 0.862921
O O14 0.500000 0.500000 0.000000
O O15 0.000000 0.500000 0.500000
#
# Coordination Sequence:
#
# PCOD8034805 Si02
#       7
#     2   2   2   2   2   2   2
#     4  12  24  49  70 107 142 189 238 291 358 428
#     4  11  25  46  70 105 141 187 241 289 360 422
#     4  11  25  44  72 108 141 180 240 295 363 422
#     4  11  24  46  71 104 140 184 236 297 358 425
#     4  12  25  42  73 106 143 185 234 299 355 426
#     4  12  23  46  72 103 144 183 234 298 357 422
#     4  11  27  45  73 102 144 191 240 293 356 423
#
# _framework density 23.659164000000001
#
# number of rings (size 3 to 8) (size 9 to 14) (size 15 to 20)
#    0.000    0.571    4.286    3.000    8.000    0.571 
#    0.000    0.000    0.000    0.000    0.000    0.000 
#    0.000    0.000    0.000    0.000    0.000    0.000 
#
# Total GULP energy -173452.743111 kJ/mol
# GULP energy per Si atom -12389.481651 kJ/mol
# Density = 2.360531 g / cm^3
# Si number density = 23.659164 Si / 1000 Ang^3
#
#
#
# Elastic Constant Matrix: (Units=GPa)
#
#
# Indices 1 2 3 4 5 6 
#
# 1 111.7130 0.7242 29.2229 -1.2301 -14.0260 22.5463
# 2 0.7242 76.9148 22.4713 -7.2099 -6.6075 6.5003
# 3 29.2229 22.4713 64.6806 -0.7243 -23.8462 10.1548
# 4 -1.2301 -7.2099 -0.7243 38.1507 3.6037 3.0861
# 5 -14.0260 -6.6075 -23.8462 3.6037 34.6048 -0.8086
# 6 22.5463 6.5003 10.1548 3.0861 -0.8086 40.4183
#
#
#
# Elastic Compliance Matrix: (Units=1/GPa)
#
#
# Indices 1 2 3 4 5 6 
#
# 1 0.011426 0.001849 -0.004230 0.000920 0.001842 -0.005642
# 2 0.001849 0.015148 -0.006049 0.003070 -0.000898 -0.002200
# 3 -0.004230 -0.006049 0.025271 -0.001980 0.014691 -0.002572
# 4 0.000920 0.003070 -0.001980 0.027312 -0.003311 -0.002661
# 5 0.001842 -0.000898 0.014691 -0.003311 0.039859 -0.003524
# 6 -0.005642 -0.002200 -0.002572 -0.002661 -0.003524 0.029021
#
#
# Mechanical properties :
#
#
# Convention : Reuss Voigt Hill
#
# Bulk Modulus (GPa) = 28.58311 39.79391 34.18851
# Shear Modulus (GPa) = 28.31921 36.02743 32.17332
#
# Velocity S-wave (km/s) = 3.46347 3.90650 3.69164
# Velocity P-wave (km/s) = 5.30110 6.09949 5.71426
#
# Compressibility (1/GPa) = 0.03498569
#
# Stress axis : x y z
#
# Youngs Moduli (GPa) = 87.51947 66.01515 39.57101
#
# Poissons Ratio (x) = -0.12209 0.16737
# Poissons Ratio (y) = -0.16186 0.23938
# Poissons Ratio (z) = 0.37018 0.39936
#
# Static dielectric constant tensor:
#      x y z
#    x 4.576570 -0.057520 -0.479720 
#    y -0.057520 4.405840 0.130040 
#    z -0.479720 0.130040 4.653600 
# 
# 
# High freq. dielectric constant tensor:
#      x y z
#    x 1.937650 0.013830 -0.011110 
#    y 0.013830 1.944180 -0.009630 
#    z -0.011110 -0.009630 1.934900 
# 
# From -- ./inp_files/202207.got.cif
#   From: 2010.06.25/outbox.cif.g09.slc.cpg/sg2_102_cif.got.tgz:202207.got - 2010.06.27 13:26:56.
