data_PCOD8034793
_publ_section_title
;
Structure prediction by ZEFSAII (Michael W. Deem and Ramdas Pophale) SiO2 
 PCOD8034793
Probable space group: P -1
;
_chemical_formula_sum "Si O2"
_cell_formula_units_Z 12
_cell_length_a 16.047542
_cell_length_b 6.822728
_cell_length_c 13.438700
_cell_angle_alpha 137.273797
_cell_angle_beta 144.551986
_cell_angle_gamma 62.762755
_cell_volume 540.678934
_symmetry_space_group_name_H-M "P -1"
_symmetry_group_IT_number 2
_symmetry_cell_setting 'triclinic'
loop_
_space_group_symop_operation_xyz
x,y,z
-x,-y,-z
loop_
_atom_site_type_symbol
_atom_site_label
_atom_site_fract_x
_atom_site_fract_y
_atom_site_fract_z
Si Si1 0.221196 0.129841 0.696746
Si Si2 0.290542 0.824708 0.009465
Si Si3 0.605537 0.246205 0.380157
Si Si4 0.099737 0.016051 0.753136
Si Si5 0.649789 0.910228 0.623318
Si Si6 0.828913 0.396069 0.835852
O O1 0.159426 0.987401 0.690525
O O2 0.338027 0.969556 0.715822
O O3 0.308883 0.497601 0.924711
O O4 0.082627 0.056459 0.454970
O O5 0.435703 0.049557 0.175818
O O6 0.271183 0.976680 0.151278
O O7 0.138921 0.779872 0.778152
O O8 0.602219 0.542404 0.426003
O O9 0.713649 0.376124 0.627497
O O10 0.185935 0.359440 0.007229
O O11 0.500000 0.000000 0.500000
O O12 0.774931 0.067121 0.717509
O O13 0.000000 0.500000 0.000000
#
# Coordination Sequence:
#
# PCOD8034793 Si02
#       6
#     2   2   2   2   2   2
#     4  11  26  46  67 103 144 185 229 286 352 416
#     4  12  24  44  74 101 139 189 231 287 352 415
#     4  12  26  44  74 107 135 180 244 288 343 417
#     4  11  24  46  70  98 145 187 229 282 356 420
#     4  12  25  45  74 103 141 184 233 292 353 409
#     4  12  24  46  73 105 139 180 239 293 344 416
#
# _framework density 22.194317000000002
#
# number of rings (size 3 to 8) (size 9 to 14) (size 15 to 20)
#    0.000    0.333    6.667    2.500    0.000    2.667 
#    6.000    0.000    0.000    0.000    0.000    0.000 
#    0.000    0.000    0.000    0.000    0.000    0.000 
#
# Total GULP energy -148871.456423 kJ/mol
# GULP energy per Si atom -12405.954702 kJ/mol
# Density = 2.214380 g / cm^3
# Si number density = 22.194317 Si / 1000 Ang^3
#
#
#
# Elastic Constant Matrix: (Units=GPa)
#
#
# Indices 1 2 3 4 5 6 
#
# 1 94.6411 39.9592 11.7289 2.6663 16.2508 4.3849
# 2 39.9592 132.2238 14.8649 12.6991 5.9774 -2.7125
# 3 11.7289 14.8649 54.3190 -3.6358 2.8519 -2.2056
# 4 2.6663 12.6991 -3.6358 52.5720 2.5410 -2.1742
# 5 16.2508 5.9774 2.8519 2.5410 38.9759 8.2949
# 6 4.3849 -2.7125 -2.2056 -2.1742 8.2949 33.2843
#
#
#
# Elastic Compliance Matrix: (Units=1/GPa)
#
#
# Indices 1 2 3 4 5 6 
#
# 1 0.013125 -0.003623 -0.001621 0.000280 -0.004611 -0.000964
# 2 -0.003623 0.009074 -0.001815 -0.002105 0.000195 0.000910
# 3 -0.001621 -0.001815 0.019511 0.001989 -0.000971 0.001730
# 4 0.000280 -0.002105 0.001989 0.019796 -0.001572 0.001608
# 5 -0.004611 0.000195 -0.000971 -0.001572 0.029173 -0.006814
# 6 -0.000964 0.000910 0.001730 0.001608 -0.006814 0.032163
#
#
# Mechanical properties :
#
#
# Convention : Reuss Voigt Hill
#
# Bulk Modulus (GPa) = 36.24175 46.03223 41.13699
# Shear Modulus (GPa) = 34.20969 39.27518 36.74244
#
# Velocity S-wave (km/s) = 3.93029 4.21123 4.07318
# Velocity P-wave (km/s) = 6.07955 6.66570 6.37936
#
# Compressibility (1/GPa) = 0.02759248
#
# Stress axis : x y z
#
# Youngs Moduli (GPa) = 76.18917 110.20704 51.25350
#
# Poissons Ratio (x) = 0.39923 0.08308
# Poissons Ratio (y) = 0.27600 0.09303
# Poissons Ratio (z) = 0.12350 0.20004
#
# Static dielectric constant tensor:
#      x y z
#    x 3.430440 0.601870 -0.662590 
#    y 0.601870 3.610320 0.595740 
#    z -0.662590 0.595740 3.373220 
# 
# 
# High freq. dielectric constant tensor:
#      x y z
#    x 1.869080 0.006140 -0.003710 
#    y 0.006140 1.882910 -0.000510 
#    z -0.003710 -0.000510 1.885770 
# 
# From -- ./inp_files/17255.got.cif
#   From: 2010.06.25/outbox.cif.g09.slc.cpg/sg2_9_cif.got.tgz:17255.got - 2010.06.27 13:26:56.
