data_PCOD8034588
_publ_section_title
;
Structure prediction by ZEFSAII (Michael W. Deem and Ramdas Pophale) SiO2 
 PCOD8034588
Probable space group: P -1
;
_chemical_formula_sum "Si O2"
_cell_formula_units_Z 12
_cell_length_a 8.866588
_cell_length_b 14.401674
_cell_length_c 9.534770
_cell_angle_alpha 118.432593
_cell_angle_beta 60.756133
_cell_angle_gamma 147.730089
_cell_volume 561.980302
_symmetry_space_group_name_H-M "P -1"
_symmetry_group_IT_number 2
_symmetry_cell_setting 'triclinic'
loop_
_space_group_symop_operation_xyz
x,y,z
-x,-y,-z
loop_
_atom_site_type_symbol
_atom_site_label
_atom_site_fract_x
_atom_site_fract_y
_atom_site_fract_z
Si Si1 0.788134 0.638976 0.054032
Si Si2 0.403027 0.213680 0.370175
Si Si3 0.793995 0.870226 0.305122
Si Si4 0.893602 0.541316 0.181575
Si Si5 0.532588 0.107379 0.678201
Si Si6 0.647327 0.111745 0.152243
O O1 0.887522 0.808260 0.143943
O O2 0.759856 0.568515 0.166317
O O3 0.500000 0.500000 0.000000
O O4 0.027040 0.695300 0.892621
O O5 0.389330 0.252859 0.561975
O O6 0.640728 0.382132 0.285508
O O7 0.470453 0.123604 0.300295
O O8 0.086676 0.076932 0.350928
O O9 0.594553 0.843654 0.278023
O O10 0.141660 0.711215 0.289338
O O11 0.000000 0.500000 0.000000
O O12 0.500000 0.000000 0.500000
O O13 0.350987 0.981430 0.803652
O O14 0.500000 0.000000 0.000000
#
# Coordination Sequence:
#
# PCOD8034588 Si02
#       6
#     2   2   2   2   2   2
#     4  12  27  44  70 105 140 183 240 290 347 418
#     4  11  24  45  71  98 143 184 227 292 349 415
#     4  11  26  45  68 104 141 181 236 286 352 415
#     4  12  25  46  72 103 140 186 239 287 351 419
#     4  12  26  45  73 104 139 188 235 286 359 419
#     4  12  22  47  71  97 144 190 229 285 357 425
#
# _framework density 21.353061
#
# number of rings (size 3 to 8) (size 9 to 14) (size 15 to 20)
#    0.000    0.333    6.667    1.000    4.667    3.333 
#    0.000    0.000    0.000    0.000    0.000    0.000 
#    0.000    0.000    0.000    0.000    0.000    0.000 
#
# Total GULP energy -148805.019805 kJ/mol
# GULP energy per Si atom -12400.418317 kJ/mol
# Density = 2.130446 g / cm^3
# Si number density = 21.353061 Si / 1000 Ang^3
#
#
#
# Elastic Constant Matrix: (Units=GPa)
#
#
# Indices 1 2 3 4 5 6 
#
# 1 151.1964 49.0816 31.7419 -1.0395 25.3075 3.7829
# 2 49.0816 133.1930 45.7811 -21.0115 26.5115 7.6519
# 3 31.7419 45.7811 95.6388 -4.6367 12.5102 4.1639
# 4 -1.0395 -21.0115 -4.6367 48.2536 -5.1759 4.5421
# 5 25.3075 26.5115 12.5102 -5.1759 41.3446 -0.1912
# 6 3.7829 7.6519 4.1639 4.5421 -0.1912 42.2224
#
#
#
# Elastic Compliance Matrix: (Units=1/GPa)
#
#
# Indices 1 2 3 4 5 6 
#
# 1 0.008120 -0.002040 -0.001325 -0.001196 -0.003412 -0.000114
# 2 -0.002040 0.011198 -0.003840 0.004189 -0.004255 -0.001938
# 3 -0.001325 -0.003840 0.012814 -0.000503 -0.000669 -0.000398
# 4 -0.001196 0.004189 -0.000503 0.022874 0.001047 -0.003058
# 5 -0.003412 -0.004255 -0.000669 0.001047 0.029343 0.001163
# 6 -0.000114 -0.001938 -0.000398 -0.003058 0.001163 0.024419
#
#
# Mechanical properties :
#
#
# Convention : Reuss Voigt Hill
#
# Bulk Modulus (GPa) = 56.42222 70.35972 63.39097
# Shear Modulus (GPa) = 38.73408 43.25903 40.99655
#
# Velocity S-wave (km/s) = 4.26371 4.50588 4.38646
# Velocity P-wave (km/s) = 7.12178 7.75195 7.44354
#
# Compressibility (1/GPa) = 0.01772351
#
# Stress axis : x y z
#
# Youngs Moduli (GPa) = 123.15350 89.29856 78.03817
#
# Poissons Ratio (x) = 0.18214 0.10343
# Poissons Ratio (y) = 0.25119 0.29963
# Poissons Ratio (z) = 0.16322 0.34286
#
# Static dielectric constant tensor:
#      x y z
#    x 4.898990 0.023070 -0.731530 
#    y 0.023070 4.009810 0.140520 
#    z -0.731530 0.140520 4.601190 
# 
# 
# High freq. dielectric constant tensor:
#      x y z
#    x 1.854560 0.001410 0.003790 
#    y 0.001410 1.837900 -0.005500 
#    z 0.003790 -0.005500 1.842720 
# 
# From -- ./inp_files/144487.got.cif
#   From: 2010.06.25/outbox.cif.g09.slc.cpg/sg2_73_cif.got.tgz:144487.got - 2010.06.27 13:26:56.
