data_PCOD8034129
_publ_section_title
;
Structure prediction by ZEFSAII (Michael W. Deem and Ramdas Pophale) SiO2 
 PCOD8034129
Probable space group: P -1
;
_chemical_formula_sum "Si O2"
_cell_formula_units_Z 12
_cell_length_a 8.342965
_cell_length_b 8.528773
_cell_length_c 9.551184
_cell_angle_alpha 103.316150
_cell_angle_beta 113.349943
_cell_angle_gamma 54.291916
_cell_volume 506.653485
_symmetry_space_group_name_H-M "P -1"
_symmetry_group_IT_number 2
_symmetry_cell_setting 'triclinic'
loop_
_space_group_symop_operation_xyz
x,y,z
-x,-y,-z
loop_
_atom_site_type_symbol
_atom_site_label
_atom_site_fract_x
_atom_site_fract_y
_atom_site_fract_z
Si Si1 0.945462 0.648080 0.165514
Si Si2 0.179898 0.292091 0.568235
Si Si3 0.601629 0.262442 0.773614
Si Si4 0.343968 0.408177 0.102050
Si Si5 0.075746 0.015823 0.375773
Si Si6 0.254089 0.938722 0.922996
O O1 0.898204 0.742122 0.319649
O O2 0.192833 0.480637 0.201052
O O3 0.859703 0.829891 0.067835
O O4 0.815013 0.549289 0.073364
O O5 0.397417 0.273226 0.653215
O O6 0.191010 0.131056 0.438945
O O7 0.000000 0.500000 0.500000
O O8 0.548849 0.470942 0.847794
O O9 0.756733 0.192582 0.678696
O O10 0.712098 0.121014 0.914913
O O11 0.523904 0.179509 0.109523
O O12 0.884439 0.121144 0.221758
O O13 0.000000 0.000000 0.500000
#
# Coordination Sequence:
#
# PCOD8034129 Si02
#       6
#     2   2   2   2   2   2
#     4  11  25  45  70 110 141 186 241 294 359 419
#     4  12  27  47  69 106 149 189 240 296 361 432
#     4  12  26  47  74 108 141 193 244 293 360 422
#     4  11  24  43  74 104 140 186 238 297 351 417
#     4  12  26  47  72 105 149 189 237 293 363 430
#     4  12  24  46  77 107 144 187 244 298 352 425
#
# _framework density 23.684826000000001
#
# number of rings (size 3 to 8) (size 9 to 14) (size 15 to 20)
#    0.000    0.333    5.000    3.000    2.333    2.667 
#    0.000    3.333    0.000    0.000    0.000    0.000 
#    0.000    0.000    0.000    0.000    0.000    0.000 
#
# Total GULP energy -148694.479769 kJ/mol
# GULP energy per Si atom -12391.206647 kJ/mol
# Density = 2.363092 g / cm^3
# Si number density = 23.684826 Si / 1000 Ang^3
#
#
#
# Elastic Constant Matrix: (Units=GPa)
#
#
# Indices 1 2 3 4 5 6 
#
# 1 112.0116 32.3554 57.6579 6.6365 19.2991 -20.9348
# 2 32.3554 97.6992 29.5007 15.3793 -3.8484 -14.1870
# 3 57.6579 29.5007 114.7200 1.8613 23.4657 -3.2650
# 4 6.6365 15.3793 1.8613 39.9143 1.6239 2.7261
# 5 19.2991 -3.8484 23.4657 1.6239 46.8748 15.7477
# 6 -20.9348 -14.1870 -3.2650 2.7261 15.7477 50.5916
#
#
#
# Elastic Compliance Matrix: (Units=1/GPa)
#
#
# Indices 1 2 3 4 5 6 
#
# 1 0.014791 -0.002210 -0.005439 -0.001598 -0.005865 0.007061
# 2 -0.002210 0.012900 -0.002652 -0.004724 0.002819 0.001909
# 3 -0.005439 -0.002652 0.012938 0.001558 -0.004195 -0.000938
# 4 -0.001598 -0.004724 0.001558 0.027303 -0.000366 -0.003243
# 5 -0.005865 0.002819 -0.004195 -0.000366 0.029848 -0.011178
# 6 0.007061 0.001909 -0.000938 -0.003243 -0.011178 0.026817
#
#
# Mechanical properties :
#
#
# Convention : Reuss Voigt Hill
#
# Bulk Modulus (GPa) = 49.93247 62.60653 56.26950
# Shear Modulus (GPa) = 32.92177 41.13726 37.02951
#
# Velocity S-wave (km/s) = 3.73231 4.17209 3.95831
# Velocity P-wave (km/s) = 6.30090 7.04975 6.68582
#
# Compressibility (1/GPa) = 0.02002705
#
# Stress axis : x y z
#
# Youngs Moduli (GPa) = 67.61031 77.51803 77.28924
#
# Poissons Ratio (x) = 0.17133 0.42036
# Poissons Ratio (y) = 0.14943 0.20499
# Poissons Ratio (z) = 0.36772 0.20559
#
# Static dielectric constant tensor:
#      x y z
#    x 4.393660 -0.143280 0.446110 
#    y -0.143280 4.184390 0.296800 
#    z 0.446110 0.296800 4.216830 
# 
# 
# High freq. dielectric constant tensor:
#      x y z
#    x 1.950460 -0.010140 0.023210 
#    y -0.010140 1.938170 0.030780 
#    z 0.023210 0.030780 1.936030 
# 
# From -- ./inp_files/146391.got.cif
#   From: 2010.06.25/outbox.cif.g09.slc.cpg/sg2_74_cif.got.tgz:146391.got - 2010.06.27 13:26:56.
