data_PCOD8034174
_publ_section_title
;
Structure prediction by ZEFSAII (Michael W. Deem and Ramdas Pophale) SiO2 
 PCOD8034174
Probable space group: P -1
;
_chemical_formula_sum "Si O2"
_cell_formula_units_Z 16
_cell_length_a 6.813871
_cell_length_b 16.817114
_cell_length_c 9.635226
_cell_angle_alpha 90.306687
_cell_angle_beta 45.937120
_cell_angle_gamma 83.711050
_cell_volume 783.449408
_symmetry_space_group_name_H-M "P -1"
_symmetry_group_IT_number 2
_symmetry_cell_setting 'triclinic'
loop_
_space_group_symop_operation_xyz
x,y,z
-x,-y,-z
loop_
_atom_site_type_symbol
_atom_site_label
_atom_site_fract_x
_atom_site_fract_y
_atom_site_fract_z
Si Si1 0.452262 0.090634 0.360334
Si Si2 0.274309 0.550454 0.516652
Si Si3 0.153415 0.795109 0.941096
Si Si4 0.607579 0.906709 0.283317
Si Si5 0.335594 0.723651 0.579720
Si Si6 0.107355 0.834842 0.459787
Si Si7 0.237184 0.529824 0.220027
Si Si8 0.993919 0.712808 0.283307
O O1 0.601793 0.153387 0.202454
O O2 0.410421 0.114972 0.543884
O O3 0.158999 0.096933 0.426754
O O4 0.618189 0.001217 0.263717
O O5 0.500000 0.500000 0.500000
O O6 0.284035 0.643861 0.528174
O O7 0.341352 0.524389 0.326098
O O8 0.972745 0.532584 0.705941
O O9 0.190565 0.727850 0.801384
O O10 0.168896 0.743125 0.072426
O O11 0.874657 0.858384 0.078537
O O12 0.362736 0.882489 0.308651
O O13 0.161205 0.799390 0.586918
O O14 0.663430 0.729048 0.420896
O O15 0.083458 0.760130 0.371361
O O16 0.087915 0.618582 0.256184
O O17 0.500000 0.500000 0.000000
#
# Coordination Sequence:
#
# PCOD8034174 Si02
#       8
#     2   2   2   2   2   2   2   2
#     4  11  24  44  67  97 141 174 217 281 338 394
#     4  11  25  45  71  96 139 178 214 270 339 394
#     4  12  23  44  68  99 130 179 227 270 330 398
#     4  11  24  44  66 100 138 174 218 283 336 390
#     4  12  25  45  69  97 136 178 223 275 330 393
#     4  12  21  46  67  95 131 181 217 269 337 389
#     4  11  27  44  69 107 133 172 225 273 328 399
#     4  12  25  45  67  96 143 169 220 285 326 388
#
# _framework density 20.422505999999998
#
# number of rings (size 3 to 8) (size 9 to 14) (size 15 to 20)
#    0.000    0.500    7.500    0.750    1.750    4.500 
#    0.000    1.250    0.000    0.000    0.000    0.000 
#    0.000    0.000    0.000    0.000    0.000    0.000 
#
# Total GULP energy -198349.317991 kJ/mol
# GULP energy per Si atom -12396.832374 kJ/mol
# Density = 2.037602 g / cm^3
# Si number density = 20.422506 Si / 1000 Ang^3
#
#
#
# Elastic Constant Matrix: (Units=GPa)
#
#
# Indices 1 2 3 4 5 6 
#
# 1 122.1855 32.2409 43.9324 -0.7315 -7.5515 -5.0960
# 2 32.2409 72.1039 18.2655 -9.3603 0.7892 0.9521
# 3 43.9324 18.2655 122.2276 -5.3016 -3.2285 -1.3121
# 4 -0.7315 -9.3603 -5.3016 29.5985 -6.2451 2.2366
# 5 -7.5515 0.7892 -3.2285 -6.2451 15.5647 -1.8296
# 6 -5.0960 0.9521 -1.3121 2.2366 -1.8296 44.5828
#
#
#
# Elastic Compliance Matrix: (Units=1/GPa)
#
#
# Indices 1 2 3 4 5 6 
#
# 1 0.010760 -0.004184 -0.003136 -0.000747 0.004653 0.001455
# 2 -0.004184 0.016601 -0.000813 0.004826 -0.001239 -0.001150
# 3 -0.003136 -0.000813 0.009529 0.001619 0.001135 -0.000095
# 4 -0.000747 0.004826 0.001619 0.038893 0.015161 -0.001470
# 5 0.004653 -0.001239 0.001135 0.015161 0.073221 0.002836
# 6 0.001455 -0.001150 -0.000095 -0.001470 0.002836 0.022808
#
#
# Mechanical properties :
#
#
# Convention : Reuss Voigt Hill
#
# Bulk Modulus (GPa) = 48.48578 56.15496 52.32037
# Shear Modulus (GPa) = 25.64735 32.75440 29.20087
#
# Velocity S-wave (km/s) = 3.54762 4.00914 3.78542
# Velocity P-wave (km/s) = 6.36975 6.99909 6.69182
#
# Compressibility (1/GPa) = 0.02062460
#
# Stress axis : x y z
#
# Youngs Moduli (GPa) = 92.93987 60.23802 104.93997
#
# Poissons Ratio (x) = 0.25203 0.32909
# Poissons Ratio (y) = 0.38885 0.08529
# Poissons Ratio (z) = 0.29146 0.04896
#
# Static dielectric constant tensor:
#      x y z
#    x 3.866260 -0.040430 -0.045780 
#    y -0.040430 3.158220 -0.238470 
#    z -0.045780 -0.238470 3.634500 
# 
# 
# High freq. dielectric constant tensor:
#      x y z
#    x 1.807420 0.002220 -0.002650 
#    y 0.002220 1.820630 -0.001080 
#    z -0.002650 -0.001080 1.790710 
# 
# From -- ./inp_files/48083.got.cif
#   From: 2010.06.25/outbox.cif.g09.slc.cpg/sg2_25_cif.got.tgz:48083.got - 2010.06.27 13:26:56.
