data_PCOD8034343
_publ_section_title
;
Structure prediction by ZEFSAII (Michael W. Deem and Ramdas Pophale) SiO2 
 PCOD8034343
Probable space group: P -1
;
_chemical_formula_sum "Si O2"
_cell_formula_units_Z 16
_cell_length_a 8.558829
_cell_length_b 27.302792
_cell_length_c 9.581598
_cell_angle_alpha 143.302394
_cell_angle_beta 70.218145
_cell_angle_gamma 137.721666
_cell_volume 696.248342
_symmetry_space_group_name_H-M "P -1"
_symmetry_group_IT_number 2
_symmetry_cell_setting 'triclinic'
loop_
_space_group_symop_operation_xyz
x,y,z
-x,-y,-z
loop_
_atom_site_type_symbol
_atom_site_label
_atom_site_fract_x
_atom_site_fract_y
_atom_site_fract_z
Si Si1 0.495728 0.440738 0.729609
Si Si2 0.879734 0.129335 0.106752
Si Si3 0.406668 0.875604 0.193514
Si Si4 0.565743 0.914361 0.933413
Si Si5 0.608153 0.355132 0.939868
Si Si6 0.292928 0.076916 0.531141
Si Si7 0.726226 0.378846 0.649449
Si Si8 0.728916 0.625687 0.830972
O O1 0.588253 0.385373 0.597884
O O2 0.726425 0.578101 0.869509
O O3 0.189819 0.306106 0.426968
O O4 0.500000 0.500000 0.000000
O O5 0.658488 0.115050 0.140321
O O6 0.865960 0.062363 0.093919
O O7 0.817540 0.051162 0.806238
O O8 0.482279 0.844889 0.226825
O O9 0.500000 0.000000 0.500000
O O10 0.611281 0.941396 0.147056
O O11 0.062645 0.743018 0.943204
O O12 0.469156 0.782103 0.638760
O O13 0.478380 0.210519 0.673404
O O14 0.698937 0.411796 0.882436
O O15 0.356727 0.314177 0.980313
O O16 0.940571 0.502207 0.242468
O O17 0.000000 0.000000 0.500000
O O18 0.500000 0.500000 0.500000
#
# Coordination Sequence:
#
# PCOD8034343 Si02
#       8
#     2   2   2   2   2   2   2   2
#     4  12  27  44  71 105 140 186 241 294 356 430
#     4  11  26  47  71 103 144 190 236 296 358 429
#     4  12  26  45  74 104 143 192 238 294 360 428
#     4  11  25  46  72 101 139 187 241 291 354 426
#     4  11  24  45  72 102 141 187 232 299 356 423
#     4  12  27  47  72 108 150 188 236 298 362 428
#     4  11  24  44  72 104 137 180 244 294 354 421
#     4  12  27  48  73 105 148 190 240 295 367 429
#
# _framework density 22.980305000000001
#
# number of rings (size 3 to 8) (size 9 to 14) (size 15 to 20)
#    0.000    0.500    3.750    3.750    7.000    1.500 
#    0.000    2.500    0.000    0.000    0.000    0.000 
#    0.000    0.000    0.000    0.000    0.000    0.000 
#
# Total GULP energy -198263.334166 kJ/mol
# GULP energy per Si atom -12391.458385 kJ/mol
# Density = 2.292800 g / cm^3
# Si number density = 22.980305 Si / 1000 Ang^3
#
#
#
# Elastic Constant Matrix: (Units=GPa)
#
#
# Indices 1 2 3 4 5 6 
#
# 1 114.4885 12.1611 23.7492 -2.6857 -4.8719 -8.6829
# 2 12.1611 82.6300 5.5406 -10.1988 5.2872 -11.5341
# 3 23.7492 5.5406 93.9627 -8.5966 0.7740 -2.8028
# 4 -2.6857 -10.1988 -8.5966 36.9930 -3.6137 -1.7904
# 5 -4.8719 5.2872 0.7740 -3.6137 41.8233 3.3829
# 6 -8.6829 -11.5341 -2.8028 -1.7904 3.3829 39.0356
#
#
#
# Elastic Compliance Matrix: (Units=1/GPa)
#
#
# Indices 1 2 3 4 5 6 
#
# 1 0.009494 -0.001101 -0.002295 0.000040 0.001168 0.001522
# 2 -0.001101 0.013394 -0.000045 0.003618 -0.001834 0.004035
# 3 -0.002295 -0.000045 0.011468 0.002478 -0.000295 0.000439
# 4 0.000040 0.003618 0.002478 0.028902 0.001802 0.002425
# 5 0.001168 -0.001834 -0.000295 0.001802 0.024630 -0.002355
# 6 0.001522 0.004035 0.000439 0.002425 -0.002355 0.027495
#
#
# Mechanical properties :
#
#
# Convention : Reuss Voigt Hill
#
# Bulk Modulus (GPa) = 36.39844 41.55369 38.97607
# Shear Modulus (GPa) = 38.04535 40.21239 39.12887
#
# Velocity S-wave (km/s) = 4.07328 4.18767 4.13087
# Velocity P-wave (km/s) = 6.16405 6.44234 6.30473
#
# Compressibility (1/GPa) = 0.02747370
#
# Stress axis : x y z
#
# Youngs Moduli (GPa) = 105.33403 74.65857 87.20271
#
# Poissons Ratio (x) = 0.08217 0.20014
# Poissons Ratio (y) = 0.11593 0.00393
# Poissons Ratio (z) = 0.24176 0.00337
#
# Static dielectric constant tensor:
#      x y z
#    x 4.240110 -0.221680 -0.143440 
#    y -0.221680 4.297210 0.150190 
#    z -0.143440 0.150190 3.916340 
# 
# 
# High freq. dielectric constant tensor:
#      x y z
#    x 1.917070 -0.012410 -0.005580 
#    y -0.012410 1.917650 0.003230 
#    z -0.005580 0.003230 1.906000 
# 
# From -- ./inp_files/227746.got.cif
#   From: 2010.06.25/outbox.cif.g09.slc.cpg/sg2_114_cif.got.tgz:227746.got - 2010.06.27 13:26:56.
