data_PCOD8034223
_publ_section_title
;
Structure prediction by ZEFSAII (Michael W. Deem and Ramdas Pophale) SiO2 
 PCOD8034223
Probable space group: P -1
;
_chemical_formula_sum "Si O2"
_cell_formula_units_Z 16
_cell_length_a 8.670806
_cell_length_b 15.889609
_cell_length_c 12.279300
_cell_angle_alpha 150.731476
_cell_angle_beta 90.730558
_cell_angle_gamma 102.275831
_cell_volume 735.349894
_symmetry_space_group_name_H-M "P -1"
_symmetry_group_IT_number 2
_symmetry_cell_setting 'triclinic'
loop_
_space_group_symop_operation_xyz
x,y,z
-x,-y,-z
loop_
_atom_site_type_symbol
_atom_site_label
_atom_site_fract_x
_atom_site_fract_y
_atom_site_fract_z
Si Si1 0.373057 0.356870 0.249421
Si Si2 0.556535 0.440624 0.111533
Si Si3 0.074503 0.549763 0.879293
Si Si4 0.897420 0.473609 0.577071
Si Si5 0.349654 0.960744 0.867382
Si Si6 0.268053 0.819763 0.481312
Si Si7 0.856923 0.070868 0.587505
Si Si8 0.436900 0.246374 0.669753
O O1 0.500000 0.500000 0.500000
O O2 0.465703 0.373955 0.152819
O O3 0.224967 0.422575 0.308421
O O4 0.303900 0.141090 0.058188
O O5 0.732177 0.423368 0.087820
O O6 0.604625 0.662966 0.336094
O O7 0.428474 0.334353 0.888024
O O8 0.036220 0.589011 0.800861
O O9 0.926199 0.337966 0.670076
O O10 0.054946 0.699526 0.130694
O O11 0.809064 0.241788 0.329737
O O12 0.000000 0.500000 0.500000
O O13 0.393329 0.924537 0.703236
O O14 0.500000 0.000000 0.000000
O O15 0.245249 0.976531 0.582689
O O16 0.370883 0.732372 0.313254
O O17 0.720042 0.970721 0.571175
O O18 0.000000 0.000000 0.500000
#
# Coordination Sequence:
#
# PCOD8034223 Si02
#       8
#     2   2   2   2   2   2   2   2
#     4  12  25  46  76 101 137 187 237 294 353 415
#     4  11  24  44  69 100 136 181 233 282 356 415
#     4  11  25  43  67  96 142 181 222 292 352 414
#     4  11  26  49  69 105 141 181 234 297 352 416
#     4  11  25  44  75 103 136 186 238 291 349 418
#     4  11  24  45  68  99 143 180 231 287 354 416
#     4  12  26  40  65 103 139 183 232 279 353 421
#     4  11  25  41  70 100 137 182 232 285 344 428
#
# _framework density 21.758348000000002
#
# number of rings (size 3 to 8) (size 9 to 14) (size 15 to 20)
#    0.000    0.750    2.500    4.500    8.750    0.500 
#    0.000    0.000    0.000    0.000    0.000    0.000 
#    0.000    0.000    0.000    0.000    0.000    0.000 
#
# Total GULP energy -198251.827910 kJ/mol
# GULP energy per Si atom -12390.739244 kJ/mol
# Density = 2.170883 g / cm^3
# Si number density = 21.758348 Si / 1000 Ang^3
#
#
#
# Elastic Constant Matrix: (Units=GPa)
#
#
# Indices 1 2 3 4 5 6 
#
# 1 137.2954 60.3276 38.6654 1.9397 -24.6405 -10.9148
# 2 60.3276 150.0224 49.9004 0.0872 -12.0555 -17.5937
# 3 38.6654 49.9004 90.6306 6.2757 -9.5342 -9.8263
# 4 1.9397 0.0872 6.2757 48.4518 -7.3644 -0.9588
# 5 -24.6405 -12.0555 -9.5342 -7.3644 32.8198 -3.0761
# 6 -10.9148 -17.5937 -9.8263 -0.9588 -3.0761 42.3508
#
#
#
# Elastic Compliance Matrix: (Units=1/GPa)
#
#
# Indices 1 2 3 4 5 6 
#
# 1 0.010369 -0.002767 -0.002113 0.000881 0.006495 0.001524
# 2 -0.002767 0.009334 -0.003681 0.000719 0.000666 0.002375
# 3 -0.002113 -0.003681 0.014315 -0.001588 0.000984 0.001283
# 4 0.000881 0.000719 -0.001588 0.021653 0.005420 0.001041
# 5 0.006495 0.000666 0.000984 0.005420 0.037564 0.005030
# 6 0.001524 0.002375 0.001283 0.001041 0.005030 0.025679
#
#
# Mechanical properties :
#
#
# Convention : Reuss Voigt Hill
#
# Bulk Modulus (GPa) = 59.18419 75.08170 67.13294
# Shear Modulus (GPa) = 35.29427 39.99482 37.64454
#
# Velocity S-wave (km/s) = 4.03190 4.29200 4.16398
# Velocity P-wave (km/s) = 6.99534 7.69049 7.35114
#
# Compressibility (1/GPa) = 0.01689641
#
# Stress axis : x y z
#
# Youngs Moduli (GPa) = 96.44507 107.13168 69.85872
#
# Poissons Ratio (x) = 0.29638 0.14759
# Poissons Ratio (y) = 0.26682 0.25717
# Poissons Ratio (z) = 0.20376 0.39438
#
# Static dielectric constant tensor:
#      x y z
#    x -13.626890 15.556510 11.904710 
#    y 15.556510 -9.854660 -10.776730 
#    z 11.904710 -10.776730 -3.965450 
# 
# 
# High freq. dielectric constant tensor:
#      x y z
#    x 1.848050 -0.012790 0.001820 
#    y -0.012790 1.881020 0.002550 
#    z 0.001820 0.002550 1.858010 
# 
# From -- ./inp_files/352369.got.cif
#   From: 2010.06.25/outbox.cif.g09.slc.cpg/sg2_177_cif.got.tgz:352369.got - 2010.06.27 13:26:56.
