data_PCOD8034075
_publ_section_title
;
Structure prediction by ZEFSAII (Michael W. Deem and Ramdas Pophale) SiO2 
 PCOD8034075
Probable space group: P -1
;
_chemical_formula_sum "Si O2"
_cell_formula_units_Z 12
_cell_length_a 8.191721
_cell_length_b 9.374722
_cell_length_c 11.880443
_cell_angle_alpha 37.979529
_cell_angle_beta 113.414621
_cell_angle_gamma 94.741534
_cell_volume 470.313017
_symmetry_space_group_name_H-M "P -1"
_symmetry_group_IT_number 2
_symmetry_cell_setting 'triclinic'
loop_
_space_group_symop_operation_xyz
x,y,z
-x,-y,-z
loop_
_atom_site_type_symbol
_atom_site_label
_atom_site_fract_x
_atom_site_fract_y
_atom_site_fract_z
Si Si1 0.832626 0.982103 0.342029
Si Si2 0.225287 0.463727 0.988429
Si Si3 0.778598 0.192122 0.807472
Si Si4 0.157175 0.595110 0.530725
Si Si5 0.562632 0.834342 0.972465
Si Si6 0.808697 0.574374 0.747789
O O1 0.771466 0.838405 0.513256
O O2 0.045278 0.814332 0.454205
O O3 0.838722 0.236450 0.235709
O O4 0.672520 0.047935 0.155762
O O5 0.399294 0.294932 0.060119
O O6 0.038851 0.406636 0.938376
O O7 0.296794 0.378297 0.188934
O O8 0.746679 0.307285 0.602187
O O9 0.726559 0.414643 0.746334
O O10 0.631411 0.060051 0.866057
O O11 0.000000 0.000000 0.000000
O O12 0.337186 0.372443 0.776772
O O13 0.000000 0.500000 0.500000
#
# Coordination Sequence:
#
# PCOD8034075 Si02
#       6
#     2   2   2   2   2   2
#     4  12  26  45  71 105 141 179 233 286 344 410
#     4  11  24  45  71 101 141 182 233 280 343 415
#     4  12  22  46  72 100 141 178 232 285 342 409
#     4  12  24  46  71 103 140 183 229 283 349 406
#     4  12  28  45  72 107 137 183 232 285 346 410
#     4  11  24  43  72 101 133 191 228 279 350 402
#
# _framework density 25.514921999999999
#
# number of rings (size 3 to 8) (size 9 to 14) (size 15 to 20)
#    0.000    0.333    6.667    2.000    2.333    3.333 
#    0.000    0.000    0.000    0.000    0.000    0.000 
#    0.000    0.000    0.000    0.000    0.000    0.000 
#
# Total GULP energy -148881.700329 kJ/mol
# GULP energy per Si atom -12406.808361 kJ/mol
# Density = 2.545685 g / cm^3
# Si number density = 25.514922 Si / 1000 Ang^3
#
#
#
# Elastic Constant Matrix: (Units=GPa)
#
#
# Indices 1 2 3 4 5 6 
#
# 1 25.8920 21.1514 30.5700 -3.2578 -9.8934 4.3540
# 2 21.1514 145.0638 39.0752 -12.9410 -32.2928 -3.8103
# 3 30.5700 39.0752 162.5627 15.6414 -32.4488 -8.8251
# 4 -3.2578 -12.9410 15.6414 30.2755 -1.2432 -11.9452
# 5 -9.8934 -32.2928 -32.4488 -1.2432 33.8776 11.6402
# 6 4.3540 -3.8103 -8.8251 -11.9452 11.6402 39.0718
#
#
#
# Elastic Compliance Matrix: (Units=1/GPa)
#
#
# Indices 1 2 3 4 5 6 
#
# 1 0.058488 -0.003945 -0.009651 0.006178 0.007547 -0.009442
# 2 -0.003945 0.009712 -0.000460 0.004413 0.007712 0.000334
# 3 -0.009651 -0.000460 0.009881 -0.006280 0.006145 -0.000488
# 4 0.006178 0.004413 -0.006280 0.043633 -0.002686 0.012463
# 5 0.007547 0.007712 0.006145 -0.002686 0.049794 -0.014357
# 6 -0.009442 0.000334 -0.000488 0.012463 -0.014357 0.034656
#
#
# Mechanical properties :
#
#
# Convention : Reuss Voigt Hill
#
# Bulk Modulus (GPa) = 20.01218 57.23464 38.62341
# Shear Modulus (GPa) = 19.92574 36.82643 28.37608
#
# Velocity S-wave (km/s) = 2.79757 3.80324 3.33849
# Velocity P-wave (km/s) = 4.27733 6.46272 5.48007
#
# Compressibility (1/GPa) = 0.04996956
#
# Stress axis : x y z
#
# Youngs Moduli (GPa) = 17.09746 102.96734 101.20190
#
# Poissons Ratio (x) = 0.40624 0.97670
# Poissons Ratio (y) = 0.06745 0.04650
# Poissons Ratio (z) = 0.16501 0.04732
#
# Static dielectric constant tensor:
#      x y z
#    x 4.492080 -0.016360 -0.173450 
#    y -0.016360 5.070660 0.193370 
#    z -0.173450 0.193370 4.810160 
# 
# 
# High freq. dielectric constant tensor:
#      x y z
#    x 2.006870 0.002570 -0.009510 
#    y 0.002570 2.033370 0.006740 
#    z -0.009510 0.006740 2.029150 
# 
# From -- ./inp_files/172976.got.cif
#   From: 2010.06.25/outbox.cif.g09.slc.cpg/sg2_87_cif.got.tgz:172976.got - 2010.06.27 13:26:56.
