data_PCOD8034314
_publ_section_title
;
Structure prediction by ZEFSAII (Michael W. Deem and Ramdas Pophale) SiO2 
 PCOD8034314
Probable space group: P -1
;
_chemical_formula_sum "Si O2"
_cell_formula_units_Z 16
_cell_length_a 17.840355
_cell_length_b 9.228846
_cell_length_c 12.273565
_cell_angle_alpha 46.167873
_cell_angle_beta 31.824493
_cell_angle_gamma 49.717425
_cell_volume 759.669353
_symmetry_space_group_name_H-M "P -1"
_symmetry_group_IT_number 2
_symmetry_cell_setting 'triclinic'
loop_
_space_group_symop_operation_xyz
x,y,z
-x,-y,-z
loop_
_atom_site_type_symbol
_atom_site_label
_atom_site_fract_x
_atom_site_fract_y
_atom_site_fract_z
Si Si1 0.152590 0.552300 0.255400
Si Si2 0.647738 0.748113 0.985418
Si Si3 0.105801 0.664803 0.801820
Si Si4 0.671802 0.200114 0.704839
Si Si5 0.638116 0.602843 0.299063
Si Si6 0.082778 0.997003 0.013497
Si Si7 0.367832 0.182147 0.572210
Si Si8 0.648693 0.479524 0.769179
O O1 0.135037 0.779945 0.115027
O O2 0.233485 0.503894 0.294400
O O3 0.000000 0.500000 0.500000
O O4 0.233430 0.417525 0.129758
O O5 0.488711 0.693587 0.186559
O O6 0.661546 0.759038 0.093180
O O7 0.678621 0.964261 0.790980
O O8 0.197548 0.707987 0.560083
O O9 0.224621 0.573001 0.790473
O O10 0.021174 0.876003 0.837271
O O11 0.000000 0.500000 0.000000
O O12 0.687165 0.255983 0.783538
O O13 0.500000 0.500000 0.500000
O O14 0.632644 0.715033 0.362645
O O15 0.222680 0.097878 0.770149
O O16 0.000000 0.000000 0.000000
O O17 0.371075 0.347555 0.388548
O O18 0.500000 0.000000 0.500000
O O19 0.500000 0.500000 0.000000
#
# Coordination Sequence:
#
# PCOD8034314 Si02
#       8
#     2   2   2   2   2   2   2   2
#     4  12  27  48  71 106 146 190 240 294 366 427
#     4  11  25  44  71 107 141 187 242 293 354 436
#     4  12  24  47  71 102 148 183 241 299 362 431
#     4  11  24  44  71 106 140 188 236 293 368 419
#     4  12  25  46  75 103 144 189 244 299 357 434
#     4  12  27  47  72 105 146 193 238 297 364 430
#     4  12  28  45  73 111 141 191 243 294 363 430
#     4  12  24  46  73 101 146 183 238 296 354 431
#
# _framework density 21.061795
#
# number of rings (size 3 to 8) (size 9 to 14) (size 15 to 20)
#    0.000    0.250    5.000    3.000    7.000    1.000 
#    0.000    1.875    0.000    0.000    0.000    0.000 
#    0.000    0.000    0.000    0.000    0.000    0.000 
#
# Total GULP energy -198337.015281 kJ/mol
# GULP energy per Si atom -12396.063455 kJ/mol
# Density = 2.101386 g / cm^3
# Si number density = 21.061795 Si / 1000 Ang^3
#
#
#
# Elastic Constant Matrix: (Units=GPa)
#
#
# Indices 1 2 3 4 5 6 
#
# 1 157.9508 50.1371 72.5643 2.1985 1.3527 4.0927
# 2 50.1371 140.7068 65.8080 13.4150 0.7411 2.2979
# 3 72.5643 65.8080 170.3568 10.0284 -9.3218 10.8095
# 4 2.1985 13.4150 10.0284 38.4721 -3.4378 -1.3562
# 5 1.3527 0.7411 -9.3218 -3.4378 46.9926 0.4786
# 6 4.0927 2.2979 10.8095 -1.3562 0.4786 36.0554
#
#
#
# Elastic Compliance Matrix: (Units=1/GPa)
#
#
# Indices 1 2 3 4 5 6 
#
# 1 0.008196 -0.001608 -0.002964 0.000802 -0.000741 0.000101
# 2 -0.001608 0.009223 -0.002801 -0.002456 -0.000838 0.000353
# 3 -0.002964 -0.002801 0.008502 -0.000986 0.001765 -0.002095
# 4 0.000802 -0.002456 -0.000986 0.027270 0.001801 0.001363
# 5 -0.000741 -0.000838 0.001765 0.001801 0.021803 -0.000613
# 6 0.000101 0.000353 -0.002095 0.001363 -0.000613 0.028388
#
#
# Mechanical properties :
#
#
# Convention : Reuss Voigt Hill
#
# Bulk Modulus (GPa) = 89.49557 94.00368 91.74962
# Shear Modulus (GPa) = 41.03271 43.00435 42.01853
#
# Velocity S-wave (km/s) = 4.41864 4.52355 4.47140
# Velocity P-wave (km/s) = 8.28351 8.48602 8.38538
#
# Compressibility (1/GPa) = 0.01117374
#
# Stress axis : x y z
#
# Youngs Moduli (GPa) = 122.01299 108.42294 117.61594
#
# Poissons Ratio (x) = 0.17439 0.34860
# Poissons Ratio (y) = 0.19625 0.32949
# Poissons Ratio (z) = 0.36164 0.30374
#
# Static dielectric constant tensor:
#      x y z
#    x 4.008990 -0.029870 -0.059260 
#    y -0.029870 4.099590 0.134250 
#    z -0.059260 0.134250 3.990100 
# 
# 
# High freq. dielectric constant tensor:
#      x y z
#    x 1.835360 -0.001200 -0.002790 
#    y -0.001200 1.838900 0.004000 
#    z -0.002790 0.004000 1.846760 
# 
# From -- ./inp_files/207767.got.cif
#   From: 2010.06.25/outbox.cif.g09.slc.cpg/sg2_104_cif.got.tgz:207767.got - 2010.06.27 13:26:56.
