data_PCOD8034818
_publ_section_title
;
Structure prediction by ZEFSAII (Michael W. Deem and Ramdas Pophale) SiO2 
 PCOD8034818
Probable space group: P -1
;
_chemical_formula_sum "Si O2"
_cell_formula_units_Z 12
_cell_length_a 5.199180
_cell_length_b 11.384469
_cell_length_c 9.420913
_cell_angle_alpha 82.533572
_cell_angle_beta 73.440228
_cell_angle_gamma 59.779194
_cell_volume 461.790877
_symmetry_space_group_name_H-M "P -1"
_symmetry_group_IT_number 2
_symmetry_cell_setting 'triclinic'
loop_
_space_group_symop_operation_xyz
x,y,z
-x,-y,-z
loop_
_atom_site_type_symbol
_atom_site_label
_atom_site_fract_x
_atom_site_fract_y
_atom_site_fract_z
Si Si1 0.706501 0.992649 0.150652
Si Si2 0.171635 0.553324 0.117281
Si Si3 0.178599 0.217612 0.057205
Si Si4 0.740168 0.345688 0.639710
Si Si5 0.833094 0.060123 0.663529
Si Si6 0.094490 0.612330 0.684635
O O1 0.437379 0.974436 0.267399
O O2 0.925526 0.998480 0.235282
O O3 0.535584 0.134619 0.065147
O O4 0.897553 0.875581 0.021691
O O5 0.098803 0.666081 0.233591
O O6 0.154721 0.429358 0.214789
O O7 0.500000 0.500000 0.000000
O O8 0.899133 0.639103 0.031708
O O9 0.957353 0.261324 0.225566
O O10 0.668882 0.223105 0.654934
O O11 0.433752 0.489235 0.666591
O O12 0.964657 0.339466 0.477123
O O13 0.000000 0.000000 0.500000
#
# Coordination Sequence:
#
# PCOD8034818 Si02
#       6
#     2   2   2   2   2   2
#     4  11  27  46  74 110 146 197 248 309 367 444
#     4  12  24  43  75 107 145 196 245 310 373 444
#     4  11  24  46  71 109 148 194 246 307 371 446
#     4  11  25  46  71 104 148 194 246 310 372 443
#     4  12  26  50  76 107 148 197 250 306 373 445
#     4  11  25  45  69 107 147 191 247 306 378 440
#
# _framework density 25.985790999999999
#
# number of rings (size 3 to 8) (size 9 to 14) (size 15 to 20)
#    0.000    0.667    3.333    3.500    2.333    4.000 
#    6.000    0.000    0.000    0.000    0.000    0.000 
#    0.000    0.000    0.000    0.000    0.000    0.000 
#
# Total GULP energy -148758.124254 kJ/mol
# GULP energy per Si atom -12396.510355 kJ/mol
# Density = 2.592665 g / cm^3
# Si number density = 25.985791 Si / 1000 Ang^3
#
#
#
# Elastic Constant Matrix: (Units=GPa)
#
#
# Indices 1 2 3 4 5 6 
#
# 1 73.9523 10.0629 61.8538 -0.4597 -16.0412 -1.9519
# 2 10.0629 110.2304 48.8126 8.8950 -0.3632 -17.7666
# 3 61.8538 48.8126 206.1216 19.0982 -3.2665 -5.2628
# 4 -0.4597 8.8950 19.0982 57.9821 8.5495 4.5183
# 5 -16.0412 -0.3632 -3.2665 8.5495 46.8756 -5.7676
# 6 -1.9519 -17.7666 -5.2628 4.5183 -5.7676 24.4868
#
#
#
# Elastic Compliance Matrix: (Units=1/GPa)
#
#
# Indices 1 2 3 4 5 6 
#
# 1 0.020070 0.001305 -0.006238 0.000835 0.006612 0.002609
# 2 0.001305 0.011740 -0.002750 -0.001829 0.001760 0.008783
# 3 -0.006238 -0.002750 0.007499 -0.001821 -0.001409 -0.000877
# 4 0.000835 -0.001829 -0.001821 0.019222 -0.004120 -0.006169
# 5 0.006612 0.001760 -0.001409 -0.004120 0.025274 0.008214
# 6 0.002609 0.008783 -0.000877 -0.006169 0.008214 0.050303
#
#
# Mechanical properties :
#
#
# Convention : Reuss Voigt Hill
#
# Bulk Modulus (GPa) = 41.76635 70.19586 55.98110
# Shear Modulus (GPa) = 31.75523 43.84056 37.79790
#
# Velocity S-wave (km/s) = 3.49954 4.11189 3.81801
# Velocity P-wave (km/s) = 5.69532 7.04381 6.40515
#
# Compressibility (1/GPa) = 0.02394272
#
# Stress axis : x y z
#
# Youngs Moduli (GPa) = 49.82472 85.18231 133.35665
#
# Poissons Ratio (x) = -0.11116 0.83185
# Poissons Ratio (y) = -0.06502 0.36675
# Poissons Ratio (z) = 0.31080 0.23426
#
# Static dielectric constant tensor:
#      x y z
#    x 4.270260 -0.008940 0.262410 
#    y -0.008940 5.103870 0.071280 
#    z 0.262410 0.071280 5.525700 
# 
# 
# High freq. dielectric constant tensor:
#      x y z
#    x 2.006530 -0.003200 0.010300 
#    y -0.003200 2.057410 0.007370 
#    z 0.010300 0.007370 2.075460 
# 
# From -- ./inp_files/131411.got.cif
#   From: 2010.06.25/outbox.cif.g09.slc.cpg/sg2_66_cif.got.tgz:131411.got - 2010.06.27 13:26:56.
