data_PCOD8034076
_publ_section_title
;
Structure prediction by ZEFSAII (Michael W. Deem and Ramdas Pophale) SiO2 
 PCOD8034076
Probable space group: P -1
;
_chemical_formula_sum "Si O2"
_cell_formula_units_Z 14
_cell_length_a 8.809437
_cell_length_b 13.325786
_cell_length_c 11.073050
_cell_angle_alpha 128.029384
_cell_angle_beta 118.948088
_cell_angle_gamma 33.567675
_cell_volume 564.864374
_symmetry_space_group_name_H-M "P -1"
_symmetry_group_IT_number 2
_symmetry_cell_setting 'triclinic'
loop_
_space_group_symop_operation_xyz
x,y,z
-x,-y,-z
loop_
_atom_site_type_symbol
_atom_site_label
_atom_site_fract_x
_atom_site_fract_y
_atom_site_fract_z
Si Si1 0.287651 0.186872 0.384855
Si Si2 0.248530 0.839128 0.883110
Si Si3 0.400342 0.835444 0.693546
Si Si4 0.199791 0.480697 0.994434
Si Si5 0.479193 0.819560 0.294451
Si Si6 0.682580 0.473698 0.396095
Si Si7 0.829094 0.217738 0.748542
O O1 0.400400 0.167501 0.283268
O O2 0.443803 0.180415 0.541638
O O3 0.958371 0.396149 0.413159
O O4 0.366090 0.995529 0.295228
O O5 0.310240 0.910292 0.855182
O O6 0.510210 0.682706 0.950846
O O7 0.221861 0.726182 0.707678
O O8 0.000000 0.000000 0.000000
O O9 0.553355 0.610208 0.569236
O O10 0.110190 0.010592 0.637149
O O11 0.097041 0.684679 0.097497
O O12 0.242830 0.398870 0.816724
O O13 0.000000 0.500000 0.000000
O O14 0.238581 0.848320 0.222180
O O15 0.444755 0.627011 0.320379
#
# Coordination Sequence:
#
# PCOD8034076 Si02
#       7
#     2   2   2   2   2   2   2
#     4  11  25  43  73 105 141 185 232 298 343 419
#     4  11  26  47  72 101 143 186 232 293 354 422
#     4  12  24  45  69 107 138 183 236 287 353 414
#     4  11  25  45  69 101 138 187 237 289 350 420
#     4  11  24  45  70 100 148 182 235 285 360 411
#     4  11  24  44  71 105 141 182 236 286 355 415
#     4  11  24  43  72 101 140 183 234 289 353 416
#
# _framework density 24.784707999999998
#
# number of rings (size 3 to 8) (size 9 to 14) (size 15 to 20)
#    0.000    0.857    1.429    5.143    2.000    1.143 
#    0.000    5.000    0.000    0.000    0.000    0.000 
#    0.000    0.000    0.000    0.000    0.000    0.000 
#
# Total GULP energy -173464.224651 kJ/mol
# GULP energy per Si atom -12390.301761 kJ/mol
# Density = 2.472830 g / cm^3
# Si number density = 24.784708 Si / 1000 Ang^3
#
#
#
# Elastic Constant Matrix: (Units=GPa)
#
#
# Indices 1 2 3 4 5 6 
#
# 1 172.6363 35.7069 73.0172 24.7776 -14.3781 -10.9380
# 2 35.7069 100.6922 24.9023 29.0279 -11.9240 -16.5989
# 3 73.0172 24.9023 85.7939 25.5692 -13.6325 -1.2014
# 4 24.7776 29.0279 25.5692 32.8695 -1.7076 -9.4382
# 5 -14.3781 -11.9240 -13.6325 -1.7076 49.2425 9.7834
# 6 -10.9380 -16.5989 -1.2014 -9.4382 9.7834 41.9504
#
#
#
# Elastic Compliance Matrix: (Units=1/GPa)
#
#
# Indices 1 2 3 4 5 6 
#
# 1 0.009368 -0.001289 -0.007784 0.000668 -0.000082 0.001879
# 2 -0.001289 0.014111 0.000812 -0.011379 0.002445 0.002140
# 3 -0.007784 0.000812 0.022891 -0.013930 0.004833 -0.005314
# 4 0.000668 -0.011379 -0.013930 0.052965 -0.006301 0.008658
# 5 -0.000082 0.002445 0.004833 -0.006301 0.023133 -0.005728
# 6 0.001879 0.002140 -0.005314 0.008658 -0.005728 0.028306
#
#
# Mechanical properties :
#
#
# Convention : Reuss Voigt Hill
#
# Bulk Modulus (GPa) = 33.50660 69.59725 51.55193
# Shear Modulus (GPa) = 28.20944 39.84555 34.02749
#
# Velocity S-wave (km/s) = 3.37735 4.01392 3.70932
# Velocity P-wave (km/s) = 5.36256 7.04441 6.26023
#
# Compressibility (1/GPa) = 0.02984486
#
# Stress axis : x y z
#
# Youngs Moduli (GPa) = 106.74623 70.86891 43.68607
#
# Poissons Ratio (x) = 0.09137 0.34007
# Poissons Ratio (y) = 0.13763 -0.03545
# Poissons Ratio (z) = 0.83095 -0.05751
#
# Static dielectric constant tensor:
#      x y z
#    x 4.631250 0.024910 0.258370 
#    y 0.024910 4.533020 0.408710 
#    z 0.258370 0.408710 4.641120 
# 
# 
# High freq. dielectric constant tensor:
#      x y z
#    x 2.001920 -0.008140 0.004230 
#    y -0.008140 1.999610 0.019820 
#    z 0.004230 0.019820 1.973630 
# 
# From -- ./inp_files/160247.got.cif
#   From: 2010.06.25/outbox.cif.g09.slc.cpg/sg2_81_cif.got.tgz:160247.got - 2010.06.27 13:26:56.
