data_PCOD8034524
_publ_section_title
;
Structure prediction by ZEFSAII (Michael W. Deem and Ramdas Pophale) SiO2 
 PCOD8034524
Probable space group: P -1
;
_chemical_formula_sum "Si O2"
_cell_formula_units_Z 14
_cell_length_a 18.417259
_cell_length_b 11.501076
_cell_length_c 13.258903
_cell_angle_alpha 49.187825
_cell_angle_beta 157.336542
_cell_angle_gamma 142.820122
_cell_volume 612.456784
_symmetry_space_group_name_H-M "P -1"
_symmetry_group_IT_number 2
_symmetry_cell_setting 'triclinic'
loop_
_space_group_symop_operation_xyz
x,y,z
-x,-y,-z
loop_
_atom_site_type_symbol
_atom_site_label
_atom_site_fract_x
_atom_site_fract_y
_atom_site_fract_z
Si Si1 0.575728 0.755340 0.320343
Si Si2 0.539518 0.622514 0.883383
Si Si3 0.954549 0.528026 0.277543
Si Si4 0.180887 0.400090 0.366388
Si Si5 0.057989 0.772827 0.459144
Si Si6 0.391841 0.876787 0.535682
Si Si7 0.655603 0.261563 0.769064
O O1 0.779664 0.730182 0.579289
O O2 0.439391 0.678445 0.298015
O O3 0.346082 0.605515 0.031763
O O4 0.707460 0.992142 0.343197
O O5 0.334207 0.459112 0.631453
O O6 0.536412 0.802326 0.798347
O O7 0.500000 0.500000 0.000000
O O8 0.822614 0.747865 0.137496
O O9 0.107171 0.689651 0.473467
O O10 0.997029 0.366847 0.435164
O O11 0.092760 0.665842 0.273535
O O12 0.284809 0.605351 0.327255
O O13 0.889187 0.275771 0.089030
O O14 0.500000 0.000000 0.500000
O O15 0.426348 0.026511 0.578713
#
# Coordination Sequence:
#
# PCOD8034524 Si02
#       7
#     2   2   2   2   2   2   2
#     4  12  24  46  73 109 143 190 246 300 370 435
#     4  12  24  46  72 104 148 188 245 306 360 433
#     4  11  24  45  70 103 147 189 238 306 357 435
#     4  11  25  47  70 107 148 194 241 309 360 436
#     4  11  24  45  70 102 147 191 239 298 369 433
#     4  12  24  46  74 105 144 198 242 300 370 433
#     4  11  25  45  72 105 150 191 247 299 367 433
#
# _framework density 22.858756
#
# number of rings (size 3 to 8) (size 9 to 14) (size 15 to 20)
#    0.000    0.571    5.714    2.571    2.000    0.000 
#    5.143    3.571    0.000    0.000    0.000    0.000 
#    0.000    0.000    0.000    0.000    0.000    0.000 
#
# Total GULP energy -173523.587191 kJ/mol
# GULP energy per Si atom -12394.541942 kJ/mol
# Density = 2.280673 g / cm^3
# Si number density = 22.858756 Si / 1000 Ang^3
#
#
#
# Elastic Constant Matrix: (Units=GPa)
#
#
# Indices 1 2 3 4 5 6 
#
# 1 94.0419 39.0328 33.1154 -1.6674 1.1001 0.4481
# 2 39.0328 143.7239 41.5186 9.1230 -3.5289 8.5073
# 3 33.1154 41.5186 103.5584 3.4155 2.0252 4.4345
# 4 -1.6674 9.1230 3.4155 42.8905 -2.9111 3.9803
# 5 1.1001 -3.5289 2.0252 -2.9111 35.0063 -6.8200
# 6 0.4481 8.5073 4.4345 3.9803 -6.8200 44.1385
#
#
#
# Elastic Compliance Matrix: (Units=1/GPa)
#
#
# Indices 1 2 3 4 5 6 
#
# 1 0.012873 -0.002725 -0.003083 0.001255 -0.000290 0.000546
# 2 -0.002725 0.008603 -0.002492 -0.001583 0.000747 -0.001122
# 3 -0.003083 -0.002492 0.011712 -0.000520 -0.001026 -0.000777
# 4 0.001255 -0.001583 -0.000520 0.023992 0.001518 -0.001585
# 5 -0.000290 0.000747 -0.001026 0.001518 0.029696 0.004414
# 6 0.000546 -0.001122 -0.000777 -0.001585 0.004414 0.023770
#
#
# Mechanical properties :
#
#
# Convention : Reuss Voigt Hill
#
# Bulk Modulus (GPa) = 60.28467 63.18419 61.73443
# Shear Modulus (GPa) = 37.65763 39.58423 38.62093
#
# Velocity S-wave (km/s) = 4.06323 4.16587 4.11487
# Velocity P-wave (km/s) = 6.96010 7.13025 7.04569
#
# Compressibility (1/GPa) = 0.01658797
#
# Stress axis : x y z
#
# Youngs Moduli (GPa) = 77.68077 116.24045 85.38251
#
# Poissons Ratio (x) = 0.31670 0.26326
# Poissons Ratio (y) = 0.21165 0.21279
# Poissons Ratio (z) = 0.23951 0.28969
#
# Static dielectric constant tensor:
#      x y z
#    x 4.161270 0.212670 0.321160 
#    y 0.212670 4.941210 0.384310 
#    z 0.321160 0.384310 4.388200 
# 
# 
# High freq. dielectric constant tensor:
#      x y z
#    x 1.902950 -0.005330 0.010480 
#    y -0.005330 1.912920 0.005540 
#    z 0.010480 0.005540 1.895610 
# 
# From -- ./inp_files/285231.got.cif
#   From: 2010.06.25/outbox.cif.g09.slc.cpg/sg2_143_cif.got.tgz:285231.got - 2010.06.27 13:26:56.
