data_PCOD8034209
_publ_section_title
;
Structure prediction by ZEFSAII (Michael W. Deem and Ramdas Pophale) SiO2 
 PCOD8034209
Probable space group: P -1
;
_chemical_formula_sum "Si O2"
_cell_formula_units_Z 16
_cell_length_a 13.106930
_cell_length_b 14.512826
_cell_length_c 9.756958
_cell_angle_alpha 48.056352
_cell_angle_beta 146.614063
_cell_angle_gamma 131.045875
_cell_volume 737.282370
_symmetry_space_group_name_H-M "P -1"
_symmetry_group_IT_number 2
_symmetry_cell_setting 'triclinic'
loop_
_space_group_symop_operation_xyz
x,y,z
-x,-y,-z
loop_
_atom_site_type_symbol
_atom_site_label
_atom_site_fract_x
_atom_site_fract_y
_atom_site_fract_z
Si Si1 0.229248 0.795577 0.177088
Si Si2 0.915991 0.327777 0.605853
Si Si3 0.787109 0.420825 0.821103
Si Si4 0.726354 0.548351 0.236924
Si Si5 0.299266 0.729459 0.849849
Si Si6 0.326283 0.351140 0.638689
Si Si7 0.418820 0.020014 0.742726
Si Si8 0.111330 0.127882 0.426772
O O1 0.179207 0.794474 0.284926
O O2 0.259453 0.660885 0.289201
O O3 0.416736 0.907024 0.248352
O O4 0.040505 0.810353 0.875868
O O5 0.832465 0.435041 0.479216
O O6 0.861975 0.319746 0.393675
O O7 0.150407 0.359534 0.835963
O O8 0.656767 0.524751 0.565153
O O9 0.750099 0.318379 0.003839
O O10 0.000000 0.500000 0.000000
O O11 0.773873 0.624615 0.357156
O O12 0.500000 0.500000 0.000000
O O13 0.335416 0.881288 0.725373
O O14 0.473877 0.670013 0.064439
O O15 0.216751 0.222864 0.567866
O O16 0.258722 0.099975 0.505507
O O17 0.500000 0.000000 0.000000
O O18 0.000000 0.000000 0.500000
#
# Coordination Sequence:
#
# PCOD8034209 Si02
#       8
#     2   2   2   2   2   2   2   2
#     4  12  25  46  69 103 141 183 235 290 346 416
#     4  11  27  44  69  99 146 188 223 286 356 414
#     4  12  23  38  68 106 139 170 231 293 346 409
#     4  11  24  44  68 102 147 188 225 275 355 431
#     4  12  25  46  69 102 142 185 233 285 351 419
#     4  12  23  40  73 106 134 182 234 286 351 414
#     4  12  24  45  72 100 137 187 235 291 344 407
#     4  12  24  43  72 103 137 182 236 291 346 406
#
# _framework density 21.701319000000002
#
# number of rings (size 3 to 8) (size 9 to 14) (size 15 to 20)
#    0.000    0.250    7.500    1.125    3.500    1.500 
#    2.250    0.625    0.000    0.000    0.000    0.000 
#    0.000    0.000    0.000    0.000    0.000    0.000 
#
# Total GULP energy -198263.023957 kJ/mol
# GULP energy per Si atom -12391.438997 kJ/mol
# Density = 2.165193 g / cm^3
# Si number density = 21.701319 Si / 1000 Ang^3
#
#
#
# Elastic Constant Matrix: (Units=GPa)
#
#
# Indices 1 2 3 4 5 6 
#
# 1 140.0153 54.1251 45.3308 5.3634 4.6517 26.8994
# 2 54.1251 124.8971 33.6115 -5.1927 4.2764 12.5636
# 3 45.3308 33.6115 61.5921 8.0580 6.7113 4.1797
# 4 5.3634 -5.1927 8.0580 23.4275 3.5821 4.0080
# 5 4.6517 4.2764 6.7113 3.5821 42.6541 -4.4485
# 6 26.8994 12.5636 4.1797 4.0080 -4.4485 46.5916
#
#
#
# Elastic Compliance Matrix: (Units=1/GPa)
#
#
# Indices 1 2 3 4 5 6 
#
# 1 0.011268 -0.002591 -0.006473 0.000053 -0.000506 -0.005279
# 2 -0.002591 0.010678 -0.004380 0.004818 -0.000657 -0.001468
# 3 -0.006473 -0.004380 0.024422 -0.008194 -0.001668 0.003273
# 4 0.000053 0.004818 -0.008194 0.048004 -0.003761 -0.005083
# 5 -0.000506 -0.000657 -0.001668 -0.003761 0.024486 0.003280
# 6 -0.005279 -0.001468 0.003273 -0.005083 0.003280 0.025364
#
#
# Mechanical properties :
#
#
# Convention : Reuss Voigt Hill
#
# Bulk Modulus (GPa) = 51.33143 65.84881 58.59012
# Shear Modulus (GPa) = 28.15279 35.43044 31.79162
#
# Velocity S-wave (km/s) = 3.60569 4.04498 3.83164
# Velocity P-wave (km/s) = 6.40622 7.22668 6.82878
#
# Compressibility (1/GPa) = 0.01948124
#
# Stress axis : x y z
#
# Youngs Moduli (GPa) = 88.74517 93.64720 40.94724
#
# Poissons Ratio (x) = 0.24260 0.26506
# Poissons Ratio (y) = 0.22990 0.17934
# Poissons Ratio (z) = 0.57446 0.41016
#
# Static dielectric constant tensor:
#      x y z
#    x -5.806140 5.278740 4.695350 
#    y 5.278740 1.626150 -2.653930 
#    z 4.695350 -2.653930 2.655610 
# 
# 
# High freq. dielectric constant tensor:
#      x y z
#    x 1.864940 0.002910 0.011900 
#    y 0.002910 1.857410 0.000220 
#    z 0.011900 0.000220 1.844650 
# 
# From -- ./inp_files/271989.got.cif
#   From: 2010.06.25/outbox.cif.g09.slc.cpg/sg2_136_cif.got.tgz:271989.got - 2010.06.27 13:26:56.
