data_PCOD8034731
_publ_section_title
;
Structure prediction by ZEFSAII (Michael W. Deem and Ramdas Pophale) SiO2 
 PCOD8034731
Probable space group: P -1
;
_chemical_formula_sum "Si O2"
_cell_formula_units_Z 16
_cell_length_a 11.721165
_cell_length_b 17.107443
_cell_length_c 8.955302
_cell_angle_alpha 147.569352
_cell_angle_beta 51.528258
_cell_angle_gamma 128.635748
_cell_volume 732.573041
_symmetry_space_group_name_H-M "P -1"
_symmetry_group_IT_number 2
_symmetry_cell_setting 'triclinic'
loop_
_space_group_symop_operation_xyz
x,y,z
-x,-y,-z
loop_
_atom_site_type_symbol
_atom_site_label
_atom_site_fract_x
_atom_site_fract_y
_atom_site_fract_z
Si Si1 0.038106 0.650117 0.803925
Si Si2 0.414440 0.127395 0.408443
Si Si3 0.086059 0.904800 0.674010
Si Si4 0.402458 0.852288 0.417004
Si Si5 0.649376 0.218371 0.132353
Si Si6 0.618000 0.416318 0.201486
Si Si7 0.918894 0.615576 0.182212
Si Si8 0.893877 0.899526 0.301603
O O1 0.216663 0.701520 0.740530
O O2 0.000000 0.500000 0.500000
O O3 0.964115 0.640462 0.012774
O O4 0.976025 0.776496 0.970496
O O5 0.546849 0.157477 0.470190
O O6 0.488592 0.204207 0.319289
O O7 0.268383 0.194013 0.655674
O O8 0.338586 0.950029 0.178819
O O9 0.225203 0.853424 0.557681
O O10 0.962365 0.765209 0.486508
O O11 0.151817 0.004731 0.640257
O O12 0.000000 0.000000 0.000000
O O13 0.500000 0.000000 0.500000
O O14 0.443135 0.706930 0.074193
O O15 0.673907 0.319327 0.127509
O O16 0.500000 0.500000 0.500000
O O17 0.743081 0.547445 0.236454
O O18 0.000000 0.500000 0.000000
O O19 0.000000 0.000000 0.500000
#
# Coordination Sequence:
#
# PCOD8034731 Si02
#       8
#     2   2   2   2   2   2   2   2
#     4  12  28  46  72 103 142 188 239 297 362 425
#     4  11  25  43  75 101 142 184 235 298 352 412
#     4  12  28  44  78 112 139 191 251 295 359 434
#     4  12  24  48  71 103 147 186 239 300 351 423
#     4  11  24  46  67 104 140 184 234 289 360 419
#     4  12  28  45  73 104 149 192 236 290 367 435
#     4  12  25  49  71  99 150 190 233 300 363 421
#     4  12  24  47  71 103 141 185 244 294 348 426
#
# _framework density 21.840826
#
# number of rings (size 3 to 8) (size 9 to 14) (size 15 to 20)
#    0.000    0.250    7.500    0.000    8.750    1.000 
#    0.000    1.250    0.000    0.000    0.000    0.000 
#    0.000    0.000    0.000    0.000    0.000    0.000 
#
# Total GULP energy -198347.059846 kJ/mol
# GULP energy per Si atom -12396.691240 kJ/mol
# Density = 2.179112 g / cm^3
# Si number density = 21.840826 Si / 1000 Ang^3
#
#
#
# Elastic Constant Matrix: (Units=GPa)
#
#
# Indices 1 2 3 4 5 6 
#
# 1 83.6278 17.3072 20.4091 3.5740 16.7605 17.4254
# 2 17.3072 102.7725 31.0656 0.1425 6.2391 22.3801
# 3 20.4091 31.0656 139.6238 15.2627 22.8680 26.5151
# 4 3.5740 0.1425 15.2627 39.4635 5.3322 -0.8400
# 5 16.7605 6.2391 22.8680 5.3322 33.8875 -0.0097
# 6 17.4254 22.3801 26.5151 -0.8400 -0.0097 37.3169
#
#
#
# Elastic Compliance Matrix: (Units=1/GPa)
#
#
# Indices 1 2 3 4 5 6 
#
# 1 0.014967 -0.000720 0.000626 -0.000720 -0.007581 -0.007020
# 2 -0.000720 0.011530 -0.001283 0.000533 -0.000987 -0.005656
# 3 0.000626 -0.001283 0.010020 -0.003215 -0.006331 -0.006716
# 4 -0.000720 0.000533 -0.003215 0.026953 -0.001813 0.002907
# 5 -0.007581 -0.000987 -0.006331 -0.001813 0.038001 0.008599
# 6 -0.007020 -0.005656 -0.006716 0.002907 0.008599 0.038307
#
#
# Mechanical properties :
#
#
# Convention : Reuss Voigt Hill
#
# Bulk Modulus (GPa) = 29.61771 51.50977 40.56374
# Shear Modulus (GPa) = 32.51277 39.28306 35.89792
#
# Velocity S-wave (km/s) = 3.86245 4.24560 4.05855
# Velocity P-wave (km/s) = 5.78632 6.90426 6.36987
#
# Compressibility (1/GPa) = 0.03376359
#
# Stress axis : x y z
#
# Youngs Moduli (GPa) = 66.81413 86.73093 99.80196
#
# Poissons Ratio (x) = 0.06242 -0.06247
# Poissons Ratio (y) = 0.04809 0.12802
# Poissons Ratio (z) = -0.04182 0.11125
#
# Static dielectric constant tensor:
#      x y z
#    x 3.921470 -0.126580 0.067250 
#    y -0.126580 3.530970 0.006390 
#    z 0.067250 0.006390 3.927870 
# 
# 
# High freq. dielectric constant tensor:
#      x y z
#    x 1.860740 0.006540 -0.002470 
#    y 0.006540 1.872210 -0.001920 
#    z -0.002470 -0.001920 1.862110 
# 
# From -- ./inp_files/280221.got.cif
#   From: 2010.06.25/outbox.cif.g09.slc.cpg/sg2_141_cif.got.tgz:280221.got - 2010.06.27 13:26:56.
