data_PCOD8034736
_publ_section_title
;
Structure prediction by ZEFSAII (Michael W. Deem and Ramdas Pophale) SiO2 
 PCOD8034736
Probable space group: P -1
;
_chemical_formula_sum "Si O2"
_cell_formula_units_Z 14
_cell_length_a 13.869570
_cell_length_b 14.657027
_cell_length_c 8.379340
_cell_angle_alpha 48.561605
_cell_angle_beta 103.152191
_cell_angle_gamma 140.183829
_cell_volume 663.193602
_symmetry_space_group_name_H-M "P -1"
_symmetry_group_IT_number 2
_symmetry_cell_setting 'triclinic'
loop_
_space_group_symop_operation_xyz
x,y,z
-x,-y,-z
loop_
_atom_site_type_symbol
_atom_site_label
_atom_site_fract_x
_atom_site_fract_y
_atom_site_fract_z
Si Si1 0.784697 0.301540 0.101915
Si Si2 0.291014 0.290708 0.696272
Si Si3 0.985657 0.986335 0.694121
Si Si4 0.785309 0.988678 0.781900
Si Si5 0.484524 0.801534 0.695816
Si Si6 0.082883 0.485496 0.429340
Si Si7 0.760012 0.556376 0.246432
O O1 0.692721 0.316239 0.152207
O O2 0.647091 0.048831 0.386728
O O3 0.784941 0.324007 0.883231
O O4 0.000000 0.500000 0.000000
O O5 0.500000 0.500000 0.500000
O O6 0.178663 0.218975 0.583775
O O7 0.283624 0.380441 0.726596
O O8 0.216467 0.081600 0.967265
O O9 0.847039 0.952988 0.717675
O O10 0.000000 0.000000 0.500000
O O11 0.932552 0.791923 0.942320
O O12 0.920873 0.244630 0.555169
O O13 0.581541 0.822757 0.845830
O O14 0.407923 0.639132 0.712634
O O15 0.202291 0.525960 0.544936
O O16 0.000000 0.500000 0.500000
#
# Coordination Sequence:
#
# PCOD8034736 Si02
#       7
#     2   2   2   2   2   2   2
#     4  11  25  48  70 100 145 187 238 293 351 418
#     4  11  25  44  68 102 140 182 230 290 357 425
#     4  11  25  44  72 100 137 187 230 288 365 415
#     4  11  24  46  68 101 143 179 237 292 348 430
#     4  11  27  44  72 107 136 187 244 291 351 425
#     4  12  25  44  74 100 142 193 232 292 362 416
#     4  11  25  45  66 101 141 173 236 290 349 424
#
# _framework density 21.109976
#
# number of rings (size 3 to 8) (size 9 to 14) (size 15 to 20)
#    0.000    0.857    4.286    1.714   10.000    4.000 
#    0.000    0.000    0.000    0.000    0.000    0.000 
#    0.000    0.000    0.000    0.000    0.000    0.000 
#
# Total GULP energy -173468.980230 kJ/mol
# GULP energy per Si atom -12390.641445 kJ/mol
# Density = 2.106193 g / cm^3
# Si number density = 21.109976 Si / 1000 Ang^3
#
#
#
# Elastic Constant Matrix: (Units=GPa)
#
#
# Indices 1 2 3 4 5 6 
#
# 1 64.3249 62.3450 87.9181 2.4244 20.8994 43.4279
# 2 62.3450 149.7836 34.8687 5.5938 -10.3482 -3.9493
# 3 87.9181 34.8687 95.3490 18.7248 -32.4344 -30.2968
# 4 2.4244 5.5938 18.7248 40.7417 0.9096 -1.4678
# 5 20.8994 -10.3482 -32.4344 0.9096 23.6682 -19.1387
# 6 43.4279 -3.9493 -30.2968 -1.4678 -19.1387 16.5517
#
#
#
# Elastic Compliance Matrix: (Units=1/GPa)
#
#
# Indices 1 2 3 4 5 6 
#
# 1 0.003047 -0.001232 0.003705 -0.001603 0.008866 0.008603
# 2 -0.001232 0.007711 -0.003044 0.000366 -0.001610 -0.002329
# 3 0.003705 -0.003044 0.004495 -0.002046 -0.004704 -0.007840
# 4 -0.001603 0.000366 -0.002046 0.025653 0.001060 0.004049
# 5 0.008866 -0.001610 -0.004704 0.001060 0.018812 -0.010411
# 6 0.008603 -0.002329 -0.007840 0.004049 -0.010411 0.011258
#
#
# Mechanical properties :
#
#
# Convention : Reuss Voigt Hill
#
# Bulk Modulus (GPa) = 70.85822 75.52455 73.19139
# Shear Modulus (GPa) = 65.08617 24.48069 44.78343
#
# Velocity S-wave (km/s) = 5.55868 3.40909 4.61090
# Velocity P-wave (km/s) = 8.65087 7.16591 7.94317
#
# Compressibility (1/GPa) = 0.01411269
#
# Stress axis : x y z
#
# Youngs Moduli (GPa) = 328.16916 129.68068 222.46688
#
# Poissons Ratio (x) = 0.15972 -0.82426
# Poissons Ratio (y) = 0.40418 0.67717
# Poissons Ratio (z) = -1.21590 0.39474
#
# Static dielectric constant tensor:
#      x y z
#    x 4.020550 0.128350 0.305060 
#    y 0.128350 3.946460 0.215470 
#    z 0.305060 0.215470 4.413670 
# 
# 
# High freq. dielectric constant tensor:
#      x y z
#    x 1.831260 0.002560 0.007420 
#    y 0.002560 1.838500 0.006400 
#    z 0.007420 0.006400 1.835640 
# 
# From -- ./inp_files/314680.got.cif
#   From: 2010.06.25/outbox.cif.g09.slc.cpg/sg2_158_cif.got.tgz:314680.got - 2010.06.27 13:26:56.
