data_PCOD8034233
_publ_section_title
;
Structure prediction by ZEFSAII (Michael W. Deem and Ramdas Pophale) SiO2 
 PCOD8034233
Probable space group: P -1
;
_chemical_formula_sum "Si O2"
_cell_formula_units_Z 14
_cell_length_a 9.668790
_cell_length_b 18.478800
_cell_length_c 6.400416
_cell_angle_alpha 52.047607
_cell_angle_beta 134.536042
_cell_angle_gamma 129.767967
_cell_volume 596.962690
_symmetry_space_group_name_H-M "P -1"
_symmetry_group_IT_number 2
_symmetry_cell_setting 'triclinic'
loop_
_space_group_symop_operation_xyz
x,y,z
-x,-y,-z
loop_
_atom_site_type_symbol
_atom_site_label
_atom_site_fract_x
_atom_site_fract_y
_atom_site_fract_z
Si Si1 0.641615 0.603087 0.882778
Si Si2 0.348907 0.957091 0.616617
Si Si3 0.880409 0.828989 0.356665
Si Si4 0.079588 0.379631 0.179908
Si Si5 0.566712 0.735250 0.867871
Si Si6 0.411403 0.129924 0.696307
Si Si7 0.329085 0.592374 0.215542
O O1 0.855373 0.597392 0.034430
O O2 0.707186 0.684542 0.987469
O O3 0.523452 0.631240 0.510077
O O4 0.500000 0.500000 0.000000
O O5 0.105850 0.906044 0.386428
O O6 0.500000 0.000000 0.500000
O O7 0.343740 0.032312 0.657372
O O8 0.425048 0.874480 0.946968
O O9 0.890444 0.720705 0.551214
O O10 0.791729 0.857097 0.430147
O O11 0.713807 0.826002 0.004594
O O12 0.238004 0.472818 0.315824
O O13 0.844073 0.369082 0.953583
O O14 0.470454 0.780813 0.498659
O O15 0.391025 0.648026 0.960587
#
# Coordination Sequence:
#
# PCOD8034233 Si02
#       7
#     2   2   2   2   2   2   2
#     4  12  23  44  69 100 146 191 236 287 345 409
#     4  11  28  51  76 103 142 180 230 302 363 418
#     4  12  26  46  73 106 141 188 237 285 357 422
#     4  11  24  44  69 102 143 192 233 286 344 412
#     4  12  24  44  74 103 144 186 234 291 342 423
#     4  11  26  49  74 107 137 183 235 293 355 429
#     4  11  25  46  65 105 151 186 236 289 344 407
#
# _framework density 23.452051999999998
#
# number of rings (size 3 to 8) (size 9 to 14) (size 15 to 20)
#    0.000    0.571    4.286    2.571    6.000    5.143 
#    2.571    0.000    0.000    0.000    0.000    0.000 
#    0.000    0.000    0.000    0.000    0.000    0.000 
#
# Total GULP energy -173462.752002 kJ/mol
# GULP energy per Si atom -12390.196572 kJ/mol
# Density = 2.339867 g / cm^3
# Si number density = 23.452052 Si / 1000 Ang^3
#
#
#
# Elastic Constant Matrix: (Units=GPa)
#
#
# Indices 1 2 3 4 5 6 
#
# 1 182.9798 47.6179 52.9445 -2.6623 -3.9121 -10.7574
# 2 47.6179 86.2208 25.6699 2.3599 0.4809 -13.7510
# 3 52.9445 25.6699 92.9369 -18.6379 -17.8052 3.8178
# 4 -2.6623 2.3599 -18.6379 32.5653 3.5841 -4.5261
# 5 -3.9121 0.4809 -17.8052 3.5841 33.4453 -5.2971
# 6 -10.7574 -13.7510 3.8178 -4.5261 -5.2971 39.2914
#
#
#
# Elastic Compliance Matrix: (Units=1/GPa)
#
#
# Indices 1 2 3 4 5 6 
#
# 1 0.007315 -0.002656 -0.003882 -0.001170 -0.000857 0.001200
# 2 -0.002656 0.014902 -0.003580 -0.002581 -0.001467 0.004341
# 3 -0.003882 -0.003580 0.017227 0.008699 0.007524 -0.001973
# 4 -0.001170 -0.002581 0.008699 0.035972 0.001027 0.002213
# 5 -0.000857 -0.001467 0.007524 0.001027 0.034231 0.003254
# 6 0.001200 0.004341 -0.001973 0.002213 0.003254 0.028184
#
#
# Mechanical properties :
#
#
# Convention : Reuss Voigt Hill
#
# Bulk Modulus (GPa) = 52.05936 68.28910 60.17423
# Shear Modulus (GPa) = 30.40092 36.78741 33.59417
#
# Velocity S-wave (km/s) = 3.60432 3.96488 3.78889
# Velocity P-wave (km/s) = 6.29031 7.08111 6.69739
#
# Compressibility (1/GPa) = 0.01920884
#
# Stress axis : x y z
#
# Youngs Moduli (GPa) = 136.71403 67.10560 58.04799
#
# Poissons Ratio (x) = 0.17822 0.22532
# Poissons Ratio (y) = 0.36309 0.20781
# Poissons Ratio (z) = 0.53066 0.24024
#
# Static dielectric constant tensor:
#      x y z
#    x 4.631620 -0.461260 -0.033040 
#    y -0.461260 4.405660 -0.162350 
#    z -0.033040 -0.162350 4.301250 
# 
# 
# High freq. dielectric constant tensor:
#      x y z
#    x 1.947940 -0.016240 -0.009930 
#    y -0.016240 1.936580 -0.017750 
#    z -0.009930 -0.017750 1.912120 
# 
# From -- ./inp_files/46904.got.cif
#   From: 2010.06.25/outbox.cif.g09.slc.cpg/sg2_24_cif.got.tgz:46904.got - 2010.06.27 13:26:56.
