data_PCOD8034133
_publ_section_title
;
Structure prediction by ZEFSAII (Michael W. Deem and Ramdas Pophale) SiO2 
 PCOD8034133
Probable space group: P -1
;
_chemical_formula_sum "Si O2"
_cell_formula_units_Z 16
_cell_length_a 12.193537
_cell_length_b 13.691112
_cell_length_c 5.611351
_cell_angle_alpha 94.730921
_cell_angle_beta 65.378197
_cell_angle_gamma 127.436554
_cell_volume 656.996472
_symmetry_space_group_name_H-M "P -1"
_symmetry_group_IT_number 2
_symmetry_cell_setting 'triclinic'
loop_
_space_group_symop_operation_xyz
x,y,z
-x,-y,-z
loop_
_atom_site_type_symbol
_atom_site_label
_atom_site_fract_x
_atom_site_fract_y
_atom_site_fract_z
Si Si1 0.026012 0.846773 0.357160
Si Si2 0.153235 0.111458 0.748821
Si Si3 0.302137 0.995792 0.454235
Si Si4 0.619950 0.243619 0.192075
Si Si5 0.613257 0.606591 0.227188
Si Si6 0.144109 0.394815 0.237018
Si Si7 0.877261 0.247387 0.134068
Si Si8 0.379419 0.638176 0.282404
O O1 0.921818 0.891289 0.434878
O O2 0.942113 0.744888 0.619319
O O3 0.205137 0.959223 0.290009
O O4 0.029746 0.788478 0.097478
O O5 0.267821 0.078290 0.645125
O O6 0.248340 0.254374 0.775675
O O7 0.000000 0.000000 0.000000
O O8 0.487307 0.091058 0.266013
O O9 0.252894 0.870093 0.602583
O O10 0.787389 0.275925 0.047070
O O11 0.604946 0.296135 0.466730
O O12 0.603432 0.293653 0.968989
O O13 0.500000 0.500000 0.500000
O O14 0.509205 0.619458 0.147555
O O15 0.695375 0.555449 0.023109
O O16 0.203518 0.501657 0.406389
O O17 0.012915 0.376328 0.180234
#
# Coordination Sequence:
#
# PCOD8034133 Si02
#       8
#     2   2   2   2   2   2   2   2
#     4  11  24  43  74 105 151 193 249 313 388 452
#     4  12  22  42  74 109 152 190 249 316 386 457
#     4  11  25  44  72 107 148 196 252 315 380 454
#     4  12  30  48  76 109 155 201 259 312 370 450
#     4  12  25  48  79 112 158 197 246 319 396 463
#     4  11  26  47  77 106 145 196 251 312 386 458
#     4  11  26  50  72 106 146 205 252 312 378 445
#     4  12  29  49  76 113 150 198 252 312 377 454
#
# _framework density 24.353251
#
# number of rings (size 3 to 8) (size 9 to 14) (size 15 to 20)
#    0.000    0.500    3.750    3.375   10.500    1.500 
#    0.000    0.000    0.000    0.000    0.000    0.000 
#    0.000    0.000    0.000    0.000    0.000    0.000 
#
# Total GULP energy -198213.374647 kJ/mol
# GULP energy per Si atom -12388.335915 kJ/mol
# Density = 2.429782 g / cm^3
# Si number density = 24.353251 Si / 1000 Ang^3
#
#
#
# Elastic Constant Matrix: (Units=GPa)
#
#
# Indices 1 2 3 4 5 6 
#
# 1 154.1428 24.6806 29.7610 -14.5629 17.2559 18.8536
# 2 24.6806 132.3293 30.2506 -12.7357 6.8658 32.3289
# 3 29.7610 30.2506 73.6819 -2.3896 14.9601 3.9301
# 4 -14.5629 -12.7357 -2.3896 23.7581 5.5694 5.4760
# 5 17.2559 6.8658 14.9601 5.5694 36.8737 -0.9219
# 6 18.8536 32.3289 3.9301 5.4760 -0.9219 29.9862
#
#
#
# Elastic Compliance Matrix: (Units=1/GPa)
#
#
# Indices 1 2 3 4 5 6 
#
# 1 0.009643 0.002957 -0.002979 0.011109 -0.005809 -0.011068
# 2 0.002957 0.014624 -0.004642 0.014938 -0.004977 -0.019898
# 3 -0.002979 -0.004642 0.017170 -0.002764 -0.004165 0.005004
# 4 0.011109 0.014938 -0.002764 0.069176 -0.018205 -0.035919
# 5 -0.005809 -0.004977 -0.004165 -0.018205 0.035554 0.013982
# 6 -0.011068 -0.019898 0.005004 -0.035919 0.013982 0.068093
#
#
# Mechanical properties :
#
#
# Convention : Reuss Voigt Hill
#
# Bulk Modulus (GPa) = 31.14405 58.83760 44.99082
# Shear Modulus (GPa) = 21.34110 36.48772 28.91441
#
# Velocity S-wave (km/s) = 2.96347 3.87495 3.44945
# Velocity P-wave (km/s) = 4.95235 6.65077 5.86338
#
# Compressibility (1/GPa) = 0.03210887
#
# Stress axis : x y z
#
# Youngs Moduli (GPa) = 103.70518 68.38298 58.24154
#
# Poissons Ratio (x) = -0.20220 0.17348
# Poissons Ratio (y) = -0.30665 0.27035
# Poissons Ratio (z) = 0.30891 0.31742
#
# Static dielectric constant tensor:
#      x y z
#    x 5.492540 0.463770 0.142210 
#    y 0.463770 4.650700 -0.049950 
#    z 0.142210 -0.049950 4.122810 
# 
# 
# High freq. dielectric constant tensor:
#      x y z
#    x 1.985330 0.020880 0.008420 
#    y 0.020880 1.985540 -0.007540 
#    z 0.008420 -0.007540 1.943880 
# 
# From -- ./inp_files/69019.got.cif
#   From: 2010.06.25/outbox.cif.g09.slc.cpg/sg2_35_cif.got.tgz:69019.got - 2010.06.27 13:26:56.
