data_PCOD8034672
_publ_section_title
;
Structure prediction by ZEFSAII (Michael W. Deem and Ramdas Pophale) SiO2 
 PCOD8034672
Probable space group: P -1
;
_chemical_formula_sum "Si O2"
_cell_formula_units_Z 16
_cell_length_a 8.560000
_cell_length_b 9.098474
_cell_length_c 14.302489
_cell_angle_alpha 110.615367
_cell_angle_beta 40.952306
_cell_angle_gamma 110.318879
_cell_volume 677.314253
_symmetry_space_group_name_H-M "P -1"
_symmetry_group_IT_number 2
_symmetry_cell_setting 'triclinic'
loop_
_space_group_symop_operation_xyz
x,y,z
-x,-y,-z
loop_
_atom_site_type_symbol
_atom_site_label
_atom_site_fract_x
_atom_site_fract_y
_atom_site_fract_z
Si Si1 0.779475 0.660009 0.757856
Si Si2 0.118576 0.820189 0.800414
Si Si3 0.087983 0.171338 0.904941
Si Si4 0.448830 0.609232 0.305461
Si Si5 0.984952 0.167401 0.644528
Si Si6 0.344263 0.828558 0.033795
Si Si7 0.448655 0.372720 0.417016
Si Si8 0.116607 0.849675 0.518228
O O1 0.725074 0.469250 0.718949
O O2 0.983939 0.712015 0.754690
O O3 0.862566 0.750672 0.643190
O O4 0.523951 0.700493 0.915713
O O5 0.370249 0.758598 0.694798
O O6 0.174421 0.007258 0.792070
O O7 0.942017 0.817336 0.967930
O O8 0.283240 0.320362 0.826799
O O9 0.835943 0.191018 0.975812
O O10 0.467757 0.461103 0.329856
O O11 0.324430 0.751595 0.440568
O O12 0.180156 0.305247 0.551389
O O13 0.800934 0.215883 0.815102
O O14 0.837060 0.116303 0.605655
O O15 0.115422 0.025574 0.600351
O O16 0.500000 0.000000 0.000000
O O17 0.500000 0.500000 0.500000
#
# Coordination Sequence:
#
# PCOD8034672 Si02
#       8
#     2   2   2   2   2   2   2   2
#     4  12  25  46  74 109 145 193 236 304 360 425
#     4  11  26  46  76 103 146 192 249 292 355 432
#     4  11  26  48  74 107 143 194 240 300 362 427
#     4  12  27  46  73 106 153 190 235 303 365 430
#     4  11  25  43  75 109 136 192 242 296 353 427
#     4  12  24  46  76 106 145 184 247 298 358 426
#     4  12  26  44  70 105 149 190 237 298 361 430
#     4  11  24  45  74 104 144 188 244 292 355 425
#
# _framework density 23.622713999999998
#
# number of rings (size 3 to 8) (size 9 to 14) (size 15 to 20)
#    0.000    0.500    3.750    3.375    3.500    3.500 
#    0.000    3.750    0.000    0.000    0.000    0.000 
#    0.000    0.000    0.000    0.000    0.000    0.000 
#
# Total GULP energy -198317.707166 kJ/mol
# GULP energy per Si atom -12394.856698 kJ/mol
# Density = 2.356895 g / cm^3
# Si number density = 23.622714 Si / 1000 Ang^3
#
#
#
# Elastic Constant Matrix: (Units=GPa)
#
#
# Indices 1 2 3 4 5 6 
#
# 1 84.0468 26.0320 27.8606 -12.4321 2.9710 1.8171
# 2 26.0320 85.6647 35.6530 -30.7468 -3.3653 10.0889
# 3 27.8606 35.6530 131.0674 -12.8638 -1.4950 -9.7823
# 4 -12.4321 -30.7468 -12.8638 44.0101 -2.9345 -9.9343
# 5 2.9710 -3.3653 -1.4950 -2.9345 32.6480 6.3684
# 6 1.8171 10.0889 -9.7823 -9.9343 6.3684 41.0139
#
#
#
# Elastic Compliance Matrix: (Units=1/GPa)
#
#
# Indices 1 2 3 4 5 6 
#
# 1 0.013710 -0.003022 -0.001988 0.001115 -0.001585 0.000178
# 2 -0.003022 0.018319 -0.003519 0.010423 0.003571 -0.003242
# 3 -0.001988 -0.003519 0.009295 0.000424 -0.000368 0.003331
# 4 0.001115 0.010423 0.000424 0.031701 0.002922 0.004713
# 5 -0.001585 0.003571 -0.000368 0.002922 0.032406 -0.005220
# 6 0.000178 -0.003242 0.003331 0.004713 -0.005220 0.027918
#
#
# Mechanical properties :
#
#
# Convention : Reuss Voigt Hill
#
# Bulk Modulus (GPa) = 41.20749 53.31894 47.26321
# Shear Modulus (GPa) = 31.54632 37.61662 34.58147
#
# Velocity S-wave (km/s) = 3.65831 3.99481 3.83026
# Velocity P-wave (km/s) = 5.94358 6.62556 6.29381
#
# Compressibility (1/GPa) = 0.02426743
#
# Stress axis : x y z
#
# Youngs Moduli (GPa) = 72.93873 54.58707 107.57928
#
# Poissons Ratio (x) = 0.16496 0.21383
# Poissons Ratio (y) = 0.22042 0.37859
# Poissons Ratio (z) = 0.14497 0.19210
#
# Static dielectric constant tensor:
#      x y z
#    x 1.859210 0.024840 0.118200 
#    y 0.024840 4.400810 0.141750 
#    z 0.118200 0.141750 4.445190 
# 
# 
# High freq. dielectric constant tensor:
#      x y z
#    x 1.928310 0.001910 0.002990 
#    y 0.001910 1.943720 0.001790 
#    z 0.002990 0.001790 1.949380 
# 
# From -- ./inp_files/298052.got.cif
#   From: 2010.06.25/outbox.cif.g09.slc.cpg/sg2_150_cif.got.tgz:298052.got - 2010.06.27 13:26:56.
