data_PCOD8034552
_publ_section_title
;
Structure prediction by ZEFSAII (Michael W. Deem and Ramdas Pophale) SiO2 
 PCOD8034552
Probable space group: P -1
;
_chemical_formula_sum "Si O2"
_cell_formula_units_Z 16
_cell_length_a 19.234160
_cell_length_b 6.569735
_cell_length_c 7.642784
_cell_angle_alpha 61.855764
_cell_angle_beta 97.987401
_cell_angle_gamma 124.599038
_cell_volume 689.832945
_symmetry_space_group_name_H-M "P -1"
_symmetry_group_IT_number 2
_symmetry_cell_setting 'triclinic'
loop_
_space_group_symop_operation_xyz
x,y,z
-x,-y,-z
loop_
_atom_site_type_symbol
_atom_site_label
_atom_site_fract_x
_atom_site_fract_y
_atom_site_fract_z
Si Si1 0.806405 0.234124 0.844775
Si Si2 0.113658 0.322934 0.775285
Si Si3 0.844213 0.802170 0.522057
Si Si4 0.419166 0.182004 0.576284
Si Si5 0.927282 0.114770 0.771313
Si Si6 0.626100 0.791564 0.829403
Si Si7 0.760936 0.091286 0.271909
Si Si8 0.486609 0.857225 0.869875
O O1 0.797249 0.487288 0.704728
O O2 0.887403 0.286158 0.744211
O O3 0.721810 0.945578 0.867069
O O4 0.815456 0.210500 0.064205
O O5 0.110633 0.166679 0.660248
O O6 0.198207 0.644509 0.685680
O O7 0.029244 0.324750 0.751510
O O8 0.115415 0.158102 0.009211
O O9 0.911663 0.022945 0.599778
O O10 0.770782 0.854300 0.449206
O O11 0.500000 0.500000 0.500000
O O12 0.371452 0.177806 0.389272
O O13 0.341159 0.056581 0.741008
O O14 0.453200 0.983347 0.667149
O O15 0.578875 0.932457 0.821242
O O16 0.580717 0.476160 0.010055
O O17 0.500000 0.000000 0.000000
#
# Coordination Sequence:
#
# PCOD8034552 Si02
#       8
#     2   2   2   2   2   2   2   2
#     4  12  27  46  74 106 149 190 242 298 360 432
#     4  11  25  48  74 110 147 191 247 296 361 431
#     4  12  25  47  76 106 146 198 239 296 363 425
#     4  12  26  45  72 103 140 185 237 296 360 429
#     4  11  25  46  76 110 147 192 242 301 359 430
#     4  11  26  44  69 104 136 187 235 292 362 423
#     4  12  28  47  72 107 146 192 244 299 361 436
#     4  11  24  45  70  98 137 181 233 295 357 429
#
# _framework density 23.194018
#
# number of rings (size 3 to 8) (size 9 to 14) (size 15 to 20)
#    0.000    0.500    3.750    3.750    5.250    6.500 
#    0.000    0.000    0.000    0.000    0.000    0.000 
#    0.000    0.000    0.000    0.000    0.000    0.000 
#
# Total GULP energy -198450.690714 kJ/mol
# GULP energy per Si atom -12403.168170 kJ/mol
# Density = 2.314123 g / cm^3
# Si number density = 23.194018 Si / 1000 Ang^3
#
#
#
# Elastic Constant Matrix: (Units=GPa)
#
#
# Indices 1 2 3 4 5 6 
#
# 1 128.1266 44.6688 33.8669 -13.1848 7.2591 -4.2213
# 2 44.6688 95.0883 35.9194 -0.2325 3.0794 -5.0213
# 3 33.8669 35.9194 96.8993 -0.2879 14.3948 -8.8438
# 4 -13.1848 -0.2325 -0.2879 45.2234 -8.4171 -2.9305
# 5 7.2591 3.0794 14.3948 -8.4171 42.1190 -1.3324
# 6 -4.2213 -5.0213 -8.8438 -2.9305 -1.3324 36.9407
#
#
#
# Elastic Compliance Matrix: (Units=1/GPa)
#
#
# Indices 1 2 3 4 5 6 
#
# 1 0.010014 -0.003926 -0.001977 0.002877 -0.000177 0.000359
# 2 -0.003926 0.013801 -0.003824 -0.000918 0.000806 0.000468
# 3 -0.001977 -0.003824 0.013227 -0.001125 -0.004056 0.002185
# 4 0.002877 -0.000918 -0.001125 0.023965 0.004808 0.002009
# 5 -0.000177 0.000806 -0.004056 0.004808 0.026075 0.000440
# 6 0.000359 0.000468 0.002185 0.002009 0.000440 0.027874
#
#
# Mechanical properties :
#
#
# Convention : Reuss Voigt Hill
#
# Bulk Modulus (GPa) = 56.85196 61.00271 58.92733
# Shear Modulus (GPa) = 35.64520 38.56721 37.10621
#
# Velocity S-wave (km/s) = 3.92449 4.08218 4.00411
# Velocity P-wave (km/s) = 6.71567 6.96972 6.84388
#
# Compressibility (1/GPa) = 0.01758954
#
# Stress axis : x y z
#
# Youngs Moduli (GPa) = 99.86140 72.45646 75.60251
#
# Poissons Ratio (x) = 0.28443 0.14948
# Poissons Ratio (y) = 0.39201 0.28908
# Poissons Ratio (z) = 0.19744 0.27705
#
# Static dielectric constant tensor:
#      x y z
#    x 4.652110 -0.340700 0.259840 
#    y -0.340700 4.087530 -0.035150 
#    z 0.259840 -0.035150 4.381030 
# 
# 
# High freq. dielectric constant tensor:
#      x y z
#    x 1.922890 -0.005390 0.006620 
#    y -0.005390 1.912960 0.003440 
#    z 0.006620 0.003440 1.935350 
# 
# From -- ./inp_files/323332.got.cif
#   From: 2010.06.25/outbox.cif.g09.slc.cpg/sg2_162_cif.got.tgz:323332.got - 2010.06.27 13:26:56.
