data_PCOD8034104
_publ_section_title
;
Structure prediction by ZEFSAII (Michael W. Deem and Ramdas Pophale) SiO2 
 PCOD8034104
Probable space group: P -1
;
_chemical_formula_sum "Si O2"
_cell_formula_units_Z 16
_cell_length_a 23.744276
_cell_length_b 9.604163
_cell_length_c 15.581090
_cell_angle_alpha 27.959273
_cell_angle_beta 153.298082
_cell_angle_gamma 134.711612
_cell_volume 684.072059
_symmetry_space_group_name_H-M "P -1"
_symmetry_group_IT_number 2
_symmetry_cell_setting 'triclinic'
loop_
_space_group_symop_operation_xyz
x,y,z
-x,-y,-z
loop_
_atom_site_type_symbol
_atom_site_label
_atom_site_fract_x
_atom_site_fract_y
_atom_site_fract_z
Si Si1 0.114843 0.751523 0.731870
Si Si2 0.303329 0.883652 0.618459
Si Si3 0.576300 0.852764 0.772293
Si Si4 0.577542 0.582687 0.635996
Si Si5 0.940096 0.885571 0.709486
Si Si6 0.792115 0.106240 0.877017
Si Si7 0.868190 0.933479 0.882707
Si Si8 0.420440 0.267473 0.680245
O O1 0.133265 0.950730 0.567687
O O2 0.260592 0.589438 0.067012
O O3 0.074018 0.455239 0.814002
O O4 0.000000 0.000000 0.500000
O O5 0.165626 0.995205 0.423392
O O6 0.255094 0.927890 0.430003
O O7 0.383475 0.116806 0.623885
O O8 0.399491 0.516889 0.975772
O O9 0.500000 0.000000 0.500000
O O10 0.481343 0.037475 0.624265
O O11 0.721497 0.886629 0.944215
O O12 0.500000 0.500000 0.500000
O O13 0.528768 0.429073 0.732561
O O14 0.000000 0.500000 0.000000
O O15 0.054956 0.024698 0.806655
O O16 0.718797 0.479706 0.604348
O O17 0.796445 0.100915 0.782423
O O18 0.000000 0.000000 0.000000
O O19 0.500000 0.000000 0.000000
#
# Coordination Sequence:
#
# PCOD8034104 Si02
#       8
#     2   2   2   2   2   2   2   2
#     4  12  29  47  76 105 149 191 240 302 365 433
#     4  12  24  44  75 107 144 190 239 300 360 428
#     4  11  25  47  71 101 142 190 240 294 361 431
#     4  11  26  48  71 103 141 184 238 295 361 427
#     4  12  24  44  74 106 145 192 245 295 365 431
#     4  11  25  44  71  99 147 188 243 300 357 432
#     4  12  27  45  67 110 149 186 243 299 364 425
#     4  11  24  43  73 100 136 188 241 292 359 428
#
# _framework density 23.389348999999999
#
# number of rings (size 3 to 8) (size 9 to 14) (size 15 to 20)
#    0.000    0.500    2.500    6.000    5.250    2.000 
#    0.000    3.750    0.000    0.000    0.000    0.000 
#    0.000    0.000    0.000    0.000    0.000    0.000 
#
# Total GULP energy -198370.695405 kJ/mol
# GULP energy per Si atom -12398.168463 kJ/mol
# Density = 2.333611 g / cm^3
# Si number density = 23.389349 Si / 1000 Ang^3
#
#
#
# Elastic Constant Matrix: (Units=GPa)
#
#
# Indices 1 2 3 4 5 6 
#
# 1 75.6462 20.5763 25.8248 -8.4119 20.4969 -13.7362
# 2 20.5763 126.0476 47.5055 -7.6280 12.0381 -3.1801
# 3 25.8248 47.5055 117.1338 -19.2016 8.0918 -4.3259
# 4 -8.4119 -7.6280 -19.2016 49.0597 2.9081 3.1782
# 5 20.4969 12.0381 8.0918 2.9081 50.3481 2.5154
# 6 -13.7362 -3.1801 -4.3259 3.1782 2.5154 54.5389
#
#
#
# Elastic Compliance Matrix: (Units=1/GPa)
#
#
# Indices 1 2 3 4 5 6 
#
# 1 0.017118 -0.001019 -0.002424 0.001947 -0.006660 0.004253
# 2 -0.001019 0.009569 -0.003565 -0.000010 -0.001303 0.000079
# 3 -0.002424 -0.003565 0.011076 0.003381 -0.000130 -0.000131
# 4 0.001947 -0.000010 0.003381 0.022220 -0.002596 -0.000417
# 5 -0.006660 -0.001303 -0.000130 -0.002596 0.023190 -0.002682
# 6 0.004253 0.000079 -0.000131 -0.000417 -0.002682 0.019549
#
#
# Mechanical properties :
#
#
# Convention : Reuss Voigt Hill
#
# Bulk Modulus (GPa) = 42.11246 56.29340 49.20293
# Shear Modulus (GPa) = 40.11097 45.78407 42.94752
#
# Velocity S-wave (km/s) = 4.14566 4.42914 4.28974
# Velocity P-wave (km/s) = 6.39995 7.09060 6.75411
#
# Compressibility (1/GPa) = 0.02374594
#
# Stress axis : x y z
#
# Youngs Moduli (GPa) = 58.41862 104.50005 90.28589
#
# Poissons Ratio (x) = 0.10654 0.21887
# Poissons Ratio (y) = 0.05956 0.32186
# Poissons Ratio (z) = 0.14162 0.37254
#
# Static dielectric constant tensor:
#      x y z
#    x 2.109220 -3.707330 0.551940 
#    y -3.707330 -0.828300 0.649480 
#    z 0.551940 0.649480 4.071170 
# 
# 
# High freq. dielectric constant tensor:
#      x y z
#    x 1.942640 0.006110 0.002630 
#    y 0.006110 1.942300 -0.001670 
#    z 0.002630 -0.001670 1.927880 
# 
# From -- ./inp_files/542635.got.cif
#   From: 2010.06.25/outbox.cif.g09.slc.cpg/sg2_272_cif.got.tgz:542635.got - 2010.06.27 13:26:56.
