data_PCOD8034887
_publ_section_title
;
Structure prediction by ZEFSAII (Michael W. Deem and Ramdas Pophale) SiO2 
 PCOD8034887
Probable space group: P -1
;
_chemical_formula_sum "Si O2"
_cell_formula_units_Z 16
_cell_length_a 18.616516
_cell_length_b 24.803577
_cell_length_c 15.208063
_cell_angle_alpha 19.854743
_cell_angle_beta 29.500112
_cell_angle_gamma 18.321209
_cell_volume 732.856859
_symmetry_space_group_name_H-M "P -1"
_symmetry_group_IT_number 2
_symmetry_cell_setting 'triclinic'
loop_
_space_group_symop_operation_xyz
x,y,z
-x,-y,-z
loop_
_atom_site_type_symbol
_atom_site_label
_atom_site_fract_x
_atom_site_fract_y
_atom_site_fract_z
Si Si1 0.379987 0.476817 0.601501
Si Si2 0.108801 0.540158 0.259039
Si Si3 0.983419 0.907109 0.245589
Si Si4 0.653108 0.978708 0.982609
Si Si5 0.579990 0.999120 0.509129
Si Si6 0.242475 0.760809 0.850111
Si Si7 0.685727 0.003133 0.715106
Si Si8 0.109307 0.496915 0.968818
O O1 0.500000 0.500000 0.500000
O O2 0.174696 0.607316 0.686958
O O3 0.251260 0.634844 0.404672
O O4 0.561547 0.181386 0.841257
O O5 0.366614 0.273474 0.360630
O O6 0.000000 0.500000 0.500000
O O7 0.928323 0.709572 0.111024
O O8 0.113377 0.711142 0.033511
O O9 0.816334 0.903260 0.401385
O O10 0.880803 0.081804 0.171045
O O11 0.000000 0.000000 0.000000
O O12 0.520063 0.923920 0.223450
O O13 0.610262 0.096141 0.753194
O O14 0.500000 0.000000 0.500000
O O15 0.654521 0.783954 0.816424
O O16 0.257379 0.882630 0.571433
O O17 0.500000 0.500000 0.000000
O O18 0.915444 0.694556 0.946408
O O19 0.000000 0.500000 0.000000
#
# Coordination Sequence:
#
# PCOD8034887 Si02
#       8
#     2   2   2   2   2   2   2   2
#     4  12  26  45  73 104 142 192 241 296 357 431
#     4  12  27  45  72 106 148 192 237 291 366 430
#     4  12  28  48  72 109 145 190 243 302 364 428
#     4  11  25  44  72 107 141 184 243 299 353 435
#     4  12  27  47  72 107 144 189 236 302 362 430
#     4  12  25  47  72 100 144 190 232 293 363 429
#     4  11  24  46  74 104 138 188 242 295 361 423
#     4  12  22  47  75  97 139 188 242 287 357 426
#
# _framework density 21.832367000000001
#
# number of rings (size 3 to 8) (size 9 to 14) (size 15 to 20)
#    0.000    0.250    5.000    3.000    5.250    1.500 
#    0.000    0.000    0.000    0.000    0.000    0.000 
#    0.000    0.000    0.000    0.000    0.000    0.000 
#
# Total GULP energy -198277.238969 kJ/mol
# GULP energy per Si atom -12392.327436 kJ/mol
# Density = 2.178268 g / cm^3
# Si number density = 21.832367 Si / 1000 Ang^3
#
#
#
# Elastic Constant Matrix: (Units=GPa)
#
#
# Indices 1 2 3 4 5 6 
#
# 1 149.2445 41.6858 65.3606 11.1578 -9.6200 -18.2237
# 2 41.6858 92.2694 40.2561 -0.6450 0.2868 -12.5783
# 3 65.3606 40.2561 125.7486 17.3536 2.2364 -9.6776
# 4 11.1578 -0.6450 17.3536 50.0923 -7.5711 4.9266
# 5 -9.6200 0.2868 2.2364 -7.5711 44.5886 -1.5342
# 6 -18.2237 -12.5783 -9.6776 4.9266 -1.5342 46.2337
#
#
#
# Elastic Compliance Matrix: (Units=1/GPa)
#
#
# Indices 1 2 3 4 5 6 
#
# 1 0.009587 -0.002253 -0.004019 -0.000675 0.002255 0.002472
# 2 -0.002253 0.013543 -0.003233 0.001594 -0.000073 0.001948
# 3 -0.004019 -0.003233 0.011617 -0.003502 -0.002014 0.000274
# 4 -0.000675 0.001594 -0.003502 0.022181 0.003690 -0.002806
# 5 0.002255 -0.000073 -0.002014 0.003690 0.023671 0.000840
# 6 0.002472 0.001948 0.000274 -0.002806 0.000840 0.023518
#
#
# Mechanical properties :
#
#
# Convention : Reuss Voigt Hill
#
# Bulk Modulus (GPa) = 63.54458 73.54084 68.54271
# Shear Modulus (GPa) = 38.94939 42.84692 40.89816
#
# Velocity S-wave (km/s) = 4.22835 4.43486 4.33284
# Velocity P-wave (km/s) = 7.28062 7.74477 7.51628
#
# Compressibility (1/GPa) = 0.01573698
#
# Stress axis : x y z
#
# Youngs Moduli (GPa) = 104.30540 73.83806 86.08383
#
# Poissons Ratio (x) = 0.16634 0.34595
# Poissons Ratio (y) = 0.23498 0.27834
# Poissons Ratio (z) = 0.41918 0.23875
#
# Static dielectric constant tensor:
#      x y z
#    x 3.937020 -0.043930 0.076330 
#    y -0.043930 4.082310 -0.016850 
#    z 0.076330 -0.016850 3.795310 
# 
# 
# High freq. dielectric constant tensor:
#      x y z
#    x 1.867170 -0.008380 -0.000420 
#    y -0.008380 1.874320 -0.004470 
#    z -0.000420 -0.004470 1.864160 
# 
# From -- ./inp_files/403334.got.cif
#   From: 2010.06.25/outbox.cif.g09.slc.cpg/sg2_202_cif.got.tgz:403334.got - 2010.06.27 13:26:56.
