data_PCOD8034514
_publ_section_title
;
Structure prediction by ZEFSAII (Michael W. Deem and Ramdas Pophale) SiO2 
 PCOD8034514
Probable space group: P -1
;
_chemical_formula_sum "Si O2"
_cell_formula_units_Z 14
_cell_length_a 12.514185
_cell_length_b 11.997406
_cell_length_c 9.832841
_cell_angle_alpha 46.096204
_cell_angle_beta 121.553881
_cell_angle_gamma 145.503108
_cell_volume 598.201414
_symmetry_space_group_name_H-M "P -1"
_symmetry_group_IT_number 2
_symmetry_cell_setting 'triclinic'
loop_
_space_group_symop_operation_xyz
x,y,z
-x,-y,-z
loop_
_atom_site_type_symbol
_atom_site_label
_atom_site_fract_x
_atom_site_fract_y
_atom_site_fract_z
Si Si1 0.322614 0.724838 0.638493
Si Si2 0.912658 0.279025 0.343859
Si Si3 0.701608 0.430190 0.532314
Si Si4 0.375205 0.999982 0.826819
Si Si5 0.887993 0.906234 0.650248
Si Si6 0.449864 0.567051 0.031417
Si Si7 0.262015 0.181435 0.776104
O O1 0.146931 0.663815 0.623041
O O2 0.247502 0.556986 0.601365
O O3 0.500000 0.000000 0.500000
O O4 0.369078 0.651762 0.853078
O O5 0.142448 0.491641 0.321618
O O6 0.822049 0.247304 0.163066
O O7 0.839054 0.038665 0.534139
O O8 0.506195 0.158666 0.651037
O O9 0.671434 0.582863 0.415165
O O10 0.335717 0.126082 0.764119
O O11 0.500000 0.000000 0.000000
O O12 0.691893 0.631702 0.776772
O O13 0.000000 0.000000 0.500000
O O14 0.032468 0.970572 0.805224
O O15 0.652982 0.790028 0.047168
O O16 0.500000 0.500000 0.000000
#
# Coordination Sequence:
#
# PCOD8034514 Si02
#       7
#     2   2   2   2   2   2   2
#     4  12  24  48  69 100 144 189 239 291 354 422
#     4  11  24  45  69  99 139 179 230 295 350 418
#     4  11  25  44  70  97 137 191 231 288 354 416
#     4  12  25  42  67 104 140 182 233 288 354 417
#     4  11  25  47  73 105 140 182 238 292 352 425
#     4  12  26  46  72 105 143 186 236 292 354 422
#     4  11  25  43  73 103 138 184 237 289 352 426
#
# _framework density 23.403489
#
# number of rings (size 3 to 8) (size 9 to 14) (size 15 to 20)
#    0.000    0.571    4.286    3.429    4.000    2.286 
#    2.571    0.000    0.000    0.000    0.000    0.000 
#    0.000    0.000    0.000    0.000    0.000    0.000 
#
# Total GULP energy -173487.363822 kJ/mol
# GULP energy per Si atom -12391.954559 kJ/mol
# Density = 2.335022 g / cm^3
# Si number density = 23.403489 Si / 1000 Ang^3
#
#
#
# Elastic Constant Matrix: (Units=GPa)
#
#
# Indices 1 2 3 4 5 6 
#
# 1 145.5943 31.6864 50.4207 9.1969 15.1908 -15.7131
# 2 31.6864 109.2591 33.0639 37.3943 2.8512 3.9623
# 3 50.4207 33.0639 77.8591 22.9179 12.2724 8.9227
# 4 9.1969 37.3943 22.9179 51.4378 3.7404 4.9803
# 5 15.1908 2.8512 12.2724 3.7404 39.9601 9.1746
# 6 -15.7131 3.9623 8.9227 4.9803 9.1746 35.8402
#
#
#
# Elastic Compliance Matrix: (Units=1/GPa)
#
#
# Indices 1 2 3 4 5 6 
#
# 1 0.010764 -0.001892 -0.007062 0.002155 -0.003672 0.007327
# 2 -0.001892 0.013166 -0.002020 -0.008340 0.001407 -0.000983
# 3 -0.007062 -0.002020 0.021027 -0.005860 -0.001494 -0.006911
# 4 0.002155 -0.008340 -0.005860 0.027828 -0.000962 -0.000295
# 5 -0.003672 0.001407 -0.001494 -0.000962 0.028854 -0.008646
# 6 0.007327 -0.000983 -0.006911 -0.000295 -0.008646 0.035197
#
#
# Mechanical properties :
#
#
# Convention : Reuss Voigt Hill
#
# Bulk Modulus (GPa) = 43.46217 62.56163 53.01190
# Shear Modulus (GPa) = 30.03837 39.95041 34.99439
#
# Velocity S-wave (km/s) = 3.58648 4.13610 3.87106
# Velocity P-wave (km/s) = 5.98010 7.04270 6.53304
#
# Compressibility (1/GPa) = 0.02300851
#
# Stress axis : x y z
#
# Youngs Moduli (GPa) = 92.90638 75.95369 47.55752
#
# Poissons Ratio (x) = 0.14369 0.33586
# Poissons Ratio (y) = 0.17576 0.09607
# Poissons Ratio (z) = 0.65612 0.15343
#
# Static dielectric constant tensor:
#      x y z
#    x 4.395180 0.081370 0.291100 
#    y 0.081370 4.468940 0.373540 
#    z 0.291100 0.373540 4.308800 
# 
# 
# High freq. dielectric constant tensor:
#      x y z
#    x 1.943560 0.000020 0.023550 
#    y 0.000020 1.936190 0.026170 
#    z 0.023550 0.026170 1.907190 
# 
# From -- ./inp_files/261789.got.cif
#   From: 2010.06.25/outbox.cif.g09.slc.cpg/sg2_131_cif.got.tgz:261789.got - 2010.06.27 13:26:56.
