data_PCOD8034743
_publ_section_title
;
Structure prediction by ZEFSAII (Michael W. Deem and Ramdas Pophale) SiO2 
 PCOD8034743
Probable space group: P -1
;
_chemical_formula_sum "Si O2"
_cell_formula_units_Z 16
_cell_length_a 9.056329
_cell_length_b 12.624735
_cell_length_c 8.113229
_cell_angle_alpha 60.366460
_cell_angle_beta 119.913825
_cell_angle_gamma 99.026802
_cell_volume 693.903051
_symmetry_space_group_name_H-M "P -1"
_symmetry_group_IT_number 2
_symmetry_cell_setting 'triclinic'
loop_
_space_group_symop_operation_xyz
x,y,z
-x,-y,-z
loop_
_atom_site_type_symbol
_atom_site_label
_atom_site_fract_x
_atom_site_fract_y
_atom_site_fract_z
Si Si1 0.379397 0.849504 0.991689
Si Si2 0.735110 0.370764 0.528049
Si Si3 0.965424 0.340961 0.382600
Si Si4 0.919078 0.611485 0.100862
Si Si5 0.571765 0.132752 0.635837
Si Si6 0.723226 0.000107 0.512685
Si Si7 0.689430 0.642609 0.250824
Si Si8 0.017769 0.807651 0.791770
O O1 0.339232 0.923820 0.743463
O O2 0.204113 0.795716 0.989834
O O3 0.420598 0.923738 0.126831
O O4 0.528799 0.741844 0.117720
O O5 0.797081 0.345875 0.395920
O O6 0.598838 0.275682 0.567590
O O7 0.639838 0.509653 0.382976
O O8 0.910771 0.355643 0.738501
O O9 0.945332 0.469101 0.169929
O O10 0.146754 0.322355 0.587656
O O11 0.954132 0.219353 0.364431
O O12 0.747541 0.638556 0.095338
O O13 0.900383 0.704485 0.866450
O O14 0.709755 0.068146 0.630720
O O15 0.390240 0.114567 0.465365
O O16 0.921443 0.944368 0.655156
#
# Coordination Sequence:
#
# PCOD8034743 Si02
#       8
#     2   2   2   2   2   2   2   2
#     4  12  25  45  68  99 129 170 223 269 322 385
#     4   9  18  42  66  98 128 168 213 263 326 388
#     4   9  19  39  67  96 135 167 205 268 324 391
#     4   9  19  39  66  97 131 169 209 255 334 391
#     4  11  24  46  68  93 131 170 224 269 320 387
#     4  11  28  45  63  94 134 172 220 276 320 375
#     4   9  21  40  70  95 132 169 207 267 327 387
#     4  12  23  42  63  97 129 171 218 267 321 387
#
# _framework density 23.057977000000001
#
# number of rings (size 3 to 8) (size 9 to 14) (size 15 to 20)
#    0.000    1.750    1.250    4.125    3.500    1.000 
#    6.750    1.875    0.000    0.000    0.000    0.000 
#    0.000    0.000    0.000    0.000    0.000    0.000 
#
# Total GULP energy -198222.031647 kJ/mol
# GULP energy per Si atom -12388.876978 kJ/mol
# Density = 2.300550 g / cm^3
# Si number density = 23.057977 Si / 1000 Ang^3
#
#
#
# Elastic Constant Matrix: (Units=GPa)
#
#
# Indices 1 2 3 4 5 6 
#
# 1 81.7968 24.1300 40.3877 -9.2957 14.3998 -20.8662
# 2 24.1300 81.2412 18.6684 4.1576 13.9532 -20.4652
# 3 40.3877 18.6684 81.6726 -13.6733 8.5659 -25.6144
# 4 -9.2957 4.1576 -13.6733 27.6975 -7.9864 -0.4820
# 5 14.3998 13.9532 8.5659 -7.9864 36.0311 -2.4237
# 6 -20.8662 -20.4652 -25.6144 -0.4820 -2.4237 45.7014
#
#
#
# Elastic Compliance Matrix: (Units=1/GPa)
#
#
# Indices 1 2 3 4 5 6 
#
# 1 0.017933 -0.002426 -0.006529 0.002063 -0.003999 0.003252
# 2 -0.002426 0.015798 -0.001143 -0.005313 -0.005720 0.004967
# 3 -0.006529 -0.001143 0.019310 0.007845 0.000701 0.007450
# 4 0.002063 -0.005313 0.007845 0.044258 0.009442 0.003927
# 5 -0.003999 -0.005720 0.000701 0.009442 0.033350 -0.002126
# 6 0.003252 0.004967 0.007450 0.003927 -0.002126 0.029694
#
#
# Mechanical properties :
#
#
# Convention : Reuss Voigt Hill
#
# Bulk Modulus (GPa) = 30.44598 45.67588 38.06093
# Shear Modulus (GPa) = 26.11155 32.65430 29.38293
#
# Velocity S-wave (km/s) = 3.36881 3.76730 3.57362
# Velocity P-wave (km/s) = 5.32584 6.22700 5.79397
#
# Compressibility (1/GPa) = 0.03284506
#
# Stress axis : x y z
#
# Youngs Moduli (GPa) = 55.76445 63.30082 51.78626
#
# Poissons Ratio (x) = 0.15354 0.33809
# Poissons Ratio (y) = 0.13526 0.05921
# Poissons Ratio (z) = 0.36407 0.07238
#
# Static dielectric constant tensor:
#      x y z
#    x 4.333380 0.068640 -0.255140 
#    y 0.068640 4.191740 0.037560 
#    z -0.255140 0.037560 3.920100 
# 
# 
# High freq. dielectric constant tensor:
#      x y z
#    x 1.919490 0.001270 -0.015810 
#    y 0.001270 1.911510 0.001060 
#    z -0.015810 0.001060 1.894920 
# 
# From -- ./inp_files/185329.got.cif
#   From: 2010.06.25/outbox.cif.g09.slc.cpg/sg2_93_cif.got.tgz:185329.got - 2010.06.27 13:26:56.
