data_PCOD8034541
_publ_section_title
;
Structure prediction by ZEFSAII (Michael W. Deem and Ramdas Pophale) SiO2 
 PCOD8034541
Probable space group: P -1
;
_chemical_formula_sum "Si O2"
_cell_formula_units_Z 14
_cell_length_a 12.236506
_cell_length_b 8.300349
_cell_length_c 7.845703
_cell_angle_alpha 54.902026
_cell_angle_beta 115.609757
_cell_angle_gamma 100.092772
_cell_volume 585.014414
_symmetry_space_group_name_H-M "P -1"
_symmetry_group_IT_number 2
_symmetry_cell_setting 'triclinic'
loop_
_space_group_symop_operation_xyz
x,y,z
-x,-y,-z
loop_
_atom_site_type_symbol
_atom_site_label
_atom_site_fract_x
_atom_site_fract_y
_atom_site_fract_z
Si Si1 0.656674 0.850993 0.035931
Si Si2 0.376937 0.850451 0.883156
Si Si3 0.159099 0.865592 0.510276
Si Si4 0.801446 0.475380 0.515764
Si Si5 0.034721 0.572232 0.793802
Si Si6 0.774069 0.770865 0.822201
Si Si7 0.630037 0.499743 0.679163
O O1 0.704528 0.629826 0.260210
O O2 0.691872 0.003786 0.110672
O O3 0.511709 0.892373 0.901321
O O4 0.706712 0.896181 0.854591
O O5 0.301211 0.867282 0.648914
O O6 0.375801 0.627072 0.079239
O O7 0.146684 0.712340 0.443674
O O8 0.080956 0.792940 0.663555
O O9 0.128734 0.093457 0.286426
O O10 0.732574 0.401511 0.679732
O O11 0.920786 0.576399 0.589110
O O12 0.149528 0.414831 0.919696
O O13 0.000000 0.500000 0.000000
O O14 0.675281 0.707109 0.653128
O O15 0.500000 0.500000 0.500000
#
# Coordination Sequence:
#
# PCOD8034541 Si02
#       7
#     2   2   2   2   2   2   2
#     4  11  25  44  73 105 145 186 240 296 354 426
#     4  11  24  45  70 107 145 187 238 296 358 420
#     4  12  27  46  75 105 143 191 236 294 359 420
#     4  12  24  47  72 104 145 186 239 295 352 422
#     4  12  26  50  73 104 145 187 242 294 351 425
#     4  12  27  48  72 109 144 188 241 292 358 423
#     4  12  24  44  72 104 145 191 233 295 357 420
#
# _framework density 23.931034
#
# number of rings (size 3 to 8) (size 9 to 14) (size 15 to 20)
#    0.000    0.286    5.714    2.143    4.000    2.857 
#    2.571    0.000    0.000    0.000    0.000    0.000 
#    0.000    0.000    0.000    0.000    0.000    0.000 
#
# Total GULP energy -173500.517104 kJ/mol
# GULP energy per Si atom -12392.894079 kJ/mol
# Density = 2.387657 g / cm^3
# Si number density = 23.931034 Si / 1000 Ang^3
#
#
#
# Elastic Constant Matrix: (Units=GPa)
#
#
# Indices 1 2 3 4 5 6 
#
# 1 103.3616 19.1393 7.5522 5.4692 -19.5649 8.1789
# 2 19.1393 82.1870 6.9654 -1.6908 -5.4727 16.7404
# 3 7.5522 6.9654 55.9597 -2.2993 -4.8859 14.1865
# 4 5.4692 -1.6908 -2.2993 44.3306 14.0482 -5.7291
# 5 -19.5649 -5.4727 -4.8859 14.0482 47.5431 5.9841
# 6 8.1789 16.7404 14.1865 -5.7291 5.9841 34.6699
#
#
#
# Elastic Compliance Matrix: (Units=1/GPa)
#
#
# Indices 1 2 3 4 5 6 
#
# 1 0.011661 -0.001629 -0.000059 -0.003954 0.006235 -0.003670
# 2 -0.001629 0.014080 0.000417 -0.000832 0.002132 -0.007090
# 3 -0.000059 0.000417 0.020485 -0.001305 0.003701 -0.009424
# 4 -0.003954 -0.000832 -0.001305 0.027519 -0.011036 0.008321
# 5 0.006235 0.002132 0.003701 -0.011036 0.028848 -0.010817
# 6 -0.003670 -0.007090 -0.009424 0.008321 -0.010817 0.040231
#
#
# Mechanical properties :
#
#
# Convention : Reuss Voigt Hill
#
# Bulk Modulus (GPa) = 22.89198 34.31357 28.60277
# Shear Modulus (GPa) = 31.26443 39.16549 35.21496
#
# Velocity S-wave (km/s) = 3.61839 4.04988 3.84020
# Velocity P-wave (km/s) = 5.20034 6.01983 5.62503
#
# Compressibility (1/GPa) = 0.04368342
#
# Stress axis : x y z
#
# Youngs Moduli (GPa) = 85.75908 71.02036 48.81714
#
# Poissons Ratio (x) = 0.11570 0.00286
# Poissons Ratio (y) = 0.13971 -0.02034
# Poissons Ratio (z) = 0.00503 -0.02959
#
# Static dielectric constant tensor:
#      x y z
#    x 4.533630 0.035430 0.027650 
#    y 0.035430 4.403910 -0.079510 
#    z 0.027650 -0.079510 4.548440 
# 
# 
# High freq. dielectric constant tensor:
#      x y z
#    x 1.954520 0.010990 -0.011520 
#    y 0.010990 1.945590 0.004000 
#    z -0.011520 0.004000 1.952900 
# 
# From -- ./inp_files/242270.got.cif
#   From: 2010.06.25/outbox.cif.g09.slc.cpg/sg2_122_cif.got.tgz:242270.got - 2010.06.27 13:26:56.
