data_PCOD8034466
_publ_section_title
;
Structure prediction by ZEFSAII (Michael W. Deem and Ramdas Pophale) SiO2 
 PCOD8034466
Probable space group: P -1
;
_chemical_formula_sum "Si O2"
_cell_formula_units_Z 16
_cell_length_a 15.754297
_cell_length_b 13.552684
_cell_length_c 16.665560
_cell_angle_alpha 144.863488
_cell_angle_beta 25.622912
_cell_angle_gamma 127.309943
_cell_volume 752.485566
_symmetry_space_group_name_H-M "P -1"
_symmetry_group_IT_number 2
_symmetry_cell_setting 'triclinic'
loop_
_space_group_symop_operation_xyz
x,y,z
-x,-y,-z
loop_
_atom_site_type_symbol
_atom_site_label
_atom_site_fract_x
_atom_site_fract_y
_atom_site_fract_z
Si Si1 0.721112 0.413230 0.306601
Si Si2 0.861264 0.430100 0.622861
Si Si3 0.245157 0.823755 0.574087
Si Si4 0.072306 0.124752 0.691205
Si Si5 0.277694 0.861151 0.743967
Si Si6 0.721507 0.799062 0.586358
Si Si7 0.809946 0.904800 0.750508
Si Si8 0.496227 0.874713 0.265205
O O1 0.500000 0.500000 0.500000
O O2 0.654617 0.302455 0.354858
O O3 0.735865 0.591164 0.452635
O O4 0.957446 0.280065 0.966378
O O5 0.751432 0.341373 0.597256
O O6 0.000000 0.500000 0.500000
O O7 0.029200 0.270922 0.440642
O O8 0.659693 0.632749 0.969889
O O9 0.365548 0.742831 0.504887
O O10 0.365492 0.929471 0.498230
O O11 0.993630 0.999766 0.928007
O O12 0.121934 0.222704 0.637879
O O13 0.314087 0.932470 0.386687
O O14 0.891573 0.062191 0.779939
O O15 0.379196 0.001739 0.769988
O O16 0.835349 0.824710 0.585738
O O17 0.457273 0.982395 0.918768
#
# Coordination Sequence:
#
# PCOD8034466 Si02
#       8
#     2   2   2   2   2   2   2   2
#     4  12  24  46  70  98 135 180 231 275 340 397
#     4  12  24  43  71 100 138 178 221 273 343 407
#     4  11  24  45  67  98 137 180 221 279 337 398
#     4  12  24  46  71  97 139 177 229 279 334 405
#     4  11  25  45  67  99 141 173 227 283 331 399
#     4  11  26  45  73  99 134 183 225 285 336 391
#     4  11  25  48  67 102 140 171 231 280 336 404
#     4  12  24  44  72 100 137 182 222 273 342 403
#
# _framework density 21.262865999999999
#
# number of rings (size 3 to 8) (size 9 to 14) (size 15 to 20)
#    0.000    0.500    5.000    3.000    1.750    0.000 
#    4.500    0.000    0.000    0.000    0.000    0.000 
#    0.000    0.000    0.000    0.000    0.000    0.000 
#
# Total GULP energy -198349.892883 kJ/mol
# GULP energy per Si atom -12396.868305 kJ/mol
# Density = 2.121447 g / cm^3
# Si number density = 21.262866 Si / 1000 Ang^3
#
#
#
# Elastic Constant Matrix: (Units=GPa)
#
#
# Indices 1 2 3 4 5 6 
#
# 1 133.9531 53.9930 35.6223 3.3473 10.7200 -8.1314
# 2 53.9930 142.7465 26.8283 -10.0293 6.2506 -21.5450
# 3 35.6223 26.8283 81.3858 10.4081 6.8982 -8.9462
# 4 3.3473 -10.0293 10.4081 45.2347 0.1452 -0.2807
# 5 10.7200 6.2506 6.8982 0.1452 26.1302 -7.8491
# 6 -8.1314 -21.5450 -8.9462 -0.2807 -7.8491 29.9326
#
#
#
# Elastic Compliance Matrix: (Units=1/GPa)
#
#
# Indices 1 2 3 4 5 6 
#
# 1 0.009737 -0.003250 -0.003003 -0.000749 -0.002823 -0.001339
# 2 -0.003250 0.009549 -0.001532 0.002743 0.001203 0.005874
# 3 -0.003003 -0.001532 0.014930 -0.003535 -0.001703 0.002064
# 4 -0.000749 0.002743 -0.003535 0.023588 0.000797 0.001145
# 5 -0.002823 0.001203 -0.001703 0.000797 0.042839 0.010831
# 6 -0.001339 0.005874 0.002064 0.001145 0.010831 0.040740
#
#
# Mechanical properties :
#
#
# Convention : Reuss Voigt Hill
#
# Bulk Modulus (GPa) = 53.63007 65.66360 59.64684
# Shear Modulus (GPa) = 30.64315 36.36895 33.50605
#
# Velocity S-wave (km/s) = 3.80038 4.14024 3.97394
# Velocity P-wave (km/s) = 6.67340 7.33514 7.01208
#
# Compressibility (1/GPa) = 0.01864626
#
# Stress axis : x y z
#
# Youngs Moduli (GPa) = 102.70059 104.72062 66.97997
#
# Poissons Ratio (x) = 0.34031 0.20112
# Poissons Ratio (y) = 0.33375 0.10265
# Poissons Ratio (z) = 0.30838 0.16048
#
# Static dielectric constant tensor:
#      x y z
#    x 3.916630 0.006120 -0.327100 
#    y 0.006120 3.747760 -0.209350 
#    z -0.327100 -0.209350 2.969340 
# 
# 
# High freq. dielectric constant tensor:
#      x y z
#    x 1.841910 -0.001550 0.001320 
#    y -0.001550 1.850720 -0.012430 
#    z 0.001320 -0.012430 1.834780 
# 
# From -- ./inp_files/532705.got.cif
#   From: 2010.06.25/outbox.cif.g09.slc.cpg/sg2_267_cif.got.tgz:532705.got - 2010.06.27 13:26:56.
