data_PCOD8034356
_publ_section_title
;
Structure prediction by ZEFSAII (Michael W. Deem and Ramdas Pophale) SiO2 
 PCOD8034356
Probable space group: P -1
;
_chemical_formula_sum "Si O2"
_cell_formula_units_Z 16
_cell_length_a 10.929313
_cell_length_b 20.908576
_cell_length_c 8.851270
_cell_angle_alpha 33.276223
_cell_angle_beta 136.656892
_cell_angle_gamma 126.529326
_cell_volume 761.279712
_symmetry_space_group_name_H-M "P -1"
_symmetry_group_IT_number 2
_symmetry_cell_setting 'triclinic'
loop_
_space_group_symop_operation_xyz
x,y,z
-x,-y,-z
loop_
_atom_site_type_symbol
_atom_site_label
_atom_site_fract_x
_atom_site_fract_y
_atom_site_fract_z
Si Si1 0.009997 0.881656 0.654584
Si Si2 0.070006 0.609735 0.756302
Si Si3 0.332371 0.721430 0.292620
Si Si4 0.688935 0.736219 0.723425
Si Si5 0.181576 0.513498 0.724346
Si Si6 0.159369 0.975694 0.303372
Si Si7 0.735614 0.766576 0.055480
Si Si8 0.633410 0.248920 0.089821
O O1 0.816758 0.828804 0.581802
O O2 0.000000 0.000000 0.500000
O O3 0.071648 0.903585 0.499158
O O4 0.150997 0.792008 0.037211
O O5 0.910271 0.705673 0.405841
O O6 0.147880 0.572428 0.738757
O O7 0.229049 0.663827 0.886258
O O8 0.000000 0.500000 0.000000
O O9 0.489582 0.779330 0.415073
O O10 0.311613 0.589064 0.589363
O O11 0.375239 0.726544 0.144432
O O12 0.724520 0.612320 0.919183
O O13 0.715759 0.725571 0.947044
O O14 0.000000 0.500000 0.500000
O O15 0.310907 0.885595 0.552317
O O16 0.248365 0.093819 0.202655
O O17 0.000000 0.000000 0.000000
O O18 0.563869 0.726256 0.071903
#
# Coordination Sequence:
#
# PCOD8034356 Si02
#       8
#     2   2   2   2   2   2   2   2
#     4  11  24  45  68  99 134 176 226 276 334 397
#     4  12  27  45  71 100 136 180 224 277 339 397
#     4  11  26  44  69 102 135 177 226 276 337 395
#     4  12  26  45  72  99 136 178 226 280 335 394
#     4  12  23  46  73  97 135 178 226 280 332 397
#     4  11  24  44  72  97 135 178 222 275 338 397
#     4  12  25  46  70 101 135 180 224 276 338 398
#     4  11  27  45  68 102 140 174 224 279 333 403
#
# _framework density 21.017240999999999
#
# number of rings (size 3 to 8) (size 9 to 14) (size 15 to 20)
#    0.000    0.500    5.000    2.250    5.250    2.000 
#    0.000    0.000    0.000    0.000    0.000    0.000 
#    0.000    0.000    0.000    0.000    0.000    0.000 
#
# Total GULP energy -198484.538627 kJ/mol
# GULP energy per Si atom -12405.283664 kJ/mol
# Density = 2.096940 g / cm^3
# Si number density = 21.017241 Si / 1000 Ang^3
#
#
#
# Elastic Constant Matrix: (Units=GPa)
#
#
# Indices 1 2 3 4 5 6 
#
# 1 98.3081 38.9694 23.6549 -4.0295 -2.8811 18.9508
# 2 38.9694 125.4026 45.3879 -4.8125 2.7122 23.7529
# 3 23.6549 45.3879 73.7775 -5.9703 -9.6436 7.8194
# 4 -4.0295 -4.8125 -5.9703 45.9611 0.6589 2.8575
# 5 -2.8811 2.7122 -9.6436 0.6589 29.7392 -3.7767
# 6 18.9508 23.7529 7.8194 2.8575 -3.7767 42.0574
#
#
#
# Elastic Compliance Matrix: (Units=1/GPa)
#
#
# Indices 1 2 3 4 5 6 
#
# 1 0.012383 -0.002354 -0.002009 0.000818 0.000248 -0.003910
# 2 -0.002354 0.012194 -0.006716 0.000568 -0.004164 -0.004990
# 3 -0.002009 -0.006716 0.019159 0.001409 0.006809 0.001652
# 4 0.000818 0.000568 0.001409 0.022231 -0.000324 -0.002491
# 5 0.000248 -0.004164 0.006809 -0.000324 0.036791 0.004300
# 6 -0.003910 -0.004990 0.001652 -0.002491 0.004300 0.028605
#
#
# Mechanical properties :
#
#
# Convention : Reuss Voigt Hill
#
# Bulk Modulus (GPa) = 46.34557 57.05696 51.70126
# Shear Modulus (GPa) = 31.11102 36.18329 33.64715
#
# Velocity S-wave (km/s) = 3.85159 4.15372 4.00550
# Velocity P-wave (km/s) = 6.47138 7.08598 6.78564
#
# Compressibility (1/GPa) = 0.02157704
#
# Stress axis : x y z
#
# Youngs Moduli (GPa) = 80.75405 82.00896 52.19432
#
# Poissons Ratio (x) = 0.19309 0.10485
# Poissons Ratio (y) = 0.19013 0.35055
# Poissons Ratio (z) = 0.16223 0.55079
#
# Static dielectric constant tensor:
#      x y z
#    x 3.857070 0.029660 -0.091200 
#    y 0.029660 3.904500 -0.009910 
#    z -0.091200 -0.009910 3.926910 
# 
# 
# High freq. dielectric constant tensor:
#      x y z
#    x 1.834360 0.005510 0.001200 
#    y 0.005510 1.836400 -0.001100 
#    z 0.001200 -0.001100 1.833960 
# 
# From -- ./inp_files/282665.got.cif
#   From: 2010.06.25/outbox.cif.g09.slc.cpg/sg2_142_cif.got.tgz:282665.got - 2010.06.27 13:26:56.
