data_PCOD8034890
_publ_section_title
;
Structure prediction by ZEFSAII (Michael W. Deem and Ramdas Pophale) SiO2 
 PCOD8034890
Probable space group: P -1
;
_chemical_formula_sum "Si O2"
_cell_formula_units_Z 16
_cell_length_a 18.732429
_cell_length_b 18.708016
_cell_length_c 5.428149
_cell_angle_alpha 46.383416
_cell_angle_beta 124.766614
_cell_angle_gamma 152.032949
_cell_volume 641.571929
_symmetry_space_group_name_H-M "P -1"
_symmetry_group_IT_number 2
_symmetry_cell_setting 'triclinic'
loop_
_space_group_symop_operation_xyz
x,y,z
-x,-y,-z
loop_
_atom_site_type_symbol
_atom_site_label
_atom_site_fract_x
_atom_site_fract_y
_atom_site_fract_z
Si Si1 0.771422 0.060281 0.776483
Si Si2 0.630430 0.761949 0.512994
Si Si3 0.318738 0.480508 0.295536
Si Si4 0.090034 0.339360 0.559634
Si Si5 0.159535 0.204298 0.289217
Si Si6 0.489426 0.208671 0.417212
Si Si7 0.828907 0.303601 0.583211
Si Si8 0.730695 0.307272 0.866488
O O1 0.820566 0.178499 0.815142
O O2 0.906468 0.173841 0.570650
O O3 0.618821 0.957200 0.581947
O O4 0.730531 0.914723 0.147386
O O5 0.456327 0.580845 0.511515
O O6 0.724947 0.749161 0.770191
O O7 0.620821 0.812888 0.625812
O O8 0.177701 0.408376 0.310835
O O9 0.251465 0.312824 0.465140
O O10 0.375380 0.608501 0.892953
O O11 0.138152 0.489221 0.413795
O O12 0.132934 0.287433 0.934969
O O13 0.000000 0.000000 0.500000
O O14 0.565367 0.208076 0.773090
O O15 0.734538 0.236065 0.809732
O O16 0.000000 0.500000 0.500000
O O17 0.755347 0.282874 0.241005
#
# Coordination Sequence:
#
# PCOD8034890 Si02
#       8
#     2   2   2   2   2   2   2   2
#     4  11  28  46  74 114 153 203 254 331 384 460
#     4  11  25  48  72 105 158 196 257 316 388 468
#     4  11  24  46  74 104 152 204 252 313 389 465
#     4  12  25  46  76 109 150 203 253 321 384 464
#     4  12  26  44  71 116 144 200 257 319 388 462
#     4  11  26  49  76 111 152 207 254 316 399 457
#     4  12  28  49  80 119 155 206 265 324 397 465
#     4  12  26  50  82 112 157 206 264 322 391 473
#
# _framework density 24.938745999999998
#
# number of rings (size 3 to 8) (size 9 to 14) (size 15 to 20)
#    0.000    0.500    5.000    1.500    5.250    5.500 
#    0.000    0.000    0.000    0.000    0.000    0.000 
#    0.000    0.000    0.000    0.000    0.000    0.000 
#
# Total GULP energy -198365.101326 kJ/mol
# GULP energy per Si atom -12397.818833 kJ/mol
# Density = 2.488198 g / cm^3
# Si number density = 24.938746 Si / 1000 Ang^3
#
#
#
# Elastic Constant Matrix: (Units=GPa)
#
#
# Indices 1 2 3 4 5 6 
#
# 1 147.2435 48.5214 17.4928 -13.0668 -18.4511 -0.3980
# 2 48.5214 143.0824 20.5526 -20.1514 -4.5446 -11.7100
# 3 17.4928 20.5526 65.1249 2.1460 -8.9700 1.8679
# 4 -13.0668 -20.1514 2.1460 30.5276 -3.3173 -6.8945
# 5 -18.4511 -4.5446 -8.9700 -3.3173 36.2526 -4.2564
# 6 -0.3980 -11.7100 1.8679 -6.8945 -4.2564 35.7966
#
#
#
# Elastic Compliance Matrix: (Units=1/GPa)
#
#
# Indices 1 2 3 4 5 6 
#
# 1 0.008380 -0.002114 -0.001135 0.002819 0.004034 0.000483
# 2 -0.002114 0.009404 -0.002667 0.006575 0.000576 0.004527
# 3 -0.001135 -0.002667 0.017058 -0.003635 0.002724 -0.002152
# 4 0.002819 0.006575 -0.003635 0.041794 0.006498 0.011194
# 5 0.004034 0.000576 0.002724 0.006498 0.031576 0.005097
# 6 0.000483 0.004527 -0.002152 0.011194 0.005097 0.032296
#
#
# Mechanical properties :
#
#
# Convention : Reuss Voigt Hill
#
# Bulk Modulus (GPa) = 43.45932 58.73162 51.09547
# Shear Modulus (GPa) = 31.24803 38.44095 34.84449
#
# Velocity S-wave (km/s) = 3.54360 3.93034 3.74197
# Velocity P-wave (km/s) = 5.84868 6.64818 6.26120
#
# Compressibility (1/GPa) = 0.02301003
#
# Stress axis : x y z
#
# Youngs Moduli (GPa) = 119.33357 106.34026 58.62271
#
# Poissons Ratio (x) = 0.22481 0.06653
# Poissons Ratio (y) = 0.25228 0.15635
# Poissons Ratio (z) = 0.13542 0.28361
#
# Static dielectric constant tensor:
#      x y z
#    x 4.588250 -0.063110 0.037480 
#    y -0.063110 4.783640 -0.185710 
#    z 0.037480 -0.185710 4.295880 
# 
# 
# High freq. dielectric constant tensor:
#      x y z
#    x 1.998280 -0.000980 0.002370 
#    y -0.000980 2.009830 -0.010300 
#    z 0.002370 -0.010300 1.980390 
# 
# From -- ./inp_files/111593.got.cif
#   From: 2010.06.25/outbox.cif.g09.slc.cpg/sg2_56_cif.got.tgz:111593.got - 2010.06.27 13:26:56.
