data_PCOD8034519
_publ_section_title
;
Structure prediction by ZEFSAII (Michael W. Deem and Ramdas Pophale) SiO2 
 PCOD8034519
Probable space group: P -1
;
_chemical_formula_sum "Si O2"
_cell_formula_units_Z 16
_cell_length_a 15.795217
_cell_length_b 8.364927
_cell_length_c 13.408868
_cell_angle_alpha 81.147138
_cell_angle_beta 153.504644
_cell_angle_gamma 107.817596
_cell_volume 721.838110
_symmetry_space_group_name_H-M "P -1"
_symmetry_group_IT_number 2
_symmetry_cell_setting 'triclinic'
loop_
_space_group_symop_operation_xyz
x,y,z
-x,-y,-z
loop_
_atom_site_type_symbol
_atom_site_label
_atom_site_fract_x
_atom_site_fract_y
_atom_site_fract_z
Si Si1 0.024688 0.916787 0.138749
Si Si2 0.383545 0.363356 0.193488
Si Si3 0.160800 0.086024 0.464905
Si Si4 0.578610 0.275353 0.802320
Si Si5 0.422060 0.570454 0.814995
Si Si6 0.687328 0.150056 0.235284
Si Si7 0.552658 0.067168 0.439432
Si Si8 0.039708 0.688828 0.673787
O O1 0.074493 0.064107 0.262925
O O2 0.206657 0.849759 0.328942
O O3 0.000000 0.000000 0.000000
O O4 0.844516 0.744667 0.001826
O O5 0.443177 0.554827 0.292586
O O6 0.418020 0.411234 0.107780
O O7 0.502169 0.238228 0.355662
O O8 0.398934 0.223298 0.702441
O O9 0.004971 0.139645 0.361532
O O10 0.165878 0.910732 0.534961
O O11 0.550698 0.104041 0.723233
O O12 0.807304 0.344063 0.082317
O O13 0.431679 0.763050 0.829051
O O14 0.183384 0.464823 0.546304
O O15 0.500000 0.500000 0.000000
O O16 0.845216 0.285279 0.312663
O O17 0.500000 0.000000 0.000000
O O18 0.500000 0.000000 0.500000
#
# Coordination Sequence:
#
# PCOD8034519 Si02
#       8
#     2   2   2   2   2   2   2   2
#     4  11  25  45  75 107 141 190 245 301 366 432
#     4  12  26  47  75 104 147 193 239 302 372 427
#     4  11  24  45  70 101 146 186 244 303 359 434
#     4  11  25  46  70 108 144 186 245 299 354 449
#     4  12  27  46  69 105 149 191 243 297 358 441
#     4  12  25  43  70 105 140 192 246 295 366 435
#     4  11  25  50  74 106 148 186 244 311 364 429
#     4  12  25  45  69 101 149 190 238 299 364 429
#
# _framework density 22.165634000000001
#
# number of rings (size 3 to 8) (size 9 to 14) (size 15 to 20)
#    0.000    0.500    3.750    4.500    7.000    0.500 
#    0.000    0.625    0.000    0.000    0.000    0.000 
#    0.000    0.000    0.000    0.000    0.000    0.000 
#
# Total GULP energy -198224.527951 kJ/mol
# GULP energy per Si atom -12389.032997 kJ/mol
# Density = 2.211518 g / cm^3
# Si number density = 22.165634 Si / 1000 Ang^3
#
#
#
# Elastic Constant Matrix: (Units=GPa)
#
#
# Indices 1 2 3 4 5 6 
#
# 1 91.8325 27.9903 31.3579 1.7345 10.3040 16.2450
# 2 27.9903 147.8059 50.0004 -18.2207 2.8921 -6.3868
# 3 31.3579 50.0004 104.9848 -0.5400 4.5655 4.7235
# 4 1.7345 -18.2207 -0.5400 31.6042 10.6292 11.8571
# 5 10.3040 2.8921 4.5655 10.6292 39.7226 -4.0778
# 6 16.2450 -6.3868 4.7235 11.8571 -4.0778 44.5354
#
#
#
# Elastic Compliance Matrix: (Units=1/GPa)
#
#
# Indices 1 2 3 4 5 6 
#
# 1 0.013846 -0.001564 -0.002932 0.001921 -0.004257 -0.005865
# 2 -0.001564 0.009065 -0.003805 0.005367 -0.001177 0.000737
# 3 -0.002932 -0.003805 0.012215 -0.001732 0.000066 -0.000305
# 4 0.001921 0.005367 -0.001732 0.044006 -0.013772 -0.012724
# 5 -0.004257 -0.001177 0.000066 -0.013772 0.030850 0.007868
# 6 -0.005865 0.000737 -0.000305 -0.012724 0.007868 0.028840
#
#
# Mechanical properties :
#
#
# Convention : Reuss Voigt Hill
#
# Bulk Modulus (GPa) = 53.98008 62.59115 58.28561
# Shear Modulus (GPa) = 30.94105 38.85742 34.89923
#
# Velocity S-wave (km/s) = 3.74023 4.19148 3.97227
# Velocity P-wave (km/s) = 6.56189 7.19194 6.88412
#
# Compressibility (1/GPa) = 0.01852535
#
# Stress axis : x y z
#
# Youngs Moduli (GPa) = 72.22286 110.31089 81.86649
#
# Poissons Ratio (x) = 0.17247 0.24004
# Poissons Ratio (y) = 0.11292 0.31149
# Poissons Ratio (z) = 0.21177 0.41971
#
# Static dielectric constant tensor:
#      x y z
#    x 4.001470 -0.413520 0.131760 
#    y -0.413520 4.058610 -0.120020 
#    z 0.131760 -0.120020 4.090070 
# 
# 
# High freq. dielectric constant tensor:
#      x y z
#    x 1.884990 -0.006630 0.018130 
#    y -0.006630 1.881770 -0.005500 
#    z 0.018130 -0.005500 1.870840 
# 
# From -- ./inp_files/307806.got.cif
#   From: 2010.06.25/outbox.cif.g09.slc.cpg/sg2_154_cif.got.tgz:307806.got - 2010.06.27 13:26:56.
