data_PCOD8034596
_publ_section_title
;
Structure prediction by ZEFSAII (Michael W. Deem and Ramdas Pophale) SiO2 
 PCOD8034596
Probable space group: P -1
;
_chemical_formula_sum "Si O2"
_cell_formula_units_Z 12
_cell_length_a 9.650903
_cell_length_b 14.803842
_cell_length_c 8.586464
_cell_angle_alpha 118.487744
_cell_angle_beta 71.335652
_cell_angle_gamma 149.731934
_cell_volume 531.642290
_symmetry_space_group_name_H-M "P -1"
_symmetry_group_IT_number 2
_symmetry_cell_setting 'triclinic'
loop_
_space_group_symop_operation_xyz
x,y,z
-x,-y,-z
loop_
_atom_site_type_symbol
_atom_site_label
_atom_site_fract_x
_atom_site_fract_y
_atom_site_fract_z
Si Si1 0.314168 0.019645 0.775814
Si Si2 0.281835 0.643181 0.316244
Si Si3 0.756755 0.720879 0.535216
Si Si4 0.287907 0.779339 0.732874
Si Si5 0.745351 0.930318 0.847736
Si Si6 0.675964 0.687411 0.185207
O O1 0.613605 0.214757 0.739710
O O2 0.295022 0.901298 0.777673
O O3 0.295894 0.100441 0.975906
O O4 0.052095 0.867758 0.627049
O O5 0.271597 0.698800 0.523221
O O6 0.512074 0.693061 0.281521
O O7 0.975688 0.406268 0.209558
O O8 0.500000 0.500000 0.500000
O O9 0.653461 0.772620 0.661471
O O10 0.793518 0.722827 0.339633
O O11 0.570874 0.923439 0.842246
O O12 0.071728 0.141370 0.879719
O O13 0.500000 0.500000 0.000000
#
# Coordination Sequence:
#
# PCOD8034596 Si02
#       6
#     2   2   2   2   2   2
#     4  12  26  45  74 106 142 188 238 290 353 427
#     4  11  24  45  72 100 145 185 236 292 353 417
#     4  12  25  43  72 107 139 185 237 293 351 419
#     4  11  25  47  70 104 144 192 230 291 357 420
#     4  12  25  47  72 104 146 181 237 296 351 417
#     4  12  25  46  74 105 140 188 235 296 356 417
#
# _framework density 22.571567999999999
#
# number of rings (size 3 to 8) (size 9 to 14) (size 15 to 20)
#    0.000    0.333    3.333    6.000    4.667    0.667 
#    0.000    0.000    0.000    0.000    0.000    0.000 
#    0.000    0.000    0.000    0.000    0.000    0.000 
#
# Total GULP energy -148775.990365 kJ/mol
# GULP energy per Si atom -12397.999197 kJ/mol
# Density = 2.252019 g / cm^3
# Si number density = 22.571568 Si / 1000 Ang^3
#
#
#
# Elastic Constant Matrix: (Units=GPa)
#
#
# Indices 1 2 3 4 5 6 
#
# 1 65.5164 10.8797 49.7864 -18.7636 -59.0377 -42.3670
# 2 10.8797 155.3273 58.2825 -31.4487 -58.6083 -47.8833
# 3 49.7864 58.2825 132.6547 10.1578 33.0313 9.3404
# 4 -18.7636 -31.4487 10.1578 12.4734 -43.9706 -37.9475
# 5 -59.0377 -58.6083 33.0313 -43.9706 -63.0151 -59.9093
# 6 -42.3670 -47.8833 9.3404 -37.9475 -59.9093 -9.1562
#
#
#
# Elastic Compliance Matrix: (Units=1/GPa)
#
#
# Indices 1 2 3 4 5 6 
#
# 1 0.011637 -0.003026 -0.001872 -0.005654 -0.002023 -0.003262
# 2 -0.003026 0.005823 -0.000744 0.000115 -0.002636 -0.000436
# 3 -0.001872 -0.000744 0.007906 0.003135 0.000545 0.004057
# 4 -0.005654 0.000115 0.003135 0.026943 -0.012806 0.000882
# 5 -0.002023 -0.002636 0.000545 -0.012806 0.014422 -0.017590
# 6 -0.003262 -0.000436 0.004057 0.000882 -0.017590 0.023732
#
#
# Mechanical properties :
#
#
# Convention : Reuss Voigt Hill
#
# Bulk Modulus (GPa) = 71.01172 65.71062 68.36117
# Shear Modulus (GPa) = 46.97340 3.69707 25.33523
#
# Velocity S-wave (km/s) = 4.56684 1.28121 3.35392
# Velocity P-wave (km/s) = 7.70306 5.60035 6.73428
#
# Compressibility (1/GPa) = 0.01408218
#
# Stress axis : x y z
#
# Youngs Moduli (GPa) = 85.93314 171.72402 126.48157
#
# Poissons Ratio (x) = 0.51969 0.23672
# Poissons Ratio (y) = 0.26006 0.09414
# Poissons Ratio (z) = 0.16083 0.12782
#
# Static dielectric constant tensor:
#      x y z
#    x 4.117020 -0.053100 0.024020 
#    y -0.053100 4.481320 -0.077170 
#    z 0.024020 -0.077170 4.197850 
# 
# 
# High freq. dielectric constant tensor:
#      x y z
#    x 1.887730 -0.001390 -0.006070 
#    y -0.001390 1.905450 -0.004030 
#    z -0.006070 -0.004030 1.905910 
# 
# From -- ./inp_files/148872.got.cif
#   From: 2010.06.25/outbox.cif.g09.slc.cpg/sg2_75_cif.got.tgz:148872.got - 2010.06.27 13:26:56.
