data_PCOD8034858
_publ_section_title
;
Structure prediction by ZEFSAII (Michael W. Deem and Ramdas Pophale) SiO2 
 PCOD8034858
Probable space group: P -1
;
_chemical_formula_sum "Si O2"
_cell_formula_units_Z 16
_cell_length_a 10.091514
_cell_length_b 20.850730
_cell_length_c 10.715156
_cell_angle_alpha 31.217204
_cell_angle_beta 51.367240
_cell_angle_gamma 38.081383
_cell_volume 712.271303
_symmetry_space_group_name_H-M "P -1"
_symmetry_group_IT_number 2
_symmetry_cell_setting 'triclinic'
loop_
_space_group_symop_operation_xyz
x,y,z
-x,-y,-z
loop_
_atom_site_type_symbol
_atom_site_label
_atom_site_fract_x
_atom_site_fract_y
_atom_site_fract_z
Si Si1 0.266467 0.622733 0.742844
Si Si2 0.716410 0.947075 0.024087
Si Si3 0.215802 0.879297 0.497822
Si Si4 0.786588 0.804438 0.650519
Si Si5 0.008842 0.414913 0.513266
Si Si6 0.637430 0.683707 0.726988
Si Si7 0.524337 0.606014 0.394211
Si Si8 0.424150 0.911312 0.858630
O O1 0.226940 0.728494 0.709118
O O2 0.403804 0.642325 0.534460
O O3 0.043153 0.674344 0.728844
O O4 0.403477 0.438722 0.002829
O O5 0.794372 0.037670 0.762557
O O6 0.910091 0.759515 0.210033
O O7 0.500000 0.000000 0.000000
O O8 0.656264 0.989573 0.132675
O O9 0.419346 0.829967 0.543966
O O10 0.000000 0.000000 0.500000
O O11 0.691601 0.745993 0.708278
O O12 0.670333 0.838830 0.796002
O O13 0.734806 0.966484 0.360640
O O14 0.167530 0.407208 0.334832
O O15 0.000000 0.500000 0.500000
O O16 0.774593 0.520146 0.413156
O O17 0.500000 0.500000 0.500000
O O18 0.410738 0.769989 0.113843
#
# Coordination Sequence:
#
# PCOD8034858 Si02
#       8
#     2   2   2   2   2   2   2   2
#     4  12  27  45  69 105 147 178 230 293 356 408
#     4  12  24  48  74 103 140 185 244 288 339 429
#     4  12  29  45  72 106 143 184 230 295 358 402
#     4  11  25  45  79 102 135 192 235 287 349 422
#     4  12  26  43  74  98 136 187 236 282 343 416
#     4  12  25  50  69 104 141 187 237 282 349 432
#     4  12  26  45  67 104 142 183 226 292 353 408
#     4  11  24  46  73 101 141 181 245 280 347 422
#
# _framework density 22.463349999999998
#
# number of rings (size 3 to 8) (size 9 to 14) (size 15 to 20)
#    0.000    0.250    3.750    4.500    8.750    1.500 
#    0.000    0.000    0.000    0.000    0.000    0.000 
#    0.000    0.000    0.000    0.000    0.000    0.000 
#
# Total GULP energy -198483.186162 kJ/mol
# GULP energy per Si atom -12405.199135 kJ/mol
# Density = 2.241222 g / cm^3
# Si number density = 22.463350 Si / 1000 Ang^3
#
#
#
# Elastic Constant Matrix: (Units=GPa)
#
#
# Indices 1 2 3 4 5 6 
#
# 1 108.0898 44.7970 17.3233 -6.9884 -11.1251 7.8562
# 2 44.7970 152.8911 37.3824 9.7379 1.3065 6.1647
# 3 17.3233 37.3824 153.9054 -3.4616 -3.2095 8.2245
# 4 -6.9884 9.7379 -3.4616 45.0116 8.0127 -7.4998
# 5 -11.1251 1.3065 -3.2095 8.0127 28.5031 -4.8985
# 6 7.8562 6.1647 8.2245 -7.4998 -4.8985 32.9728
#
#
#
# Elastic Compliance Matrix: (Units=1/GPa)
#
#
# Indices 1 2 3 4 5 6 
#
# 1 0.011251 -0.003317 -0.000288 0.001575 0.003887 -0.001053
# 2 -0.003317 0.008111 -0.001621 -0.002325 -0.001377 -0.001055
# 3 -0.000288 -0.001621 0.007008 0.000579 0.000384 -0.001188
# 4 0.001575 -0.002325 0.000579 0.024753 -0.005356 0.004750
# 5 0.003887 -0.001377 0.000384 -0.005356 0.038865 0.003791
# 6 -0.001053 -0.001055 -0.001188 0.004750 0.003791 0.032716
#
#
# Mechanical properties :
#
#
# Convention : Reuss Voigt Hill
#
# Bulk Modulus (GPa) = 62.82395 68.21018 65.51706
# Shear Modulus (GPa) = 36.11059 42.32308 39.21683
#
# Velocity S-wave (km/s) = 4.01376 4.34532 4.18283
# Velocity P-wave (km/s) = 7.03622 7.45700 7.24966
#
# Compressibility (1/GPa) = 0.01591750
#
# Stress axis : x y z
#
# Youngs Moduli (GPa) = 88.88142 123.28333 142.68927
#
# Poissons Ratio (x) = 0.40895 0.04108
# Poissons Ratio (y) = 0.29484 0.23136
# Poissons Ratio (z) = 0.02559 0.19990
#
# Static dielectric constant tensor:
#      x y z
#    x 3.894000 0.073760 0.107360 
#    y 0.073760 4.349830 0.201840 
#    z 0.107360 0.201840 4.699780 
# 
# 
# High freq. dielectric constant tensor:
#      x y z
#    x 1.876560 0.007920 0.001400 
#    y 0.007920 1.901770 -0.002320 
#    z 0.001400 -0.002320 1.906860 
# 
# From -- ./inp_files/405243.got.cif
#   From: 2010.06.25/outbox.cif.g09.slc.cpg/sg2_203_cif.got.tgz:405243.got - 2010.06.27 13:26:56.
