data_PCOD8034328
_publ_section_title
;
Structure prediction by ZEFSAII (Michael W. Deem and Ramdas Pophale) SiO2 
 PCOD8034328
Probable space group: P -1
;
_chemical_formula_sum "Si O2"
_cell_formula_units_Z 16
_cell_length_a 9.671904
_cell_length_b 6.636923
_cell_length_c 21.045787
_cell_angle_alpha 124.385698
_cell_angle_beta 55.214819
_cell_angle_gamma 134.836256
_cell_volume 755.553153
_symmetry_space_group_name_H-M "P -1"
_symmetry_group_IT_number 2
_symmetry_cell_setting 'triclinic'
loop_
_space_group_symop_operation_xyz
x,y,z
-x,-y,-z
loop_
_atom_site_type_symbol
_atom_site_label
_atom_site_fract_x
_atom_site_fract_y
_atom_site_fract_z
Si Si1 0.288140 0.456082 0.038222
Si Si2 0.602727 0.908376 0.853164
Si Si3 0.533854 0.748820 0.583583
Si Si4 0.912296 0.845974 0.836507
Si Si5 0.753231 0.850481 0.676064
Si Si6 0.867499 0.401828 0.579863
Si Si7 0.924814 0.511058 0.330874
Si Si8 0.831729 0.562906 0.068961
O O1 0.137099 0.230257 0.090329
O O2 0.297015 0.754942 0.094587
O O3 0.500000 0.500000 0.000000
O O4 0.210085 0.324582 0.965156
O O5 0.719070 0.785346 0.836973
O O6 0.613574 0.876302 0.768669
O O7 0.369854 0.731571 0.904442
O O8 0.500000 0.500000 0.500000
O O9 0.642420 0.748365 0.619165
O O10 0.317424 0.683937 0.648932
O O11 0.670985 0.063798 0.568298
O O12 0.986319 0.657561 0.753446
O O13 0.094731 0.192597 0.851313
O O14 0.789886 0.610387 0.649737
O O15 0.971061 0.166676 0.671003
O O16 0.000000 0.500000 0.500000
O O17 0.020979 0.440251 0.600713
O O18 0.000000 0.500000 0.000000
#
# Coordination Sequence:
#
# PCOD8034328 Si02
#       8
#     2   2   2   2   2   2   2   2
#     4  12  24  45  72  93 137 185 223 283 347 398
#     4  12  25  46  68 100 141 176 227 289 341 398
#     4  11  26  45  69 106 141 174 226 282 331 403
#     4  12  25  44  69 100 136 179 228 287 340 402
#     4  11  25  44  70  98 137 182 222 278 343 400
#     4  11  24  44  72 100 136 181 222 269 338 410
#     4  11  25  44  69 100 136 178 230 274 338 407
#     4  12  26  43  69 102 134 178 235 281 340 411
#
# _framework density 21.176538000000001
#
# number of rings (size 3 to 8) (size 9 to 14) (size 15 to 20)
#    0.000    0.500    5.000    3.000    1.750    8.000 
#    0.000    0.000    0.000    0.000    0.000    0.000 
#    0.000    0.000    0.000    0.000    0.000    0.000 
#
# Total GULP energy -198476.598427 kJ/mol
# GULP energy per Si atom -12404.787402 kJ/mol
# Density = 2.112834 g / cm^3
# Si number density = 21.176538 Si / 1000 Ang^3
#
#
#
# Elastic Constant Matrix: (Units=GPa)
#
#
# Indices 1 2 3 4 5 6 
#
# 1 88.3389 40.7303 18.9450 -8.4745 -7.9913 9.9220
# 2 40.7303 112.8692 31.4629 7.4915 1.3380 2.8278
# 3 18.9450 31.4629 93.1939 -6.2763 4.3451 4.2491
# 4 -8.4745 7.4915 -6.2763 40.9477 -3.8343 0.3754
# 5 -7.9913 1.3380 4.3451 -3.8343 39.7734 0.2079
# 6 9.9220 2.8278 4.2491 0.3754 0.2079 34.0471
#
#
#
# Elastic Compliance Matrix: (Units=1/GPa)
#
#
# Indices 1 2 3 4 5 6 
#
# 1 0.015261 -0.005480 -0.000953 0.004407 0.003800 -0.003945
# 2 -0.005480 0.011977 -0.003172 -0.003966 -0.001545 0.001051
# 3 -0.000953 -0.003172 0.012242 0.002156 -0.001209 -0.001003
# 4 0.004407 -0.003966 0.002156 0.026719 0.003367 -0.001539
# 5 0.003800 -0.001545 -0.001209 0.003367 0.026420 -0.001027
# 6 -0.003945 0.001051 -0.001003 -0.001539 -0.001027 0.030582
#
#
# Mechanical properties :
#
#
# Convention : Reuss Voigt Hill
#
# Bulk Modulus (GPa) = 49.33543 52.96428 51.14985
# Shear Modulus (GPa) = 33.51930 36.50454 35.01192
#
# Velocity S-wave (km/s) = 3.98282 4.15640 4.07053
# Velocity P-wave (km/s) = 6.67070 6.93537 6.80432
#
# Compressibility (1/GPa) = 0.02026941
#
# Stress axis : x y z
#
# Youngs Moduli (GPa) = 65.52768 83.49367 81.68404
#
# Poissons Ratio (x) = 0.45756 0.07782
# Poissons Ratio (y) = 0.35910 0.25914
# Poissons Ratio (z) = 0.06243 0.26488
#
# Static dielectric constant tensor:
#      x y z
#    x 3.921790 0.022150 -0.027970 
#    y 0.022150 4.203560 0.095480 
#    z -0.027970 0.095480 3.894140 
# 
# 
# High freq. dielectric constant tensor:
#      x y z
#    x 1.834560 -0.002390 0.002850 
#    y -0.002390 1.841470 0.000720 
#    z 0.002850 0.000720 1.844180 
# 
# From -- ./inp_files/43992.got.cif
#   From: 2010.06.25/outbox.cif.g09.slc.cpg/sg2_22_cif.got.tgz:43992.got - 2010.06.27 13:26:56.
