data_PCOD8034984
_publ_section_title
;
Structure prediction by ZEFSAII (Michael W. Deem and Ramdas Pophale) SiO2 
 PCOD8034984
Probable space group: P -1
;
_chemical_formula_sum "Si O2"
_cell_formula_units_Z 16
_cell_length_a 18.204076
_cell_length_b 9.234563
_cell_length_c 6.332983
_cell_angle_alpha 79.349646
_cell_angle_beta 55.663714
_cell_angle_gamma 54.486752
_cell_volume 699.224862
_symmetry_space_group_name_H-M "P -1"
_symmetry_group_IT_number 2
_symmetry_cell_setting 'triclinic'
loop_
_space_group_symop_operation_xyz
x,y,z
-x,-y,-z
loop_
_atom_site_type_symbol
_atom_site_label
_atom_site_fract_x
_atom_site_fract_y
_atom_site_fract_z
Si Si1 0.391333 0.427172 0.861557
Si Si2 0.698223 0.738029 0.665223
Si Si3 0.996962 0.827534 0.060999
Si Si4 0.240468 0.553034 0.682748
Si Si5 0.713048 0.249643 0.764844
Si Si6 0.896012 0.698192 0.561224
Si Si7 0.631228 0.110826 0.588938
Si Si8 0.177635 0.055444 0.018201
O O1 0.321173 0.532571 0.739514
O O2 0.518827 0.286190 0.630145
O O3 0.345201 0.320866 0.060540
O O4 0.382644 0.568514 0.005552
O O5 0.705922 0.641847 0.459255
O O6 0.819888 0.679807 0.532343
O O7 0.614370 0.955492 0.715183
O O8 0.927880 0.824638 0.367949
O O9 0.118033 0.638855 0.940505
O O10 0.940281 0.835477 0.932016
O O11 0.000000 0.000000 0.000000
O O12 0.223678 0.702540 0.506165
O O13 0.661880 0.163366 0.742390
O O14 0.801932 0.109676 0.829820
O O15 0.000000 0.500000 0.500000
O O16 0.827164 0.798635 0.858750
O O17 0.724334 0.029908 0.283948
#
# Coordination Sequence:
#
# PCOD8034984 Si02
#       8
#     2   2   2   2   2   2   2   2
#     4  11  26  45  72 101 139 188 229 290 352 410
#     4  11  25  45  67 102 142 177 236 289 343 421
#     4  12  25  44  70 103 142 183 240 290 349 422
#     4  11  26  45  69 105 141 180 237 287 351 419
#     4  11  24  47  70 103 142 179 237 289 345 423
#     4  12  26  44  71 103 142 189 233 288 355 419
#     4  12  25  45  71 103 139 184 237 285 348 421
#     4  12  25  43  72 100 138 185 230 286 351 412
#
# _framework density 22.882484000000002
#
# number of rings (size 3 to 8) (size 9 to 14) (size 15 to 20)
#    0.000    0.500    2.500    5.250    3.500    9.500 
#    0.000    0.000    0.000    0.000    0.000    0.000 
#    0.000    0.000    0.000    0.000    0.000    0.000 
#
# Total GULP energy -198454.712702 kJ/mol
# GULP energy per Si atom -12403.419544 kJ/mol
# Density = 2.283040 g / cm^3
# Si number density = 22.882484 Si / 1000 Ang^3
#
#
#
# Elastic Constant Matrix: (Units=GPa)
#
#
# Indices 1 2 3 4 5 6 
#
# 1 104.7655 36.0645 46.1349 11.5281 10.5184 -11.5304
# 2 36.0645 114.1208 45.7403 8.8274 12.5625 1.3551
# 3 46.1349 45.7403 95.4444 11.0246 16.1721 1.7501
# 4 11.5281 8.8274 11.0246 37.4928 -4.3647 -2.0248
# 5 10.5184 12.5625 16.1721 -4.3647 29.8269 2.5259
# 6 -11.5304 1.3551 1.7501 -2.0248 2.5259 54.8785
#
#
#
# Elastic Compliance Matrix: (Units=1/GPa)
#
#
# Indices 1 2 3 4 5 6 
#
# 1 0.013099 -0.001825 -0.004967 -0.002179 -0.001727 0.002955
# 2 -0.001825 0.011277 -0.004030 -0.001174 -0.002052 -0.000482
# 3 -0.004967 -0.004030 0.016132 -0.002993 -0.005625 -0.001310
# 4 -0.002179 -0.001174 -0.002993 0.029353 0.007145 0.000421
# 5 -0.001727 -0.002052 -0.005625 0.007145 0.039237 -0.001675
# 6 0.002955 -0.000482 -0.001310 0.000421 -0.001675 0.018989
#
#
# Mechanical properties :
#
#
# Convention : Reuss Voigt Hill
#
# Bulk Modulus (GPa) = 53.01073 63.35668 58.18370
# Shear Modulus (GPa) = 32.04718 36.86570 34.45644
#
# Velocity S-wave (km/s) = 3.74640 4.01819 3.88467
# Velocity P-wave (km/s) = 6.47540 7.01967 6.75302
#
# Compressibility (1/GPa) = 0.01886411
#
# Stress axis : x y z
#
# Youngs Moduli (GPa) = 76.34177 88.67510 61.98727
#
# Poissons Ratio (x) = 0.16186 0.30788
# Poissons Ratio (y) = 0.13935 0.24981
# Poissons Ratio (z) = 0.37918 0.35736
#
# Static dielectric constant tensor:
#      x y z
#    x 4.106680 -0.012200 0.111900 
#    y -0.012200 4.381260 -0.029640 
#    z 0.111900 -0.029640 4.205960 
# 
# 
# High freq. dielectric constant tensor:
#      x y z
#    x 1.897150 -0.000620 0.008480 
#    y -0.000620 1.924060 0.000290 
#    z 0.008480 0.000290 1.906680 
# 
# From -- ./inp_files/106659.got.cif
#   From: 2010.06.25/outbox.cif.g09.slc.cpg/sg2_54_cif.got.tgz:106659.got - 2010.06.27 13:26:56.
