data_PCOD8034792
_publ_section_title
;
Structure prediction by ZEFSAII (Michael W. Deem and Ramdas Pophale) SiO2 
 PCOD8034792
Probable space group: P -1
;
_chemical_formula_sum "Si O2"
_cell_formula_units_Z 16
_cell_length_a 15.412033
_cell_length_b 9.130780
_cell_length_c 25.499360
_cell_angle_alpha 47.745235
_cell_angle_beta 152.827445
_cell_angle_gamma 149.036364
_cell_volume 778.159044
_symmetry_space_group_name_H-M "P -1"
_symmetry_group_IT_number 2
_symmetry_cell_setting 'triclinic'
loop_
_space_group_symop_operation_xyz
x,y,z
-x,-y,-z
loop_
_atom_site_type_symbol
_atom_site_label
_atom_site_fract_x
_atom_site_fract_y
_atom_site_fract_z
Si Si1 0.186665 0.293895 0.257176
Si Si2 0.606172 0.285270 0.461968
Si Si3 0.296872 0.114249 0.122519
Si Si4 0.731216 0.275000 0.870337
Si Si5 0.352534 0.781316 0.616980
Si Si6 0.898912 0.356730 0.286488
Si Si7 0.678951 0.448970 0.623997
Si Si8 0.694115 0.612524 0.127299
O O1 0.428741 0.316993 0.387140
O O2 0.308054 0.542494 0.219798
O O3 0.143136 0.368097 0.271095
O O4 0.873259 0.954332 0.153203
O O5 0.562999 0.253021 0.384372
O O6 0.951264 0.589834 0.590613
O O7 0.500000 0.000000 0.500000
O O8 0.482245 0.216334 0.250441
O O9 0.501831 0.406472 0.124292
O O10 0.203914 0.834781 0.112983
O O11 0.000000 0.000000 0.000000
O O12 0.436008 0.986557 0.813177
O O13 0.000000 0.500000 0.000000
O O14 0.000000 0.500000 0.500000
O O15 0.452148 0.088200 0.597527
O O16 0.912818 0.607013 0.231293
O O17 0.074680 0.407557 0.320386
O O18 0.500000 0.500000 0.500000
O O19 0.500000 0.500000 0.000000
#
# Coordination Sequence:
#
# PCOD8034792 Si02
#       8
#     2   2   2   2   2   2   2   2
#     4  12  24  43  69 103 137 170 231 286 349 409
#     4  12  23  42  73  99 134 184 231 279 346 420
#     4  11  27  46  68 103 141 180 238 289 346 422
#     4  11  26  47  67  99 139 180 227 289 349 412
#     4  12  26  45  71 100 142 186 235 287 348 425
#     4  11  24  46  70  98 141 180 235 282 345 427
#     4  12  25  43  68 106 141 175 225 297 351 407
#     4  11  25  45  74  95 133 193 236 273 346 428
#
# _framework density 20.561350000000001
#
# number of rings (size 3 to 8) (size 9 to 14) (size 15 to 20)
#    0.000    0.500    5.000    3.000    7.000    2.500 
#    0.000    1.875    0.000    0.000    0.000    0.000 
#    0.000    0.000    0.000    0.000    0.000    0.000 
#
# Total GULP energy -198453.128790 kJ/mol
# GULP energy per Si atom -12403.320549 kJ/mol
# Density = 2.051455 g / cm^3
# Si number density = 20.561350 Si / 1000 Ang^3
#
#
#
# Elastic Constant Matrix: (Units=GPa)
#
#
# Indices 1 2 3 4 5 6 
#
# 1 153.5363 52.5485 70.8406 3.3767 -3.6355 -0.8307
# 2 52.5485 130.4900 49.0017 7.9254 1.1374 -2.0714
# 3 70.8406 49.0017 156.2794 7.9790 -10.9943 1.8443
# 4 3.3767 7.9254 7.9790 41.9078 -5.2314 -6.4215
# 5 -3.6355 1.1374 -10.9943 -5.2314 48.7784 -1.4593
# 6 -0.8307 -2.0714 1.8443 -6.4215 -1.4593 31.5884
#
#
#
# Elastic Compliance Matrix: (Units=1/GPa)
#
#
# Indices 1 2 3 4 5 6 
#
# 1 0.008825 -0.002338 -0.003291 0.000415 0.000026 0.000357
# 2 -0.002338 0.009409 -0.001895 -0.001294 -0.000949 0.000359
# 3 -0.003291 -0.001895 0.008657 -0.000950 0.001623 -0.000834
# 4 0.000415 -0.001294 -0.000950 0.025402 0.002729 0.005272
# 5 0.000026 -0.000949 0.001623 0.002729 0.021225 0.001379
# 6 0.000357 0.000359 -0.000834 0.005272 0.001379 0.032874
#
#
# Mechanical properties :
#
#
# Convention : Reuss Voigt Hill
#
# Bulk Modulus (GPa) = 84.43674 87.23192 85.83433
# Shear Modulus (GPa) = 39.87578 42.31590 41.09584
#
# Velocity S-wave (km/s) = 4.40859 4.54147 4.47553
# Velocity P-wave (km/s) = 8.18957 8.36763 8.27908
#
# Compressibility (1/GPa) = 0.01184319
#
# Stress axis : x y z
#
# Youngs Moduli (GPa) = 113.31355 106.27875 115.50750
#
# Poissons Ratio (x) = 0.24846 0.38013
# Poissons Ratio (y) = 0.26491 0.21894
# Poissons Ratio (z) = 0.37291 0.20145
#
# Static dielectric constant tensor:
#      x y z
#    x 3.826390 -0.173540 -0.050210 
#    y -0.173540 3.709090 0.243540 
#    z -0.050210 0.243540 3.647110 
# 
# 
# High freq. dielectric constant tensor:
#      x y z
#    x 1.812060 -0.004300 -0.007940 
#    y -0.004300 1.812570 0.000310 
#    z -0.007940 0.000310 1.820070 
# 
# From -- ./inp_files/223883.got.cif
#   From: 2010.06.25/outbox.cif.g09.slc.cpg/sg2_112_cif.got.tgz:223883.got - 2010.06.27 13:26:56.
