data_PCOD8034481
_publ_section_title
;
Structure prediction by ZEFSAII (Michael W. Deem and Ramdas Pophale) SiO2 
 PCOD8034481
Probable space group: P -1
;
_chemical_formula_sum "Si O2"
_cell_formula_units_Z 16
_cell_length_a 13.122996
_cell_length_b 15.739521
_cell_length_c 9.111360
_cell_angle_alpha 106.960361
_cell_angle_beta 61.415364
_cell_angle_gamma 52.843222
_cell_volume 735.093941
_symmetry_space_group_name_H-M "P -1"
_symmetry_group_IT_number 2
_symmetry_cell_setting 'triclinic'
loop_
_space_group_symop_operation_xyz
x,y,z
-x,-y,-z
loop_
_atom_site_type_symbol
_atom_site_label
_atom_site_fract_x
_atom_site_fract_y
_atom_site_fract_z
Si Si1 0.641068 0.212303 0.822623
Si Si2 0.101655 0.817908 0.180359
Si Si3 0.588530 0.554516 0.179077
Si Si4 0.268435 0.345522 0.800198
Si Si5 0.872398 0.180359 0.176166
Si Si6 0.343008 0.285786 0.251782
Si Si7 0.834630 0.695302 0.880705
Si Si8 0.304493 0.008131 0.887527
O O1 0.769758 0.180004 0.847758
O O2 0.549197 0.342295 0.828367
O O3 0.416746 0.312783 0.102274
O O4 0.813510 0.022504 0.526605
O O5 0.198646 0.661959 0.107891
O O6 0.149006 0.774233 0.953288
O O7 0.719317 0.556604 0.141955
O O8 0.399041 0.643016 0.474926
O O9 0.498286 0.160405 0.449918
O O10 0.315468 0.265249 0.882815
O O11 0.000000 0.500000 0.000000
O O12 0.000000 0.000000 0.000000
O O13 0.044350 0.131660 0.124070
O O14 0.229552 0.282358 0.232971
O O15 0.574031 0.089920 0.085791
O O16 0.128903 0.475204 0.596744
O O17 0.761011 0.846627 0.032751
#
# Coordination Sequence:
#
# PCOD8034481 Si02
#       8
#     2   2   2   2   2   2   2   2
#     4  11  24  45  68  99 140 178 225 281 337 406
#     4  11  26  42  71 101 135 182 225 279 342 407
#     4  12  26  47  70 102 139 179 231 282 342 409
#     4  12  25  46  72 100 140 177 226 289 339 403
#     4  12  24  46  71 102 140 176 225 287 346 399
#     4  11  25  46  68  99 140 180 225 287 332 409
#     4  11  26  47  70 101 134 184 233 278 343 400
#     4  12  26  44  74 101 137 181 230 283 342 408
#
# _framework density 21.765926
#
# number of rings (size 3 to 8) (size 9 to 14) (size 15 to 20)
#    0.000    0.500    5.000    2.250    5.250    2.000 
#    0.000    0.000    0.000    0.000    0.000    0.000 
#    0.000    0.000    0.000    0.000    0.000    0.000 
#
# Total GULP energy -198453.989716 kJ/mol
# GULP energy per Si atom -12403.374357 kJ/mol
# Density = 2.171639 g / cm^3
# Si number density = 21.765926 Si / 1000 Ang^3
#
#
#
# Elastic Constant Matrix: (Units=GPa)
#
#
# Indices 1 2 3 4 5 6 
#
# 1 94.2211 40.2094 23.8102 -0.3094 -15.4986 5.6439
# 2 40.2094 106.0722 57.5925 25.8540 9.0528 9.0931
# 3 23.8102 57.5925 55.5612 -18.5253 -11.8349 12.6864
# 4 -0.3094 25.8540 -18.5253 27.7975 0.3914 5.7335
# 5 -15.4986 9.0528 -11.8349 0.3914 28.4066 2.1306
# 6 5.6439 9.0931 12.6864 5.7335 2.1306 45.2113
#
#
#
# Elastic Compliance Matrix: (Units=1/GPa)
#
#
# Indices 1 2 3 4 5 6 
#
# 1 0.012698 0.001072 -0.008468 -0.006809 0.003056 0.001295
# 2 0.001072 -0.009098 0.021680 0.024410 0.012787 -0.008086
# 3 -0.008468 0.021680 -0.017335 -0.032912 -0.018794 0.006620
# 4 -0.006809 0.024410 -0.032912 -0.009955 -0.025643 0.007647
# 5 0.003056 0.012787 -0.018794 -0.025643 0.024989 0.004395
# 6 0.001295 -0.008086 0.006620 0.007647 0.004395 0.020549
#
#
# Mechanical properties :
#
#
# Convention : Reuss Voigt Hill
#
# Bulk Modulus (GPa) = 67.41086 55.45318 61.43202
# Shear Modulus (GPa) = -2814.49464 29.23255 -1392.63104
#
# Velocity S-wave (km/s) = -35.99835 3.66873 -25.32214
# Velocity P-wave (km/s) = 41.19227 6.59382 28.75174
#
# Compressibility (1/GPa) = 0.01483441
#
# Stress axis : x y z
#
# Youngs Moduli (GPa) = 78.74952 -109.91107 -57.68775
#
# Poissons Ratio (x) = 0.11780 -0.48849
# Poissons Ratio (y) = -0.08440 1.25070
# Poissons Ratio (z) = 0.66684 2.38292
#
# Static dielectric constant tensor:
#      x y z
#    x 3.967160 0.030890 -0.238390 
#    y 0.030890 3.911210 -0.100100 
#    z -0.238390 -0.100100 4.417530 
# 
# 
# High freq. dielectric constant tensor:
#      x y z
#    x 1.861170 -0.004480 -0.000010 
#    y -0.004480 1.865300 -0.002020 
#    z -0.000010 -0.002020 1.862420 
# 
# From -- ./inp_files/273616.got.cif
#   From: 2010.06.25/outbox.cif.g09.slc.cpg/sg2_137_cif.got.tgz:273616.got - 2010.06.27 13:26:56.
