data_PCOD8034300
_publ_section_title
;
Structure prediction by ZEFSAII (Michael W. Deem and Ramdas Pophale) SiO2 
 PCOD8034300
Probable space group: P -1
;
_chemical_formula_sum "Si O2"
_cell_formula_units_Z 14
_cell_length_a 13.199391
_cell_length_b 13.347662
_cell_length_c 8.075281
_cell_angle_alpha 147.457990
_cell_angle_beta 116.131198
_cell_angle_gamma 51.958938
_cell_volume 592.142872
_symmetry_space_group_name_H-M "P -1"
_symmetry_group_IT_number 2
_symmetry_cell_setting 'triclinic'
loop_
_space_group_symop_operation_xyz
x,y,z
-x,-y,-z
loop_
_atom_site_type_symbol
_atom_site_label
_atom_site_fract_x
_atom_site_fract_y
_atom_site_fract_z
Si Si1 0.785406 0.677321 0.692506
Si Si2 0.110847 0.912941 0.324475
Si Si3 0.373933 0.561521 0.180607
Si Si4 0.486006 0.206277 0.500201
Si Si5 0.893949 0.711274 0.310938
Si Si6 0.974898 0.760496 0.798072
Si Si7 0.676741 0.708204 0.005982
O O1 0.647012 0.752321 0.617431
O O2 0.843428 0.838484 0.927663
O O3 0.775129 0.626813 0.806311
O O4 0.901112 0.474839 0.394670
O O5 0.236189 0.690559 0.164684
O O6 0.155024 0.085503 0.564293
O O7 0.000000 0.000000 0.500000
O O8 0.039012 0.904643 0.091220
O O9 0.438005 0.714722 0.460503
O O10 0.365558 0.469263 0.227731
O O11 0.468309 0.340680 0.840866
O O12 0.560577 0.950878 0.230260
O O13 0.940785 0.762868 0.585654
O O14 0.761772 0.698943 0.216506
O O15 0.000000 0.500000 0.000000
#
# Coordination Sequence:
#
# PCOD8034300 Si02
#       7
#     2   2   2   2   2   2   2
#     4  11  24  44  71 101 146 183 241 296 354 431
#     4  12  25  45  71 107 146 187 239 299 357 427
#     4  11  25  44  72 102 141 188 239 293 356 427
#     4  11  24  48  69 101 145 188 240 295 353 426
#     4  12  24  44  72 105 142 187 239 295 359 430
#     4  11  25  44  71 106 143 190 235 299 362 423
#     4  12  24  44  74 107 136 194 237 291 364 425
#
# _framework density 23.642942000000001
#
# number of rings (size 3 to 8) (size 9 to 14) (size 15 to 20)
#    0.000    0.571    4.286    3.857    4.000    0.571 
#    0.000    0.000    0.000    0.000    0.000    0.000 
#    0.000    0.000    0.000    0.000    0.000    0.000 
#
# Total GULP energy -173437.643158 kJ/mol
# GULP energy per Si atom -12388.403083 kJ/mol
# Density = 2.358913 g / cm^3
# Si number density = 23.642942 Si / 1000 Ang^3
#
#
#
# Elastic Constant Matrix: (Units=GPa)
#
#
# Indices 1 2 3 4 5 6 
#
# 1 146.8470 66.7395 34.8307 14.0564 13.3771 -2.0331
# 2 66.7395 127.3281 39.7858 8.1758 14.0281 -10.3681
# 3 34.8307 39.7858 59.8067 8.3214 4.0188 0.4438
# 4 14.0564 8.1758 8.3214 33.9239 5.6537 11.5453
# 5 13.3771 14.0281 4.0188 5.6537 41.0878 -1.7713
# 6 -2.0331 -10.3681 0.4438 11.5453 -1.7713 49.1773
#
#
#
# Elastic Compliance Matrix: (Units=1/GPa)
#
#
# Indices 1 2 3 4 5 6 
#
# 1 0.009513 -0.003909 -0.002554 -0.002193 -0.001208 0.000064
# 2 -0.003909 0.012117 -0.005601 -0.000405 -0.002154 0.002461
# 3 -0.002554 -0.005601 0.022288 -0.002957 0.000938 -0.000760
# 4 -0.002193 -0.000405 -0.002957 0.034754 -0.004005 -0.008453
# 5 -0.001208 -0.002154 0.000938 -0.004005 0.025985 0.001364
# 6 0.000064 0.002461 -0.000760 -0.008453 0.001364 0.022896
#
#
# Mechanical properties :
#
#
# Convention : Reuss Voigt Hill
#
# Bulk Modulus (GPa) = 50.53153 68.52153 59.52653
# Shear Modulus (GPa) = 31.59011 37.67952 34.63481
#
# Velocity S-wave (km/s) = 3.65928 3.99644 3.83157
# Velocity P-wave (km/s) = 6.26681 7.09507 6.69377
#
# Compressibility (1/GPa) = 0.01978963
#
# Stress axis : x y z
#
# Youngs Moduli (GPa) = 105.11780 82.53138 44.86749
#
# Poissons Ratio (x) = 0.32263 0.11459
# Poissons Ratio (y) = 0.41093 0.25130
# Poissons Ratio (z) = 0.26846 0.46225
#
# Static dielectric constant tensor:
#      x y z
#    x 4.806800 -0.255410 0.354230 
#    y -0.255410 4.190070 -0.165010 
#    z 0.354230 -0.165010 4.501850 
# 
# 
# High freq. dielectric constant tensor:
#      x y z
#    x 1.953620 -0.010630 0.011580 
#    y -0.010630 1.934890 0.001340 
#    z 0.011580 0.001340 1.928660 
# 
# From -- ./inp_files/274935.got.cif
#   From: 2010.06.25/outbox.cif.g09.slc.cpg/sg2_138_cif.got.tgz:274935.got - 2010.06.27 13:26:56.
