data_PCOD8034696
_publ_section_title
;
Structure prediction by ZEFSAII (Michael W. Deem and Ramdas Pophale) SiO2 
 PCOD8034696
Probable space group: P -1
;
_chemical_formula_sum "Si O2"
_cell_formula_units_Z 12
_cell_length_a 8.276292
_cell_length_b 9.186741
_cell_length_c 12.026953
_cell_angle_alpha 81.809978
_cell_angle_beta 128.668255
_cell_angle_gamma 127.201364
_cell_volume 526.406098
_symmetry_space_group_name_H-M "P -1"
_symmetry_group_IT_number 2
_symmetry_cell_setting 'triclinic'
loop_
_space_group_symop_operation_xyz
x,y,z
-x,-y,-z
loop_
_atom_site_type_symbol
_atom_site_label
_atom_site_fract_x
_atom_site_fract_y
_atom_site_fract_z
Si Si1 0.245486 0.181223 0.756756
Si Si2 0.239862 0.834256 0.476572
Si Si3 0.905979 0.038889 0.064451
Si Si4 0.572988 0.518664 0.702772
Si Si5 0.637344 0.081790 0.235439
Si Si6 0.158906 0.492860 0.379271
O O1 0.227714 0.139849 0.885442
O O2 0.499246 0.409412 0.802417
O O3 0.961203 0.122506 0.604790
O O4 0.280319 0.049189 0.716530
O O5 0.352457 0.845284 0.645029
O O6 0.095948 0.628835 0.375155
O O7 0.500000 0.000000 0.500000
O O8 0.667139 0.043479 0.933872
O O9 0.172260 0.247808 0.205314
O O10 0.000000 0.000000 0.000000
O O11 0.301535 0.475900 0.546335
O O12 0.646496 0.425310 0.655177
O O13 0.866296 0.280564 0.242277
#
# Coordination Sequence:
#
# PCOD8034696 Si02
#       6
#     2   2   2   2   2   2
#     4  12  26  46  74 106 140 190 241 286 349 430
#     4  12  25  43  73 110 140 183 245 290 344 421
#     4  12  28  49  70 104 151 184 230 299 362 414
#     4  11  25  46  75 104 142 188 238 288 357 420
#     4  12  25  47  73 103 146 188 230 295 359 412
#     4  11  24  45  75 105 144 184 235 298 350 412
#
# _framework density 22.796088999999998
#
# number of rings (size 3 to 8) (size 9 to 14) (size 15 to 20)
#    0.000    0.333    3.333    5.500    4.667    1.333 
#    3.000    0.000    0.000    0.000    0.000    0.000 
#    0.000    0.000    0.000    0.000    0.000    0.000 
#
# Total GULP energy -148818.466856 kJ/mol
# GULP energy per Si atom -12401.538905 kJ/mol
# Density = 2.274420 g / cm^3
# Si number density = 22.796089 Si / 1000 Ang^3
#
#
#
# Elastic Constant Matrix: (Units=GPa)
#
#
# Indices 1 2 3 4 5 6 
#
# 1 117.2904 56.1401 35.7284 -10.9173 -2.5707 7.9404
# 2 56.1401 118.8581 28.3463 -10.3150 1.6166 15.5343
# 3 35.7284 28.3463 85.6791 -2.5247 8.1153 3.6605
# 4 -10.9173 -10.3150 -2.5247 33.8842 9.0912 -7.2806
# 5 -2.5707 1.6166 8.1153 9.0912 46.5314 -5.3300
# 6 7.9404 15.5343 3.6605 -7.2806 -5.3300 40.7106
#
#
#
# Elastic Compliance Matrix: (Units=1/GPa)
#
#
# Indices 1 2 3 4 5 6 
#
# 1 0.012050 -0.004733 -0.003516 0.001942 0.001094 0.000263
# 2 -0.004733 0.011590 -0.001580 0.001472 -0.001046 -0.003231
# 3 -0.003516 -0.001580 0.013922 0.000061 -0.002613 -0.000294
# 4 0.001942 0.001472 0.000061 0.033085 -0.005938 0.004193
# 5 0.001094 -0.001046 -0.002613 -0.005938 0.023482 0.002433
# 6 0.000263 -0.003231 -0.000294 0.004193 0.002433 0.026840
#
#
# Mechanical properties :
#
#
# Convention : Reuss Voigt Hill
#
# Bulk Modulus (GPa) = 55.85827 62.47301 59.16564
# Shear Modulus (GPa) = 34.10710 37.66609 35.88660
#
# Velocity S-wave (km/s) = 3.87225 4.06927 3.97198
# Velocity P-wave (km/s) = 6.67451 7.03869 6.85902
#
# Compressibility (1/GPa) = 0.01790245
#
# Stress axis : x y z
#
# Youngs Moduli (GPa) = 82.99063 86.27960 71.82647
#
# Poissons Ratio (x) = 0.40840 0.25256
# Poissons Ratio (y) = 0.39283 0.11350
# Poissons Ratio (z) = 0.29182 0.13634
#
# Static dielectric constant tensor:
#      x y z
#    x 5.223170 -0.277570 -0.171600 
#    y -0.277570 4.372320 0.030540 
#    z -0.171600 0.030540 3.924060 
# 
# 
# High freq. dielectric constant tensor:
#      x y z
#    x 1.929350 0.010350 -0.000550 
#    y 0.010350 1.899770 0.000200 
#    z -0.000550 0.000200 1.880810 
# 
# From -- ./inp_files/152454.got.cif
#   From: 2010.06.25/outbox.cif.g09.slc.cpg/sg2_77_cif.got.tgz:152454.got - 2010.06.27 13:26:56.
