data_PCOD8034010
_publ_section_title
;
Structure prediction by ZEFSAII (Michael W. Deem and Ramdas Pophale) SiO2 
 PCOD8034010
Probable space group: P -1
;
_chemical_formula_sum "Si O2"
_cell_formula_units_Z 12
_cell_length_a 9.148866
_cell_length_b 10.665120
_cell_length_c 10.936060
_cell_angle_alpha 70.989222
_cell_angle_beta 127.120607
_cell_angle_gamma 139.114623
_cell_volume 539.228172
_symmetry_space_group_name_H-M "P -1"
_symmetry_group_IT_number 2
_symmetry_cell_setting 'triclinic'
loop_
_space_group_symop_operation_xyz
x,y,z
-x,-y,-z
loop_
_atom_site_type_symbol
_atom_site_label
_atom_site_fract_x
_atom_site_fract_y
_atom_site_fract_z
Si Si1 0.125172 0.356922 0.949007
Si Si2 0.886738 0.624202 0.783844
Si Si3 0.566823 0.094537 0.133065
Si Si4 0.885185 0.916216 0.605581
Si Si5 0.611469 0.228856 0.687578
Si Si6 0.288871 0.204102 0.932954
O O1 0.012373 0.299344 0.049471
O O2 0.427605 0.576901 0.032758
O O3 0.132865 0.210184 0.951311
O O4 0.904065 0.321526 0.767272
O O5 0.804691 0.720635 0.653758
O O6 0.650498 0.385678 0.736849
O O7 0.123426 0.687043 0.797693
O O8 0.562615 0.973643 0.264168
O O9 0.361277 0.102334 0.064797
O O10 0.500000 0.000000 0.000000
O O11 0.597359 0.841782 0.503939
O O12 0.000000 0.000000 0.500000
O O13 0.106608 0.089374 0.757239
#
# Coordination Sequence:
#
# PCOD8034010 Si02
#       6
#     2   2   2   2   2   2
#     4  11  24  43  69  96 131 174 219 269 314 389
#     4  12  23  41  70  99 126 171 222 264 320 382
#     4  12  20  40  68  96 125 168 223 269 306 385
#     4  12  24  41  66  98 134 167 212 273 325 384
#     4  12  24  39  69 100 129 172 217 263 328 385
#     4  11  25  44  66  98 134 170 219 269 323 375
#
# _framework density 22.254031000000001
#
# number of rings (size 3 to 8) (size 9 to 14) (size 15 to 20)
#    0.000    0.333    6.667    3.000    0.000    3.333 
#    0.000    0.000    0.000    5.000    0.000    0.000 
#    0.000    0.000    0.000    0.000    0.000    0.000 
#
# Total GULP energy -148702.090079 kJ/mol
# GULP energy per Si atom -12391.840840 kJ/mol
# Density = 2.220338 g / cm^3
# Si number density = 22.254031 Si / 1000 Ang^3
#
#
#
# Elastic Constant Matrix: (Units=GPa)
#
#
# Indices 1 2 3 4 5 6 
#
# 1 115.3898 52.0172 55.0457 0.0466 28.8202 -12.3132
# 2 52.0172 110.8527 46.0149 -7.4290 10.2378 -15.3485
# 3 55.0457 46.0149 133.1452 -1.6804 41.0141 -11.7901
# 4 0.0466 -7.4290 -1.6804 31.9771 -1.2741 8.3916
# 5 28.8202 10.2378 41.0141 -1.2741 41.2440 -5.7280
# 6 -12.3132 -15.3485 -11.7901 8.3916 -5.7280 33.5897
#
#
#
# Elastic Compliance Matrix: (Units=1/GPa)
#
#
# Indices 1 2 3 4 5 6 
#
# 1 0.013467 -0.004899 -0.001859 -0.001886 -0.006201 0.001459
# 2 -0.004899 0.012926 -0.003403 0.002190 0.004093 0.003067
# 3 -0.001859 -0.003403 0.012717 -0.000699 -0.010437 0.000622
# 4 -0.001886 0.002190 -0.000699 0.033949 0.001381 -0.008182
# 5 -0.006201 0.004093 -0.010437 0.001381 0.038279 0.002116
# 6 0.001459 0.003067 0.000622 -0.008182 0.002116 0.034330
#
#
# Mechanical properties :
#
#
# Convention : Reuss Voigt Hill
#
# Bulk Modulus (GPa) = 53.22838 73.94922 63.58880
# Shear Modulus (GPa) = 29.02704 35.11615 32.07160
#
# Velocity S-wave (km/s) = 3.61550 3.97667 3.80038
# Velocity P-wave (km/s) = 6.43425 7.37475 6.92050
#
# Compressibility (1/GPa) = 0.01878697
#
# Stress axis : x y z
#
# Youngs Moduli (GPa) = 74.25613 77.36316 78.63773
#
# Poissons Ratio (x) = 0.37903 0.14616
# Poissons Ratio (y) = 0.36381 0.26762
# Poissons Ratio (z) = 0.13801 0.26329
#
# Static dielectric constant tensor:
#      x y z
#    x 4.743750 0.309020 0.765300 
#    y 0.309020 4.323520 0.229190 
#    z 0.765300 0.229190 3.995120 
# 
# 
# High freq. dielectric constant tensor:
#      x y z
#    x 1.858740 0.005240 0.040750 
#    y 0.005240 1.905090 -0.002630 
#    z 0.040750 -0.002630 1.864050 
# 
# From -- ./inp_files/243451.got.cif
#   From: 2010.06.25/outbox.cif.g09.slc.cpg/sg2_122_cif.got.tgz:243451.got - 2010.06.27 13:26:56.
