data_PCOD8034756
_publ_section_title
;
Structure prediction by ZEFSAII (Michael W. Deem and Ramdas Pophale) SiO2 
 PCOD8034756
Probable space group: P -1
;
_chemical_formula_sum "Si O2"
_cell_formula_units_Z 16
_cell_length_a 14.001612
_cell_length_b 16.524929
_cell_length_c 10.899362
_cell_angle_alpha 145.189969
_cell_angle_beta 56.058753
_cell_angle_gamma 148.087122
_cell_volume 675.996902
_symmetry_space_group_name_H-M "P -1"
_symmetry_group_IT_number 2
_symmetry_cell_setting 'triclinic'
loop_
_space_group_symop_operation_xyz
x,y,z
-x,-y,-z
loop_
_atom_site_type_symbol
_atom_site_label
_atom_site_fract_x
_atom_site_fract_y
_atom_site_fract_z
Si Si1 0.019307 0.774355 0.001890
Si Si2 0.402571 0.324746 0.466429
Si Si3 0.420897 0.577432 0.152598
Si Si4 0.415545 0.725067 0.580229
Si Si5 0.463523 0.274396 0.005821
Si Si6 0.672011 0.233667 0.942370
Si Si7 0.937939 0.430478 0.776219
Si Si8 0.057728 0.741536 0.672110
O O1 0.077756 0.727668 0.786620
O O2 0.821591 0.661734 0.966886
O O3 0.996834 0.655254 0.991289
O O4 0.169215 0.056449 0.272094
O O5 0.500000 0.500000 0.500000
O O6 0.497740 0.266509 0.352215
O O7 0.437271 0.468406 0.733096
O O8 0.506009 0.741974 0.415662
O O9 0.496374 0.736645 0.175175
O O10 0.500000 0.500000 0.000000
O O11 0.175319 0.463864 0.444891
O O12 0.499315 0.970364 0.813079
O O13 0.567447 0.274774 0.030431
O O14 0.218392 0.034268 0.902795
O O15 0.755951 0.237994 0.765890
O O16 0.864087 0.452618 0.168666
O O17 0.864395 0.297640 0.530127
#
# Coordination Sequence:
#
# PCOD8034756 Si02
#       8
#     2   2   2   2   2   2   2   2
#     4  11  24  47  71 103 140 185 239 285 347 423
#     4  12  26  47  71 103 145 185 233 292 350 418
#     4  11  24  46  69 104 138 184 235 287 348 412
#     4  11  26  46  72 101 143 189 233 294 345 419
#     4  12  26  46  71 103 142 190 232 290 354 411
#     4  11  26  46  72 105 143 179 239 292 348 417
#     4  11  24  46  71 106 139 182 233 294 355 410
#     4  11  27  41  71 102 141 183 235 285 353 413
#
# _framework density 23.668748999999998
#
# number of rings (size 3 to 8) (size 9 to 14) (size 15 to 20)
#    0.000    0.750    5.000    1.125    7.000    3.500 
#    4.500    0.000    0.000    0.000    0.000    0.000 
#    0.000    0.000    0.000    0.000    0.000    0.000 
#
# Total GULP energy -198300.973266 kJ/mol
# GULP energy per Si atom -12393.810829 kJ/mol
# Density = 2.361488 g / cm^3
# Si number density = 23.668749 Si / 1000 Ang^3
#
#
#
# Elastic Constant Matrix: (Units=GPa)
#
#
# Indices 1 2 3 4 5 6 
#
# 1 100.9316 27.7178 18.8138 18.1732 -9.8681 -12.7885
# 2 27.7178 109.1732 35.3721 17.5587 11.2115 -9.1512
# 3 18.8138 35.3721 69.0134 12.4060 0.6250 -6.9967
# 4 18.1732 17.5587 12.4060 39.0866 -3.8524 5.1088
# 5 -9.8681 11.2115 0.6250 -3.8524 31.8737 0.6574
# 6 -12.7885 -9.1512 -6.9967 5.1088 0.6574 39.8455
#
#
#
# Elastic Compliance Matrix: (Units=1/GPa)
#
#
# Indices 1 2 3 4 5 6 
#
# 1 0.012396 -0.002145 -0.001112 -0.004552 0.003985 0.003809
# 2 -0.002145 0.012674 -0.004958 -0.003923 -0.005539 0.001946
# 3 -0.001112 -0.004958 0.018119 -0.003219 0.000612 0.002089
# 4 -0.004552 -0.003923 -0.003219 0.031805 0.004024 -0.007072
# 5 0.003985 -0.005539 0.000612 0.004024 0.035051 -0.000980
# 6 0.003809 0.001946 0.002089 -0.007072 -0.000980 0.028056
#
#
# Mechanical properties :
#
#
# Convention : Reuss Voigt Hill
#
# Bulk Modulus (GPa) = 37.37077 49.21395 43.29236
# Shear Modulus (GPa) = 30.59038 35.30877 32.94958
#
# Velocity S-wave (km/s) = 3.59895 3.86656 3.73515
# Velocity P-wave (km/s) = 5.75267 6.38527 6.07721
#
# Compressibility (1/GPa) = 0.02675888
#
# Stress axis : x y z
#
# Youngs Moduli (GPa) = 80.67285 78.90369 55.18968
#
# Poissons Ratio (x) = 0.16924 0.06135
# Poissons Ratio (y) = 0.17304 0.27366
# Poissons Ratio (z) = 0.08967 0.39124
#
# Static dielectric constant tensor:
#      x y z
#    x 4.129880 -0.268110 0.268240 
#    y -0.268110 4.589990 -0.103220 
#    z 0.268240 -0.103220 4.497510 
# 
# 
# High freq. dielectric constant tensor:
#      x y z
#    x 1.932880 -0.015460 0.018920 
#    y -0.015460 1.951620 0.001000 
#    z 0.018920 0.001000 1.931150 
# 
# From -- ./inp_files/209483.got.cif
#   From: 2010.06.25/outbox.cif.g09.slc.cpg/sg2_105_cif.got.tgz:209483.got - 2010.06.27 13:26:56.
