data_PCOD8034711
_publ_section_title
;
Structure prediction by ZEFSAII (Michael W. Deem and Ramdas Pophale) SiO2 
 PCOD8034711
Probable space group: P -1
;
_chemical_formula_sum "Si O2"
_cell_formula_units_Z 16
_cell_length_a 8.860121
_cell_length_b 5.443955
_cell_length_c 17.791675
_cell_angle_alpha 61.673323
_cell_angle_beta 98.446502
_cell_angle_gamma 67.820966
_cell_volume 641.128717
_symmetry_space_group_name_H-M "P -1"
_symmetry_group_IT_number 2
_symmetry_cell_setting 'triclinic'
loop_
_space_group_symop_operation_xyz
x,y,z
-x,-y,-z
loop_
_atom_site_type_symbol
_atom_site_label
_atom_site_fract_x
_atom_site_fract_y
_atom_site_fract_z
Si Si1 0.244930 0.655601 0.809215
Si Si2 0.353943 0.602291 0.093445
Si Si3 0.885770 0.169426 0.675300
Si Si4 0.365979 0.427655 0.691459
Si Si5 0.550673 0.796402 0.607682
Si Si6 0.893588 0.332809 0.488759
Si Si7 0.189201 0.368974 0.991674
Si Si8 0.691496 0.849878 0.751288
O O1 0.431739 0.617540 0.852473
O O2 0.260795 0.494088 0.752224
O O3 0.174021 0.501302 0.887506
O O4 0.092552 0.039382 0.729751
O O5 0.299120 0.501305 0.026514
O O6 0.262916 0.508331 0.168074
O O7 0.288681 0.979497 0.044800
O O8 0.750878 0.487256 0.664931
O O9 0.827595 0.245425 0.572762
O O10 0.865795 0.868507 0.747322
O O11 0.399123 0.718095 0.628508
O O12 0.256464 0.406060 0.616031
O O13 0.558054 0.103229 0.767761
O O14 0.565928 0.998485 0.647208
O O15 0.500000 0.000000 0.500000
O O16 0.000000 0.500000 0.500000
O O17 0.000000 0.000000 0.500000
O O18 0.000000 0.500000 0.000000
#
# Coordination Sequence:
#
# PCOD8034711 Si02
#       8
#     2   2   2   2   2   2   2   2
#     4  12  26  49  79 115 159 203 260 327 397 477
#     4  12  27  53  80 117 158 204 257 324 404 474
#     4  11  27  46  73 115 152 211 264 324 390 460
#     4  11  25  47  72 110 154 210 264 323 390 462
#     4  11  24  45  76 107 153 207 268 322 387 455
#     4  12  28  47  70 112 163 203 264 323 392 455
#     4  12  29  54  83 118 156 205 258 328 399 479
#     4  11  25  46  76 106 153 204 264 320 386 468
#
# _framework density 24.955988000000001
#
# number of rings (size 3 to 8) (size 9 to 14) (size 15 to 20)
#    0.000    0.500    2.500    4.125   10.500    3.000 
#    2.250    0.000    0.000    0.000    0.000    0.000 
#    0.000    0.000    0.000    0.000    0.000    0.000 
#
# Total GULP energy -198254.349429 kJ/mol
# GULP energy per Si atom -12390.896839 kJ/mol
# Density = 2.489919 g / cm^3
# Si number density = 24.955988 Si / 1000 Ang^3
#
#
#
# Elastic Constant Matrix: (Units=GPa)
#
#
# Indices 1 2 3 4 5 6 
#
# 1 118.6923 46.7395 55.0518 7.5067 2.6550 -6.4804
# 2 46.7395 105.4322 40.7890 4.0998 4.7857 5.9028
# 3 55.0518 40.7890 153.8113 18.3745 -8.8282 -7.0997
# 4 7.5067 4.0998 18.3745 29.5633 -1.7577 -6.2904
# 5 2.6550 4.7857 -8.8282 -1.7577 57.6775 4.4886
# 6 -6.4804 5.9028 -7.0997 -6.2904 4.4886 38.1657
#
#
#
# Elastic Compliance Matrix: (Units=1/GPa)
#
#
# Indices 1 2 3 4 5 6 
#
# 1 0.011545 -0.004034 -0.003000 -0.000109 -0.000823 0.002105
# 2 -0.004034 0.012242 -0.001974 -0.000109 -0.000913 -0.002856
# 3 -0.003000 -0.001974 0.008706 -0.004171 0.001464 0.000556
# 4 -0.000109 -0.000109 -0.004171 0.037618 0.000101 0.005411
# 5 -0.000823 -0.000913 0.001464 0.000101 0.017819 -0.001805
# 6 0.002105 -0.002856 0.000556 0.005411 -0.001805 0.028208
#
#
# Mechanical properties :
#
#
# Convention : Reuss Voigt Hill
#
# Bulk Modulus (GPa) = 69.06545 73.67739 71.37142
# Shear Modulus (GPa) = 35.97633 40.77166 38.37400
#
# Velocity S-wave (km/s) = 3.80095 4.04634 3.92556
# Velocity P-wave (km/s) = 6.85550 7.17060 7.01482
#
# Compressibility (1/GPa) = 0.01447902
#
# Stress axis : x y z
#
# Youngs Moduli (GPa) = 86.61671 81.68372 114.85727
#
# Poissons Ratio (x) = 0.32951 0.34452
# Poissons Ratio (y) = 0.34941 0.22673
# Poissons Ratio (z) = 0.25981 0.16124
#
# Static dielectric constant tensor:
#      x y z
#    x 4.621370 -0.057610 -0.028880 
#    y -0.057610 4.570460 0.136860 
#    z -0.028880 0.136860 4.923260 
# 
# 
# High freq. dielectric constant tensor:
#      x y z
#    x 2.000500 -0.007690 -0.003840 
#    y -0.007690 1.992540 0.006540 
#    z -0.003840 0.006540 2.012640 
# 
# From -- ./inp_files/552382.got.cif
#   From: 2010.06.25/outbox.cif.g09.slc.cpg/sg2_277_cif.got.tgz:552382.got - 2010.06.27 13:26:56.
