data_PCOD8034089
_publ_section_title
;
Structure prediction by ZEFSAII (Michael W. Deem and Ramdas Pophale) SiO2 
 PCOD8034089
Probable space group: P -1
;
_chemical_formula_sum "Si O2"
_cell_formula_units_Z 16
_cell_length_a 9.248219
_cell_length_b 12.086547
_cell_length_c 8.571064
_cell_angle_alpha 52.763637
_cell_angle_beta 99.295418
_cell_angle_gamma 113.771867
_cell_volume 693.568187
_symmetry_space_group_name_H-M "P -1"
_symmetry_group_IT_number 2
_symmetry_cell_setting 'triclinic'
loop_
_space_group_symop_operation_xyz
x,y,z
-x,-y,-z
loop_
_atom_site_type_symbol
_atom_site_label
_atom_site_fract_x
_atom_site_fract_y
_atom_site_fract_z
Si Si1 0.765433 0.328453 0.609369
Si Si2 0.326560 0.952559 0.956023
Si Si3 0.092318 0.358712 0.527347
Si Si4 0.000649 0.837410 0.607048
Si Si5 0.834186 0.862736 0.076980
Si Si6 0.346472 0.881562 0.664081
Si Si7 0.736904 0.693761 0.906376
Si Si8 0.577653 0.356256 0.267859
O O1 0.779275 0.468441 0.605556
O O2 0.614072 0.294463 0.494517
O O3 0.920631 0.369664 0.493215
O O4 0.769092 0.194294 0.833111
O O5 0.320004 0.924493 0.796464
O O6 0.278534 0.093014 0.864399
O O7 0.500000 0.000000 0.000000
O O8 0.140277 0.288441 0.747311
O O9 0.105214 0.253199 0.479306
O O10 0.179539 0.859930 0.574487
O O11 0.912541 0.732835 0.829249
O O12 0.000000 0.000000 0.500000
O O13 0.757101 0.827983 0.919727
O O14 0.000000 0.000000 0.000000
O O15 0.363389 0.721527 0.796269
O O16 0.500000 0.000000 0.500000
O O17 0.611932 0.691779 0.749861
O O18 0.674031 0.534535 0.119803
#
# Coordination Sequence:
#
# PCOD8034089 Si02
#       8
#     2   2   2   2   2   2   2   2
#     4  11  24  46  71 106 144 190 241 302 364 427
#     4  12  27  43  73 107 140 192 240 293 364 436
#     4  11  24  43  72 106 146 187 239 304 364 433
#     4  12  26  43  71 107 141 190 245 298 365 435
#     4  12  23  47  73 105 147 187 246 297 362 440
#     4  12  26  46  74 102 146 192 241 303 363 434
#     4  11  26  45  74 109 147 196 241 301 372 437
#     4  11  24  48  73 102 153 193 239 304 366 439
#
# _framework density 23.069109999999998
#
# number of rings (size 3 to 8) (size 9 to 14) (size 15 to 20)
#    0.000    0.500    3.750    4.500    1.750    1.500 
#    0.000    1.250    0.000    0.000    0.000    0.000 
#    0.000    0.000    0.000    0.000    0.000    0.000 
#
# Total GULP energy -198284.863065 kJ/mol
# GULP energy per Si atom -12392.803942 kJ/mol
# Density = 2.301660 g / cm^3
# Si number density = 23.069110 Si / 1000 Ang^3
#
#
#
# Elastic Constant Matrix: (Units=GPa)
#
#
# Indices 1 2 3 4 5 6 
#
# 1 119.0597 39.6618 21.8517 -2.5697 -0.1347 -0.3769
# 2 39.6618 157.8734 29.4403 7.9120 -3.6747 -8.6119
# 3 21.8517 29.4403 77.8787 7.8850 0.3809 4.8921
# 4 -2.5697 7.9120 7.8850 38.0399 -3.6958 0.9030
# 5 -0.1347 -3.6747 0.3809 -3.6958 38.9380 0.1648
# 6 -0.3769 -8.6119 4.8921 0.9030 0.1648 35.4868
#
#
#
# Elastic Compliance Matrix: (Units=1/GPa)
#
#
# Indices 1 2 3 4 5 6 
#
# 1 0.009499 -0.002095 -0.002014 0.001499 -0.000002 -0.000168
# 2 -0.002095 0.007471 -0.002249 -0.001222 0.000595 0.002129
# 3 -0.002014 -0.002249 0.014692 -0.002713 -0.000610 -0.002521
# 4 0.001499 -0.001222 -0.002713 0.027466 0.002526 -0.000617
# 5 -0.000002 0.000595 -0.000610 0.002526 0.025983 0.000043
# 6 -0.000168 0.002129 -0.002521 -0.000617 0.000043 0.029057
#
#
# Mechanical properties :
#
#
# Convention : Reuss Voigt Hill
#
# Bulk Modulus (GPa) = 52.78655 59.63551 56.21103
# Shear Modulus (GPa) = 37.53724 40.08350 38.81037
#
# Velocity S-wave (km/s) = 4.03819 4.17290 4.10610
# Velocity P-wave (km/s) = 6.68388 7.00888 6.84831
#
# Compressibility (1/GPa) = 0.01894422
#
# Stress axis : x y z
#
# Youngs Moduli (GPa) = 105.27911 133.84711 68.06398
#
# Poissons Ratio (x) = 0.28040 0.13711
# Poissons Ratio (y) = 0.22056 0.15311
# Poissons Ratio (z) = 0.21207 0.30108
#
# Static dielectric constant tensor:
#      x y z
#    x 4.671300 0.050120 -0.135550 
#    y 0.050120 4.514840 -0.115860 
#    z -0.135550 -0.115860 3.916200 
# 
# 
# High freq. dielectric constant tensor:
#      x y z
#    x 1.911460 0.000970 0.010670 
#    y 0.000970 1.941960 0.000630 
#    z 0.010670 0.000630 1.892890 
# 
# From -- ./inp_files/185133.got.cif
#   From: 2010.06.25/outbox.cif.g09.slc.cpg/sg2_93_cif.got.tgz:185133.got - 2010.06.27 13:26:56.
