data_PCOD8034526
_publ_section_title
;
Structure prediction by ZEFSAII (Michael W. Deem and Ramdas Pophale) SiO2 
 PCOD8034526
Probable space group: P -1
;
_chemical_formula_sum "Si O2"
_cell_formula_units_Z 16
_cell_length_a 8.585279
_cell_length_b 16.207557
_cell_length_c 8.565005
_cell_angle_alpha 81.569920
_cell_angle_beta 103.949350
_cell_angle_gamma 44.259449
_cell_volume 711.939799
_symmetry_space_group_name_H-M "P -1"
_symmetry_group_IT_number 2
_symmetry_cell_setting 'triclinic'
loop_
_space_group_symop_operation_xyz
x,y,z
-x,-y,-z
loop_
_atom_site_type_symbol
_atom_site_label
_atom_site_fract_x
_atom_site_fract_y
_atom_site_fract_z
Si Si1 0.386567 0.181111 0.990683
Si Si2 0.102562 0.070320 0.218474
Si Si3 0.372518 0.763118 0.128397
Si Si4 0.377296 0.068997 0.749537
Si Si5 0.108820 0.764222 0.591638
Si Si6 0.354370 0.512029 0.826516
Si Si7 0.879504 0.629044 0.852496
Si Si8 0.623728 0.196793 0.527568
O O1 0.493464 0.228923 0.963306
O O2 0.264074 0.185499 0.808297
O O3 0.184173 0.276639 0.055588
O O4 0.614305 0.025328 0.141043
O O5 0.901499 0.205076 0.237305
O O6 0.339745 0.024961 0.219340
O O7 0.204895 0.956483 0.391304
O O8 0.934600 0.107752 0.018454
O O9 0.473656 0.628355 0.171875
O O10 0.446806 0.761618 0.319931
O O11 0.183815 0.142903 0.539605
O O12 0.291507 0.609367 0.657094
O O13 0.206407 0.795791 0.491913
O O14 0.085408 0.583610 0.798808
O O15 0.500000 0.500000 0.000000
O O16 0.626651 0.709037 0.668241
O O17 0.000000 0.500000 0.000000
#
# Coordination Sequence:
#
# PCOD8034526 Si02
#       8
#     2   2   2   2   2   2   2   2
#     4  11  24  45  70 103 140 179 229 281 355 403
#     4  12  23  46  72 101 146 181 230 288 350 412
#     4  12  26  46  71 100 146 187 228 286 344 416
#     4  11  25  41  74 108 136 179 234 290 347 408
#     4  12  25  44  70 101 144 180 235 288 342 410
#     4  12  26  47  71 101 138 182 233 282 346 410
#     4  12  25  47  74 100 139 185 234 284 347 417
#     4  12  27  44  72 107 136 186 236 284 350 412
#
# _framework density 22.473808999999999
#
# number of rings (size 3 to 8) (size 9 to 14) (size 15 to 20)
#    0.000    0.250    3.750    5.625    3.500    2.000 
#    0.000    0.000    0.000    0.000    0.000    0.000 
#    0.000    0.000    0.000    0.000    0.000    0.000 
#
# Total GULP energy -198409.380386 kJ/mol
# GULP energy per Si atom -12400.586274 kJ/mol
# Density = 2.242266 g / cm^3
# Si number density = 22.473809 Si / 1000 Ang^3
#
#
#
# Elastic Constant Matrix: (Units=GPa)
#
#
# Indices 1 2 3 4 5 6 
#
# 1 84.2120 22.4468 39.8518 -13.4990 -3.6038 4.5535
# 2 22.4468 83.5041 45.5257 -14.4962 5.3218 21.8149
# 3 39.8518 45.5257 107.4475 -14.0492 -3.4191 5.4556
# 4 -13.4990 -14.4962 -14.0492 33.4924 1.2089 -7.1497
# 5 -3.6038 5.3218 -3.4191 1.2089 32.8634 -5.5271
# 6 4.5535 21.8149 5.4556 -7.1497 -5.5271 34.9964
#
#
#
# Elastic Compliance Matrix: (Units=1/GPa)
#
#
# Indices 1 2 3 4 5 6 
#
# 1 0.014955 -0.001054 -0.004598 0.003678 0.001260 0.000378
# 2 -0.001054 0.020280 -0.007418 0.002963 -0.006253 -0.011731
# 3 -0.004598 -0.007418 0.014264 0.001624 0.002755 0.003765
# 4 0.003678 0.002963 0.001624 0.034248 -0.000436 0.004349
# 5 0.001260 -0.006253 0.002755 -0.000436 0.033308 0.008476
# 6 0.000378 -0.011731 0.003765 0.004349 0.008476 0.037478
#
#
# Mechanical properties :
#
#
# Convention : Reuss Voigt Hill
#
# Bulk Modulus (GPa) = 42.80974 54.53470 48.67222
# Shear Modulus (GPa) = 26.53096 31.42640 28.97868
#
# Velocity S-wave (km/s) = 3.43961 3.74352 3.59478
# Velocity P-wave (km/s) = 5.90463 6.55773 6.23973
#
# Compressibility (1/GPa) = 0.02335917
#
# Stress axis : x y z
#
# Youngs Moduli (GPa) = 66.86812 49.30883 70.10557
#
# Poissons Ratio (x) = 0.05196 0.32238
# Poissons Ratio (y) = 0.07046 0.52004
# Poissons Ratio (z) = 0.30749 0.36577
#
# Static dielectric constant tensor:
#      x y z
#    x 4.037800 0.253180 -0.038900 
#    y 0.253180 4.282340 -0.090050 
#    z -0.038900 -0.090050 4.138260 
# 
# 
# High freq. dielectric constant tensor:
#      x y z
#    x 1.890750 0.016030 -0.004620 
#    y 0.016030 1.892560 -0.003120 
#    z -0.004620 -0.003120 1.895160 
# 
# From -- ./inp_files/207011.got.cif
#   From: 2010.06.25/outbox.cif.g09.slc.cpg/sg2_104_cif.got.tgz:207011.got - 2010.06.27 13:26:56.
