data_PCOD8034739
_publ_section_title
;
Structure prediction by ZEFSAII (Michael W. Deem and Ramdas Pophale) SiO2 
 PCOD8034739
Probable space group: P -1
;
_chemical_formula_sum "Si O2"
_cell_formula_units_Z 12
_cell_length_a 9.450719
_cell_length_b 15.073320
_cell_length_c 6.532973
_cell_angle_alpha 100.872277
_cell_angle_beta 90.548138
_cell_angle_gamma 37.082052
_cell_volume 535.237680
_symmetry_space_group_name_H-M "P -1"
_symmetry_group_IT_number 2
_symmetry_cell_setting 'triclinic'
loop_
_space_group_symop_operation_xyz
x,y,z
-x,-y,-z
loop_
_atom_site_type_symbol
_atom_site_label
_atom_site_fract_x
_atom_site_fract_y
_atom_site_fract_z
Si Si1 0.339846 0.181444 0.233560
Si Si2 0.291846 0.005455 0.191661
Si Si3 0.638792 0.464880 0.792023
Si Si4 0.493292 0.239588 0.579768
Si Si5 0.906653 0.455362 0.065291
Si Si6 0.757506 0.253750 0.388942
O O1 0.337711 0.084708 0.300751
O O2 0.327076 0.266848 0.437506
O O3 0.106542 0.303310 0.138374
O O4 0.585501 0.069901 0.060716
O O5 0.009875 0.127569 0.217424
O O6 0.409312 0.876421 0.296162
O O7 0.767598 0.318946 0.604726
O O8 0.456541 0.614415 0.712838
O O9 0.500000 0.500000 0.000000
O O10 0.848703 0.422602 0.855815
O O11 0.331618 0.404205 0.741304
O O12 0.714581 0.174708 0.439790
O O13 0.000000 0.500000 0.000000
#
# Coordination Sequence:
#
# PCOD8034739 Si02
#       6
#     2   2   2   2   2   2
#     4  11  26  46  69 101 138 181 225 278 341 401
#     4  11  26  46  66 102 138 183 221 278 344 400
#     4  11  24  46  68 103 137 175 228 279 339 397
#     4  12  25  45  69 105 135 178 230 277 339 399
#     4  12  24  44  73 101 136 177 228 282 333 399
#     4  11  26  43  73 101 134 182 225 279 339 403
#
# _framework density 22.419944000000001
#
# number of rings (size 3 to 8) (size 9 to 14) (size 15 to 20)
#    0.000    0.667    3.333    3.500    4.667    4.667 
#    0.000    0.000    0.000    0.000    0.000    0.000 
#    0.000    0.000    0.000    0.000    0.000    0.000 
#
# Total GULP energy -148876.371831 kJ/mol
# GULP energy per Si atom -12406.364319 kJ/mol
# Density = 2.236891 g / cm^3
# Si number density = 22.419944 Si / 1000 Ang^3
#
#
#
# Elastic Constant Matrix: (Units=GPa)
#
#
# Indices 1 2 3 4 5 6 
#
# 1 113.1143 16.6232 19.2033 1.7573 -6.0702 2.8512
# 2 16.6232 77.1035 8.5189 16.3458 -3.5318 -4.2708
# 3 19.2033 8.5189 49.6916 2.3744 4.8110 0.1392
# 4 1.7573 16.3458 2.3744 21.0637 -1.5565 -3.8425
# 5 -6.0702 -3.5318 4.8110 -1.5565 58.2482 -5.1990
# 6 2.8512 -4.2708 0.1392 -3.8425 -5.1990 37.9438
#
#
#
# Elastic Compliance Matrix: (Units=1/GPa)
#
#
# Indices 1 2 3 4 5 6 
#
# 1 0.009801 -0.001918 -0.003620 0.001042 0.001172 -0.000673
# 2 -0.001918 0.016176 -0.001524 -0.012019 0.000661 0.000844
# 3 -0.003620 -0.001524 0.022075 -0.001257 -0.002365 -0.000432
# 4 0.001042 -0.012019 -0.001257 0.057807 0.001441 0.004625
# 5 0.001172 0.000661 -0.002365 0.001441 0.017794 0.002579
# 6 -0.000673 0.000844 -0.000432 0.004625 0.002579 0.027324
#
#
# Mechanical properties :
#
#
# Convention : Reuss Voigt Hill
#
# Bulk Modulus (GPa) = 29.47428 36.51112 32.99270
# Shear Modulus (GPa) = 28.34317 36.48873 32.41595
#
# Velocity S-wave (km/s) = 3.55941 4.03862 3.80656
# Velocity P-wave (km/s) = 5.48339 6.16991 5.83675
#
# Compressibility (1/GPa) = 0.03392789
#
# Stress axis : x y z
#
# Youngs Moduli (GPa) = 102.03403 61.81862 45.30076
#
# Poissons Ratio (x) = 0.11854 0.16399
# Poissons Ratio (y) = 0.19566 0.06905
# Poissons Ratio (z) = 0.36937 0.09423
#
# Static dielectric constant tensor:
#      x y z
#    x 3.053050 0.676590 -2.685680 
#    y 0.676590 3.816680 1.574200 
#    z -2.685680 1.574200 -1.448390 
# 
# 
# High freq. dielectric constant tensor:
#      x y z
#    x 1.903530 0.006700 -0.008070 
#    y 0.006700 1.883540 -0.001920 
#    z -0.008070 -0.001920 1.885620 
# 
# From -- ./inp_files/22428.got.cif
#   From: 2010.06.25/outbox.cif.g09.slc.cpg/sg2_12_cif.got.tgz:22428.got - 2010.06.27 13:26:56.
