data_PCOD8034668
_publ_section_title
;
Structure prediction by ZEFSAII (Michael W. Deem and Ramdas Pophale) SiO2 
 PCOD8034668
Probable space group: P -1
;
_chemical_formula_sum "Si O2"
_cell_formula_units_Z 14
_cell_length_a 8.841792
_cell_length_b 12.952507
_cell_length_c 8.389728
_cell_angle_alpha 132.545575
_cell_angle_beta 115.853119
_cell_angle_gamma 51.736066
_cell_volume 555.549831
_symmetry_space_group_name_H-M "P -1"
_symmetry_group_IT_number 2
_symmetry_cell_setting 'triclinic'
loop_
_space_group_symop_operation_xyz
x,y,z
-x,-y,-z
loop_
_atom_site_type_symbol
_atom_site_label
_atom_site_fract_x
_atom_site_fract_y
_atom_site_fract_z
Si Si1 0.643306 0.286279 0.729779
Si Si2 0.602490 0.067887 0.729995
Si Si3 0.770183 0.442998 0.190443
Si Si4 0.966888 0.469199 0.772029
Si Si5 0.348727 0.194015 0.052193
Si Si6 0.735052 0.069223 0.255955
Si Si7 0.966125 0.198878 0.315991
O O1 0.608631 0.211700 0.794147
O O2 0.444877 0.429232 0.714828
O O3 0.764663 0.143101 0.510594
O O4 0.769851 0.362171 0.935365
O O5 0.463248 0.150563 0.897080
O O6 0.500000 0.000000 0.500000
O O7 0.812294 0.933447 0.747512
O O8 0.880286 0.309342 0.236576
O O9 0.875178 0.544792 0.299162
O O10 0.951865 0.307702 0.576457
O O11 0.766803 0.616987 0.779012
O O12 0.000000 0.500000 0.000000
O O13 0.198053 0.121806 0.910823
O O14 0.504461 0.137131 0.206118
O O15 0.841198 0.109817 0.204939
#
# Coordination Sequence:
#
# PCOD8034668 Si02
#       7
#     2   2   2   2   2   2   2
#     4  11  24  45  74 103 149 191 245 294 364 429
#     4  12  25  46  74 106 142 193 238 302 357 433
#     4  11  26  45  73 108 145 194 241 300 361 432
#     4  12  26  45  72 105 144 190 238 302 355 437
#     4  11  26  45  73 103 152 183 242 294 371 423
#     4  11  26  45  73 107 143 191 239 302 357 429
#     4  12  28  46  77 106 149 186 251 295 364 428
#
# _framework density 25.200261000000001
#
# number of rings (size 3 to 8) (size 9 to 14) (size 15 to 20)
#    0.000    0.571    1.429    5.571    6.000    6.286 
#    0.000    0.000    0.000    0.000    0.000    0.000 
#    0.000    0.000    0.000    0.000    0.000    0.000 
#
# Total GULP energy -173577.993746 kJ/mol
# GULP energy per Si atom -12398.428125 kJ/mol
# Density = 2.514290 g / cm^3
# Si number density = 25.200261 Si / 1000 Ang^3
#
#
#
# Elastic Constant Matrix: (Units=GPa)
#
#
# Indices 1 2 3 4 5 6 
#
# 1 99.6549 28.5508 8.9805 6.7871 15.6932 8.3421
# 2 28.5508 107.9951 -8.8852 -4.4606 9.1486 -0.7773
# 3 8.9805 -8.8852 87.7653 1.6347 10.7536 -1.4219
# 4 6.7871 -4.4606 1.6347 40.0861 7.7810 1.8176
# 5 15.6932 9.1486 10.7536 7.7810 28.4901 -1.1822
# 6 8.3421 -0.7773 -1.4219 1.8176 -1.1822 44.7911
#
#
#
# Elastic Compliance Matrix: (Units=1/GPa)
#
#
# Indices 1 2 3 4 5 6 
#
# 1 0.012036 -0.002891 -0.000913 -0.001219 -0.005124 -0.002407
# 2 -0.002891 0.010509 0.001695 0.002141 -0.002981 0.000609
# 3 -0.000913 0.001695 0.012247 0.000767 -0.004856 0.000429
# 4 -0.001219 0.002141 0.000767 0.026899 -0.007694 -0.001006
# 5 -0.005124 -0.002981 -0.004856 -0.007694 0.042905 0.002193
# 6 -0.002407 0.000609 0.000429 -0.001006 0.002193 0.022897
#
#
# Mechanical properties :
#
#
# Convention : Reuss Voigt Hill
#
# Bulk Modulus (GPa) = 32.70660 39.18974 35.94817
# Shear Modulus (GPa) = 35.23588 40.45808 37.84698
#
# Velocity S-wave (km/s) = 3.74335 4.01117 3.87957
# Velocity P-wave (km/s) = 5.62943 6.08586 5.86209
#
# Compressibility (1/GPa) = 0.03057486
#
# Stress axis : x y z
#
# Youngs Moduli (GPa) = 83.08079 95.15900 81.65518
#
# Poissons Ratio (x) = 0.27508 0.07453
# Poissons Ratio (y) = 0.24017 -0.13840
# Poissons Ratio (z) = 0.07583 -0.16129
#
# Static dielectric constant tensor:
#      x y z
#    x 4.737220 -0.148420 0.497190 
#    y -0.148420 4.679280 0.164860 
#    z 0.497190 0.164860 4.806030 
# 
# 
# High freq. dielectric constant tensor:
#      x y z
#    x 2.004240 0.001480 0.009640 
#    y 0.001480 2.010500 0.004420 
#    z 0.009640 0.004420 2.022170 
# 
# From -- ./inp_files/190944.got.cif
#   From: 2010.06.25/outbox.cif.g09.slc.cpg/sg2_96_cif.got.tgz:190944.got - 2010.06.27 13:26:56.
