data_PCOD8034754
_publ_section_title
;
Structure prediction by ZEFSAII (Michael W. Deem and Ramdas Pophale) SiO2 
 PCOD8034754
Probable space group: P -1
;
_chemical_formula_sum "Si O2"
_cell_formula_units_Z 16
_cell_length_a 18.065981
_cell_length_b 10.996870
_cell_length_c 9.882700
_cell_angle_alpha 122.245342
_cell_angle_beta 49.943918
_cell_angle_gamma 151.742757
_cell_volume 708.464644
_symmetry_space_group_name_H-M "P -1"
_symmetry_group_IT_number 2
_symmetry_cell_setting 'triclinic'
loop_
_space_group_symop_operation_xyz
x,y,z
-x,-y,-z
loop_
_atom_site_type_symbol
_atom_site_label
_atom_site_fract_x
_atom_site_fract_y
_atom_site_fract_z
Si Si1 0.704191 0.808599 0.221233
Si Si2 0.145666 0.061887 0.602319
Si Si3 0.341842 0.497487 0.421807
Si Si4 0.440116 0.904782 0.165215
Si Si5 0.853068 0.265886 0.631016
Si Si6 0.762651 0.340231 0.231253
Si Si7 0.748467 0.616374 0.847421
Si Si8 0.973055 0.354775 0.120974
O O1 0.726056 0.763802 0.316636
O O2 0.538761 0.708784 0.358145
O O3 0.882036 0.116336 0.170550
O O4 0.675325 0.652197 0.049561
O O5 0.210392 0.239807 0.510061
O O6 0.145118 0.901027 0.447596
O O7 0.955492 0.874303 0.760390
O O8 0.292089 0.601696 0.567997
O O9 0.319520 0.437390 0.254742
O O10 0.326263 0.906502 0.330615
O O11 0.320433 0.617151 0.149116
O O12 0.597441 0.086990 0.190565
O O13 0.500000 0.000000 0.000000
O O14 0.000000 0.500000 0.500000
O O15 0.881325 0.379395 0.808549
O O16 0.819927 0.272822 0.208777
O O17 0.923741 0.587187 0.092778
#
# Coordination Sequence:
#
# PCOD8034754 Si02
#       8
#     2   2   2   2   2   2   2   2
#     4  12  26  45  72 100 141 180 232 284 346 406
#     4  12  26  44  73 101 140 184 228 283 342 414
#     4  12  28  46  70 104 139 184 228 287 342 412
#     4  12  26  44  72 105 135 183 230 287 340 407
#     4  12  23  45  72 103 137 176 235 282 346 402
#     4  11  26  44  71 100 141 178 235 279 347 410
#     4  12  27  47  70 101 142 183 228 283 349 408
#     4  11  24  46  69 102 136 186 223 288 344 411
#
# _framework density 22.584049
#
# number of rings (size 3 to 8) (size 9 to 14) (size 15 to 20)
#    0.000    0.250    3.750    4.500    3.500    3.000 
#    0.000    0.000    0.000    0.000    0.000    0.000 
#    0.000    0.000    0.000    0.000    0.000    0.000 
#
# Total GULP energy -198493.704157 kJ/mol
# GULP energy per Si atom -12405.856510 kJ/mol
# Density = 2.253265 g / cm^3
# Si number density = 22.584049 Si / 1000 Ang^3
#
#
#
# Elastic Constant Matrix: (Units=GPa)
#
#
# Indices 1 2 3 4 5 6 
#
# 1 84.0572 17.8159 23.2481 -3.7954 7.9473 19.1954
# 2 17.8159 76.5880 24.2712 -2.7348 3.3990 4.0624
# 3 23.2481 24.2712 93.8886 7.1868 0.3654 -1.6226
# 4 -3.7954 -2.7348 7.1868 44.3570 4.3299 3.3243
# 5 7.9473 3.3990 0.3654 4.3299 50.7011 -5.5300
# 6 19.1954 4.0624 -1.6226 3.3243 -5.5300 44.1984
#
#
#
# Elastic Compliance Matrix: (Units=1/GPa)
#
#
# Indices 1 2 3 4 5 6 
#
# 1 0.015377 -0.001791 -0.003661 0.002663 -0.003283 -0.007259
# 2 -0.001791 0.014721 -0.003488 0.001478 -0.000908 -0.000928
# 3 -0.003661 -0.003488 0.012725 -0.002920 0.001266 0.002756
# 4 0.002663 0.001478 -0.002920 0.023889 -0.002924 -0.003562
# 5 -0.003283 -0.000908 0.001266 -0.002924 0.021020 0.004406
# 6 -0.007259 -0.000928 0.002756 -0.003562 0.004406 0.026784
#
#
# Mechanical properties :
#
#
# Convention : Reuss Voigt Hill
#
# Bulk Modulus (GPa) = 40.08986 42.80047 41.44516
# Shear Modulus (GPa) = 35.53401 40.46456 37.99929
#
# Velocity S-wave (km/s) = 3.97093 4.23748 4.10637
# Velocity P-wave (km/s) = 6.23011 6.55243 6.39331
#
# Compressibility (1/GPa) = 0.02494396
#
# Stress axis : x y z
#
# Youngs Moduli (GPa) = 65.03133 67.92988 78.58367
#
# Poissons Ratio (x) = 0.12166 0.28771
# Poissons Ratio (y) = 0.11647 0.27408
# Poissons Ratio (z) = 0.23809 0.23692
#
# Static dielectric constant tensor:
#      x y z
#    x 3.886200 -0.948110 -1.037940 
#    y -0.948110 -0.157000 -4.078250 
#    z -1.037940 -4.078250 0.401530 
# 
# 
# High freq. dielectric constant tensor:
#      x y z
#    x 1.905870 0.007420 -0.001080 
#    y 0.007420 1.891530 -0.008300 
#    z -0.001080 -0.008300 1.905280 
# 
# From -- ./inp_files/333598.got.cif
#   From: 2010.06.25/outbox.cif.g09.slc.cpg/sg2_167_cif.got.tgz:333598.got - 2010.06.27 13:26:56.
