data_PCOD8034062
_publ_section_title
;
Structure prediction by ZEFSAII (Michael W. Deem and Ramdas Pophale) SiO2 
 PCOD8034062
Probable space group: P -1
;
_chemical_formula_sum "Si O2"
_cell_formula_units_Z 16
_cell_length_a 9.142505
_cell_length_b 12.150759
_cell_length_c 15.521657
_cell_angle_alpha 44.098281
_cell_angle_beta 38.311095
_cell_angle_gamma 66.808864
_cell_volume 683.892431
_symmetry_space_group_name_H-M "P -1"
_symmetry_group_IT_number 2
_symmetry_cell_setting 'triclinic'
loop_
_space_group_symop_operation_xyz
x,y,z
-x,-y,-z
loop_
_atom_site_type_symbol
_atom_site_label
_atom_site_fract_x
_atom_site_fract_y
_atom_site_fract_z
Si Si1 0.431118 0.864961 0.916300
Si Si2 0.445176 0.342619 0.498985
Si Si3 0.721994 0.357831 0.195621
Si Si4 0.615596 0.514593 0.843858
Si Si5 0.022371 0.855584 0.239713
Si Si6 0.156876 0.811672 0.389676
Si Si7 0.180554 0.885231 0.842907
Si Si8 0.390313 0.280528 0.745853
O O1 0.318825 0.847322 0.882478
O O2 0.719284 0.016212 0.703338
O O3 0.404320 0.676204 0.065284
O O4 0.267613 0.931117 0.020967
O O5 0.615701 0.299093 0.372851
O O6 0.394854 0.223269 0.675906
O O7 0.608149 0.531195 0.352604
O O8 0.167290 0.337903 0.592834
O O9 0.546170 0.433882 0.181015
O O10 0.736626 0.194543 0.232204
O O11 0.000000 0.500000 0.000000
O O12 0.905116 0.662664 0.630872
O O13 0.500000 0.500000 0.000000
O O14 0.095716 0.881652 0.289597
O O15 0.778432 0.918602 0.304149
O O16 0.364126 0.732593 0.314384
O O17 0.872946 0.829573 0.023217
#
# Coordination Sequence:
#
# PCOD8034062 Si02
#       8
#     2   2   2   2   2   2   2   2
#     4  12  26  48  78 107 151 200 244 318 367 442
#     4  11  24  43  71 105 145 193 247 302 369 446
#     4  12  27  47  73 106 149 200 241 308 374 447
#     4  12  29  52  73 109 152 197 250 300 379 453
#     4  12  25  45  72 111 149 186 255 314 368 437
#     4  12  28  46  75 114 146 194 249 316 373 431
#     4  12  25  48  72 109 150 192 251 304 372 444
#     4  11  24  44  75 109 143 195 253 302 370 441
#
# _framework density 23.395492000000001
#
# number of rings (size 3 to 8) (size 9 to 14) (size 15 to 20)
#    0.000    0.250    6.250    2.250    7.000    2.000 
#    0.000    0.000    0.000    0.000    0.000    0.000 
#    0.000    0.000    0.000    0.000    0.000    0.000 
#
# Total GULP energy -198253.866401 kJ/mol
# GULP energy per Si atom -12390.866650 kJ/mol
# Density = 2.334224 g / cm^3
# Si number density = 23.395492 Si / 1000 Ang^3
#
#
#
# Elastic Constant Matrix: (Units=GPa)
#
#
# Indices 1 2 3 4 5 6 
#
# 1 106.4434 41.0160 32.9806 10.8840 -6.4814 -1.1313
# 2 41.0160 136.8827 40.9727 6.2025 6.6722 4.5040
# 3 32.9806 40.9727 141.5480 9.1054 -18.8685 11.9413
# 4 10.8840 6.2025 9.1054 37.6628 13.3631 4.1787
# 5 -6.4814 6.6722 -18.8685 13.3631 46.7175 1.6769
# 6 -1.1313 4.5040 11.9413 4.1787 1.6769 35.1293
#
#
#
# Elastic Compliance Matrix: (Units=1/GPa)
#
#
# Indices 1 2 3 4 5 6 
#
# 1 0.011522 -0.003048 -0.001381 -0.003526 0.002430 0.001535
# 2 -0.003048 0.009024 -0.002322 0.001047 -0.002933 -0.000450
# 3 -0.001381 -0.002322 0.009096 -0.002785 0.004709 -0.002732
# 4 -0.003526 0.001047 -0.002785 0.032224 -0.010887 -0.002615
# 5 0.002430 -0.002933 0.004709 -0.010887 0.027218 -0.001150
# 6 0.001535 -0.000450 -0.002732 -0.002615 -0.001150 0.029868
#
#
# Mechanical properties :
#
#
# Convention : Reuss Voigt Hill
#
# Bulk Modulus (GPa) = 61.96082 68.31253 65.13667
# Shear Modulus (GPa) = 36.27498 41.89557 39.08528
#
# Velocity S-wave (km/s) = 3.94193 4.23632 4.09177
# Velocity P-wave (km/s) = 6.87459 7.29321 7.08699
#
# Compressibility (1/GPa) = 0.01613923
#
# Stress axis : x y z
#
# Youngs Moduli (GPa) = 86.79075 110.81081 109.93807
#
# Poissons Ratio (x) = 0.33778 0.15183
# Poissons Ratio (y) = 0.26456 0.25531
# Poissons Ratio (z) = 0.11986 0.25733
#
# Static dielectric constant tensor:
#      x y z
#    x 4.371380 0.027470 -0.113090 
#    y 0.027470 4.395570 -0.121640 
#    z -0.113090 -0.121640 4.585670 
# 
# 
# High freq. dielectric constant tensor:
#      x y z
#    x 1.930970 0.010990 -0.010800 
#    y 0.010990 1.930570 -0.016900 
#    z -0.010800 -0.016900 1.948080 
# 
# From -- ./inp_files/209269.got.cif
#   From: 2010.06.25/outbox.cif.g09.slc.cpg/sg2_105_cif.got.tgz:209269.got - 2010.06.27 13:26:56.
