data_PCOD8034183
_publ_section_title
;
Structure prediction by ZEFSAII (Michael W. Deem and Ramdas Pophale) SiO2 
 PCOD8034183
Probable space group: P -1
;
_chemical_formula_sum "Si O2"
_cell_formula_units_Z 14
_cell_length_a 5.057951
_cell_length_b 6.541518
_cell_length_c 19.164576
_cell_angle_alpha 111.988165
_cell_angle_beta 102.021855
_cell_angle_gamma 76.987508
_cell_volume 567.450809
_symmetry_space_group_name_H-M "P -1"
_symmetry_group_IT_number 2
_symmetry_cell_setting 'triclinic'
loop_
_space_group_symop_operation_xyz
x,y,z
-x,-y,-z
loop_
_atom_site_type_symbol
_atom_site_label
_atom_site_fract_x
_atom_site_fract_y
_atom_site_fract_z
Si Si1 0.131157 0.497396 0.171466
Si Si2 0.723472 0.119056 0.307151
Si Si3 0.448422 0.686753 0.464485
Si Si4 0.212169 0.090960 0.573449
Si Si5 0.714926 0.979377 0.948050
Si Si6 0.158180 0.418883 0.324109
Si Si7 0.551788 0.755590 0.156723
O O1 0.260345 0.256554 0.119394
O O2 0.089210 0.492685 0.251291
O O3 0.346652 0.661977 0.186961
O O4 0.828638 0.580358 0.133285
O O5 0.827046 0.936731 0.349289
O O6 0.469359 0.303760 0.338514
O O7 0.968155 0.247434 0.316313
O O8 0.640263 0.981918 0.219259
O O9 0.500000 0.500000 0.500000
O O10 0.468787 0.900423 0.541045
O O11 0.154990 0.648251 0.402039
O O12 0.680794 0.678218 0.414850
O O13 0.000000 0.000000 0.500000
O O14 0.616865 0.182549 0.915611
O O15 0.500000 0.000000 0.000000
O O16 0.000000 0.000000 0.000000
#
# Coordination Sequence:
#
# PCOD8034183 Si02
#       7
#     2   2   2   2   2   2   2
#     4  12  27  48  78 110 148 197 246 296 374 439
#     4  12  26  46  73 104 146 193 245 308 362 432
#     4  11  24  44  66  98 141 190 242 303 365 430
#     4  11  26  41  68 101 143 189 247 303 364 428
#     4  12  28  49  79 113 155 188 241 306 365 442
#     4  12  26  45  75 102 143 194 245 303 371 430
#     4  12  27  48  78 109 151 196 247 301 365 443
#
# _framework density 24.671741999999998
#
# number of rings (size 3 to 8) (size 9 to 14) (size 15 to 20)
#    0.000    0.286    2.857    5.143    8.000    4.571 
#    0.000    0.000    0.000    0.000    0.000    0.000 
#    0.000    0.000    0.000    0.000    0.000    0.000 
#
# Total GULP energy -173530.588859 kJ/mol
# GULP energy per Si atom -12395.042061 kJ/mol
# Density = 2.461559 g / cm^3
# Si number density = 24.671742 Si / 1000 Ang^3
#
#
#
# Elastic Constant Matrix: (Units=GPa)
#
#
# Indices 1 2 3 4 5 6 
#
# 1 171.3921 59.9434 41.7563 -24.8232 5.9232 30.3221
# 2 59.9434 118.6274 58.4751 -21.6327 -6.7283 21.2219
# 3 41.7563 58.4751 134.4934 -19.7954 4.1668 8.3277
# 4 -24.8232 -21.6327 -19.7954 49.9411 -2.5716 -4.8897
# 5 5.9232 -6.7283 4.1668 -2.5716 40.4501 -7.2150
# 6 30.3221 21.2219 8.3277 -4.8897 -7.2150 58.4247
#
#
#
# Elastic Compliance Matrix: (Units=1/GPa)
#
#
# Indices 1 2 3 4 5 6 
#
# 1 0.007896 -0.002865 -0.000659 0.002023 -0.001978 -0.003038
# 2 -0.002865 0.012999 -0.004366 0.002420 0.002818 -0.002062
# 3 -0.000659 -0.004366 0.009793 0.001637 -0.001447 0.000490
# 4 0.002023 0.002420 0.001637 0.022788 0.001371 -0.000086
# 5 -0.001978 0.002818 -0.001447 0.001371 0.026355 0.003579
# 6 -0.003038 -0.002062 0.000490 -0.000086 0.003579 0.019807
#
#
# Mechanical properties :
#
#
# Convention : Reuss Voigt Hill
#
# Bulk Modulus (GPa) = 67.06951 82.76249 74.91600
# Shear Modulus (GPa) = 41.53245 47.38573 44.45909
#
# Velocity S-wave (km/s) = 4.10738 4.38727 4.24963
# Velocity P-wave (km/s) = 7.05251 7.69951 7.38310
#
# Compressibility (1/GPa) = 0.01490991
#
# Stress axis : x y z
#
# Youngs Moduli (GPa) = 126.64666 76.92630 102.10942
#
# Poissons Ratio (x) = 0.22039 0.06725
# Poissons Ratio (y) = 0.36283 0.44580
# Poissons Ratio (z) = 0.08341 0.33585
#
# Static dielectric constant tensor:
#      x y z
#    x -5.386350 -3.412200 -1.343640 
#    y -3.412200 3.857370 -0.845140 
#    z -1.343640 -0.845140 3.719900 
# 
# 
# High freq. dielectric constant tensor:
#      x y z
#    x 2.007480 -0.004550 -0.001450 
#    y -0.004550 2.009170 -0.000280 
#    z -0.001450 -0.000280 1.986730 
# 
# From -- ./inp_files/14373.got.cif
#   From: 2010.06.25/outbox.cif.g09.slc.cpg/sg2_8_cif.got.tgz:14373.got - 2010.06.27 13:26:56.
