data_PCOD8034334
_publ_section_title
;
Structure prediction by ZEFSAII (Michael W. Deem and Ramdas Pophale) SiO2 
 PCOD8034334
Probable space group: P -1
;
_chemical_formula_sum "Si O2"
_cell_formula_units_Z 14
_cell_length_a 9.197346
_cell_length_b 8.903712
_cell_length_c 12.156612
_cell_angle_alpha 123.880063
_cell_angle_beta 49.570612
_cell_angle_gamma 120.696833
_cell_volume 611.389756
_symmetry_space_group_name_H-M "P -1"
_symmetry_group_IT_number 2
_symmetry_cell_setting 'triclinic'
loop_
_space_group_symop_operation_xyz
x,y,z
-x,-y,-z
loop_
_atom_site_type_symbol
_atom_site_label
_atom_site_fract_x
_atom_site_fract_y
_atom_site_fract_z
Si Si1 0.320355 0.690062 0.220767
Si Si2 0.115606 0.079119 0.205326
Si Si3 0.245225 0.300158 0.024726
Si Si4 0.777744 0.955469 0.632916
Si Si5 0.907988 0.679493 0.123197
Si Si6 0.831303 0.317934 0.479056
Si Si7 0.552128 0.663965 0.456800
O O1 0.182660 0.486492 0.175651
O O2 0.269353 0.763384 0.392521
O O3 0.289141 0.854657 0.224062
O O4 0.533786 0.653094 0.105441
O O5 0.232245 0.142349 0.060742
O O6 0.235647 0.160796 0.291830
O O7 0.921551 0.157248 0.317442
O O8 0.064398 0.858251 0.165397
O O9 0.118901 0.242464 0.953996
O O10 0.636782 0.847298 0.562788
O O11 0.000000 0.000000 0.500000
O O12 0.709092 0.634245 0.275168
O O13 0.000000 0.500000 0.000000
O O14 0.659389 0.341811 0.492992
O O15 0.000000 0.500000 0.500000
O O16 0.500000 0.500000 0.500000
#
# Coordination Sequence:
#
# PCOD8034334 Si02
#       7
#     2   2   2   2   2   2   2
#     4  11  24  44  72 101 146 189 245 304 368 428
#     4  12  26  45  78 105 146 199 246 298 375 440
#     4  11  26  44  71 106 148 195 243 295 374 448
#     4  12  25  46  75 106 147 189 247 311 365 428
#     4  12  27  47  70 108 158 191 242 307 371 445
#     4  12  24  46  78 105 146 191 252 309 359 431
#     4  12  29  45  78 113 145 194 254 307 372 436
#
# _framework density 22.898651000000001
#
# number of rings (size 3 to 8) (size 9 to 14) (size 15 to 20)
#    0.000    0.286    5.714    2.143    4.000    2.857 
#    0.000    0.000    0.000    0.000    0.000    0.000 
#    0.000    0.000    0.000    0.000    0.000    0.000 
#
# Total GULP energy -173484.454378 kJ/mol
# GULP energy per Si atom -12391.746741 kJ/mol
# Density = 2.284653 g / cm^3
# Si number density = 22.898651 Si / 1000 Ang^3
#
#
#
# Elastic Constant Matrix: (Units=GPa)
#
#
# Indices 1 2 3 4 5 6 
#
# 1 152.0628 39.7601 32.6091 -0.3908 12.5060 1.5072
# 2 39.7601 122.7045 35.0251 9.8592 -0.8733 -1.4569
# 3 32.6091 35.0251 82.1514 0.0818 8.5189 -4.1915
# 4 -0.3908 9.8592 0.0818 42.8135 -18.0531 3.3877
# 5 12.5060 -0.8733 8.5189 -18.0531 36.9541 -3.8216
# 6 1.5072 -1.4569 -4.1915 3.3877 -3.8216 37.3156
#
#
#
# Elastic Compliance Matrix: (Units=1/GPa)
#
#
# Indices 1 2 3 4 5 6 
#
# 1 0.007726 -0.001912 -0.002033 -0.000478 -0.002510 -0.000829
# 2 -0.001912 0.009951 -0.003543 -0.002012 0.000750 0.000327
# 3 -0.002033 -0.003543 0.014868 -0.000592 -0.002972 0.001363
# 4 -0.000478 -0.002012 -0.000592 0.030190 0.014860 -0.001345
# 5 -0.002510 0.000750 -0.002972 0.014860 0.036094 0.002144
# 6 -0.000829 0.000327 0.001363 -0.001345 0.002144 0.027339
#
#
# Mechanical properties :
#
#
# Convention : Reuss Voigt Hill
#
# Bulk Modulus (GPa) = 56.91656 63.52302 60.21979
# Shear Modulus (GPa) = 34.01334 40.05161 37.03247
#
# Velocity S-wave (km/s) = 3.85825 4.18674 4.02585
# Velocity P-wave (km/s) = 6.69014 7.15352 6.92571
#
# Compressibility (1/GPa) = 0.01756958
#
# Stress axis : x y z
#
# Youngs Moduli (GPa) = 129.43937 100.48766 67.25736
#
# Poissons Ratio (x) = 0.19217 0.13672
# Poissons Ratio (y) = 0.24754 0.23828
# Poissons Ratio (z) = 0.26312 0.35600
#
# Static dielectric constant tensor:
#      x y z
#    x 1.814630 0.998220 1.523220 
#    y 0.998220 3.807830 -0.380010 
#    z 1.523220 -0.380010 3.743140 
# 
# 
# High freq. dielectric constant tensor:
#      x y z
#    x 1.913600 -0.012440 0.011730 
#    y -0.012440 1.903440 0.003340 
#    z 0.011730 0.003340 1.911810 
# 
# From -- ./inp_files/180005.got.cif
#   From: 2010.06.25/outbox.cif.g09.slc.cpg/sg2_91_cif.got.tgz:180005.got - 2010.06.27 13:26:56.
