data_PCOD8034430
_publ_section_title
;
Structure prediction by ZEFSAII (Michael W. Deem and Ramdas Pophale) SiO2 
 PCOD8034430
Probable space group: P -1
;
_chemical_formula_sum "Si O2"
_cell_formula_units_Z 12
_cell_length_a 8.774890
_cell_length_b 5.918731
_cell_length_c 11.260429
_cell_angle_alpha 63.271660
_cell_angle_beta 94.024160
_cell_angle_gamma 115.215173
_cell_volume 467.197577
_symmetry_space_group_name_H-M "P -1"
_symmetry_group_IT_number 2
_symmetry_cell_setting 'triclinic'
loop_
_space_group_symop_operation_xyz
x,y,z
-x,-y,-z
loop_
_atom_site_type_symbol
_atom_site_label
_atom_site_fract_x
_atom_site_fract_y
_atom_site_fract_z
Si Si1 0.192898 0.164065 0.286060
Si Si2 0.716239 0.040861 0.182534
Si Si3 0.122242 0.331188 0.724257
Si Si4 0.888499 0.339632 0.911503
Si Si5 0.687932 0.067580 0.454419
Si Si6 0.587330 0.833754 0.908011
O O1 0.191767 0.461636 0.191150
O O2 0.334153 0.115420 0.231434
O O3 0.241723 0.137202 0.431782
O O4 0.008283 0.921991 0.302330
O O5 0.709494 0.065686 0.316078
O O6 0.549933 0.043403 0.116177
O O7 0.721096 0.745593 0.222434
O O8 0.889152 0.308740 0.067473
O O9 0.188269 0.608859 0.580567
O O10 0.052805 0.372340 0.838965
O O11 0.742021 0.013331 0.962914
O O12 0.500000 0.000000 0.500000
O O13 0.500000 0.500000 0.000000
#
# Coordination Sequence:
#
# PCOD8034430 Si02
#       6
#     2   2   2   2   2   2
#     4  11  25  50  72 105 149 195 237 292 367 428
#     4  12  26  44  76 110 143 186 243 302 356 422
#     4  11  28  46  73 108 148 190 241 296 363 429
#     4  11  26  47  77 105 149 191 238 298 364 430
#     4  12  28  47  75 108 147 188 246 299 355 431
#     4  11  24  44  75 110 145 189 242 298 362 423
#
# _framework density 25.685064000000001
#
# number of rings (size 3 to 8) (size 9 to 14) (size 15 to 20)
#    0.000    0.667    3.333    2.500    4.667    8.667 
#    0.000    0.000    0.000    0.000    0.000    0.000 
#    0.000    0.000    0.000    0.000    0.000    0.000 
#
# Total GULP energy -148775.474606 kJ/mol
# GULP energy per Si atom -12397.956217 kJ/mol
# Density = 2.562660 g / cm^3
# Si number density = 25.685064 Si / 1000 Ang^3
#
#
#
# Elastic Constant Matrix: (Units=GPa)
#
#
# Indices 1 2 3 4 5 6 
#
# 1 139.5776 30.2877 58.3870 -4.5533 -6.0438 -38.5494
# 2 30.2877 81.9092 47.6190 -13.1295 -4.7512 -11.4197
# 3 58.3870 47.6190 174.2895 -6.9700 8.7470 -5.3844
# 4 -4.5533 -13.1295 -6.9700 44.8017 -2.9664 1.5951
# 5 -6.0438 -4.7512 8.7470 -2.9664 53.5333 -9.0810
# 6 -38.5494 -11.4197 -5.3844 1.5951 -9.0810 34.8198
#
#
#
# Elastic Compliance Matrix: (Units=1/GPa)
#
#
# Indices 1 2 3 4 5 6 
#
# 1 0.013441 0.000021 -0.004255 0.000481 0.004867 0.015476
# 2 0.000021 0.016301 -0.004294 0.004138 0.003292 0.005374
# 3 -0.004255 -0.004294 0.008306 -0.000409 -0.003200 -0.005651
# 4 0.000481 0.004138 -0.000409 0.023606 0.002012 0.001270
# 5 0.004867 0.003292 -0.003200 0.002012 0.022133 0.011653
# 6 0.015476 0.005374 -0.005651 0.001270 0.011653 0.049723
#
#
# Mechanical properties :
#
#
# Convention : Reuss Voigt Hill
#
# Bulk Modulus (GPa) = 47.64086 74.26261 60.95173
# Shear Modulus (GPa) = 31.73315 43.92980 37.83147
#
# Velocity S-wave (km/s) = 3.51874 4.14009 3.84200
# Velocity P-wave (km/s) = 5.92428 7.19926 6.59266
#
# Compressibility (1/GPa) = 0.02099039
#
# Stress axis : x y z
#
# Youngs Moduli (GPa) = 74.40062 61.34596 120.39405
#
# Poissons Ratio (x) = -0.00129 0.51231
# Poissons Ratio (y) = -0.00156 0.51703
# Poissons Ratio (z) = 0.31659 0.26345
#
# Static dielectric constant tensor:
#      x y z
#    x 5.094970 0.010960 -0.248740 
#    y 0.010960 4.979760 -0.230800 
#    z -0.248740 -0.230800 5.061680 
# 
# 
# High freq. dielectric constant tensor:
#      x y z
#    x 2.041310 -0.002870 -0.015720 
#    y -0.002870 2.035440 -0.003690 
#    z -0.015720 -0.003690 2.045940 
# 
# From -- ./inp_files/21476.got.cif
#   From: 2010.06.25/outbox.cif.g09.slc.cpg/sg2_11_cif.got.tgz:21476.got - 2010.06.27 13:26:56.
