data_PCOD8034702
_publ_section_title
;
Structure prediction by ZEFSAII (Michael W. Deem and Ramdas Pophale) SiO2 
 PCOD8034702
Probable space group: P -1
;
_chemical_formula_sum "Si O2"
_cell_formula_units_Z 16
_cell_length_a 15.361378
_cell_length_b 12.820630
_cell_length_c 14.012231
_cell_angle_alpha 55.294918
_cell_angle_beta 28.976218
_cell_angle_gamma 37.026004
_cell_volume 721.955518
_symmetry_space_group_name_H-M "P -1"
_symmetry_group_IT_number 2
_symmetry_cell_setting 'triclinic'
loop_
_space_group_symop_operation_xyz
x,y,z
-x,-y,-z
loop_
_atom_site_type_symbol
_atom_site_label
_atom_site_fract_x
_atom_site_fract_y
_atom_site_fract_z
Si Si1 0.684377 0.381613 0.789731
Si Si2 0.715271 0.086797 0.941956
Si Si3 0.073066 0.949205 0.846783
Si Si4 0.483880 0.955804 0.433218
Si Si5 0.468057 0.522766 0.723764
Si Si6 0.178763 0.286819 0.411318
Si Si7 0.083870 0.536216 0.018407
Si Si8 0.054543 0.663997 0.777631
O O1 0.749478 0.201237 0.793621
O O2 0.533247 0.525999 0.769010
O O3 0.983219 0.282547 0.562357
O O4 0.500000 0.500000 0.000000
O O5 0.396374 0.223904 0.160167
O O6 0.808857 0.072736 0.968291
O O7 0.870522 0.884489 0.856157
O O8 0.255489 0.970748 0.629347
O O9 0.247453 0.731047 0.778903
O O10 0.000000 0.000000 0.000000
O O11 0.778305 0.748064 0.225386
O O12 0.500000 0.000000 0.500000
O O13 0.381628 0.129737 0.380876
O O14 0.728023 0.395945 0.473062
O O15 0.320803 0.463487 0.898193
O O16 0.000000 0.500000 0.500000
O O17 0.103997 0.372929 0.096373
O O18 0.173632 0.540023 0.825549
#
# Coordination Sequence:
#
# PCOD8034702 Si02
#       8
#     2   2   2   2   2   2   2   2
#     4  12  28  47  70 103 147 190 236 292 362 435
#     4  12  25  47  72 103 139 194 232 294 357 422
#     4  12  24  43  72 107 146 175 244 302 356 419
#     4  12  25  42  73 111 141 182 239 297 359 424
#     4  12  26  45  73 105 141 193 237 294 359 425
#     4  12  26  44  69  99 144 187 230 287 362 421
#     4  11  24  45  75 110 141 183 242 303 354 421
#     4  11  25  45  74 106 145 185 242 298 357 419
#
# _framework density 22.162030000000001
#
# number of rings (size 3 to 8) (size 9 to 14) (size 15 to 20)
#    0.000    0.250    6.250    2.625    3.500    2.500 
#    0.000    1.250    0.000    0.000    0.000    0.000 
#    0.000    0.000    0.000    0.000    0.000    0.000 
#
# Total GULP energy -198288.533752 kJ/mol
# GULP energy per Si atom -12393.033360 kJ/mol
# Density = 2.211159 g / cm^3
# Si number density = 22.162030 Si / 1000 Ang^3
#
#
#
# Elastic Constant Matrix: (Units=GPa)
#
#
# Indices 1 2 3 4 5 6 
#
# 1 76.5349 19.8381 54.7050 2.1491 -10.8004 12.8723
# 2 19.8381 122.8188 40.9303 -13.7649 -7.9471 29.0656
# 3 54.7050 40.9303 159.4226 -15.3353 -15.9070 19.8376
# 4 2.1491 -13.7649 -15.3353 24.6454 12.2977 -4.3008
# 5 -10.8004 -7.9471 -15.9070 12.2977 39.3717 -3.1677
# 6 12.8723 29.0656 19.8376 -4.3008 -3.1677 36.3373
#
#
#
# Elastic Compliance Matrix: (Units=1/GPa)
#
#
# Indices 1 2 3 4 5 6 
#
# 1 0.019439 -0.000941 -0.006401 -0.009384 0.005223 -0.003295
# 2 -0.000941 0.010862 -0.001194 0.004395 -0.000502 -0.007227
# 3 -0.006401 -0.001194 0.009470 0.005565 -0.000013 -0.001290
# 4 -0.009384 0.004395 0.005565 0.056024 -0.016782 0.001938
# 5 0.005223 -0.000502 -0.000013 -0.016782 0.031915 -0.000645
# 6 -0.003295 -0.007227 -0.001290 0.001938 -0.000645 0.035345
#
#
# Mechanical properties :
#
#
# Convention : Reuss Voigt Hill
#
# Bulk Modulus (GPa) = 44.05099 65.52478 54.78789
# Shear Modulus (GPa) = 26.63914 36.29107 31.46511
#
# Velocity S-wave (km/s) = 3.47077 4.05104 3.77208
# Velocity P-wave (km/s) = 5.99847 7.17716 6.61412
#
# Compressibility (1/GPa) = 0.02270097
#
# Stress axis : x y z
#
# Youngs Moduli (GPa) = 51.44166 92.06090 105.59573
#
# Poissons Ratio (x) = 0.08663 0.67587
# Poissons Ratio (y) = 0.04840 0.12608
# Poissons Ratio (z) = 0.32926 0.10992
#
# Static dielectric constant tensor:
#      x y z
#    x 4.218120 0.194090 -0.556960 
#    y 0.194090 4.272090 -0.317450 
#    z -0.556960 -0.317450 4.623610 
# 
# 
# High freq. dielectric constant tensor:
#      x y z
#    x 1.863110 0.012820 -0.014000 
#    y 0.012820 1.885720 -0.013230 
#    z -0.014000 -0.013230 1.885150 
# 
# From -- ./inp_files/532452.got.cif
#   From: 2010.06.25/outbox.cif.g09.slc.cpg/sg2_267_cif.got.tgz:532452.got - 2010.06.27 13:26:56.
