data_PCOD8034069
_publ_section_title
;
Structure prediction by ZEFSAII (Michael W. Deem and Ramdas Pophale) SiO2 
 PCOD8034069
Probable space group: P -1
;
_chemical_formula_sum "Si O2"
_cell_formula_units_Z 16
_cell_length_a 19.553875
_cell_length_b 17.037918
_cell_length_c 8.509738
_cell_angle_alpha 136.910562
_cell_angle_beta 44.493389
_cell_angle_gamma 159.298125
_cell_volume 679.280282
_symmetry_space_group_name_H-M "P -1"
_symmetry_group_IT_number 2
_symmetry_cell_setting 'triclinic'
loop_
_space_group_symop_operation_xyz
x,y,z
-x,-y,-z
loop_
_atom_site_type_symbol
_atom_site_label
_atom_site_fract_x
_atom_site_fract_y
_atom_site_fract_z
Si Si1 0.692846 0.834170 0.010333
Si Si2 0.443876 0.409222 0.632317
Si Si3 0.085892 0.173729 0.989219
Si Si4 0.178599 0.471542 0.494244
Si Si5 0.788418 0.326188 0.537587
Si Si6 0.147454 0.758122 0.146690
Si Si7 0.575259 0.921830 0.135927
Si Si8 0.427052 0.166352 0.476615
O O1 0.594909 0.610352 0.812029
O O2 0.606239 0.822578 0.993457
O O3 0.648787 0.838461 0.259802
O O4 0.927331 0.061136 0.960162
O O5 0.500000 0.500000 0.500000
O O6 0.432260 0.259288 0.454683
O O7 0.236439 0.257215 0.763218
O O8 0.191449 0.380931 0.218107
O O9 0.000000 0.000000 0.000000
O O10 0.173673 0.582393 0.562189
O O11 0.361647 0.667308 0.594004
O O12 0.994939 0.278718 0.633512
O O13 0.657518 0.281149 0.797129
O O14 0.000000 0.500000 0.500000
O O15 0.655519 0.077252 0.378892
O O16 0.295644 0.919402 0.289475
O O17 0.000000 0.500000 0.000000
O O18 0.286028 0.912336 0.996082
#
# Coordination Sequence:
#
# PCOD8034069 Si02
#       8
#     2   2   2   2   2   2   2   2
#     4  12  23  43  76 102 142 190 239 291 359 435
#     4  12  26  45  72 113 147 183 236 300 363 430
#     4  12  23  41  72 104 142 187 239 288 356 442
#     4  12  24  45  71 104 140 193 246 293 367 434
#     4  11  24  43  71  98 138 187 241 292 361 431
#     4  12  27  47  68 106 146 187 246 309 362 418
#     4  11  25  44  67 103 139 181 241 300 354 424
#     4  12  25  45  75 102 146 193 239 301 361 432
#
# _framework density 23.554341999999998
#
# number of rings (size 3 to 8) (size 9 to 14) (size 15 to 20)
#    0.000    0.250    6.250    2.625    0.000    3.000 
#    0.000    0.000    0.000    0.000    0.000    0.000 
#    0.000    0.000    0.000    0.000    0.000    0.000 
#
# Total GULP energy -198243.234845 kJ/mol
# GULP energy per Si atom -12390.202178 kJ/mol
# Density = 2.350073 g / cm^3
# Si number density = 23.554342 Si / 1000 Ang^3
#
#
#
# Elastic Constant Matrix: (Units=GPa)
#
#
# Indices 1 2 3 4 5 6 
#
# 1 123.2041 64.2109 38.2122 -19.9787 -11.3713 23.0897
# 2 64.2109 146.1779 48.4044 -22.2335 0.0029 27.6749
# 3 38.2122 48.4044 70.6145 -12.7238 4.1301 2.1002
# 4 -19.9787 -22.2335 -12.7238 63.6993 1.2501 -2.1107
# 5 -11.3713 0.0029 4.1301 1.2501 33.5256 -6.3513
# 6 23.0897 27.6749 2.1002 -2.1107 -6.3513 51.9267
#
#
#
# Elastic Compliance Matrix: (Units=1/GPa)
#
#
# Indices 1 2 3 4 5 6 
#
# 1 0.012332 -0.003128 -0.004366 0.001722 0.004075 -0.003071
# 2 -0.003128 0.011092 -0.005399 0.001692 -0.001292 -0.004391
# 3 -0.004366 -0.005399 0.020499 0.001027 -0.003358 0.003621
# 4 0.001722 0.001692 0.001027 0.017007 -0.000378 -0.001064
# 5 0.004075 -0.001292 -0.003358 -0.000378 0.032194 0.002935
# 6 -0.003071 -0.004391 0.003621 -0.001064 0.002935 0.023133
#
#
# Mechanical properties :
#
#
# Convention : Reuss Voigt Hill
#
# Bulk Modulus (GPa) = 55.13902 71.29462 63.21682
# Shear Modulus (GPa) = 33.76383 42.44158 38.10271
#
# Velocity S-wave (km/s) = 3.79019 4.24944 4.02637
# Velocity P-wave (km/s) = 6.52795 7.37637 6.96509
#
# Compressibility (1/GPa) = 0.01813598
#
# Stress axis : x y z
#
# Youngs Moduli (GPa) = 81.09084 90.15819 48.78362
#
# Poissons Ratio (x) = 0.28201 0.21298
# Poissons Ratio (y) = 0.25365 0.26340
# Poissons Ratio (z) = 0.35402 0.48680
#
# Static dielectric constant tensor:
#      x y z
#    x 4.396520 1.359230 0.208760 
#    y 1.359230 12.357040 2.505480 
#    z 0.208760 2.505480 5.190660 
# 
# 
# High freq. dielectric constant tensor:
#      x y z
#    x 1.916190 0.008080 -0.010080 
#    y 0.008080 1.954280 -0.002900 
#    z -0.010080 -0.002900 1.938840 
# 
# From -- ./inp_files/348935.got.cif
#   From: 2010.06.25/outbox.cif.g09.slc.cpg/sg2_175_cif.got.tgz:348935.got - 2010.06.27 13:26:56.
