data_PCOD8034560
_publ_section_title
;
Structure prediction by ZEFSAII (Michael W. Deem and Ramdas Pophale) SiO2 
 PCOD8034560
Probable space group: P -1
;
_chemical_formula_sum "Si O2"
_cell_formula_units_Z 16
_cell_length_a 11.546236
_cell_length_b 12.447079
_cell_length_c 8.836967
_cell_angle_alpha 50.591231
_cell_angle_beta 124.264176
_cell_angle_gamma 132.676660
_cell_volume 701.464165
_symmetry_space_group_name_H-M "P -1"
_symmetry_group_IT_number 2
_symmetry_cell_setting 'triclinic'
loop_
_space_group_symop_operation_xyz
x,y,z
-x,-y,-z
loop_
_atom_site_type_symbol
_atom_site_label
_atom_site_fract_x
_atom_site_fract_y
_atom_site_fract_z
Si Si1 0.023896 0.171451 0.395364
Si Si2 0.624915 0.674458 0.488845
Si Si3 0.149377 0.868593 0.404869
Si Si4 0.317266 0.238252 0.195521
Si Si5 0.129965 0.393644 0.772516
Si Si6 0.366449 0.746096 0.558318
Si Si7 0.945200 0.364044 0.957117
Si Si8 0.430708 0.836775 0.186274
O O1 0.203525 0.280078 0.499899
O O2 0.899245 0.175811 0.417180
O O3 0.000000 0.000000 0.500000
O O4 0.995783 0.234117 0.159957
O O5 0.500000 0.500000 0.500000
O O6 0.654143 0.698824 0.667875
O O7 0.554424 0.780411 0.273214
O O8 0.306078 0.849338 0.515668
O O9 0.004618 0.751782 0.293641
O O10 0.185757 0.050042 0.246452
O O11 0.488248 0.260657 0.240272
O O12 0.261430 0.344575 0.965124
O O13 0.221825 0.560397 0.596223
O O14 0.037501 0.429572 0.807613
O O15 0.436260 0.845305 0.365051
O O16 0.753751 0.286523 0.878445
O O17 0.000000 0.500000 0.000000
O O18 0.500000 0.000000 0.000000
#
# Coordination Sequence:
#
# PCOD8034560 Si02
#       8
#     2   2   2   2   2   2   2   2
#     4  12  24  45  72 103 141 188 240 294 349 423
#     4  11  24  45  71 101 144 184 235 291 358 418
#     4  12  25  46  75 103 148 190 237 300 356 421
#     4  11  25  47  69 106 142 190 238 292 354 431
#     4  12  25  48  73 107 146 190 241 293 359 428
#     4  11  26  47  72 103 146 187 235 294 364 422
#     4  12  25  44  73 106 141 186 244 292 350 427
#     4  11  26  47  71 104 143 185 239 292 357 427
#
# _framework density 22.809432999999999
#
# number of rings (size 3 to 8) (size 9 to 14) (size 15 to 20)
#    0.000    0.500    3.750    3.750    7.000    0.000 
#    4.500    0.000    0.000    0.000    0.000    0.000 
#    0.000    0.000    0.000    0.000    0.000    0.000 
#
# Total GULP energy -198368.399245 kJ/mol
# GULP energy per Si atom -12398.024953 kJ/mol
# Density = 2.275752 g / cm^3
# Si number density = 22.809433 Si / 1000 Ang^3
#
#
#
# Elastic Constant Matrix: (Units=GPa)
#
#
# Indices 1 2 3 4 5 6 
#
# 1 113.5449 1.8689 31.7731 6.3004 -3.1693 0.5439
# 2 1.8689 80.1846 11.4798 6.6871 -18.6858 -13.8873
# 3 31.7731 11.4798 100.8473 -10.1423 3.8018 -3.4652
# 4 6.3004 6.6871 -10.1423 32.6612 11.6944 6.4528
# 5 -3.1693 -18.6858 3.8018 11.6944 37.6632 -1.3342
# 6 0.5439 -13.8873 -3.4652 6.4528 -1.3342 40.4368
#
#
#
# Elastic Compliance Matrix: (Units=1/GPa)
#
#
# Indices 1 2 3 4 5 6 
#
# 1 0.010321 0.001890 -0.004105 -0.005271 0.003897 0.001128
# 2 0.001890 0.018767 -0.004194 -0.012187 0.013977 0.008466
# 3 -0.004105 -0.004194 0.012689 0.008213 -0.006321 -0.001817
# 4 -0.005271 -0.012187 0.008213 0.046970 -0.022315 -0.011642
# 5 0.003897 0.013977 -0.006321 -0.022315 0.041704 0.009143
# 6 0.001128 0.008466 -0.001817 -0.011642 0.009143 0.029626
#
#
# Mechanical properties :
#
#
# Convention : Reuss Voigt Hill
#
# Bulk Modulus (GPa) = 34.53046 42.75784 38.64415
# Shear Modulus (GPa) = 27.39028 38.78257 33.08642
#
# Velocity S-wave (km/s) = 3.46906 4.12793 3.81275
# Velocity P-wave (km/s) = 5.58725 6.44252 6.03007
#
# Compressibility (1/GPa) = 0.02895994
#
# Stress axis : x y z
#
# Youngs Moduli (GPa) = 96.89424 53.28408 78.81130
#
# Poissons Ratio (x) = -0.10073 0.32352
# Poissons Ratio (y) = -0.18316 0.33050
# Poissons Ratio (z) = 0.39775 0.22345
#
# Static dielectric constant tensor:
#      x y z
#    x 4.526070 0.140530 0.055100 
#    y 0.140530 4.112600 -0.028720 
#    z 0.055100 -0.028720 4.368120 
# 
# 
# High freq. dielectric constant tensor:
#      x y z
#    x 1.919920 0.009530 0.019310 
#    y 0.009530 1.906800 -0.007250 
#    z 0.019310 -0.007250 1.899160 
# 
# From -- ./inp_files/261766.got.cif
#   From: 2010.06.25/outbox.cif.g09.slc.cpg/sg2_131_cif.got.tgz:261766.got - 2010.06.27 13:26:56.
