data_PCOD8034972
_publ_section_title
;
Structure prediction by ZEFSAII (Michael W. Deem and Ramdas Pophale) SiO2 
 PCOD8034972
Probable space group: P -1
;
_chemical_formula_sum "Si O2"
_cell_formula_units_Z 16
_cell_length_a 11.601248
_cell_length_b 13.833473
_cell_length_c 13.947109
_cell_angle_alpha 64.968875
_cell_angle_beta 138.196826
_cell_angle_gamma 145.795530
_cell_volume 718.383179
_symmetry_space_group_name_H-M "P -1"
_symmetry_group_IT_number 2
_symmetry_cell_setting 'triclinic'
loop_
_space_group_symop_operation_xyz
x,y,z
-x,-y,-z
loop_
_atom_site_type_symbol
_atom_site_label
_atom_site_fract_x
_atom_site_fract_y
_atom_site_fract_z
Si Si1 0.303373 0.446325 0.674190
Si Si2 0.643085 0.475066 0.540427
Si Si3 0.383835 0.206555 0.167061
Si Si4 0.699840 0.135884 0.849967
Si Si5 0.620845 0.397490 0.887990
Si Si6 0.630239 0.227256 0.123667
Si Si7 0.629282 0.824060 0.363960
Si Si8 0.441754 0.909541 0.599236
O O1 0.442146 0.549582 0.612762
O O2 0.505321 0.617642 0.807084
O O3 0.351768 0.346044 0.767564
O O4 0.923936 0.270305 0.516231
O O5 0.500000 0.500000 0.500000
O O6 0.462367 0.273616 0.548935
O O7 0.026349 0.654207 0.716528
O O8 0.589787 0.281561 0.168859
O O9 0.480857 0.175979 0.326266
O O10 0.000000 0.000000 0.000000
O O11 0.411260 0.070533 0.705259
O O12 0.641063 0.008558 0.941906
O O13 0.694873 0.086867 0.760026
O O14 0.032040 0.368384 0.979440
O O15 0.597665 0.349799 0.783652
O O16 0.570039 0.266790 0.976279
O O17 0.000000 0.000000 0.500000
O O18 0.500000 0.000000 0.500000
#
# Coordination Sequence:
#
# PCOD8034972 Si02
#       8
#     2   2   2   2   2   2   2   2
#     4  12  25  46  75 106 146 195 245 299 372 436
#     4  12  24  47  74 104 150 191 245 306 362 436
#     4  11  26  47  71 108 147 189 244 302 372 437
#     4  11  24  47  69 104 148 182 245 302 365 438
#     4  12  27  46  72 108 142 195 246 297 370 438
#     4  11  26  48  73 107 151 192 243 306 372 436
#     4  12  26  44  72 105 144 190 250 304 363 437
#     4  11  26  44  72 107 142 189 247 303 366 436
#
# _framework density 22.272238000000002
#
# number of rings (size 3 to 8) (size 9 to 14) (size 15 to 20)
#    0.000    0.500    5.000    3.750    5.250    3.000 
#    0.000    0.000    0.000    0.000    0.000    0.000 
#    0.000    0.000    0.000    0.000    0.000    0.000 
#
# Total GULP energy -198439.284302 kJ/mol
# GULP energy per Si atom -12402.455269 kJ/mol
# Density = 2.222155 g / cm^3
# Si number density = 22.272238 Si / 1000 Ang^3
#
#
#
# Elastic Constant Matrix: (Units=GPa)
#
#
# Indices 1 2 3 4 5 6 
#
# 1 97.8668 35.8558 24.3776 -8.0675 10.2751 1.5432
# 2 35.8558 148.6935 44.2365 -20.0763 -6.1459 6.9557
# 3 24.3776 44.2365 100.3251 -11.4342 11.0818 9.2990
# 4 -8.0675 -20.0763 -11.4342 41.0180 -10.5859 6.9103
# 5 10.2751 -6.1459 11.0818 -10.5859 37.2676 -1.7464
# 6 1.5432 6.9557 9.2990 6.9103 -1.7464 40.2410
#
#
#
# Elastic Compliance Matrix: (Units=1/GPa)
#
#
# Indices 1 2 3 4 5 6 
#
# 1 0.011856 -0.002623 -0.001403 -0.000243 -0.003343 0.000220
# 2 -0.002623 0.009169 -0.003268 0.004415 0.004400 -0.001296
# 3 -0.001403 -0.003268 0.012526 0.001108 -0.003685 -0.002626
# 4 -0.000243 0.004415 0.001108 0.030028 0.008724 -0.005788
# 5 -0.003343 0.004400 -0.003685 0.008724 0.032059 0.000112
# 6 0.000220 -0.001296 -0.002626 -0.005788 0.000112 0.026671
#
#
# Mechanical properties :
#
#
# Convention : Reuss Voigt Hill
#
# Bulk Modulus (GPa) = 52.73521 61.75834 57.24677
# Shear Modulus (GPa) = 34.91181 39.86637 37.38909
#
# Velocity S-wave (km/s) = 3.96347 4.23538 4.10168
# Velocity P-wave (km/s) = 6.68389 7.19075 6.94195
#
# Compressibility (1/GPa) = 0.01896266
#
# Stress axis : x y z
#
# Youngs Moduli (GPa) = 84.34659 109.06895 79.83210
#
# Poissons Ratio (x) = 0.28605 0.11202
# Poissons Ratio (y) = 0.22121 0.26090
# Poissons Ratio (z) = 0.11835 0.35646
#
# Static dielectric constant tensor:
#      x y z
#    x 3.899940 -1.065240 0.619210 
#    y -1.065240 2.243520 0.696940 
#    z 0.619210 0.696940 3.741460 
# 
# 
# High freq. dielectric constant tensor:
#      x y z
#    x 1.882930 -0.006750 0.016020 
#    y -0.006750 1.884970 -0.009290 
#    z 0.016020 -0.009290 1.886970 
# 
# From -- ./inp_files/522370.got.cif
#   From: 2010.06.25/outbox.cif.g09.slc.cpg/sg2_262_cif.got.tgz:522370.got - 2010.06.27 13:26:56.
