data_PCOD8034698
_publ_section_title
;
Structure prediction by ZEFSAII (Michael W. Deem and Ramdas Pophale) SiO2 
 PCOD8034698
Probable space group: P -1
;
_chemical_formula_sum "Si O2"
_cell_formula_units_Z 14
_cell_length_a 13.797826
_cell_length_b 14.403548
_cell_length_c 5.425655
_cell_angle_alpha 103.791553
_cell_angle_beta 87.992886
_cell_angle_gamma 143.201579
_cell_volume 604.335986
_symmetry_space_group_name_H-M "P -1"
_symmetry_group_IT_number 2
_symmetry_cell_setting 'triclinic'
loop_
_space_group_symop_operation_xyz
x,y,z
-x,-y,-z
loop_
_atom_site_type_symbol
_atom_site_label
_atom_site_fract_x
_atom_site_fract_y
_atom_site_fract_z
Si Si1 0.527534 0.755341 0.411793
Si Si2 0.348700 0.947816 0.543190
Si Si3 0.677189 0.439262 0.198663
Si Si4 0.098516 0.219323 0.490751
Si Si5 0.855267 0.128073 0.110535
Si Si6 0.838999 0.931212 0.693273
Si Si7 0.014073 0.620863 0.140852
O O1 0.409880 0.654599 0.595420
O O2 0.678664 0.799927 0.438617
O O3 0.619511 0.932146 0.543551
O O4 0.431913 0.666267 0.104730
O O5 0.316425 0.956582 0.835185
O O6 0.176044 0.755334 0.382926
O O7 0.500000 0.000000 0.500000
O O8 0.731557 0.594316 0.307825
O O9 0.840918 0.504635 0.217483
O O10 0.139093 0.160997 0.269200
O O11 0.982835 0.208456 0.374931
O O12 0.010402 0.103378 0.662515
O O13 0.957956 0.279151 0.015196
O O14 0.797521 0.975829 0.933812
O O15 0.000000 0.500000 0.000000
#
# Coordination Sequence:
#
# PCOD8034698 Si02
#       7
#     2   2   2   2   2   2   2
#     4  12  26  47  72 108 158 197 252 313 374 447
#     4  12  27  46  73 106 142 202 251 313 378 451
#     4  12  26  47  72 108 158 197 252 313 374 447
#     4  11  24  45  75 107 145 200 253 306 375 450
#     4  12  21  48  76 102 152 186 257 306 372 456
#     4  11  24  45  75 107 145 200 253 306 375 450
#     4  12  27  46  73 106 142 202 251 313 378 451
#
# _framework density 23.165921000000001
#
# number of rings (size 3 to 8) (size 9 to 14) (size 15 to 20)
#    0.000    0.286    5.714    3.000    2.000    2.286 
#    0.000    0.000    0.000    0.000    0.000    0.000 
#    0.000    0.000    0.000    0.000    0.000    0.000 
#
# Total GULP energy -173468.718772 kJ/mol
# GULP energy per Si atom -12390.622769 kJ/mol
# Density = 2.311319 g / cm^3
# Si number density = 23.165921 Si / 1000 Ang^3
#
#
#
# Elastic Constant Matrix: (Units=GPa)
#
#
# Indices 1 2 3 4 5 6 
#
# 1 101.6543 26.3933 17.0212 9.1517 -31.6475 -1.4076
# 2 26.3933 120.2057 35.3118 5.1681 -19.9475 6.3217
# 3 17.0212 35.3118 103.0230 9.5111 -20.5624 2.5166
# 4 9.1517 5.1681 9.5111 42.8551 -2.8420 -2.0184
# 5 -31.6475 -19.9475 -20.5624 -2.8420 45.3360 6.5725
# 6 -1.4076 6.3217 2.5166 -2.0184 6.5725 34.4369
#
#
#
# Elastic Compliance Matrix: (Units=1/GPa)
#
#
# Indices 1 2 3 4 5 6 
#
# 1 0.013007 -0.001357 0.000258 -0.002147 0.008611 -0.001007
# 2 -0.001357 0.009928 -0.002592 -0.000266 0.002546 -0.002190
# 3 0.000258 -0.002592 0.011654 -0.002100 0.004386 -0.001325
# 4 -0.002147 -0.000266 -0.002100 0.024289 -0.001305 0.001787
# 5 0.008611 0.002546 0.004386 -0.001305 0.032057 -0.006631
# 6 -0.001007 -0.002190 -0.001325 0.001787 -0.006631 0.030867
#
#
# Mechanical properties :
#
#
# Convention : Reuss Voigt Hill
#
# Bulk Modulus (GPa) = 36.75865 53.59283 45.17574
# Shear Modulus (GPa) = 36.16565 40.93606 38.55085
#
# Velocity S-wave (km/s) = 3.95543 4.20823 4.08379
# Velocity P-wave (km/s) = 6.06322 6.84082 6.46372
#
# Compressibility (1/GPa) = 0.02720448
#
# Stress axis : x y z
#
# Youngs Moduli (GPa) = 76.88413 100.72825 85.80639
#
# Poissons Ratio (x) = 0.13673 -0.02212
# Poissons Ratio (y) = 0.10436 0.22244
# Poissons Ratio (z) = -0.01982 0.26112
#
# Static dielectric constant tensor:
#      x y z
#    x 4.506290 0.119320 -0.268770 
#    y 0.119320 4.376080 0.182440 
#    z -0.268770 0.182440 4.397930 
# 
# 
# High freq. dielectric constant tensor:
#      x y z
#    x 1.920350 0.005250 -0.016800 
#    y 0.005250 1.925530 0.011600 
#    z -0.016800 0.011600 1.917400 
# 
# From -- ./inp_files/36852.got.cif
#   From: 2010.06.25/outbox.cif.g09.slc.cpg/sg2_19_cif.got.tgz:36852.got - 2010.06.27 13:26:56.
