data_PCOD8034845
_publ_section_title
;
Structure prediction by ZEFSAII (Michael W. Deem and Ramdas Pophale) SiO2 
 PCOD8034845
Probable space group: P -1
;
_chemical_formula_sum "Si O2"
_cell_formula_units_Z 14
_cell_length_a 15.659528
_cell_length_b 6.484334
_cell_length_c 15.099491
_cell_angle_alpha 114.556422
_cell_angle_beta 152.828049
_cell_angle_gamma 77.251662
_cell_volume 594.419698
_symmetry_space_group_name_H-M "P -1"
_symmetry_group_IT_number 2
_symmetry_cell_setting 'triclinic'
loop_
_space_group_symop_operation_xyz
x,y,z
-x,-y,-z
loop_
_atom_site_type_symbol
_atom_site_label
_atom_site_fract_x
_atom_site_fract_y
_atom_site_fract_z
Si Si1 0.987347 0.529461 0.728750
Si Si2 0.466144 0.235336 0.975067
Si Si3 0.535451 0.451437 0.262032
Si Si4 0.991570 0.312209 0.884357
Si Si5 0.844053 0.563841 0.301838
Si Si6 0.284776 0.069814 0.087675
Si Si7 0.560951 0.951829 0.449412
O O1 0.025422 0.442375 0.844021
O O2 0.051770 0.375291 0.686791
O O3 0.757917 0.491286 0.503836
O O4 0.124523 0.802697 0.879370
O O5 0.517215 0.439848 0.137123
O O6 0.634440 0.334588 0.071861
O O7 0.243242 0.210083 0.725374
O O8 0.500000 0.000000 0.000000
O O9 0.381728 0.190038 0.105887
O O10 0.480139 0.668986 0.294946
O O11 0.176301 0.233045 0.062365
O O12 0.796336 0.070752 0.670052
O O13 0.000000 0.500000 0.000000
O O14 0.000000 0.500000 0.500000
O O15 0.464119 0.093705 0.322355
O O16 0.500000 0.000000 0.500000
#
# Coordination Sequence:
#
# PCOD8034845 Si02
#       7
#     2   2   2   2   2   2   2
#     4  12  25  48  74 108 146 195 250 301 374 442
#     4  11  25  47  74 108 147 193 249 305 373 441
#     4  12  25  48  75 108 149 197 246 303 372 441
#     4  12  27  46  73 107 144 194 247 306 371 439
#     4  11  24  46  72 105 146 189 241 312 365 442
#     4  12  25  46  73  99 148 192 239 308 364 433
#     4  12  27  46  74 108 146 194 247 307 370 443
#
# _framework density 23.552382000000001
#
# number of rings (size 3 to 8) (size 9 to 14) (size 15 to 20)
#    0.000    0.286    4.286    5.143    2.000    4.000 
#    2.571    0.000    0.000    0.000    0.000    0.000 
#    0.000    0.000    0.000    0.000    0.000    0.000 
#
# Total GULP energy -173439.613747 kJ/mol
# GULP energy per Si atom -12388.543839 kJ/mol
# Density = 2.349878 g / cm^3
# Si number density = 23.552382 Si / 1000 Ang^3
#
#
#
# Elastic Constant Matrix: (Units=GPa)
#
#
# Indices 1 2 3 4 5 6 
#
# 1 125.2163 44.6695 26.0218 -4.1856 10.7481 5.4936
# 2 44.6695 135.5680 36.3372 -20.7908 8.8209 5.6006
# 3 26.0218 36.3372 81.2141 -16.1916 13.6278 -1.6699
# 4 -4.1856 -20.7908 -16.1916 61.0942 0.3244 11.4247
# 5 10.7481 8.8209 13.6278 0.3244 37.2101 3.7411
# 6 5.4936 5.6006 -1.6699 11.4247 3.7411 37.3806
#
#
#
# Elastic Compliance Matrix: (Units=1/GPa)
#
#
# Indices 1 2 3 4 5 6 
#
# 1 0.009409 -0.002595 -0.001748 -0.000551 -0.001381 -0.000765
# 2 -0.002595 0.009513 -0.002888 0.002662 -0.000274 -0.001959
# 3 -0.001748 -0.002888 0.015530 0.002856 -0.004621 0.000973
# 4 -0.000551 0.002662 0.002856 0.019106 -0.001089 -0.005921
# 5 -0.001381 -0.000274 -0.004621 -0.001089 0.029298 -0.002562
# 6 -0.000765 -0.001959 0.000973 -0.005921 -0.002562 0.029267
#
#
# Mechanical properties :
#
#
# Convention : Reuss Voigt Hill
#
# Bulk Modulus (GPa) = 50.02542 61.78393 55.90467
# Shear Modulus (GPa) = 37.52427 42.80164 40.16296
#
# Velocity S-wave (km/s) = 3.99585 4.26760 4.13396
# Velocity P-wave (km/s) = 6.52498 7.11145 6.82452
#
# Compressibility (1/GPa) = 0.01998984
#
# Stress axis : x y z
#
# Youngs Moduli (GPa) = 106.28460 105.12481 64.39078
#
# Poissons Ratio (x) = 0.27278 0.11253
# Poissons Ratio (y) = 0.27579 0.18599
# Poissons Ratio (z) = 0.18574 0.30364
#
# Static dielectric constant tensor:
#      x y z
#    x 4.354710 -0.064600 0.249180 
#    y -0.064600 4.614600 -0.374880 
#    z 0.249180 -0.374880 4.374970 
# 
# 
# High freq. dielectric constant tensor:
#      x y z
#    x 1.947180 0.005350 0.025650 
#    y 0.005350 1.946930 -0.022850 
#    z 0.025650 -0.022850 1.933300 
# 
# From -- ./inp_files/98272.got.cif
#   From: 2010.06.25/outbox.cif.g09.slc.cpg/sg2_50_cif.got.tgz:98272.got - 2010.06.27 13:26:56.
