data_PCOD8034626
_publ_section_title
;
Structure prediction by ZEFSAII (Michael W. Deem and Ramdas Pophale) SiO2 
 PCOD8034626
Probable space group: P -1
;
_chemical_formula_sum "Si O2"
_cell_formula_units_Z 12
_cell_length_a 9.039645
_cell_length_b 15.480546
_cell_length_c 12.539623
_cell_angle_alpha 153.006135
_cell_angle_beta 127.615867
_cell_angle_gamma 43.321900
_cell_volume 542.406200
_symmetry_space_group_name_H-M "P -1"
_symmetry_group_IT_number 2
_symmetry_cell_setting 'triclinic'
loop_
_space_group_symop_operation_xyz
x,y,z
-x,-y,-z
loop_
_atom_site_type_symbol
_atom_site_label
_atom_site_fract_x
_atom_site_fract_y
_atom_site_fract_z
Si Si1 0.252749 0.651670 0.025222
Si Si2 0.749311 0.469603 0.338323
Si Si3 0.504119 0.647983 0.760926
Si Si4 0.974487 0.527036 0.892394
Si Si5 0.724317 0.941230 0.586495
Si Si6 0.215938 0.124785 0.214893
O O1 0.197330 0.895618 0.240610
O O2 0.500000 0.500000 0.000000
O O3 0.219022 0.536687 0.781121
O O4 0.085231 0.668058 0.060027
O O5 0.542171 0.453282 0.264458
O O6 0.720246 0.703493 0.619392
O O7 0.954460 0.254857 0.246142
O O8 0.500000 0.500000 0.500000
O O9 0.726716 0.645580 0.874903
O O10 0.319620 0.906190 0.945675
O O11 0.090587 0.296199 0.629650
O O12 0.000000 0.500000 0.000000
O O13 0.690840 0.957269 0.716103
O O14 0.500000 0.000000 0.500000
#
# Coordination Sequence:
#
# PCOD8034626 Si02
#       6
#     2   2   2   2   2   2
#     4  12  24  44  75 100 132 188 242 285 347 427
#     4  11  24  45  75  97 138 190 246 280 344 435
#     4  12  27  43  68 108 150 179 229 302 362 405
#     4  12  27  45  69 108 144 179 235 300 362 411
#     4  12  23  44  76 100 136 186 241 291 342 427
#     4  11  24  45  73 103 136 191 243 284 345 429
#
# _framework density 22.123642
#
# number of rings (size 3 to 8) (size 9 to 14) (size 15 to 20)
#    0.000    0.333    5.000    3.500    4.667    2.667 
#    0.000    0.000    0.000    0.000    0.000    0.000 
#    0.000    0.000    0.000    0.000    0.000    0.000 
#
# Total GULP energy -148830.994237 kJ/mol
# GULP energy per Si atom -12402.582853 kJ/mol
# Density = 2.207329 g / cm^3
# Si number density = 22.123642 Si / 1000 Ang^3
#
#
#
# Elastic Constant Matrix: (Units=GPa)
#
#
# Indices 1 2 3 4 5 6 
#
# 1 150.8022 47.7474 40.7610 5.4178 21.0083 -6.5320
# 2 47.7474 115.8469 40.4072 -4.5083 5.3088 -0.8633
# 3 40.7610 40.4072 139.9509 22.4456 0.5880 1.2577
# 4 5.4178 -4.5083 22.4456 48.8820 4.3765 1.8502
# 5 21.0083 5.3088 0.5880 4.3765 35.2287 -8.2941
# 6 -6.5320 -0.8633 1.2577 1.8502 -8.2941 29.4593
#
#
#
# Elastic Compliance Matrix: (Units=1/GPa)
#
#
# Indices 1 2 3 4 5 6 
#
# 1 0.008623 -0.002751 -0.001696 -0.000047 -0.004546 0.000627
# 2 -0.002751 0.010838 -0.002741 0.002614 -0.000376 -0.000446
# 3 -0.001696 -0.002741 0.009132 -0.004418 0.001807 -0.000060
# 4 -0.000047 0.002614 -0.004418 0.023148 -0.003695 -0.002239
# 5 -0.004546 -0.000376 0.001807 -0.003695 0.033607 0.008598
# 6 0.000627 -0.000446 -0.000060 -0.002239 0.008598 0.036635
#
#
# Mechanical properties :
#
#
# Convention : Reuss Voigt Hill
#
# Bulk Modulus (GPa) = 70.34533 73.82569 72.08551
# Shear Modulus (GPa) = 35.43619 41.22626 38.33122
#
# Velocity S-wave (km/s) = 4.00651 4.32145 4.16696
# Velocity P-wave (km/s) = 7.29851 7.63819 7.47028
#
# Compressibility (1/GPa) = 0.01421558
#
# Stress axis : x y z
#
# Youngs Moduli (GPa) = 115.97057 92.26849 109.50102
#
# Poissons Ratio (x) = 0.25386 0.18571
# Poissons Ratio (y) = 0.31907 0.30020
# Poissons Ratio (z) = 0.19669 0.25295
#
# Static dielectric constant tensor:
#      x y z
#    x 4.436830 0.017090 0.140230 
#    y 0.017090 3.981590 0.019850 
#    z 0.140230 0.019850 4.141990 
# 
# 
# High freq. dielectric constant tensor:
#      x y z
#    x 1.875660 0.002390 0.014940 
#    y 0.002390 1.874110 0.001300 
#    z 0.014940 0.001300 1.883100 
# 
# From -- ./inp_files/183441.got.cif
#   From: 2010.06.25/outbox.cif.g09.slc.cpg/sg2_92_cif.got.tgz:183441.got - 2010.06.27 13:26:56.
