data_PCOD8034081
_publ_section_title
;
Structure prediction by ZEFSAII (Michael W. Deem and Ramdas Pophale) SiO2 
 PCOD8034081
Probable space group: P -1
;
_chemical_formula_sum "Si O2"
_cell_formula_units_Z 16
_cell_length_a 8.106769
_cell_length_b 14.235954
_cell_length_c 10.898652
_cell_angle_alpha 126.509611
_cell_angle_beta 72.852596
_cell_angle_gamma 135.486701
_cell_volume 689.806777
_symmetry_space_group_name_H-M "P -1"
_symmetry_group_IT_number 2
_symmetry_cell_setting 'triclinic'
loop_
_space_group_symop_operation_xyz
x,y,z
-x,-y,-z
loop_
_atom_site_type_symbol
_atom_site_label
_atom_site_fract_x
_atom_site_fract_y
_atom_site_fract_z
Si Si1 0.203639 0.581668 0.416533
Si Si2 0.649633 0.123708 0.852904
Si Si3 0.578222 0.711335 0.102212
Si Si4 0.261697 0.814112 0.386245
Si Si5 0.082599 0.971519 0.579986
Si Si6 0.287660 0.110268 0.023257
Si Si7 0.143970 0.391548 0.068147
Si Si8 0.634938 0.850259 0.689267
O O1 0.200269 0.685408 0.398629
O O2 0.177126 0.445501 0.245228
O O3 0.451793 0.690781 0.522048
O O4 0.000000 0.500000 0.500000
O O5 0.719247 0.222695 0.786997
O O6 0.648143 0.984222 0.729604
O O7 0.376672 0.026757 0.884039
O O8 0.857738 0.263901 0.009671
O O9 0.304571 0.554043 0.076599
O O10 0.661892 0.856236 0.289300
O O11 0.575662 0.736823 0.978115
O O12 0.767912 0.695191 0.056800
O O13 0.063184 0.823566 0.447144
O O14 0.500000 0.000000 0.500000
O O15 0.893397 0.910551 0.680436
O O16 0.000000 0.000000 0.500000
O O17 0.423794 0.179313 0.177049
O O18 0.000000 0.000000 0.000000
#
# Coordination Sequence:
#
# PCOD8034081 Si02
#       8
#     2   2   2   2   2   2   2   2
#     4  12  28  47  68 106 154 190 238 304 372 428
#     4  12  24  45  74 105 138 193 251 290 363 441
#     4  11  24  43  72 103 144 191 238 303 365 429
#     4  12  24  44  77 105 141 195 244 301 357 434
#     4  12  21  43  72 109 140 182 255 297 350 437
#     4  12  25  42  68 103 142 183 248 307 355 424
#     4  11  24  47  71 103 151 189 236 302 369 436
#     4  12  25  44  71 103 139 195 237 296 363 436
#
# _framework density 23.194901000000002
#
# number of rings (size 3 to 8) (size 9 to 14) (size 15 to 20)
#    0.000    0.250    5.000    4.125    0.000    6.000 
#    0.000    1.250    0.000    0.000    0.000    0.000 
#    0.000    0.000    0.000    0.000    0.000    0.000 
#
# Total GULP energy -198267.921018 kJ/mol
# GULP energy per Si atom -12391.745064 kJ/mol
# Density = 2.314211 g / cm^3
# Si number density = 23.194901 Si / 1000 Ang^3
#
#
#
# Elastic Constant Matrix: (Units=GPa)
#
#
# Indices 1 2 3 4 5 6 
#
# 1 75.3332 12.3439 17.4011 -5.8108 3.3111 11.7300
# 2 12.3439 94.5894 26.4199 -23.7464 8.4208 2.3547
# 3 17.4011 26.4199 118.5920 -10.1444 9.1818 2.0560
# 4 -5.8108 -23.7464 -10.1444 40.6417 5.7863 7.8943
# 5 3.3111 8.4208 9.1818 5.7863 37.0341 -15.0459
# 6 11.7300 2.3547 2.0560 7.8943 -15.0459 45.5007
#
#
#
# Elastic Compliance Matrix: (Units=1/GPa)
#
#
# Indices 1 2 3 4 5 6 
#
# 1 0.014929 -0.000268 -0.001478 0.003204 -0.003656 -0.005533
# 2 -0.000268 0.014090 -0.001766 0.009402 -0.005902 -0.004163
# 3 -0.001478 -0.001766 0.009396 0.001663 -0.002488 -0.001063
# 4 0.003204 0.009402 0.001663 0.035139 -0.013132 -0.011827
# 5 -0.003656 -0.005902 -0.002488 -0.013132 0.037911 0.016175
# 6 -0.005533 -0.004163 -0.001063 -0.011827 0.016175 0.031068
#
#
# Mechanical properties :
#
#
# Convention : Reuss Voigt Hill
#
# Bulk Modulus (GPa) = 31.85616 44.53827 38.19721
# Shear Modulus (GPa) = 31.24610 40.12529 35.68569
#
# Velocity S-wave (km/s) = 3.67428 4.16374 3.92665
# Velocity P-wave (km/s) = 5.63599 6.50839 6.08784
#
# Compressibility (1/GPa) = 0.03139110
#
# Stress axis : x y z
#
# Youngs Moduli (GPa) = 66.98379 70.97321 106.43022
#
# Poissons Ratio (x) = 0.01901 0.15728
# Poissons Ratio (y) = 0.01794 0.18797
# Poissons Ratio (z) = 0.09899 0.12535
#
# Static dielectric constant tensor:
#      x y z
#    x 8.953100 -1.118190 -0.644930 
#    y -1.118190 4.750370 -0.140120 
#    z -0.644930 -0.140120 4.782290 
# 
# 
# High freq. dielectric constant tensor:
#      x y z
#    x 1.933830 0.007480 -0.007360 
#    y 0.007480 1.911470 -0.024620 
#    z -0.007360 -0.024620 1.921960 
# 
# From -- ./inp_files/399611.got.cif
#   From: 2010.06.25/outbox.cif.g09.slc.cpg/sg2_200_cif.got.tgz:399611.got - 2010.06.27 13:26:56.
