data_PCOD8034799
_publ_section_title
;
Structure prediction by ZEFSAII (Michael W. Deem and Ramdas Pophale) SiO2 
 PCOD8034799
Probable space group: P -1
;
_chemical_formula_sum "Si O2"
_cell_formula_units_Z 14
_cell_length_a 16.265768
_cell_length_b 5.359459
_cell_length_c 16.966644
_cell_angle_alpha 75.697517
_cell_angle_beta 24.747556
_cell_angle_gamma 72.077962
_cell_volume 587.174138
_symmetry_space_group_name_H-M "P -1"
_symmetry_group_IT_number 2
_symmetry_cell_setting 'triclinic'
loop_
_space_group_symop_operation_xyz
x,y,z
-x,-y,-z
loop_
_atom_site_type_symbol
_atom_site_label
_atom_site_fract_x
_atom_site_fract_y
_atom_site_fract_z
Si Si1 0.532779 0.303962 0.310972
Si Si2 0.577668 0.939607 0.719631
Si Si3 0.761857 0.590228 0.984495
Si Si4 0.651117 0.378938 0.945316
Si Si5 0.816966 0.411317 0.315832
Si Si6 0.989231 0.799974 0.455765
Si Si7 0.807701 0.996122 0.219484
O O1 0.399351 0.154908 0.383255
O O2 0.729802 0.342091 0.085658
O O3 0.374423 0.563801 0.460526
O O4 0.609269 0.117058 0.332799
O O5 0.794749 0.927587 0.566539
O O6 0.438004 0.221987 0.824742
O O7 0.472490 0.752862 0.877003
O O8 0.748680 0.571827 0.901903
O O9 0.971841 0.669867 0.814881
O O10 0.829783 0.183117 0.761936
O O11 0.500000 0.500000 0.000000
O O12 0.810936 0.178360 0.278688
O O13 0.802540 0.695784 0.266636
O O14 0.000000 0.500000 0.500000
O O15 0.000000 0.000000 0.500000
O O16 0.000000 0.000000 0.000000
#
# Coordination Sequence:
#
# PCOD8034799 Si02
#       7
#     2   2   2   2   2   2   2
#     4  11  26  45  70 106 143 181 240 285 353 414
#     4  11  26  45  73 101 144 186 230 296 349 417
#     4  11  26  44  71 103 142 188 228 298 348 418
#     4  11  24  46  71 101 139 184 237 285 355 415
#     4  12  27  46  74 104 143 188 235 288 351 411
#     4  12  27  46  73 103 137 181 236 290 345 416
#     4  12  25  47  75 103 142 191 234 289 345 419
#
# _framework density 23.84301
#
# number of rings (size 3 to 8) (size 9 to 14) (size 15 to 20)
#    0.000    0.571    2.857    3.857   10.000    2.286 
#    0.000    0.000    0.000    0.000    0.000    0.000 
#    0.000    0.000    0.000    0.000    0.000    0.000 
#
# Total GULP energy -173529.405054 kJ/mol
# GULP energy per Si atom -12394.957504 kJ/mol
# Density = 2.378874 g / cm^3
# Si number density = 23.843010 Si / 1000 Ang^3
#
#
#
# Elastic Constant Matrix: (Units=GPa)
#
#
# Indices 1 2 3 4 5 6 
#
# 1 192.1759 20.6969 58.7738 5.8685 -2.1814 6.9184
# 2 20.6969 58.2362 -5.7604 12.3562 5.5439 6.3155
# 3 58.7738 -5.7604 122.2398 33.4291 -0.8578 4.5214
# 4 5.8685 12.3562 33.4291 29.3739 4.0564 1.4647
# 5 -2.1814 5.5439 -0.8578 4.0564 50.3174 16.3383
# 6 6.9184 6.3155 4.5214 1.4647 16.3383 36.7692
#
#
#
# Elastic Compliance Matrix: (Units=1/GPa)
#
#
# Indices 1 2 3 4 5 6 
#
# 1 0.007170 -0.004496 -0.005468 0.006658 0.000270 -0.000290
# 2 -0.004496 0.023979 0.008547 -0.018734 -0.000023 -0.003567
# 3 -0.005468 0.008547 0.017468 -0.022499 0.001732 -0.002461
# 4 0.006658 -0.018734 -0.022499 0.066648 -0.004766 0.004194
# 5 0.000270 -0.000023 0.001732 -0.004766 0.023751 -0.010624
# 6 -0.000290 -0.003567 -0.002461 0.004194 -0.010624 0.032720
#
#
# Mechanical properties :
#
#
# Convention : Reuss Voigt Hill
#
# Bulk Modulus (GPa) = 21.84204 57.78585 39.81395
# Shear Modulus (GPa) = 26.33907 43.22153 34.78030
#
# Velocity S-wave (km/s) = 3.32729 4.26226 3.82346
# Velocity P-wave (km/s) = 4.89304 6.96499 6.01884
#
# Compressibility (1/GPa) = 0.04578326
#
# Stress axis : x y z
#
# Youngs Moduli (GPa) = 139.46750 41.70378 57.24658
#
# Poissons Ratio (x) = 0.18750 0.31300
# Poissons Ratio (y) = 0.62706 -0.48927
# Poissons Ratio (z) = 0.76255 -0.35643
#
# Static dielectric constant tensor:
#      x y z
#    x 4.981390 0.099770 0.055570 
#    y 0.099770 4.225190 0.019910 
#    z 0.055570 0.019910 4.592860 
# 
# 
# High freq. dielectric constant tensor:
#      x y z
#    x 1.965950 -0.003900 0.002040 
#    y -0.003900 1.937310 0.002870 
#    z 0.002040 0.002870 1.968980 
# 
# From -- ./inp_files/39066.got.cif
#   From: 2010.06.25/outbox.cif.g09.slc.cpg/sg2_20_cif.got.tgz:39066.got - 2010.06.27 13:26:56.
