data_PCOD8034701
_publ_section_title
;
Structure prediction by ZEFSAII (Michael W. Deem and Ramdas Pophale) SiO2 
 PCOD8034701
Probable space group: P -1
;
_chemical_formula_sum "Si O2"
_cell_formula_units_Z 16
_cell_length_a 8.581339
_cell_length_b 11.805148
_cell_length_c 9.158524
_cell_angle_alpha 53.453429
_cell_angle_beta 73.873512
_cell_angle_gamma 78.688370
_cell_volume 715.467517
_symmetry_space_group_name_H-M "P -1"
_symmetry_group_IT_number 2
_symmetry_cell_setting 'triclinic'
loop_
_space_group_symop_operation_xyz
x,y,z
-x,-y,-z
loop_
_atom_site_type_symbol
_atom_site_label
_atom_site_fract_x
_atom_site_fract_y
_atom_site_fract_z
Si Si1 0.975647 0.490302 0.841929
Si Si2 0.357557 0.992767 0.161297
Si Si3 0.383029 0.696749 0.298410
Si Si4 0.446234 0.137046 0.322566
Si Si5 0.002307 0.025892 0.147574
Si Si6 0.738058 0.266536 0.021028
Si Si7 0.850997 0.748123 0.507238
Si Si8 0.738520 0.601081 0.354154
O O1 0.121396 0.394664 0.806914
O O2 0.970460 0.640487 0.646562
O O3 0.000000 0.500000 0.000000
O O4 0.803296 0.421780 0.908181
O O5 0.339036 0.824557 0.324897
O O6 0.185845 0.064557 0.104316
O O7 0.402104 0.082005 0.218864
O O8 0.500000 0.000000 0.000000
O O9 0.576970 0.668711 0.270454
O O10 0.288368 0.559799 0.470849
O O11 0.321044 0.752078 0.114937
O O12 0.590049 0.245795 0.186200
O O13 0.304167 0.222986 0.374102
O O14 0.500000 0.000000 0.500000
O O15 0.948977 0.888805 0.354354
O O16 0.879619 0.154999 0.118315
O O17 0.000000 0.000000 0.000000
O O18 0.794303 0.688440 0.412474
#
# Coordination Sequence:
#
# PCOD8034701 Si02
#       8
#     2   2   2   2   2   2   2   2
#     4  12  30  48  75 111 150 195 247 309 376 441
#     4  12  26  43  74 106 148 192 244 300 361 442
#     4  11  24  45  75 109 139 201 248 299 368 438
#     4  12  27  48  71 111 151 190 251 305 371 432
#     4  12  25  44  76 109 145 193 250 298 375 438
#     4  12  26  46  73 108 149 194 243 308 369 444
#     4  12  27  49  78 107 148 204 243 315 368 441
#     4  11  26  48  76 104 147 193 252 303 370 447
#
# _framework density 22.362998000000001
#
# number of rings (size 3 to 8) (size 9 to 14) (size 15 to 20)
#    0.000    0.250    5.000    2.625    7.000    5.000 
#    0.000    0.000    0.000    0.000    0.000    0.000 
#    0.000    0.000    0.000    0.000    0.000    0.000 
#
# Total GULP energy -198441.272669 kJ/mol
# GULP energy per Si atom -12402.579542 kJ/mol
# Density = 2.231210 g / cm^3
# Si number density = 22.362998 Si / 1000 Ang^3
#
#
#
# Elastic Constant Matrix: (Units=GPa)
#
#
# Indices 1 2 3 4 5 6 
#
# 1 146.1020 39.0029 58.9024 16.9507 -0.0255 -11.1247
# 2 39.0029 105.5327 33.1575 24.2859 3.5045 -11.5367
# 3 58.9024 33.1575 103.2395 6.9639 3.9528 -2.3743
# 4 16.9507 24.2859 6.9639 45.5458 -8.4047 -1.4885
# 5 -0.0255 3.5045 3.9528 -8.4047 40.9507 1.7919
# 6 -11.1247 -11.5367 -2.3743 -1.4885 1.7919 36.3935
#
#
#
# Elastic Compliance Matrix: (Units=1/GPa)
#
#
# Indices 1 2 3 4 5 6 
#
# 1 0.009541 -0.001312 -0.004840 -0.002029 0.000077 0.002098
# 2 -0.001312 0.012673 -0.002746 -0.006153 -0.002227 0.003295
# 3 -0.004840 -0.002746 0.013256 0.001051 -0.000771 -0.001404
# 4 -0.002029 -0.006153 0.001051 0.026886 0.006016 -0.001699
# 5 0.000077 -0.002227 -0.000771 0.006016 0.025997 -0.001767
# 6 0.002098 0.003295 -0.001404 -0.001699 -0.001767 0.029089
#
#
# Mechanical properties :
#
#
# Convention : Reuss Voigt Hill
#
# Bulk Modulus (GPa) = 56.57721 68.55555 62.56638
# Shear Modulus (GPa) = 35.42834 39.49874 37.46354
#
# Velocity S-wave (km/s) = 3.98457 4.20724 4.09742
# Velocity P-wave (km/s) = 6.82081 7.37045 7.10095
#
# Compressibility (1/GPa) = 0.01767496
#
# Stress axis : x y z
#
# Youngs Moduli (GPa) = 104.80803 78.90502 75.43783
#
# Poissons Ratio (x) = 0.10352 0.36513
# Poissons Ratio (y) = 0.13750 0.20713
# Poissons Ratio (z) = 0.50729 0.21665
#
# Static dielectric constant tensor:
#      x y z
#    x 4.100060 0.289760 -0.371530 
#    y 0.289760 3.848740 -0.063570 
#    z -0.371530 -0.063570 4.605520 
# 
# 
# High freq. dielectric constant tensor:
#      x y z
#    x 1.901590 -0.001800 -0.005760 
#    y -0.001800 1.882790 -0.013550 
#    z -0.005760 -0.013550 1.890610 
# 
# From -- ./inp_files/184097.got.cif
#   From: 2010.06.25/outbox.cif.g09.slc.cpg/sg2_93_cif.got.tgz:184097.got - 2010.06.27 13:26:56.
