data_PCOD8034928
_publ_section_title
;
Structure prediction by ZEFSAII (Michael W. Deem and Ramdas Pophale) SiO2 
 PCOD8034928
Probable space group: P -1
;
_chemical_formula_sum "Si O2"
_cell_formula_units_Z 14
_cell_length_a 9.217879
_cell_length_b 9.006694
_cell_length_c 17.776986
_cell_angle_alpha 124.725927
_cell_angle_beta 150.533196
_cell_angle_gamma 56.702983
_cell_volume 591.552862
_symmetry_space_group_name_H-M "P -1"
_symmetry_group_IT_number 2
_symmetry_cell_setting 'triclinic'
loop_
_space_group_symop_operation_xyz
x,y,z
-x,-y,-z
loop_
_atom_site_type_symbol
_atom_site_label
_atom_site_fract_x
_atom_site_fract_y
_atom_site_fract_z
Si Si1 0.226577 0.649375 0.939834
Si Si2 0.337616 0.932665 0.556787
Si Si3 0.672784 0.018717 0.005253
Si Si4 0.648996 0.498519 0.345906
Si Si5 0.248182 0.786645 0.155756
Si Si6 0.708117 0.121975 0.316606
Si Si7 0.677236 0.423982 0.629147
O O1 0.179691 0.793452 0.889381
O O2 0.955092 0.533441 0.797501
O O3 0.500000 0.500000 0.000000
O O4 0.260433 0.766280 0.065088
O O5 0.427704 0.833869 0.648956
O O6 0.244939 0.793118 0.412734
O O7 0.608082 0.044520 0.694233
O O8 0.057941 0.088835 0.480675
O O9 0.910526 0.835625 0.047697
O O10 0.500000 0.000000 0.000000
O O11 0.427113 0.040713 0.833294
O O12 0.433999 0.599636 0.215094
O O13 0.610139 0.287037 0.262963
O O14 0.540674 0.575066 0.399250
O O15 0.000000 0.500000 0.500000
O O16 0.500000 0.500000 0.500000
#
# Coordination Sequence:
#
# PCOD8034928 Si02
#       7
#     2   2   2   2   2   2   2
#     4  12  29  51  80 112 156 204 256 312 385 461
#     4  11  24  48  79 105 145 204 251 304 374 456
#     4  12  29  50  77 114 153 200 257 322 381 455
#     4  12  28  48  75 116 153 198 257 324 377 450
#     4  12  28  51  79 107 156 205 254 314 390 453
#     4  11  24  46  76 106 151 195 250 306 381 448
#     4  12  27  46  78 111 152 198 256 309 377 455
#
# _framework density 23.666523000000002
#
# number of rings (size 3 to 8) (size 9 to 14) (size 15 to 20)
#    0.000    0.286    4.286    3.000   10.000    2.857 
#    0.000    0.000    0.000    0.000    0.000    0.000 
#    0.000    0.000    0.000    0.000    0.000    0.000 
#
# Total GULP energy -173445.017408 kJ/mol
# GULP energy per Si atom -12388.929815 kJ/mol
# Density = 2.361266 g / cm^3
# Si number density = 23.666523 Si / 1000 Ang^3
#
#
#
# Elastic Constant Matrix: (Units=GPa)
#
#
# Indices 1 2 3 4 5 6 
#
# 1 167.9486 47.6048 46.7283 -2.3400 9.4123 -4.3869
# 2 47.6048 123.0313 31.1508 -4.6871 6.4629 8.3493
# 3 46.7283 31.1508 111.3923 1.5384 5.2734 -0.3747
# 4 -2.3400 -4.6871 1.5384 49.8746 -4.9459 -0.7073
# 5 9.4123 6.4629 5.2734 -4.9459 30.6506 -2.7794
# 6 -4.3869 8.3493 -0.3747 -0.7073 -2.7794 39.6107
#
#
#
# Elastic Compliance Matrix: (Units=1/GPa)
#
#
# Indices 1 2 3 4 5 6 
#
# 1 0.007362 -0.002252 -0.002397 0.000100 -0.001250 0.001181
# 2 -0.002252 0.009686 -0.001727 0.000710 -0.001154 -0.002376
# 3 -0.002397 -0.001727 0.010513 -0.000677 -0.000806 0.000129
# 4 0.000100 0.000710 -0.000677 0.020474 0.003281 0.000451
# 5 -0.001250 -0.001154 -0.000806 0.003281 0.034153 0.002552
# 6 0.001181 -0.002376 0.000129 0.000451 0.002552 0.026066
#
#
# Mechanical properties :
#
#
# Convention : Reuss Voigt Hill
#
# Bulk Modulus (GPa) = 67.52522 72.59333 70.05927
# Shear Modulus (GPa) = 39.70093 42.48639 41.09366
#
# Velocity S-wave (km/s) = 4.10019 4.24159 4.17149
# Velocity P-wave (km/s) = 7.14208 7.39785 7.27109
#
# Compressibility (1/GPa) = 0.01480928
#
# Stress axis : x y z
#
# Youngs Moduli (GPa) = 135.83718 103.24529 95.11581
#
# Poissons Ratio (x) = 0.23255 0.22795
# Poissons Ratio (y) = 0.30596 0.16425
# Poissons Ratio (z) = 0.32554 0.17829
#
# Static dielectric constant tensor:
#      x y z
#    x 4.299150 -0.159960 -0.224010 
#    y -0.159960 4.742920 0.496630 
#    z -0.224010 0.496630 5.313690 
# 
# 
# High freq. dielectric constant tensor:
#      x y z
#    x 1.934890 -0.001770 0.011940 
#    y -0.001770 1.952010 -0.000650 
#    z 0.011940 -0.000650 1.945760 
# 
# From -- ./inp_files/156860.got.cif
#   From: 2010.06.25/outbox.cif.g09.slc.cpg/sg2_79_cif.got.tgz:156860.got - 2010.06.27 13:26:56.
