data_PCOD8034408
_publ_section_title
;
Structure prediction by ZEFSAII (Michael W. Deem and Ramdas Pophale) SiO2 
 PCOD8034408
Probable space group: P -1
;
_chemical_formula_sum "Si O2"
_cell_formula_units_Z 12
_cell_length_a 12.505083
_cell_length_b 12.132271
_cell_length_c 9.537209
_cell_angle_alpha 137.954379
_cell_angle_beta 35.948732
_cell_angle_gamma 143.735206
_cell_volume 485.335845
_symmetry_space_group_name_H-M "P -1"
_symmetry_group_IT_number 2
_symmetry_cell_setting 'triclinic'
loop_
_space_group_symop_operation_xyz
x,y,z
-x,-y,-z
loop_
_atom_site_type_symbol
_atom_site_label
_atom_site_fract_x
_atom_site_fract_y
_atom_site_fract_z
Si Si1 0.693793 0.068901 0.710789
Si Si2 0.346294 0.337033 0.903987
Si Si3 0.893234 0.292292 0.975360
Si Si4 0.607857 0.145173 0.384435
Si Si5 0.316072 0.325536 0.619242
Si Si6 0.069459 0.721476 0.600695
O O1 0.704611 0.152491 0.933321
O O2 0.899129 0.224675 0.547267
O O3 0.496111 0.035275 0.787515
O O4 0.659696 0.858272 0.569776
O O5 0.427147 0.190435 0.660891
O O6 0.341846 0.420959 0.835436
O O7 0.500000 0.500000 0.000000
O O8 0.108041 0.232181 0.118889
O O9 0.075760 0.239126 0.736535
O O10 0.806538 0.305583 0.232714
O O11 0.000000 0.500000 0.000000
O O12 0.709412 0.127529 0.406149
O O13 0.500000 0.500000 0.500000
O O14 0.000000 0.500000 0.500000
#
# Coordination Sequence:
#
# PCOD8034408 Si02
#       6
#     2   2   2   2   2   2
#     4  11  27  46  73 108 146 193 243 302 366 431
#     4  11  24  44  74 107 143 189 242 301 360 429
#     4  12  24  46  76 104 146 194 246 302 364 437
#     4  11  24  46  68 108 143 188 242 298 361 430
#     4  11  26  48  71 109 149 192 245 302 363 429
#     4  12  24  47  75 106 146 193 245 298 363 430
#
# _framework density 24.725147
#
# number of rings (size 3 to 8) (size 9 to 14) (size 15 to 20)
#    0.000    0.667    3.333    4.500    2.333    2.667 
#    3.000    0.000    0.000    0.000    0.000    0.000 
#    0.000    0.000    0.000    0.000    0.000    0.000 
#
# Total GULP energy -148666.881113 kJ/mol
# GULP energy per Si atom -12388.906759 kJ/mol
# Density = 2.466887 g / cm^3
# Si number density = 24.725147 Si / 1000 Ang^3
#
#
#
# Elastic Constant Matrix: (Units=GPa)
#
#
# Indices 1 2 3 4 5 6 
#
# 1 137.7465 27.0981 33.7396 7.3857 13.8706 20.6853
# 2 27.0981 91.8014 8.5531 14.6330 3.3413 -20.7683
# 3 33.7396 8.5531 109.9836 -10.0829 -3.2195 -13.7406
# 4 7.3857 14.6330 -10.0829 30.5156 9.4150 17.2108
# 5 13.8706 3.3413 -3.2195 9.4150 54.6221 -14.3144
# 6 20.6853 -20.7683 -13.7406 17.2108 -14.3144 56.9502
#
#
#
# Elastic Compliance Matrix: (Units=1/GPa)
#
#
# Indices 1 2 3 4 5 6 
#
# 1 0.011699 -0.006833 -0.004027 0.008166 -0.007350 -0.012028
# 2 -0.006833 0.020012 0.001224 -0.020859 0.009068 0.018658
# 3 -0.004027 0.001224 0.010989 0.000143 0.002949 0.005258
# 4 0.008166 -0.020859 0.000143 0.068473 -0.022241 -0.036822
# 5 -0.007350 0.009068 0.002949 -0.022241 0.029054 0.020712
# 6 -0.012028 0.018658 0.005258 -0.036822 0.020712 0.046334
#
#
# Mechanical properties :
#
#
# Convention : Reuss Voigt Hill
#
# Bulk Modulus (GPa) = 42.68409 53.14589 47.91499
# Shear Modulus (GPa) = 23.40368 46.42696 34.91532
#
# Velocity S-wave (km/s) = 3.07995 4.33797 3.76192
# Velocity P-wave (km/s) = 5.47257 6.82876 6.18793
#
# Compressibility (1/GPa) = 0.02342793
#
# Stress axis : x y z
#
# Youngs Moduli (GPa) = 85.47955 49.97008 91.00315
#
# Poissons Ratio (x) = 0.34146 0.36643
# Poissons Ratio (y) = 0.58411 -0.11141
# Poissons Ratio (z) = 0.34419 -0.06117
#
# Static dielectric constant tensor:
#      x y z
#    x 6.038840 0.645530 2.324720 
#    y 0.645530 4.671440 0.590340 
#    z 2.324720 0.590340 7.324890 
# 
# 
# High freq. dielectric constant tensor:
#      x y z
#    x 2.006230 0.006560 0.019110 
#    y 0.006560 1.989210 -0.030300 
#    z 0.019110 -0.030300 1.987000 
# 
# From -- ./inp_files/255215.got.cif
#   From: 2010.06.25/outbox.cif.g09.slc.cpg/sg2_128_cif.got.tgz:255215.got - 2010.06.27 13:26:56.
