data_PCOD8034325
_publ_section_title
;
Structure prediction by ZEFSAII (Michael W. Deem and Ramdas Pophale) SiO2 
 PCOD8034325
Probable space group: P -1
;
_chemical_formula_sum "Si O2"
_cell_formula_units_Z 16
_cell_length_a 4.939355
_cell_length_b 15.951512
_cell_length_c 18.827399
_cell_angle_alpha 146.370587
_cell_angle_beta 116.027083
_cell_angle_gamma 60.598386
_cell_volume 714.340555
_symmetry_space_group_name_H-M "P -1"
_symmetry_group_IT_number 2
_symmetry_cell_setting 'triclinic'
loop_
_space_group_symop_operation_xyz
x,y,z
-x,-y,-z
loop_
_atom_site_type_symbol
_atom_site_label
_atom_site_fract_x
_atom_site_fract_y
_atom_site_fract_z
Si Si1 0.809484 0.891211 0.040573
Si Si2 0.350893 0.990431 0.400103
Si Si3 0.171289 0.334688 0.607410
Si Si4 0.534057 0.231969 0.209445
Si Si5 0.999286 0.569021 0.626471
Si Si6 0.480703 0.250624 0.975546
Si Si7 0.872105 0.797777 0.234293
Si Si8 0.786531 0.415731 0.757656
O O1 0.710612 0.806721 0.901291
O O2 0.591936 0.883006 0.076945
O O3 0.157541 0.802087 0.039459
O O4 0.779268 0.073530 0.150651
O O5 0.126757 0.159098 0.472665
O O6 0.500000 0.000000 0.500000
O O7 0.624210 0.945616 0.342465
O O8 0.162642 0.857953 0.282629
O O9 0.059415 0.425601 0.586592
O O10 0.538800 0.313164 0.646508
O O11 0.972825 0.426275 0.714398
O O12 0.728503 0.341166 0.271831
O O13 0.337374 0.316375 0.313877
O O14 0.000000 0.500000 0.500000
O O15 0.276584 0.276333 0.899360
O O16 0.404431 0.411355 0.122891
O O17 0.971104 0.662004 0.208423
#
# Coordination Sequence:
#
# PCOD8034325 Si02
#       8
#     2   2   2   2   2   2   2   2
#     4  11  24  44  71  98 127 177 219 278 326 400
#     4  12  23  44  67  94 133 173 232 267 314 393
#     4  12  25  41  71  95 127 181 221 267 326 390
#     4  11  24  46  72  94 133 173 225 269 335 394
#     4  12  26  44  67 102 137 171 217 278 335 393
#     4  12  25  41  66 102 137 166 221 272 341 387
#     4  12  25  42  66  98 135 178 213 279 326 384
#     4  12  23  43  67  95 135 172 222 266 325 398
#
# _framework density 22.39828
#
# number of rings (size 3 to 8) (size 9 to 14) (size 15 to 20)
#    0.000    0.250    2.500    7.875    0.000    5.000 
#    0.000    3.750    0.000    0.000    0.000    0.000 
#    0.000    0.000    0.000    0.000    0.000    0.000 
#
# Total GULP energy -198545.961364 kJ/mol
# GULP energy per Si atom -12409.122585 kJ/mol
# Density = 2.234730 g / cm^3
# Si number density = 22.398280 Si / 1000 Ang^3
#
#
#
# Elastic Constant Matrix: (Units=GPa)
#
#
# Indices 1 2 3 4 5 6 
#
# 1 110.2162 33.5464 26.2221 3.6216 -6.5568 1.0415
# 2 33.5464 125.7671 50.1497 5.8269 -5.0029 6.8688
# 3 26.2221 50.1497 62.5974 5.5150 -7.3126 2.9053
# 4 3.6216 5.8269 5.5150 35.6610 1.9967 -1.2592
# 5 -6.5568 -5.0029 -7.3126 1.9967 39.6106 0.8235
# 6 1.0415 6.8688 2.9053 -1.2592 0.8235 41.0330
#
#
#
# Elastic Compliance Matrix: (Units=1/GPa)
#
#
# Indices 1 2 3 4 5 6 
#
# 1 0.010310 -0.001523 -0.002957 -0.000390 0.000984 0.000171
# 2 -0.001523 0.011989 -0.008903 -0.000456 -0.000330 -0.001345
# 3 -0.002957 -0.008903 0.024927 -0.002286 0.003110 -0.000332
# 4 -0.000390 -0.000456 -0.002286 0.028663 -0.002013 0.001168
# 5 0.000984 -0.000330 0.003110 -0.002013 0.026059 -0.000775
# 6 0.000171 -0.001345 -0.000332 0.001168 -0.000775 0.024666
#
#
# Mechanical properties :
#
#
# Convention : Reuss Voigt Hill
#
# Bulk Modulus (GPa) = 48.87796 57.60190 53.23993
# Shear Modulus (GPa) = 31.21098 35.83843 33.52470
#
# Velocity S-wave (km/s) = 3.73695 4.00441 3.87299
# Velocity P-wave (km/s) = 6.36312 6.86683 6.61977
#
# Compressibility (1/GPa) = 0.02045912
#
# Stress axis : x y z
#
# Youngs Moduli (GPa) = 96.99362 83.41035 40.11785
#
# Poissons Ratio (x) = 0.12702 0.11864
# Poissons Ratio (y) = 0.14771 0.35717
# Poissons Ratio (z) = 0.28685 0.74259
#
# Static dielectric constant tensor:
#      x y z
#    x 4.211740 0.063920 -0.018100 
#    y 0.063920 4.003430 0.109330 
#    z -0.018100 0.109330 4.065970 
# 
# 
# High freq. dielectric constant tensor:
#      x y z
#    x 1.898290 0.002830 -0.002910 
#    y 0.002830 1.888990 0.008290 
#    z -0.002910 0.008290 1.879900 
# 
# From -- ./inp_files/584063.got.cif
#   From: 2010.06.25/outbox.cif.g09.slc.cpg/sg2_293_cif.got.tgz:584063.got - 2010.06.27 13:26:56.
