data_PCOD8034365
_publ_section_title
;
Structure prediction by ZEFSAII (Michael W. Deem and Ramdas Pophale) SiO2 
 PCOD8034365
Probable space group: P -1
;
_chemical_formula_sum "Si O2"
_cell_formula_units_Z 16
_cell_length_a 8.931123
_cell_length_b 17.746370
_cell_length_c 12.516555
_cell_angle_alpha 28.051472
_cell_angle_beta 130.398051
_cell_angle_gamma 132.658720
_cell_volume 678.841389
_symmetry_space_group_name_H-M "P -1"
_symmetry_group_IT_number 2
_symmetry_cell_setting 'triclinic'
loop_
_space_group_symop_operation_xyz
x,y,z
-x,-y,-z
loop_
_atom_site_type_symbol
_atom_site_label
_atom_site_fract_x
_atom_site_fract_y
_atom_site_fract_z
Si Si1 0.373657 0.394343 0.387810
Si Si2 0.004677 0.547333 0.748706
Si Si3 0.053847 0.084897 0.034498
Si Si4 0.292225 0.011038 0.846414
Si Si5 0.226010 0.002585 0.590050
Si Si6 0.157754 0.443391 0.568827
Si Si7 0.670273 0.619682 0.856167
Si Si8 0.730202 0.113644 0.464924
O O1 0.215947 0.485009 0.253592
O O2 0.264866 0.196410 0.601544
O O3 0.607733 0.436540 0.488839
O O4 0.389797 0.445860 0.208433
O O5 0.962476 0.589907 0.555950
O O6 0.197623 0.696031 0.698691
O O7 0.097060 0.388112 0.997723
O O8 0.193463 0.273235 0.842581
O O9 0.165046 0.986389 0.283375
O O10 0.000000 0.000000 0.000000
O O11 0.865175 0.100923 0.000577
O O12 0.288885 0.942769 0.808529
O O13 0.500000 0.000000 0.000000
O O14 0.352870 0.193245 0.376621
O O15 0.217434 0.872575 0.653873
O O16 0.000000 0.000000 0.500000
O O17 0.000000 0.500000 0.500000
O O18 0.500000 0.500000 0.000000
O O19 0.500000 0.000000 0.500000
#
# Coordination Sequence:
#
# PCOD8034365 Si02
#       8
#     2   2   2   2   2   2   2   2
#     4  11  24  46  68 105 140 185 231 287 355 418
#     4  12  25  49  68 104 145 185 231 296 350 422
#     4  12  25  48  69 103 144 181 232 297 345 414
#     4  11  24  44  73 101 142 185 232 291 351 415
#     4  11  24  46  68 101 139 180 235 283 342 422
#     4  12  27  44  74 104 139 185 239 286 352 418
#     4  11  25  43  72 100 138 180 231 291 345 412
#     4  12  26  44  73 102 142 184 235 286 356 414
#
# _framework density 23.569569999999999
#
# number of rings (size 3 to 8) (size 9 to 14) (size 15 to 20)
#    0.000    0.500    3.750    3.750    7.000    3.000 
#    0.000    0.000    0.000    0.000    0.000    0.000 
#    0.000    0.000    0.000    0.000    0.000    0.000 
#
# Total GULP energy -198234.770333 kJ/mol
# GULP energy per Si atom -12389.673146 kJ/mol
# Density = 2.351592 g / cm^3
# Si number density = 23.569570 Si / 1000 Ang^3
#
#
#
# Elastic Constant Matrix: (Units=GPa)
#
#
# Indices 1 2 3 4 5 6 
#
# 1 113.1282 41.3956 11.5604 21.4278 -15.4756 -4.8405
# 2 41.3956 117.5470 17.6020 26.9538 -17.5723 -7.0151
# 3 11.5604 17.6020 63.0245 29.3857 -11.4668 -17.5142
# 4 21.4278 26.9538 29.3857 45.9202 1.3761 -3.7644
# 5 -15.4756 -17.5723 -11.4668 1.3761 44.2147 12.3095
# 6 -4.8405 -7.0151 -17.5142 -3.7644 12.3095 47.3973
#
#
#
# Elastic Compliance Matrix: (Units=1/GPa)
#
#
# Indices 1 2 3 4 5 6 
#
# 1 0.010954 -0.002498 0.001513 -0.004709 0.003363 0.000061
# 2 -0.002498 0.011266 0.000986 -0.006177 0.003981 0.000252
# 3 0.001513 0.000986 0.026925 -0.018125 0.006484 0.007126
# 4 -0.004709 -0.006177 -0.018125 0.039268 -0.009315 -0.002555
# 5 0.003363 0.003981 0.006484 -0.009315 0.028702 -0.004865
# 6 0.000061 0.000252 0.007126 -0.002555 -0.004865 0.024836
#
#
# Mechanical properties :
#
#
# Convention : Reuss Voigt Hill
#
# Bulk Modulus (GPa) = 20.34731 48.31288 34.33009
# Shear Modulus (GPa) = 31.57952 42.38254 36.98103
#
# Velocity S-wave (km/s) = 3.66436 4.24511 3.96538
# Velocity P-wave (km/s) = 5.15315 6.67611 5.96345
#
# Compressibility (1/GPa) = 0.04914655
#
# Stress axis : x y z
#
# Youngs Moduli (GPa) = 91.29475 88.76495 37.14018
#
# Poissons Ratio (x) = 0.22171 -0.05618
# Poissons Ratio (y) = 0.22803 -0.03663
# Poissons Ratio (z) = -0.13811 -0.08754
#
# Static dielectric constant tensor:
#      x y z
#    x 4.468420 0.393510 -0.141170 
#    y 0.393510 10.525180 -3.356790 
#    z -0.141170 -3.356790 7.448640 
# 
# 
# High freq. dielectric constant tensor:
#      x y z
#    x 1.946100 -0.000750 -0.010800 
#    y -0.000750 1.938870 0.011450 
#    z -0.010800 0.011450 1.941600 
# 
# From -- ./inp_files/402729.got.cif
#   From: 2010.06.25/outbox.cif.g09.slc.cpg/sg2_202_cif.got.tgz:402729.got - 2010.06.27 13:26:56.
