data_PCOD8034321
_publ_section_title
;
Structure prediction by ZEFSAII (Michael W. Deem and Ramdas Pophale) SiO2 
 PCOD8034321
Probable space group: P -1
;
_chemical_formula_sum "Si O2"
_cell_formula_units_Z 16
_cell_length_a 13.927183
_cell_length_b 11.256668
_cell_length_c 14.564294
_cell_angle_alpha 28.744757
_cell_angle_beta 40.314234
_cell_angle_gamma 56.230064
_cell_volume 662.191307
_symmetry_space_group_name_H-M "P -1"
_symmetry_group_IT_number 2
_symmetry_cell_setting 'triclinic'
loop_
_space_group_symop_operation_xyz
x,y,z
-x,-y,-z
loop_
_atom_site_type_symbol
_atom_site_label
_atom_site_fract_x
_atom_site_fract_y
_atom_site_fract_z
Si Si1 0.711619 0.136013 0.398794
Si Si2 0.638860 0.645473 0.682762
Si Si3 0.776149 0.688812 0.906539
Si Si4 0.161072 0.460859 0.235267
Si Si5 0.647303 0.774707 0.223428
Si Si6 0.563699 0.910813 0.843655
Si Si7 0.042077 0.076658 0.219372
Si Si8 0.182946 0.046447 0.827062
O O1 0.679686 0.388672 0.212943
O O2 0.891488 0.141971 0.245715
O O3 0.593701 0.883223 0.599143
O O4 0.662626 0.110771 0.557657
O O5 0.715045 0.516336 0.790996
O O6 0.748242 0.748204 0.444162
O O7 0.482078 0.399343 0.940120
O O8 0.816281 0.690749 0.769035
O O9 0.681093 0.895719 0.851137
O O10 0.932963 0.805767 0.775436
O O11 0.993896 0.241071 0.543294
O O12 0.173018 0.753661 0.005139
O O13 0.500000 0.500000 0.500000
O O14 0.707639 0.833503 0.244824
O O15 0.584962 0.006329 0.076424
O O16 0.798091 0.773308 0.056284
O O17 0.000000 0.000000 0.000000
#
# Coordination Sequence:
#
# PCOD8034321 Si02
#       8
#     2   2   2   2   2   2   2   2
#     4  11  24  46  74 110 152 194 254 315 374 453
#     4  11  24  44  71 109 145 191 248 314 376 441
#     4  12  25  44  76 110 149 196 250 310 386 439
#     4  11  24  46  75 114 143 191 261 317 366 450
#     4  12  30  53  74 113 160 200 253 320 387 460
#     4  12  27  44  73 109 153 193 249 312 381 454
#     4  11  26  49  75 106 155 204 255 311 376 459
#     4  12  27  48  80 110 151 210 256 311 386 457
#
# _framework density 24.162202000000001
#
# number of rings (size 3 to 8) (size 9 to 14) (size 15 to 20)
#    0.000    0.500    5.000    3.375    5.250    3.000 
#    0.000    0.000    0.000    0.000    0.000    0.000 
#    0.000    0.000    0.000    0.000    0.000    0.000 
#
# Total GULP energy -198240.357466 kJ/mol
# GULP energy per Si atom -12390.022342 kJ/mol
# Density = 2.410721 g / cm^3
# Si number density = 24.162202 Si / 1000 Ang^3
#
#
#
# Elastic Constant Matrix: (Units=GPa)
#
#
# Indices 1 2 3 4 5 6 
#
# 1 75.3236 32.6058 10.6971 -4.1744 21.1398 0.4848
# 2 32.6058 74.1783 16.1757 0.4223 2.2612 -7.3083
# 3 10.6971 16.1757 106.3873 0.8678 7.1495 -4.0395
# 4 -4.1744 0.4223 0.8678 44.7403 2.4231 -0.9507
# 5 21.1398 2.2612 7.1495 2.4231 38.9430 -10.2808
# 6 0.4848 -7.3083 -4.0395 -0.9507 -10.2808 37.3937
#
#
#
# Elastic Compliance Matrix: (Units=1/GPa)
#
#
# Indices 1 2 3 4 5 6 
#
# 1 0.021038 -0.009406 -0.000077 0.002612 -0.012470 -0.005481
# 2 -0.009406 0.018389 -0.002039 -0.001219 0.005826 0.005066
# 3 -0.000077 -0.002039 0.009833 -0.000088 -0.001579 0.000228
# 4 0.002612 -0.001219 -0.000088 0.022753 -0.002877 -0.000494
# 5 -0.012470 0.005826 -0.001579 -0.002877 0.035429 0.010797
# 6 -0.005481 0.005066 0.000228 -0.000494 0.010797 0.030784
#
#
# Mechanical properties :
#
#
# Convention : Reuss Voigt Hill
#
# Bulk Modulus (GPa) = 38.14426 41.64961 39.89693
# Shear Modulus (GPa) = 29.41041 37.30944 33.35993
#
# Velocity S-wave (km/s) = 3.49263 3.93380 3.71976
# Velocity P-wave (km/s) = 5.66442 6.15694 5.91581
#
# Compressibility (1/GPa) = 0.02621627
#
# Stress axis : x y z
#
# Youngs Moduli (GPa) = 47.53292 54.38170 101.69909
#
# Poissons Ratio (x) = 0.51149 0.00780
# Poissons Ratio (y) = 0.44707 0.20740
# Poissons Ratio (z) = 0.00365 0.11090
#
# Static dielectric constant tensor:
#      x y z
#    x 4.640450 0.034290 0.002570 
#    y 0.034290 4.316260 -0.246680 
#    z 0.002570 -0.246680 4.587720 
# 
# 
# High freq. dielectric constant tensor:
#      x y z
#    x 1.976390 0.002510 -0.001350 
#    y 0.002510 1.939880 -0.012340 
#    z -0.001350 -0.012340 1.975220 
# 
# From -- ./inp_files/532251.got.cif
#   From: 2010.06.25/outbox.cif.g09.slc.cpg/sg2_267_cif.got.tgz:532251.got - 2010.06.27 13:26:56.
