data_PCOD8034440
_publ_section_title
;
Structure prediction by ZEFSAII (Michael W. Deem and Ramdas Pophale) SiO2 
 PCOD8034440
Probable space group: P -1
;
_chemical_formula_sum "Si O2"
_cell_formula_units_Z 16
_cell_length_a 9.770166
_cell_length_b 18.999694
_cell_length_c 12.769840
_cell_angle_alpha 152.381133
_cell_angle_beta 140.286702
_cell_angle_gamma 42.948538
_cell_volume 691.924355
_symmetry_space_group_name_H-M "P -1"
_symmetry_group_IT_number 2
_symmetry_cell_setting 'triclinic'
loop_
_space_group_symop_operation_xyz
x,y,z
-x,-y,-z
loop_
_atom_site_type_symbol
_atom_site_label
_atom_site_fract_x
_atom_site_fract_y
_atom_site_fract_z
Si Si1 0.088296 0.894559 0.260003
Si Si2 0.979215 0.826408 0.750120
Si Si3 0.064341 0.330128 0.273235
Si Si4 0.335272 0.976870 0.699279
Si Si5 0.525024 0.303800 0.444239
Si Si6 0.441086 0.742810 0.831467
Si Si7 0.745716 0.571216 0.943824
Si Si8 0.721965 0.876548 0.460327
O O1 0.286641 0.881726 0.441873
O O2 0.096781 0.043719 0.387824
O O3 0.873007 0.914285 0.230158
O O4 0.106719 0.741852 0.996040
O O5 0.222776 0.730491 0.751997
O O6 0.875306 0.775333 0.728184
O O7 0.813505 0.809991 0.537444
O O8 0.000000 0.000000 0.000000
O O9 0.267512 0.339232 0.331345
O O10 0.000000 0.500000 0.500000
O O11 0.423957 0.860553 0.688407
O O12 0.507350 0.083412 0.906083
O O13 0.617552 0.298469 0.374871
O O14 0.625486 0.435632 0.739314
O O15 0.645054 0.620970 0.835389
O O16 0.680911 0.725285 0.176061
O O17 0.000000 0.500000 0.000000
O O18 0.500000 0.000000 0.500000
#
# Coordination Sequence:
#
# PCOD8034440 Si02
#       8
#     2   2   2   2   2   2   2   2
#     4  11  24  45  73 101 148 182 241 297 364 430
#     4  12  25  45  75 106 144 192 248 298 361 439
#     4  12  28  46  68 107 149 190 236 304 375 428
#     4  11  24  44  76 111 136 188 246 305 364 431
#     4  12  27  44  74 107 148 185 245 301 367 435
#     4  12  24  47  75 107 146 196 250 299 359 446
#     4  12  27  47  72 110 147 191 245 306 366 426
#     4  12  27  47  74 104 146 199 245 296 362 450
#
# _framework density 23.123913999999999
#
# number of rings (size 3 to 8) (size 9 to 14) (size 15 to 20)
#    0.000    0.250    3.750    5.250    5.250    2.000 
#    0.000    1.250    0.000    0.000    0.000    0.000 
#    0.000    0.000    0.000    0.000    0.000    0.000 
#
# Total GULP energy -198376.196853 kJ/mol
# GULP energy per Si atom -12398.512303 kJ/mol
# Density = 2.307128 g / cm^3
# Si number density = 23.123914 Si / 1000 Ang^3
#
#
#
# Elastic Constant Matrix: (Units=GPa)
#
#
# Indices 1 2 3 4 5 6 
#
# 1 78.3109 13.8074 22.7289 -6.5011 3.1785 -2.6425
# 2 13.8074 115.4237 33.2894 -3.7412 -6.1063 -4.5697
# 3 22.7289 33.2894 157.3471 1.3459 -3.4997 -5.9244
# 4 -6.5011 -3.7412 1.3459 39.1381 5.8616 -0.5455
# 5 3.1785 -6.1063 -3.4997 5.8616 39.6815 -0.5688
# 6 -2.6425 -4.5697 -5.9244 -0.5455 -0.5688 32.9270
#
#
#
# Elastic Compliance Matrix: (Units=1/GPa)
#
#
# Indices 1 2 3 4 5 6 
#
# 1 0.013792 -0.001121 -0.001793 0.002524 -0.001799 0.000639
# 2 -0.001121 0.009435 -0.001775 0.000593 0.001311 0.000933
# 3 -0.001793 -0.001775 0.007043 -0.000790 0.000621 0.000875
# 4 0.002524 0.000593 -0.000790 0.026677 -0.004114 0.000514
# 5 -0.001799 0.001311 0.000621 -0.004114 0.026217 0.000534
# 6 0.000639 0.000933 0.000875 0.000514 0.000534 0.030726
#
#
# Mechanical properties :
#
#
# Convention : Reuss Voigt Hill
#
# Bulk Modulus (GPa) = 47.86248 54.52591 51.19420
# Shear Modulus (GPa) = 38.39322 41.09971 39.74647
#
# Velocity S-wave (km/s) = 4.07913 4.22046 4.15040
# Velocity P-wave (km/s) = 6.55202 6.88337 6.71974
#
# Compressibility (1/GPa) = 0.02089319
#
# Stress axis : x y z
#
# Youngs Moduli (GPa) = 72.50777 105.98522 141.97736
#
# Poissons Ratio (x) = 0.11879 0.25451
# Poissons Ratio (y) = 0.08127 0.25202
# Poissons Ratio (z) = 0.12998 0.18813
#
# Static dielectric constant tensor:
#      x y z
#    x 3.331400 1.478910 -0.107750 
#    y 1.478910 1.332140 0.218440 
#    z -0.107750 0.218440 4.442210 
# 
# 
# High freq. dielectric constant tensor:
#      x y z
#    x 1.915960 0.006770 0.004200 
#    y 0.006770 1.906790 -0.006240 
#    z 0.004200 -0.006240 1.930930 
# 
# From -- ./inp_files/403630.got.cif
#   From: 2010.06.25/outbox.cif.g09.slc.cpg/sg2_202_cif.got.tgz:403630.got - 2010.06.27 13:26:56.
