data_PCOD8034032
_publ_section_title
;
Structure prediction by ZEFSAII (Michael W. Deem and Ramdas Pophale) SiO2 
 PCOD8034032
Probable space group: P -1
;
_chemical_formula_sum "Si O2"
_cell_formula_units_Z 16
_cell_length_a 12.625319
_cell_length_b 8.263296
_cell_length_c 16.403857
_cell_angle_alpha 92.979353
_cell_angle_beta 25.013566
_cell_angle_gamma 102.061025
_cell_volume 667.449372
_symmetry_space_group_name_H-M "P -1"
_symmetry_group_IT_number 2
_symmetry_cell_setting 'triclinic'
loop_
_space_group_symop_operation_xyz
x,y,z
-x,-y,-z
loop_
_atom_site_type_symbol
_atom_site_label
_atom_site_fract_x
_atom_site_fract_y
_atom_site_fract_z
Si Si1 0.020033 0.196694 0.979937
Si Si2 0.679092 0.593309 0.682462
Si Si3 0.205113 0.748787 0.408820
Si Si4 0.539145 0.744033 0.620193
Si Si5 0.099679 0.395958 0.086940
Si Si6 0.882034 0.686752 0.257960
Si Si7 0.356185 0.013914 0.017699
Si Si8 0.898110 0.122121 0.351427
O O1 0.750129 0.243082 0.169162
O O2 0.186778 0.320838 0.940927
O O3 0.168809 0.239276 0.790962
O O4 0.000000 0.000000 0.000000
O O5 0.783396 0.439125 0.586488
O O6 0.643837 0.703319 0.632429
O O7 0.909026 0.729909 0.582073
O O8 0.390660 0.508692 0.928495
O O9 0.247073 0.834207 0.469819
O O10 0.430668 0.883691 0.197760
O O11 0.603112 0.618147 0.505438
O O12 0.729204 0.920463 0.446108
O O13 0.938485 0.518153 0.186056
O O14 0.896295 0.239322 0.278421
O O15 0.149474 0.825650 0.122561
O O16 0.207127 0.143431 0.149817
O O17 0.500000 0.000000 0.000000
#
# Coordination Sequence:
#
# PCOD8034032 Si02
#       8
#     2   2   2   2   2   2   2   2
#     4  12  27  47  76 101 142 189 237 293 357 414
#     4  11  25  45  70 103 146 178 242 288 351 421
#     4  11  24  44  71 103 141 193 227 289 353 420
#     4  11  25  47  71 106 137 185 237 290 347 429
#     4  12  26  48  70 106 142 187 237 300 349 411
#     4  11  25  46  72 104 143 184 235 295 352 419
#     4  11  24  43  70 105 145 184 235 286 350 422
#     4  11  25  42  72 100 139 184 235 287 352 418
#
# _framework density 23.971855999999999
#
# number of rings (size 3 to 8) (size 9 to 14) (size 15 to 20)
#    0.000    0.750    2.500    4.875    3.500    5.000 
#    0.000    0.000    0.000    0.000    0.000    0.000 
#    0.000    0.000    0.000    0.000    0.000    0.000 
#
# Total GULP energy -198217.046623 kJ/mol
# GULP energy per Si atom -12388.565414 kJ/mol
# Density = 2.391729 g / cm^3
# Si number density = 23.971856 Si / 1000 Ang^3
#
#
#
# Elastic Constant Matrix: (Units=GPa)
#
#
# Indices 1 2 3 4 5 6 
#
# 1 72.4477 13.1183 24.6947 -0.9414 19.8990 -15.4014
# 2 13.1183 91.6776 3.2025 7.9787 7.5200 -13.9250
# 3 24.6947 3.2025 83.8096 -3.3069 5.9036 -1.5336
# 4 -0.9414 7.9787 -3.3069 40.9119 -3.9856 10.4982
# 5 19.8990 7.5200 5.9036 -3.9856 43.5858 3.4528
# 6 -15.4014 -13.9250 -1.5336 10.4982 3.4528 36.5396
#
#
#
# Elastic Compliance Matrix: (Units=1/GPa)
#
#
# Indices 1 2 3 4 5 6 
#
# 1 0.020437 -0.000068 -0.005284 -0.003537 -0.009743 0.010303
# 2 -0.000068 0.012502 -0.000305 -0.004360 -0.002979 0.006258
# 3 -0.005284 -0.000305 0.013456 0.001730 0.000988 -0.002369
# 4 -0.003537 -0.004360 0.001730 0.028975 0.005728 -0.011946
# 5 -0.009743 -0.002979 0.000988 0.005728 0.029055 -0.009592
# 6 0.010303 0.006258 -0.002369 -0.011946 -0.009592 0.038334
#
#
# Mechanical properties :
#
#
# Convention : Reuss Voigt Hill
#
# Bulk Modulus (GPa) = 28.50583 36.66286 32.58435
# Shear Modulus (GPa) = 30.16286 38.00210 34.08248
#
# Velocity S-wave (km/s) = 3.55105 3.98588 3.77473
# Velocity P-wave (km/s) = 5.36008 6.04237 5.71142
#
# Compressibility (1/GPa) = 0.03508054
#
# Stress axis : x y z
#
# Youngs Moduli (GPa) = 48.93156 79.98409 74.31819
#
# Poissons Ratio (x) = 0.00543 0.39269
# Poissons Ratio (y) = 0.00332 0.02270
# Poissons Ratio (z) = 0.25855 0.02443
#
# Static dielectric constant tensor:
#      x y z
#    x 4.383860 -0.026410 -0.034740 
#    y -0.026410 4.596400 0.082410 
#    z -0.034740 0.082410 4.707850 
# 
# 
# High freq. dielectric constant tensor:
#      x y z
#    x 1.946850 -0.012700 0.001110 
#    y -0.012700 1.966350 0.004170 
#    z 0.001110 0.004170 1.963660 
# 
# From -- ./inp_files/515619.got.cif
#   From: 2010.06.25/outbox.cif.g09.slc.cpg/sg2_258_cif.got.tgz:515619.got - 2010.06.27 13:26:56.
