data_PCOD8034491
_publ_section_title
;
Structure prediction by ZEFSAII (Michael W. Deem and Ramdas Pophale) SiO2 
 PCOD8034491
Probable space group: P -1
;
_chemical_formula_sum "Si O2"
_cell_formula_units_Z 14
_cell_length_a 9.482248
_cell_length_b 10.129127
_cell_length_c 12.019040
_cell_angle_alpha 106.953378
_cell_angle_beta 34.223833
_cell_angle_gamma 110.744721
_cell_volume 607.166542
_symmetry_space_group_name_H-M "P -1"
_symmetry_group_IT_number 2
_symmetry_cell_setting 'triclinic'
loop_
_space_group_symop_operation_xyz
x,y,z
-x,-y,-z
loop_
_atom_site_type_symbol
_atom_site_label
_atom_site_fract_x
_atom_site_fract_y
_atom_site_fract_z
Si Si1 0.631299 0.102608 0.271640
Si Si2 0.209546 0.879007 0.578432
Si Si3 0.703472 0.425664 0.289973
Si Si4 0.238245 0.626968 0.359348
Si Si5 0.776721 0.011918 0.928538
Si Si6 0.710408 0.487711 0.045735
Si Si7 0.298905 0.783975 0.138012
O O1 0.737548 0.081913 0.318325
O O2 0.588175 0.259539 0.321177
O O3 0.361213 0.991775 0.419218
O O4 0.815860 0.063726 0.044512
O O5 0.251072 0.724006 0.484238
O O6 0.916533 0.890497 0.765545
O O7 0.500000 0.500000 0.500000
O O8 0.713933 0.486181 0.174810
O O9 0.987464 0.456124 0.171797
O O10 0.517343 0.586707 0.154129
O O11 0.168690 0.711859 0.317640
O O12 0.000000 0.500000 0.500000
O O13 0.874497 0.153765 0.824174
O O14 0.486412 0.929701 0.085133
O O15 0.594931 0.336553 0.028114
#
# Coordination Sequence:
#
# PCOD8034491 Si02
#       7
#     2   2   2   2   2   2   2
#     4  11  24  45  69 102 138 183 236 300 353 421
#     4  11  26  43  71 105 138 185 240 293 355 421
#     4  11  26  45  75 102 141 188 239 299 355 418
#     4  12  27  46  73 108 148 192 238 292 357 434
#     4  11  24  47  72 100 143 184 236 293 358 423
#     4  11  26  46  69 106 143 183 241 295 354 418
#     4  11  25  46  70 102 141 191 231 290 360 430
#
# _framework density 23.057922000000001
#
# number of rings (size 3 to 8) (size 9 to 14) (size 15 to 20)
#    0.000    0.857    2.857    2.571    8.000    2.857 
#    0.000    0.000    0.000    0.000    0.000    0.000 
#    0.000    0.000    0.000    0.000    0.000    0.000 
#
# Total GULP energy -173433.851103 kJ/mol
# GULP energy per Si atom -12388.132222 kJ/mol
# Density = 2.300544 g / cm^3
# Si number density = 23.057922 Si / 1000 Ang^3
#
#
#
# Elastic Constant Matrix: (Units=GPa)
#
#
# Indices 1 2 3 4 5 6 
#
# 1 78.4869 32.1267 50.7780 -5.6488 12.9783 -0.8259
# 2 32.1267 140.0305 59.5933 5.6666 0.1975 7.1052
# 3 50.7780 59.5933 131.7703 14.8250 -3.1187 -4.3596
# 4 -5.6488 5.6666 14.8250 52.1257 -0.2300 9.3149
# 5 12.9783 0.1975 -3.1187 -0.2300 32.8083 0.4639
# 6 -0.8259 7.1052 -4.3596 9.3149 0.4639 35.9534
#
#
#
# Elastic Compliance Matrix: (Units=1/GPa)
#
#
# Indices 1 2 3 4 5 6 
#
# 1 0.020225 -0.001361 -0.007971 0.004813 -0.008697 -0.001368
# 2 -0.001361 0.009146 -0.003725 0.000344 0.000165 -0.002382
# 3 -0.007971 -0.003725 0.013093 -0.004756 0.004340 0.003317
# 4 0.004813 0.000344 -0.004756 0.022127 -0.002115 -0.006240
# 5 -0.008697 0.000165 0.004340 -0.002115 0.034311 0.000399
# 6 -0.001368 -0.002382 0.003317 -0.006240 0.000399 0.030267
#
#
# Mechanical properties :
#
#
# Convention : Reuss Voigt Hill
#
# Bulk Modulus (GPa) = 61.16475 70.58708 65.87591
# Shear Modulus (GPa) = 31.10767 38.03014 34.56890
#
# Velocity S-wave (km/s) = 3.67701 4.06560 3.87618
# Velocity P-wave (km/s) = 6.67917 7.26073 6.97601
#
# Compressibility (1/GPa) = 0.01634929
#
# Stress axis : x y z
#
# Youngs Moduli (GPa) = 49.44388 109.34208 76.37805
#
# Poissons Ratio (x) = 0.14883 0.60879
# Poissons Ratio (y) = 0.06730 0.28452
# Poissons Ratio (z) = 0.39410 0.40732
#
# Static dielectric constant tensor:
#      x y z
#    x 4.326510 -0.051950 0.197480 
#    y -0.051950 4.253070 -0.089840 
#    z 0.197480 -0.089840 4.217040 
# 
# 
# High freq. dielectric constant tensor:
#      x y z
#    x 1.910550 0.000160 0.022970 
#    y 0.000160 1.924540 0.003060 
#    z 0.022970 0.003060 1.905660 
# 
# From -- ./inp_files/369526.got.cif
#   From: 2010.06.25/outbox.cif.g09.slc.cpg/sg2_185_cif.got.tgz:369526.got - 2010.06.27 13:26:56.
