data_PCOD8034048
_publ_section_title
;
Structure prediction by ZEFSAII (Michael W. Deem and Ramdas Pophale) SiO2 
 PCOD8034048
Probable space group: P -1
;
_chemical_formula_sum "Si O2"
_cell_formula_units_Z 16
_cell_length_a 9.392840
_cell_length_b 9.955397
_cell_length_c 11.352073
_cell_angle_alpha 122.743611
_cell_angle_beta 55.401496
_cell_angle_gamma 102.225078
_cell_volume 727.943387
_symmetry_space_group_name_H-M "P -1"
_symmetry_group_IT_number 2
_symmetry_cell_setting 'triclinic'
loop_
_space_group_symop_operation_xyz
x,y,z
-x,-y,-z
loop_
_atom_site_type_symbol
_atom_site_label
_atom_site_fract_x
_atom_site_fract_y
_atom_site_fract_z
Si Si1 0.050534 0.817110 0.919108
Si Si2 0.669181 0.899173 0.818161
Si Si3 0.112983 0.876641 0.303788
Si Si4 0.341991 0.599255 0.192155
Si Si5 0.097415 0.322400 0.856403
Si Si6 0.907257 0.615901 0.700344
Si Si7 0.435823 0.726782 0.699571
Si Si8 0.521201 0.616339 0.360321
O O1 0.045950 0.699354 0.751747
O O2 0.247024 0.808339 0.871055
O O3 0.918327 0.772589 0.059968
O O4 0.000000 0.000000 0.000000
O O5 0.760037 0.755019 0.788184
O O6 0.597192 0.821572 0.698597
O O7 0.808714 0.017836 0.781806
O O8 0.500000 0.000000 0.000000
O O9 0.273665 0.769071 0.243235
O O10 0.986841 0.763111 0.251828
O O11 0.000000 0.000000 0.500000
O O12 0.183956 0.494012 0.218784
O O13 0.393958 0.634395 0.317511
O O14 0.500000 0.500000 0.000000
O O15 0.298099 0.327462 0.736168
O O16 0.000000 0.500000 0.000000
O O17 0.000000 0.500000 0.500000
O O18 0.433073 0.725975 0.558978
O O19 0.459018 0.561284 0.681104
#
# Coordination Sequence:
#
# PCOD8034048 Si02
#       8
#     2   2   2   2   2   2   2   2
#     4  12  26  44  68 104 141 182 228 287 352 411
#     4  12  25  45  70 100 140 184 227 282 354 411
#     4  12  27  46  69 103 143 182 223 291 356 408
#     4  12  25  44  70 105 136 180 237 284 336 413
#     4  12  24  45  72 100 139 185 237 281 343 420
#     4  12  25  44  70 102 136 181 237 283 334 414
#     4  11  24  44  70  99 138 179 230 283 346 410
#     4  11  24  43  71 102 133 179 234 288 335 402
#
# _framework density 21.979731999999998
#
# number of rings (size 3 to 8) (size 9 to 14) (size 15 to 20)
#    0.000    0.250    2.500    7.500    1.750    2.000 
#    0.000    1.875    0.000    0.000    0.000    0.000 
#    0.000    0.000    0.000    0.000    0.000    0.000 
#
# Total GULP energy -198430.297399 kJ/mol
# GULP energy per Si atom -12401.893587 kJ/mol
# Density = 2.192971 g / cm^3
# Si number density = 21.979732 Si / 1000 Ang^3
#
#
#
# Elastic Constant Matrix: (Units=GPa)
#
#
# Indices 1 2 3 4 5 6 
#
# 1 85.6895 14.2283 9.2000 4.4817 12.6738 3.3585
# 2 14.2283 112.5792 41.4002 0.8352 1.1510 6.2657
# 3 9.2000 41.4002 107.2034 3.1761 -4.6058 -7.3389
# 4 4.4817 0.8352 3.1761 33.5616 -0.1096 -4.9766
# 5 12.6738 1.1510 -4.6058 -0.1096 43.7452 -4.0462
# 6 3.3585 6.2657 -7.3389 -4.9766 -4.0462 42.6339
#
#
#
# Elastic Compliance Matrix: (Units=1/GPa)
#
#
# Indices 1 2 3 4 5 6 
#
# 1 0.012685 -0.001144 -0.000866 -0.001828 -0.003885 -0.001562
# 2 -0.001144 0.010712 -0.004219 -0.000054 -0.000605 -0.002274
# 3 -0.000866 -0.004219 0.011311 -0.000435 0.001807 0.002756
# 4 -0.001828 -0.000054 -0.000435 0.030640 0.000908 0.003740
# 5 -0.003885 -0.000605 0.001807 0.000908 0.024484 0.003136
# 6 -0.001562 -0.002274 0.002756 0.003740 0.003136 0.025121
#
#
# Mechanical properties :
#
#
# Convention : Reuss Voigt Hill
#
# Bulk Modulus (GPa) = 44.94681 48.34768 46.64725
# Shear Modulus (GPa) = 37.08463 40.03103 38.55783
#
# Velocity S-wave (km/s) = 4.11203 4.27226 4.19291
# Velocity P-wave (km/s) = 6.56039 6.81033 6.68653
#
# Compressibility (1/GPa) = 0.02224852
#
# Stress axis : x y z
#
# Youngs Moduli (GPa) = 78.83625 93.35533 88.41154
#
# Poissons Ratio (x) = 0.10683 0.07660
# Poissons Ratio (y) = 0.09021 0.37297
# Poissons Ratio (z) = 0.06830 0.39383
#
# Static dielectric constant tensor:
#      x y z
#    x 11.784940 -7.417200 7.541130 
#    y -7.417200 11.393450 -7.041740 
#    z 7.541130 -7.041740 11.042480 
# 
# 
# High freq. dielectric constant tensor:
#      x y z
#    x 1.879040 0.007510 0.004820 
#    y 0.007510 1.875460 -0.001410 
#    z 0.004820 -0.001410 1.874970 
# 
# From -- ./inp_files/383122.got.cif
#   From: 2010.06.25/outbox.cif.g09.slc.cpg/sg2_192_cif.got.tgz:383122.got - 2010.06.27 13:26:56.
