data_PCOD8034258
_publ_section_title
;
Structure prediction by ZEFSAII (Michael W. Deem and Ramdas Pophale) SiO2 
 PCOD8034258
Probable space group: P -1
;
_chemical_formula_sum "Si O2"
_cell_formula_units_Z 16
_cell_length_a 9.710883
_cell_length_b 10.688597
_cell_length_c 14.778312
_cell_angle_alpha 50.594071
_cell_angle_beta 117.649445
_cell_angle_gamma 78.012866
_cell_volume 713.166771
_symmetry_space_group_name_H-M "P -1"
_symmetry_group_IT_number 2
_symmetry_cell_setting 'triclinic'
loop_
_space_group_symop_operation_xyz
x,y,z
-x,-y,-z
loop_
_atom_site_type_symbol
_atom_site_label
_atom_site_fract_x
_atom_site_fract_y
_atom_site_fract_z
Si Si1 0.500818 0.956316 0.623847
Si Si2 0.383266 0.472008 0.196451
Si Si3 0.364864 0.855275 0.304441
Si Si4 0.243714 0.697572 0.869960
Si Si5 0.876010 0.244689 0.480906
Si Si6 0.213866 0.630805 0.410529
Si Si7 0.012970 0.720713 0.122252
Si Si8 0.020665 0.622696 0.712479
O O1 0.614340 0.693516 0.787339
O O2 0.500000 0.000000 0.500000
O O3 0.647314 0.977681 0.712620
O O4 0.245220 0.150751 0.493748
O O5 0.640495 0.323852 0.368229
O O6 0.246283 0.553035 0.211365
O O7 0.255812 0.692775 0.986301
O O8 0.328029 0.721189 0.413062
O O9 0.606174 0.651903 0.420603
O O10 0.172846 0.017471 0.095462
O O11 0.106413 0.644687 0.819234
O O12 0.500000 0.500000 0.000000
O O13 0.099025 0.960337 0.666850
O O14 0.904792 0.311875 0.555674
O O15 0.854536 0.396965 0.327587
O O16 0.041488 0.762233 0.213689
O O17 0.917455 0.611801 0.147413
#
# Coordination Sequence:
#
# PCOD8034258 Si02
#       8
#     2   2   2   2   2   2   2   2
#     4  12  22  41  70 102 141 176 217 281 349 397
#     4  12  24  42  73 104 136 180 226 277 347 406
#     4  11  24  44  70 101 136 177 228 292 331 396
#     4  12  25  45  71 104 136 176 223 278 342 415
#     4  12  26  45  71  97 141 187 221 274 344 408
#     4  11  24  46  69  96 137 182 234 277 337 396
#     4  12  26  44  70 106 135 176 236 288 328 395
#     4  12  25  45  68 102 141 176 223 280 343 410
#
# _framework density 22.435144999999999
#
# number of rings (size 3 to 8) (size 9 to 14) (size 15 to 20)
#    0.000    0.250    5.000    5.250    1.750    2.500 
#    0.000    0.625    0.000    0.000    0.000    0.000 
#    0.000    0.000    0.000    0.000    0.000    0.000 
#
# Total GULP energy -198430.217866 kJ/mol
# GULP energy per Si atom -12401.888617 kJ/mol
# Density = 2.238408 g / cm^3
# Si number density = 22.435145 Si / 1000 Ang^3
#
#
#
# Elastic Constant Matrix: (Units=GPa)
#
#
# Indices 1 2 3 4 5 6 
#
# 1 84.8718 31.0636 17.5047 0.4756 -7.7744 -4.9460
# 2 31.0636 105.7280 24.0431 23.6842 -0.1466 -9.2503
# 3 17.5047 24.0431 107.3804 8.0803 -0.8816 -4.6729
# 4 0.4756 23.6842 8.0803 25.8147 7.5601 -5.8250
# 5 -7.7744 -0.1466 -0.8816 7.5601 28.2343 6.1239
# 6 -4.9460 -9.2503 -4.6729 -5.8250 6.1239 27.5667
#
#
#
# Elastic Compliance Matrix: (Units=1/GPa)
#
#
# Indices 1 2 3 4 5 6 
#
# 1 0.014028 -0.004559 -0.001493 0.003870 0.002542 0.000987
# 2 -0.004559 0.014044 -0.001394 -0.012881 0.002122 0.000465
# 3 -0.001493 -0.001394 0.010028 -0.001789 0.000259 0.000529
# 4 0.003870 -0.012881 -0.001789 0.058989 -0.017549 0.012432
# 5 0.002542 0.002122 0.000259 -0.017549 0.043472 -0.012153
# 6 0.000987 0.000465 0.000529 0.012432 -0.012153 0.042025
#
#
# Mechanical properties :
#
#
# Convention : Reuss Voigt Hill
#
# Bulk Modulus (GPa) = 43.09158 49.24480 46.16819
# Shear Modulus (GPa) = 24.36482 31.34770 27.85626
#
# Velocity S-wave (km/s) = 3.29904 3.74205 3.52751
# Velocity P-wave (km/s) = 5.81037 6.37715 6.10035
#
# Compressibility (1/GPa) = 0.02320639
#
# Stress axis : x y z
#
# Youngs Moduli (GPa) = 71.28734 71.20557 99.72017
#
# Poissons Ratio (x) = 0.32462 0.14892
# Poissons Ratio (y) = 0.32499 0.13905
# Poissons Ratio (z) = 0.10646 0.09929
#
# Static dielectric constant tensor:
#      x y z
#    x 5.134450 -0.324240 1.823980 
#    y -0.324240 4.710980 -1.203930 
#    z 1.823980 -1.203930 7.992810 
# 
# 
# High freq. dielectric constant tensor:
#      x y z
#    x 1.873930 0.000780 -0.005770 
#    y 0.000780 1.886370 0.011650 
#    z -0.005770 0.011650 1.894060 
# 
# From -- ./inp_files/500061.got.cif
#   From: 2010.06.25/outbox.cif.g09.slc.cpg/sg2_251_cif.got.tgz:500061.got - 2010.06.27 13:26:56.
