data_PCOD8034340
_publ_section_title
;
Structure prediction by ZEFSAII (Michael W. Deem and Ramdas Pophale) SiO2 
 PCOD8034340
Probable space group: P -1
;
_chemical_formula_sum "Si O2"
_cell_formula_units_Z 16
_cell_length_a 9.169521
_cell_length_b 11.187309
_cell_length_c 14.073516
_cell_angle_alpha 148.953040
_cell_angle_beta 83.995939
_cell_angle_gamma 85.127357
_cell_volume 696.285754
_symmetry_space_group_name_H-M "P -1"
_symmetry_group_IT_number 2
_symmetry_cell_setting 'triclinic'
loop_
_space_group_symop_operation_xyz
x,y,z
-x,-y,-z
loop_
_atom_site_type_symbol
_atom_site_label
_atom_site_fract_x
_atom_site_fract_y
_atom_site_fract_z
Si Si1 0.487403 0.754259 0.623517
Si Si2 0.272069 0.476585 0.961356
Si Si3 0.951344 0.792600 0.806546
Si Si4 0.366904 0.150985 0.041709
Si Si5 0.546497 0.492486 0.847708
Si Si6 0.968413 0.028401 0.633679
Si Si7 0.169522 0.248744 0.412325
Si Si8 0.301471 0.927194 0.569635
O O1 0.500000 0.500000 0.500000
O O2 0.647734 0.811163 0.657683
O O3 0.428858 0.776195 0.534733
O O4 0.356465 0.973287 0.835774
O O5 0.361941 0.562175 0.927944
O O6 0.259191 0.217835 0.756755
O O7 0.378202 0.421407 0.009626
O O8 0.106145 0.683863 0.135184
O O9 0.803877 0.744327 0.830776
O O10 0.905727 0.855150 0.741483
O O11 0.096560 0.541572 0.630898
O O12 0.000000 0.000000 0.000000
O O13 0.420385 0.375397 0.157954
O O14 0.500000 0.000000 0.000000
O O15 0.629817 0.199542 0.622650
O O16 0.855205 0.885246 0.580824
O O17 0.000000 0.000000 0.500000
O O18 0.134578 0.901471 0.587544
#
# Coordination Sequence:
#
# PCOD8034340 Si02
#       8
#     2   2   2   2   2   2   2   2
#     4  12  26  46  74 109 147 190 242 294 363 443
#     4  11  25  46  71 102 144 183 246 299 356 424
#     4  11  26  46  74 106 145 191 241 296 369 429
#     4  12  23  44  72 103 146 187 234 296 365 426
#     4  11  24  44  72 103 139 190 237 299 359 425
#     4  12  27  49  75 104 149 194 241 304 368 422
#     4  11  27  49  71 105 151 187 239 307 357 429
#     4  12  26  46  74 104 143 190 245 300 359 434
#
# _framework density 22.979073
#
# number of rings (size 3 to 8) (size 9 to 14) (size 15 to 20)
#    0.000    0.500    3.750    3.750    7.000    1.000 
#    2.250    0.000    0.000    0.000    0.000    0.000 
#    0.000    0.000    0.000    0.000    0.000    0.000 
#
# Total GULP energy -198403.993020 kJ/mol
# GULP energy per Si atom -12400.249564 kJ/mol
# Density = 2.292677 g / cm^3
# Si number density = 22.979073 Si / 1000 Ang^3
#
#
#
# Elastic Constant Matrix: (Units=GPa)
#
#
# Indices 1 2 3 4 5 6 
#
# 1 95.2894 35.0045 24.3462 -5.5310 -6.5702 4.3387
# 2 35.0045 112.0645 22.9884 1.2579 4.1132 22.6877
# 3 24.3462 22.9884 139.0976 -6.4226 -0.7269 10.4974
# 4 -5.5310 1.2579 -6.4226 27.9245 5.0440 -9.4294
# 5 -6.5702 4.1132 -0.7269 5.0440 43.2087 0.0621
# 6 4.3387 22.6877 10.4974 -9.4294 0.0621 29.7600
#
#
#
# Elastic Compliance Matrix: (Units=1/GPa)
#
#
# Indices 1 2 3 4 5 6 
#
# 1 0.012664 -0.004337 -0.001575 0.002986 0.001959 0.002958
# 2 -0.004337 0.012612 -0.000783 -0.004829 -0.001295 -0.010234
# 3 -0.001575 -0.000783 0.007760 0.000996 -0.000148 -0.001595
# 4 0.002986 -0.004829 0.000996 0.043198 -0.004136 0.016591
# 5 0.001959 -0.001295 -0.000148 -0.004136 0.024046 -0.000607
# 6 0.002958 -0.010234 -0.001595 0.016591 -0.000607 0.046793
#
#
# Mechanical properties :
#
#
# Convention : Reuss Voigt Hill
#
# Bulk Modulus (GPa) = 50.89838 56.79217 53.84528
# Shear Modulus (GPa) = 29.93817 37.78614 33.86216
#
# Velocity S-wave (km/s) = 3.61341 4.05948 3.84293
# Velocity P-wave (km/s) = 6.29341 6.83674 6.57069
#
# Compressibility (1/GPa) = 0.01964699
#
# Stress axis : x y z
#
# Youngs Moduli (GPa) = 78.96674 79.28795 128.86944
#
# Poissons Ratio (x) = 0.34385 0.20295
# Poissons Ratio (y) = 0.34246 0.10087
# Poissons Ratio (z) = 0.12436 0.06206
#
# Static dielectric constant tensor:
#      x y z
#    x 4.241080 0.202730 -0.162130 
#    y 0.202730 4.183070 -0.332440 
#    z -0.162130 -0.332440 4.664810 
# 
# 
# High freq. dielectric constant tensor:
#      x y z
#    x 1.908440 0.007370 -0.009870 
#    y 0.007370 1.902620 -0.004710 
#    z -0.009870 -0.004710 1.930100 
# 
# From -- ./inp_files/501136.got.cif
#   From: 2010.06.25/outbox.cif.g09.slc.cpg/sg2_251_cif.got.tgz:501136.got - 2010.06.27 13:26:56.
