data_PCOD8034130
_publ_section_title
;
Structure prediction by ZEFSAII (Michael W. Deem and Ramdas Pophale) SiO2 
 PCOD8034130
Probable space group: P -1
;
_chemical_formula_sum "Si O2"
_cell_formula_units_Z 14
_cell_length_a 5.359516
_cell_length_b 12.605975
_cell_length_c 12.105854
_cell_angle_alpha 51.488165
_cell_angle_beta 81.031785
_cell_angle_gamma 68.792907
_cell_volume 593.942418
_symmetry_space_group_name_H-M "P -1"
_symmetry_group_IT_number 2
_symmetry_cell_setting 'triclinic'
loop_
_space_group_symop_operation_xyz
x,y,z
-x,-y,-z
loop_
_atom_site_type_symbol
_atom_site_label
_atom_site_fract_x
_atom_site_fract_y
_atom_site_fract_z
Si Si1 0.686793 0.824037 0.466532
Si Si2 0.416540 0.458932 0.365267
Si Si3 0.106071 0.239381 0.076338
Si Si4 0.526519 0.410572 0.944407
Si Si5 0.812204 0.928062 0.617004
Si Si6 0.809290 0.287070 0.634181
Si Si7 0.754598 0.024140 0.915267
O O1 0.717733 0.657939 0.575778
O O2 0.701273 0.859762 0.570063
O O3 0.908416 0.825572 0.358642
O O4 0.407093 0.949048 0.372143
O O5 0.657979 0.384185 0.480434
O O6 0.186532 0.599090 0.343460
O O7 0.551424 0.494132 0.222442
O O8 0.344201 0.307979 0.021607
O O9 0.033027 0.207622 0.227302
O O10 0.846160 0.331915 0.966184
O O11 0.179860 0.085272 0.117539
O O12 0.500000 0.500000 0.000000
O O13 0.000000 0.000000 0.500000
O O14 0.661425 0.185843 0.765724
O O15 0.500000 0.000000 0.000000
O O16 0.000000 0.000000 0.000000
#
# Coordination Sequence:
#
# PCOD8034130 Si02
#       7
#     2   2   2   2   2   2   2
#     4  11  24  43  74 104 143 190 249 306 372 443
#     4  11  25  47  70 107 148 196 249 301 374 445
#     4  12  27  48  74 108 147 193 253 307 382 440
#     4  12  29  49  76 109 152 202 248 310 375 452
#     4  11  26  44  73 106 143 189 249 313 375 443
#     4  11  26  45  75 106 149 194 250 307 372 447
#     4  12  27  48  76 109 151 195 248 313 377 445
#
# _framework density 23.57131
#
# number of rings (size 3 to 8) (size 9 to 14) (size 15 to 20)
#    0.000    0.571    0.000    6.857   16.000    0.000 
#    0.000    0.000    0.000    0.000    0.000    0.000 
#    0.000    0.000    0.000    0.000    0.000    0.000 
#
# Total GULP energy -173434.203503 kJ/mol
# GULP energy per Si atom -12388.157393 kJ/mol
# Density = 2.351766 g / cm^3
# Si number density = 23.571310 Si / 1000 Ang^3
#
#
#
# Elastic Constant Matrix: (Units=GPa)
#
#
# Indices 1 2 3 4 5 6 
#
# 1 131.3502 43.1754 40.5688 0.3310 -11.1357 9.4844
# 2 43.1754 163.5818 41.2380 -6.4760 -8.2339 7.8041
# 3 40.5688 41.2380 154.7005 11.8586 -8.8624 16.4495
# 4 0.3310 -6.4760 11.8586 33.0799 2.5212 -9.3851
# 5 -11.1357 -8.2339 -8.8624 2.5212 33.7179 -0.7878
# 6 9.4844 7.8041 16.4495 -9.3851 -0.7878 45.3472
#
#
#
# Elastic Compliance Matrix: (Units=1/GPa)
#
#
# Indices 1 2 3 4 5 6 
#
# 1 0.008960 -0.001817 -0.001615 -0.000310 0.002091 -0.001003
# 2 -0.001817 0.007081 -0.001542 0.001951 0.000581 0.000134
# 3 -0.001615 -0.001542 0.008036 -0.004170 0.001440 -0.003150
# 4 -0.000310 0.001951 -0.004170 0.034723 -0.003123 0.008374
# 5 0.002091 0.000581 0.001440 -0.003123 0.031075 -0.001166
# 6 -0.001003 0.000134 -0.003150 0.008374 -0.001166 0.025094
#
#
# Mechanical properties :
#
#
# Convention : Reuss Voigt Hill
#
# Bulk Modulus (GPa) = 70.77395 77.73298 74.25347
# Shear Modulus (GPa) = 38.57231 44.07236 41.32234
#
# Velocity S-wave (km/s) = 4.04964 4.32875 4.19152
# Velocity P-wave (km/s) = 7.20811 7.61797 7.41587
#
# Compressibility (1/GPa) = 0.01412949
#
# Stress axis : x y z
#
# Youngs Moduli (GPa) = 111.61041 141.21416 124.44487
#
# Poissons Ratio (x) = 0.25657 0.20098
# Poissons Ratio (y) = 0.20278 0.19187
# Poissons Ratio (z) = 0.18026 0.21772
#
# Static dielectric constant tensor:
#      x y z
#    x 4.334900 0.018270 0.218360 
#    y 0.018270 4.494590 -0.095020 
#    z 0.218360 -0.095020 4.584510 
# 
# 
# High freq. dielectric constant tensor:
#      x y z
#    x 1.921710 0.010640 -0.000380 
#    y 0.010640 1.959830 0.004330 
#    z -0.000380 0.004330 1.951410 
# 
# From -- ./inp_files/363648.got.cif
#   From: 2010.06.25/outbox.cif.g09.slc.cpg/sg2_182_cif.got.tgz:363648.got - 2010.06.27 13:26:56.
