data_PCOD8034385
_publ_section_title
;
Structure prediction by ZEFSAII (Michael W. Deem and Ramdas Pophale) SiO2 
 PCOD8034385
Probable space group: P -1
;
_chemical_formula_sum "Si O2"
_cell_formula_units_Z 16
_cell_length_a 14.678374
_cell_length_b 14.472198
_cell_length_c 11.486498
_cell_angle_alpha 41.519046
_cell_angle_beta 120.307490
_cell_angle_gamma 151.874344
_cell_volume 661.105832
_symmetry_space_group_name_H-M "P -1"
_symmetry_group_IT_number 2
_symmetry_cell_setting 'triclinic'
loop_
_space_group_symop_operation_xyz
x,y,z
-x,-y,-z
loop_
_atom_site_type_symbol
_atom_site_label
_atom_site_fract_x
_atom_site_fract_y
_atom_site_fract_z
Si Si1 0.945860 0.832934 0.519321
Si Si2 0.660521 0.479570 0.112543
Si Si3 0.898441 0.280058 0.983020
Si Si4 0.955535 0.605659 0.263653
Si Si5 0.687936 0.740053 0.301118
Si Si6 0.717353 0.316246 0.965352
Si Si7 0.588459 0.642677 0.741866
Si Si8 0.628641 0.046872 0.718951
O O1 0.873613 0.837434 0.354575
O O2 0.749403 0.497133 0.744063
O O3 0.000000 0.000000 0.500000
O O4 0.178428 0.019789 0.471091
O O5 0.904701 0.708556 0.096685
O O6 0.523502 0.376336 0.229566
O O7 0.551148 0.209694 0.249401
O O8 0.670797 0.599568 0.901465
O O9 0.071333 0.448923 0.035985
O O10 0.773677 0.996041 0.129673
O O11 0.719790 0.188464 0.997316
O O12 0.029269 0.478613 0.761673
O O13 0.762058 0.334865 0.483926
O O14 0.196065 0.877339 0.224929
O O15 0.500000 0.500000 0.500000
O O16 0.586318 0.601556 0.238717
O O17 0.487242 0.049350 0.141532
#
# Coordination Sequence:
#
# PCOD8034385 Si02
#       8
#     2   2   2   2   2   2   2   2
#     4  12  23  45  72 105 148 192 238 294 366 437
#     4  11  24  46  74 101 144 190 242 304 357 432
#     4  11  24  44  73 109 140 192 240 298 364 437
#     4  11  25  44  74 101 143 191 241 296 362 435
#     4  12  25  45  74 105 149 189 240 302 362 436
#     4  11  25  44  74 106 148 190 240 295 371 435
#     4  11  26  45  73 108 140 193 245 298 365 427
#     4  11  25  46  70 102 146 191 239 297 363 429
#
# _framework density 24.201875000000001
#
# number of rings (size 3 to 8) (size 9 to 14) (size 15 to 20)
#    0.000    0.750    3.750    2.625    3.500    3.500 
#    2.250    3.125    0.000    0.000    0.000    0.000 
#    0.000    0.000    0.000    0.000    0.000    0.000 
#
# Total GULP energy -198384.832545 kJ/mol
# GULP energy per Si atom -12399.052034 kJ/mol
# Density = 2.414679 g / cm^3
# Si number density = 24.201875 Si / 1000 Ang^3
#
#
#
# Elastic Constant Matrix: (Units=GPa)
#
#
# Indices 1 2 3 4 5 6 
#
# 1 137.4617 50.5797 64.1986 4.4741 -18.2046 8.2195
# 2 50.5797 79.7680 29.6183 14.5699 -4.2217 12.4138
# 3 64.1986 29.6183 121.2981 6.1536 -12.1905 -4.4115
# 4 4.4741 14.5699 6.1536 35.9203 5.9228 1.7720
# 5 -18.2046 -4.2217 -12.1905 5.9228 39.3055 5.4882
# 6 8.2195 12.4138 -4.4115 1.7720 5.4882 41.5019
#
#
#
# Elastic Compliance Matrix: (Units=1/GPa)
#
#
# Indices 1 2 3 4 5 6 
#
# 1 0.012146 -0.005655 -0.004804 0.001095 0.003607 -0.001749
# 2 -0.005655 0.018486 -0.001297 -0.006447 0.000542 -0.004344
# 3 -0.004804 -0.001297 0.011347 -0.001102 0.000977 0.002464
# 4 0.001095 -0.006447 -0.001102 0.031347 -0.005386 0.000968
# 5 0.003607 0.000542 0.000977 -0.005386 0.028894 -0.004364
# 6 -0.001749 -0.004344 0.002464 0.000968 -0.004364 0.026539
#
#
# Mechanical properties :
#
#
# Convention : Reuss Voigt Hill
#
# Bulk Modulus (GPa) = 54.15282 69.70235 61.92758
# Shear Modulus (GPa) = 31.56032 36.28761 33.92396
#
# Velocity S-wave (km/s) = 3.61507 3.87637 3.74800
# Velocity P-wave (km/s) = 6.31261 6.99271 6.66134
#
# Compressibility (1/GPa) = 0.01846626
#
# Stress axis : x y z
#
# Youngs Moduli (GPa) = 82.33368 54.09548 88.12641
#
# Poissons Ratio (x) = 0.30589 0.42338
# Poissons Ratio (y) = 0.46557 0.11434
# Poissons Ratio (z) = 0.39555 0.07019
#
# Static dielectric constant tensor:
#      x y z
#    x 4.414470 0.006390 -0.200930 
#    y 0.006390 4.499290 0.632200 
#    z -0.200930 0.632200 4.445960 
# 
# 
# High freq. dielectric constant tensor:
#      x y z
#    x 1.956420 0.020140 -0.021470 
#    y 0.020140 1.975260 0.012160 
#    z -0.021470 0.012160 1.963910 
# 
# From -- ./inp_files/455495.got.cif
#   From: 2010.06.25/outbox.cif.g09.slc.cpg/sg2_228_cif.got.tgz:455495.got - 2010.06.27 13:26:56.
