data_PCOD8034058
_publ_section_title
;
Structure prediction by ZEFSAII (Michael W. Deem and Ramdas Pophale) SiO2 
 PCOD8034058
Probable space group: P -1
;
_chemical_formula_sum "Si O2"
_cell_formula_units_Z 14
_cell_length_a 7.148583
_cell_length_b 8.830984
_cell_length_c 21.637632
_cell_angle_alpha 131.455780
_cell_angle_beta 37.637189
_cell_angle_gamma 123.456479
_cell_volume 624.066792
_symmetry_space_group_name_H-M "P -1"
_symmetry_group_IT_number 2
_symmetry_cell_setting 'triclinic'
loop_
_space_group_symop_operation_xyz
x,y,z
-x,-y,-z
loop_
_atom_site_type_symbol
_atom_site_label
_atom_site_fract_x
_atom_site_fract_y
_atom_site_fract_z
Si Si1 0.350543 0.147653 0.321765
Si Si2 0.336207 0.937820 0.910090
Si Si3 0.341048 0.368601 0.059612
Si Si4 0.783632 0.503845 0.303099
Si Si5 0.693163 0.456540 0.106638
Si Si6 0.684017 0.188424 0.533524
Si Si7 0.729482 0.233426 0.673235
O O1 0.451199 0.100391 0.213335
O O2 0.591916 0.314736 0.334534
O O3 0.010503 0.227608 0.424505
O O4 0.356575 0.945780 0.305577
O O5 0.306564 0.751438 0.913605
O O6 0.467221 0.144437 0.964409
O O7 0.000000 0.000000 0.000000
O O8 0.421387 0.454637 0.128267
O O9 0.975012 0.405070 0.168520
O O10 0.500000 0.500000 0.000000
O O11 0.527433 0.625077 0.368096
O O12 0.973281 0.634372 0.341021
O O13 0.578986 0.643916 0.226581
O O14 0.000000 0.500000 0.000000
O O15 0.790121 0.147107 0.565601
O O16 0.500000 0.000000 0.500000
#
# Coordination Sequence:
#
# PCOD8034058 Si02
#       7
#     2   2   2   2   2   2   2
#     4  12  25  47  76 105 144 194 241 301 363 428
#     4  12  23  44  70 103 144 180 237 292 358 430
#     4  11  24  43  71 104 147 186 234 297 360 430
#     4  11  25  48  71 108 144 188 246 293 364 431
#     4  11  25  42  70 104 143 189 233 293 364 431
#     4  12  27  49  75 104 145 192 242 300 368 434
#     4  11  26  49  71 105 149 187 243 303 364 429
#
# _framework density 22.433495000000001
#
# number of rings (size 3 to 8) (size 9 to 14) (size 15 to 20)
#    0.000    0.571    2.857    5.571    2.000    0.571 
#    7.714    0.000    0.000    0.000    0.000    0.000 
#    0.000    0.000    0.000    0.000    0.000    0.000 
#
# Total GULP energy -173466.889854 kJ/mol
# GULP energy per Si atom -12390.492132 kJ/mol
# Density = 2.238244 g / cm^3
# Si number density = 22.433495 Si / 1000 Ang^3
#
#
#
# Elastic Constant Matrix: (Units=GPa)
#
#
# Indices 1 2 3 4 5 6 
#
# 1 97.2543 55.2330 57.0779 -5.5878 -1.5678 -4.1903
# 2 55.2330 183.9228 64.6048 -5.9932 -6.6902 -2.4114
# 3 57.0779 64.6048 158.7481 -16.8455 -11.2256 -8.7088
# 4 -5.5878 -5.9932 -16.8455 33.0907 -0.2025 -9.5012
# 5 -1.5678 -6.6902 -11.2256 -0.2025 41.4678 6.4734
# 6 -4.1903 -2.4114 -8.7088 -9.5012 6.4734 46.1885
#
#
#
# Elastic Compliance Matrix: (Units=1/GPa)
#
#
# Indices 1 2 3 4 5 6 
#
# 1 0.014293 -0.002921 -0.003999 -0.000001 -0.001098 0.000544
# 2 -0.002921 0.006949 -0.001783 -0.000245 0.000585 -0.000371
# 3 -0.003999 -0.001783 0.009137 0.004205 0.001761 0.001885
# 4 -0.000001 -0.000245 0.004205 0.034581 0.000036 0.007888
# 5 -0.001098 0.000585 0.001761 0.000036 0.025153 -0.003255
# 6 0.000544 -0.000371 0.001885 0.007888 -0.003255 0.024115
#
#
# Mechanical properties :
#
#
# Convention : Reuss Voigt Hill
#
# Bulk Modulus (GPa) = 77.07231 88.19515 82.63373
# Shear Modulus (GPa) = 36.77639 41.68335 39.22987
#
# Velocity S-wave (km/s) = 4.05328 4.31523 4.18630
# Velocity P-wave (km/s) = 7.50573 8.01422 7.76414
#
# Compressibility (1/GPa) = 0.01297483
#
# Stress axis : x y z
#
# Youngs Moduli (GPa) = 69.96218 143.90947 109.44945
#
# Poissons Ratio (x) = 0.42032 0.43764
# Poissons Ratio (y) = 0.20434 0.19512
# Poissons Ratio (z) = 0.27975 0.25656
#
# Static dielectric constant tensor:
#      x y z
#    x 3.958570 1.156400 0.787800 
#    y 1.156400 1.118030 -3.050170 
#    z 0.787800 -3.050170 1.183200 
# 
# 
# High freq. dielectric constant tensor:
#      x y z
#    x 1.881010 0.004870 -0.007780 
#    y 0.004870 1.895900 0.012220 
#    z -0.007780 0.012220 1.909790 
# 
# From -- ./inp_files/327234.got.cif
#   From: 2010.06.25/outbox.cif.g09.slc.cpg/sg2_164_cif.got.tgz:327234.got - 2010.06.27 13:26:56.
