data_PCOD8034896
_publ_section_title
;
Structure prediction by ZEFSAII (Michael W. Deem and Ramdas Pophale) SiO2 
 PCOD8034896
Probable space group: P -1
;
_chemical_formula_sum "Si O2"
_cell_formula_units_Z 16
_cell_length_a 11.289262
_cell_length_b 9.263489
_cell_length_c 15.656587
_cell_angle_alpha 65.254987
_cell_angle_beta 110.588833
_cell_angle_gamma 54.294990
_cell_volume 711.270286
_symmetry_space_group_name_H-M "P -1"
_symmetry_group_IT_number 2
_symmetry_cell_setting 'triclinic'
loop_
_space_group_symop_operation_xyz
x,y,z
-x,-y,-z
loop_
_atom_site_type_symbol
_atom_site_label
_atom_site_fract_x
_atom_site_fract_y
_atom_site_fract_z
Si Si1 0.442717 0.656638 0.361492
Si Si2 0.280232 0.356151 0.878270
Si Si3 0.281022 0.642777 0.163938
Si Si4 0.062512 0.691100 0.439466
Si Si5 0.424862 0.144268 0.354531
Si Si6 0.962975 0.583253 0.593079
Si Si7 0.598165 0.413276 0.142634
Si Si8 0.943163 0.681456 0.866092
O O1 0.500000 0.500000 0.500000
O O2 0.443547 0.548613 0.303258
O O3 0.660357 0.548598 0.441293
O O4 0.166543 0.031985 0.200432
O O5 0.370364 0.436422 0.861318
O O6 0.045496 0.553118 0.714435
O O7 0.192320 0.439716 0.933755
O O8 0.500000 0.000000 0.000000
O O9 0.258966 0.481015 0.223162
O O10 0.410206 0.534796 0.131833
O O11 0.000000 0.000000 0.000000
O O12 0.974682 0.671276 0.343733
O O13 0.095757 0.550584 0.566967
O O14 0.868660 0.043085 0.311438
O O15 0.281223 0.148704 0.284080
O O16 0.500000 0.000000 0.500000
O O17 0.671196 0.920222 0.419991
O O18 0.500000 0.500000 0.000000
O O19 0.000000 0.500000 0.000000
#
# Coordination Sequence:
#
# PCOD8034896 Si02
#       8
#     2   2   2   2   2   2   2   2
#     4  12  27  47  76 110 147 196 248 308 373 443
#     4  12  29  47  76 106 149 195 250 301 376 445
#     4  12  30  48  76 110 156 200 250 311 379 446
#     4  11  25  45  75 106 147 185 249 304 371 434
#     4  12  24  47  76 107 141 195 250 304 365 440
#     4  11  24  46  74 106 141 192 243 306 362 443
#     4  12  29  49  75 108 152 199 250 310 376 452
#     4  12  28  46  75 107 150 192 245 306 369 444
#
# _framework density 22.494965000000001
#
# number of rings (size 3 to 8) (size 9 to 14) (size 15 to 20)
#    0.000    0.250    3.750    3.750   12.250    1.000 
#    0.000    0.000    0.000    0.000    0.000    0.000 
#    0.000    0.000    0.000    0.000    0.000    0.000 
#
# Total GULP energy -198402.595668 kJ/mol
# GULP energy per Si atom -12400.162229 kJ/mol
# Density = 2.244377 g / cm^3
# Si number density = 22.494965 Si / 1000 Ang^3
#
#
#
# Elastic Constant Matrix: (Units=GPa)
#
#
# Indices 1 2 3 4 5 6 
#
# 1 102.4824 27.2212 17.5594 -6.7302 -6.9076 -12.6179
# 2 27.2212 105.6853 31.6316 -10.3928 -9.1339 -5.6989
# 3 17.5594 31.6316 89.7877 -12.9534 -9.7621 -8.6578
# 4 -6.7302 -10.3928 -12.9534 59.4242 2.6429 -1.5988
# 5 -6.9076 -9.1339 -9.7621 2.6429 36.5900 -1.7002
# 6 -12.6179 -5.6989 -8.6578 -1.5988 -1.7002 49.8207
#
#
#
# Elastic Compliance Matrix: (Units=1/GPa)
#
#
# Indices 1 2 3 4 5 6 
#
# 1 0.010936 -0.002244 -0.000873 0.000662 0.001336 0.002428
# 2 -0.002244 0.011231 -0.003197 0.000954 0.001469 0.000242
# 3 -0.000873 -0.003197 0.013196 0.002158 0.002488 0.001860
# 4 0.000662 0.000954 0.002158 0.017585 -0.000275 0.001207
# 5 0.001336 0.001469 0.002488 -0.000275 0.028721 0.001910
# 6 0.002428 0.000242 0.001860 0.001207 0.001910 0.021142
#
#
# Mechanical properties :
#
#
# Convention : Reuss Voigt Hill
#
# Bulk Modulus (GPa) = 43.98698 50.08664 47.03681
# Shear Modulus (GPa) = 40.64485 43.93652 42.29069
#
# Velocity S-wave (km/s) = 4.25531 4.42426 4.34061
# Velocity P-wave (km/s) = 6.61363 6.95794 6.78797
#
# Compressibility (1/GPa) = 0.02273400
#
# Stress axis : x y z
#
# Youngs Moduli (GPa) = 91.44192 89.04161 75.78254
#
# Poissons Ratio (x) = 0.19980 0.06618
# Poissons Ratio (y) = 0.20518 0.24227
# Poissons Ratio (z) = 0.07986 0.28466
#
# Static dielectric constant tensor:
#      x y z
#    x 4.190640 0.075390 -0.076390 
#    y 0.075390 4.265220 0.017390 
#    z -0.076390 0.017390 3.888680 
# 
# 
# High freq. dielectric constant tensor:
#      x y z
#    x 1.904270 0.001680 -0.000070 
#    y 0.001680 1.900670 -0.002000 
#    z -0.000070 -0.002000 1.891640 
# 
# From -- ./inp_files/515387.got.cif
#   From: 2010.06.25/outbox.cif.g09.slc.cpg/sg2_258_cif.got.tgz:515387.got - 2010.06.27 13:26:56.
