data_PCOD8034897
_publ_section_title
;
Structure prediction by ZEFSAII (Michael W. Deem and Ramdas Pophale) SiO2 
 PCOD8034897
Probable space group: P -1
;
_chemical_formula_sum "Si O2"
_cell_formula_units_Z 16
_cell_length_a 23.302336
_cell_length_b 5.233720
_cell_length_c 17.610387
_cell_angle_alpha 92.961841
_cell_angle_beta 18.966743
_cell_angle_gamma 86.245468
_cell_volume 652.428514
_symmetry_space_group_name_H-M "P -1"
_symmetry_group_IT_number 2
_symmetry_cell_setting 'triclinic'
loop_
_space_group_symop_operation_xyz
x,y,z
-x,-y,-z
loop_
_atom_site_type_symbol
_atom_site_label
_atom_site_fract_x
_atom_site_fract_y
_atom_site_fract_z
Si Si1 0.984043 0.972198 0.227971
Si Si2 0.306259 0.470685 0.767040
Si Si3 0.092239 0.183252 0.525661
Si Si4 0.290115 0.680692 0.545397
Si Si5 0.291216 0.125264 0.918367
Si Si6 0.310438 0.491330 0.020642
Si Si7 0.314950 0.206287 0.603990
Si Si8 0.299591 0.573012 0.211974
O O1 0.883510 0.837685 0.413055
O O2 0.131908 0.756047 0.984775
O O3 0.834266 0.205162 0.370846
O O4 0.087531 0.121716 0.154972
O O5 0.500000 0.500000 0.500000
O O6 0.327355 0.356511 0.823795
O O7 0.257410 0.265936 0.765325
O O8 0.174896 0.415644 0.403395
O O9 0.872584 0.263498 0.777330
O O10 0.201097 0.898508 0.343839
O O11 0.208825 0.478060 0.690604
O O12 0.277773 0.938298 0.618091
O O13 0.496958 0.494030 0.254841
O O14 0.460726 0.842881 0.684285
O O15 0.294755 0.208865 0.003409
O O16 0.324470 0.477594 0.092680
O O17 0.500000 0.500000 0.000000
#
# Coordination Sequence:
#
# PCOD8034897 Si02
#       8
#     2   2   2   2   2   2   2   2
#     4  12  27  45  75 106 151 196 247 312 372 441
#     4  12  24  45  75 108 144 196 259 310 367 435
#     4  12  26  49  75 110 147 197 246 296 368 441
#     4  11  28  46  70 108 152 195 243 306 381 427
#     4  11  24  46  74 106 145 195 254 302 370 436
#     4  11  24  48  74 107 147 196 244 301 358 449
#     4  11  25  45  70 103 146 195 247 304 365 441
#     4  12  28  49  78 114 150 188 241 306 371 435
#
# _framework density 24.523758999999998
#
# number of rings (size 3 to 8) (size 9 to 14) (size 15 to 20)
#    0.000    0.500    2.500    5.250    3.500    6.000 
#    0.000    0.000    0.000    0.000    0.000    0.000 
#    0.000    0.000    0.000    0.000    0.000    0.000 
#
# Total GULP energy -198390.926091 kJ/mol
# GULP energy per Si atom -12399.432881 kJ/mol
# Density = 2.446794 g / cm^3
# Si number density = 24.523759 Si / 1000 Ang^3
#
#
#
# Elastic Constant Matrix: (Units=GPa)
#
#
# Indices 1 2 3 4 5 6 
#
# 1 140.9681 15.0715 48.9487 17.3759 2.3982 -4.3117
# 2 15.0715 97.3582 25.1684 9.4794 3.6959 -6.4450
# 3 48.9487 25.1684 84.4351 24.1680 5.6428 10.5967
# 4 17.3759 9.4794 24.1680 35.5389 -0.6823 0.3073
# 5 2.3982 3.6959 5.6428 -0.6823 43.5259 7.2624
# 6 -4.3117 -6.4450 10.5967 0.3073 7.2624 37.0748
#
#
#
# Elastic Compliance Matrix: (Units=1/GPa)
#
#
# Indices 1 2 3 4 5 6 
#
# 1 0.009158 0.000272 -0.005468 -0.000861 -0.000289 0.002739
# 2 0.000272 0.011524 -0.003732 -0.000718 -0.001075 0.003318
# 3 -0.005468 -0.003732 0.019828 -0.009777 -0.000992 -0.006677
# 4 -0.000861 -0.000718 -0.009777 0.035413 0.001604 0.001962
# 5 -0.000289 -0.001075 -0.000992 0.001604 0.024012 -0.004654
# 6 0.002739 0.003318 -0.006677 0.001962 -0.004654 0.030672
#
#
# Mechanical properties :
#
#
# Convention : Reuss Voigt Hill
#
# Bulk Modulus (GPa) = 44.14083 55.68207 49.91145
# Shear Modulus (GPa) = 32.04798 38.79943 35.42371
#
# Velocity S-wave (km/s) = 3.61891 3.98190 3.80473
# Velocity P-wave (km/s) = 5.95821 6.62535 6.30062
#
# Compressibility (1/GPa) = 0.02265476
#
# Stress axis : x y z
#
# Youngs Moduli (GPa) = 109.19022 86.77259 50.43246
#
# Poissons Ratio (x) = -0.02360 0.27578
# Poissons Ratio (y) = -0.02970 0.18821
# Poissons Ratio (z) = 0.59709 0.32382
#
# Static dielectric constant tensor:
#      x y z
#    x 4.667360 -0.039590 0.059120 
#    y -0.039590 4.293850 0.122860 
#    z 0.059120 0.122860 4.636140 
# 
# 
# High freq. dielectric constant tensor:
#      x y z
#    x 1.984700 -0.000520 0.005580 
#    y -0.000520 1.975790 0.011980 
#    z 0.005580 0.011980 1.981870 
# 
# From -- ./inp_files/578720.got.cif
#   From: 2010.06.25/outbox.cif.g09.slc.cpg/sg2_290_cif.got.tgz:578720.got - 2010.06.27 13:26:56.
