data_PCOD8034829
_publ_section_title
;
Structure prediction by ZEFSAII (Michael W. Deem and Ramdas Pophale) SiO2 
 PCOD8034829
Probable space group: P -1
;
_chemical_formula_sum "Si O2"
_cell_formula_units_Z 16
_cell_length_a 18.771070
_cell_length_b 17.070444
_cell_length_c 6.701865
_cell_angle_alpha 107.809899
_cell_angle_beta 110.478001
_cell_angle_gamma 21.757145
_cell_volume 744.586414
_symmetry_space_group_name_H-M "P -1"
_symmetry_group_IT_number 2
_symmetry_cell_setting 'triclinic'
loop_
_space_group_symop_operation_xyz
x,y,z
-x,-y,-z
loop_
_atom_site_type_symbol
_atom_site_label
_atom_site_fract_x
_atom_site_fract_y
_atom_site_fract_z
Si Si1 0.753434 0.399918 0.823321
Si Si2 0.100158 0.967584 0.709480
Si Si3 0.304734 0.709731 0.087797
Si Si4 0.926773 0.483299 0.864146
Si Si5 0.814608 0.865781 0.462228
Si Si6 0.561742 0.847577 0.500007
Si Si7 0.820263 0.496659 0.172742
Si Si8 0.633176 0.218454 0.468977
O O1 0.739016 0.324179 0.845072
O O2 0.594827 0.573837 0.629423
O O3 0.965123 0.184548 0.756802
O O4 0.743059 0.481622 0.041512
O O5 0.302639 0.794244 0.673755
O O6 0.000000 0.000000 0.500000
O O7 0.133000 0.895944 0.904186
O O8 0.332599 0.764034 0.285628
O O9 0.500000 0.500000 0.000000
O O10 0.730911 0.683008 0.699990
O O11 0.105518 0.262611 0.750848
O O12 0.873133 0.488316 0.013802
O O13 0.000000 0.500000 0.000000
O O14 0.983893 0.702530 0.663412
O O15 0.626664 0.009754 0.485428
O O16 0.757310 0.012687 0.448432
O O17 0.643583 0.719000 0.285098
O O18 0.500000 0.000000 0.500000
#
# Coordination Sequence:
#
# PCOD8034829 Si02
#       8
#     2   2   2   2   2   2   2   2
#     4  12  25  44  67  96 134 175 225 275 334 393
#     4  12  25  43  67  93 128 176 226 273 333 392
#     4  12  25  44  67  95 132 178 224 278 332 392
#     4  11  24  46  72 101 137 174 222 273 333 408
#     4  11  26  44  68 100 138 175 222 278 334 396
#     4  11  25  45  71 103 135 177 219 272 338 402
#     4  11  26  44  67 102 136 176 222 277 333 398
#     4  12  26  45  65  97 134 174 225 278 329 396
#
# _framework density 21.488441000000002
#
# number of rings (size 3 to 8) (size 9 to 14) (size 15 to 20)
#    0.000    0.500    2.500    5.250    3.500    9.000 
#    0.000    0.000    0.000    0.000    0.000    0.000 
#    0.000    0.000    0.000    0.000    0.000    0.000 
#
# Total GULP energy -198457.909149 kJ/mol
# GULP energy per Si atom -12403.619322 kJ/mol
# Density = 2.143953 g / cm^3
# Si number density = 21.488441 Si / 1000 Ang^3
#
#
#
# Elastic Constant Matrix: (Units=GPa)
#
#
# Indices 1 2 3 4 5 6 
#
# 1 98.8325 46.9296 53.3277 11.4923 10.6956 6.1718
# 2 46.9296 154.4907 79.3173 10.5217 7.9123 9.3810
# 3 53.3277 79.3173 163.0896 8.0004 15.1963 10.3829
# 4 11.4923 10.5217 8.0004 29.6108 3.3026 3.4757
# 5 10.6956 7.9123 15.1963 3.3026 46.3689 5.8715
# 6 6.1718 9.3810 10.3829 3.4757 5.8715 40.3161
#
#
#
# Elastic Compliance Matrix: (Units=1/GPa)
#
#
# Indices 1 2 3 4 5 6 
#
# 1 0.013336 -0.002205 -0.002970 -0.003398 -0.001452 -0.000259
# 2 -0.002205 0.009131 -0.003635 -0.001352 0.000337 -0.000784
# 3 -0.002970 -0.003635 0.009057 0.000270 -0.001578 -0.000826
# 4 -0.003398 -0.001352 0.000270 0.035900 -0.001361 -0.002132
# 5 -0.001452 0.000337 -0.001578 -0.001361 0.022793 -0.002652
# 6 -0.000259 -0.000784 -0.000826 -0.002132 -0.002652 0.025809
#
#
# Mechanical properties :
#
#
# Convention : Reuss Voigt Hill
#
# Bulk Modulus (GPa) = 71.91953 86.17357 79.04655
# Shear Modulus (GPa) = 36.15837 39.04839 37.60338
#
# Velocity S-wave (km/s) = 4.10651 4.26747 4.18776
# Velocity P-wave (km/s) = 7.48506 8.02939 7.76200
#
# Compressibility (1/GPa) = 0.01390443
#
# Stress axis : x y z
#
# Youngs Moduli (GPa) = 74.98553 109.51192 110.41187
#
# Poissons Ratio (x) = 0.24145 0.32791
# Poissons Ratio (y) = 0.16533 0.40138
# Poissons Ratio (z) = 0.22270 0.39811
#
# Static dielectric constant tensor:
#      x y z
#    x 3.097370 -0.072040 0.053600 
#    y -0.072040 4.300240 0.184190 
#    z 0.053600 0.184190 4.554600 
# 
# 
# High freq. dielectric constant tensor:
#      x y z
#    x 1.849570 -0.001620 0.000820 
#    y -0.001620 1.871360 0.003420 
#    z 0.000820 0.003420 1.857920 
# 
# From -- ./inp_files/120131.got.cif
#   From: 2010.06.25/outbox.cif.g09.slc.cpg/sg2_61_cif.got.tgz:120131.got - 2010.06.27 13:26:56.
