data_PCOD8034383
_publ_section_title
;
Structure prediction by ZEFSAII (Michael W. Deem and Ramdas Pophale) SiO2 
 PCOD8034383
Probable space group: P -1
;
_chemical_formula_sum "Si O2"
_cell_formula_units_Z 14
_cell_length_a 9.591642
_cell_length_b 12.425787
_cell_length_c 9.491051
_cell_angle_alpha 110.516787
_cell_angle_beta 121.971980
_cell_angle_gamma 112.244810
_cell_volume 632.820220
_symmetry_space_group_name_H-M "P -1"
_symmetry_group_IT_number 2
_symmetry_cell_setting 'triclinic'
loop_
_space_group_symop_operation_xyz
x,y,z
-x,-y,-z
loop_
_atom_site_type_symbol
_atom_site_label
_atom_site_fract_x
_atom_site_fract_y
_atom_site_fract_z
Si Si1 0.533206 0.592940 0.922360
Si Si2 0.566335 0.272529 0.397174
Si Si3 0.627984 0.941908 0.549391
Si Si4 0.844153 0.779418 0.935655
Si Si5 0.750476 0.926282 0.307865
Si Si6 0.742174 0.154073 0.257218
Si Si7 0.844867 0.613868 0.606378
O O1 0.741243 0.654710 0.955963
O O2 0.296542 0.456321 0.647448
O O3 0.500000 0.500000 0.000000
O O4 0.582574 0.752363 0.057322
O O5 0.322025 0.188451 0.149301
O O6 0.705256 0.238772 0.383225
O O7 0.757057 0.467972 0.591145
O O8 0.523815 0.218270 0.510400
O O9 0.500000 0.000000 0.500000
O O10 0.621066 0.888006 0.365962
O O11 0.885719 0.067946 0.814991
O O12 0.816126 0.710682 0.734365
O O13 0.830752 0.082397 0.344911
O O14 0.000000 0.000000 0.500000
O O15 0.891641 0.266863 0.252482
O O16 0.500000 0.000000 0.000000
#
# Coordination Sequence:
#
# PCOD8034383 Si02
#       7
#     2   2   2   2   2   2   2
#     4  11  24  44  73 108 145 185 241 298 357 424
#     4  11  24  45  69 104 143 186 241 295 353 425
#     4  12  26  47  71 108 145 185 244 299 357 425
#     4  11  25  47  72 105 141 197 240 291 358 428
#     4  12  26  45  73 104 144 192 238 297 360 424
#     4  12  25  45  71 104 141 187 244 291 355 434
#     4  11  26  45  74 105 144 191 242 295 359 424
#
# _framework density 22.123187000000001
#
# number of rings (size 3 to 8) (size 9 to 14) (size 15 to 20)
#    0.000    0.571    2.857    6.000    6.000    0.000 
#    0.000    0.714    0.000    0.000    0.000    0.000 
#    0.000    0.000    0.000    0.000    0.000    0.000 
#
# Total GULP energy -173454.877917 kJ/mol
# GULP energy per Si atom -12389.634137 kJ/mol
# Density = 2.207283 g / cm^3
# Si number density = 22.123187 Si / 1000 Ang^3
#
#
#
# Elastic Constant Matrix: (Units=GPa)
#
#
# Indices 1 2 3 4 5 6 
#
# 1 143.3967 52.2164 44.8776 -0.0926 -6.2129 15.8397
# 2 52.2164 147.3492 32.6694 -6.0450 11.7236 26.2861
# 3 44.8776 32.6694 98.5265 5.9359 -10.3364 4.5520
# 4 -0.0926 -6.0450 5.9359 31.7263 3.4779 -0.4856
# 5 -6.2129 11.7236 -10.3364 3.4779 43.3333 -3.3143
# 6 15.8397 26.2861 4.5520 -0.4856 -3.3143 52.4181
#
#
#
# Elastic Compliance Matrix: (Units=1/GPa)
#
#
# Indices 1 2 3 4 5 6 
#
# 1 0.008998 -0.002363 -0.003148 0.000028 0.001085 -0.001192
# 2 -0.002363 0.009276 -0.002384 0.002576 -0.003926 -0.003955
# 3 -0.003148 -0.002384 0.012893 -0.003254 0.003624 0.001226
# 4 0.000028 0.002576 -0.003254 0.033065 -0.004198 -0.000977
# 5 0.001085 -0.003926 0.003624 -0.004198 0.025719 0.002914
# 6 -0.001192 -0.003955 0.001226 -0.000977 0.002914 0.021489
#
#
# Mechanical properties :
#
#
# Convention : Reuss Voigt Hill
#
# Bulk Modulus (GPa) = 65.02758 72.08880 68.55819
# Shear Modulus (GPa) = 37.77687 42.79615 40.28651
#
# Velocity S-wave (km/s) = 4.13676 4.40301 4.27196
# Velocity P-wave (km/s) = 7.23009 7.64883 7.44240
#
# Compressibility (1/GPa) = 0.01537809
#
# Stress axis : x y z
#
# Youngs Moduli (GPa) = 111.13560 107.80192 77.55996
#
# Poissons Ratio (x) = 0.25478 0.24413
# Poissons Ratio (y) = 0.26266 0.18488
# Poissons Ratio (z) = 0.34981 0.25697
#
# Static dielectric constant tensor:
#      x y z
#    x 3.992740 0.187690 0.007560 
#    y 0.187690 4.411490 0.133830 
#    z 0.007560 0.133830 3.977490 
# 
# 
# High freq. dielectric constant tensor:
#      x y z
#    x 1.887490 0.018400 -0.008190 
#    y 0.018400 1.883410 0.000400 
#    z -0.008190 0.000400 1.865830 
# 
# From -- ./inp_files/158956.got.cif
#   From: 2010.06.25/outbox.cif.g09.slc.cpg/sg2_80_cif.got.tgz:158956.got - 2010.06.27 13:26:56.
