data_PCOD8034098
_publ_section_title
;
Structure prediction by ZEFSAII (Michael W. Deem and Ramdas Pophale) SiO2 
 PCOD8034098
Probable space group: P -1
;
_chemical_formula_sum "Si O2"
_cell_formula_units_Z 16
_cell_length_a 11.868137
_cell_length_b 9.069790
_cell_length_c 12.355740
_cell_angle_alpha 123.446274
_cell_angle_beta 91.754100
_cell_angle_gamma 126.160855
_cell_volume 760.794073
_symmetry_space_group_name_H-M "P -1"
_symmetry_group_IT_number 2
_symmetry_cell_setting 'triclinic'
loop_
_space_group_symop_operation_xyz
x,y,z
-x,-y,-z
loop_
_atom_site_type_symbol
_atom_site_label
_atom_site_fract_x
_atom_site_fract_y
_atom_site_fract_z
Si Si1 0.594737 0.860778 0.426511
Si Si2 0.954547 0.649026 0.544439
Si Si3 0.569600 0.976722 0.892528
Si Si4 0.228437 0.239418 0.872128
Si Si5 0.897860 0.534573 0.070396
Si Si6 0.536481 0.600991 0.874146
Si Si7 0.951192 0.139984 0.582825
Si Si8 0.398341 0.799833 0.585500
O O1 0.457383 0.582661 0.255665
O O2 0.529115 0.845416 0.535039
O O3 0.756912 0.933933 0.480402
O O4 0.634574 0.054888 0.417994
O O5 0.778925 0.498033 0.531760
O O6 0.000000 0.500000 0.500000
O O7 0.941966 0.629681 0.406582
O O8 0.086453 0.945633 0.707315
O O9 0.567093 0.769737 0.844175
O O10 0.470624 0.904235 0.750058
O O11 0.500000 0.000000 0.000000
O O12 0.751355 0.253552 0.998290
O O13 0.160084 0.356071 0.955330
O O14 0.361354 0.433968 0.860628
O O15 0.314067 0.229349 0.967606
O O16 0.007330 0.746547 0.251775
O O17 0.000000 0.500000 0.000000
O O18 0.000000 0.000000 0.500000
#
# Coordination Sequence:
#
# PCOD8034098 Si02
#       8
#     2   2   2   2   2   2   2   2
#     4  11  24  47  68  97 139 183 215 280 355 405
#     4  12  24  42  72 103 131 179 235 288 333 410
#     4  12  26  43  70 102 131 178 232 279 330 407
#     4  11  24  45  68 101 139 179 230 281 347 411
#     4  12  26  45  68 101 143 181 222 286 349 405
#     4  11  24  43  72  98 133 179 228 285 339 407
#     4  12  24  44  71  99 135 181 235 279 341 408
#     4  11  26  44  69 101 138 174 229 279 342 415
#
# _framework density 21.030659
#
# number of rings (size 3 to 8) (size 9 to 14) (size 15 to 20)
#    0.000    0.500    5.000    2.250    7.000    2.500 
#    0.000    1.250    0.000    0.000    0.000    0.000 
#    0.000    0.000    0.000    0.000    0.000    0.000 
#
# Total GULP energy -198264.850325 kJ/mol
# GULP energy per Si atom -12391.553145 kJ/mol
# Density = 2.098279 g / cm^3
# Si number density = 21.030659 Si / 1000 Ang^3
#
#
#
# Elastic Constant Matrix: (Units=GPa)
#
#
# Indices 1 2 3 4 5 6 
#
# 1 145.2594 54.4474 54.9236 -3.9820 -10.9199 2.9015
# 2 54.4474 111.5385 46.5474 -4.3334 1.0619 5.8493
# 3 54.9236 46.5474 125.9526 -9.5819 -3.9956 12.0066
# 4 -3.9820 -4.3334 -9.5819 34.9856 -7.5293 -0.1621
# 5 -10.9199 1.0619 -3.9956 -7.5293 34.7564 2.7669
# 6 2.9015 5.8493 12.0066 -0.1621 2.7669 20.2545
#
#
#
# Elastic Compliance Matrix: (Units=1/GPa)
#
#
# Indices 1 2 3 4 5 6 
#
# 1 0.009459 -0.003509 -0.002792 0.000482 0.002788 0.000937
# 2 -0.003509 0.011932 -0.002843 -0.000077 -0.001729 -0.001022
# 3 -0.002792 -0.002843 0.010975 0.002628 0.001476 -0.005466
# 4 0.000482 -0.000077 0.002628 0.030917 0.007341 -0.002360
# 5 0.002788 -0.001729 0.001476 0.007341 0.031864 -0.005069
# 6 0.000937 -0.001022 -0.005466 -0.002360 -0.005069 0.053446
#
#
# Mechanical properties :
#
#
# Convention : Reuss Voigt Hill
#
# Bulk Modulus (GPa) = 71.02976 77.17635 74.10305
# Shear Modulus (GPa) = 29.14165 33.12143 31.13154
#
# Velocity S-wave (km/s) = 3.72650 3.97282 3.85163
# Velocity P-wave (km/s) = 7.23626 7.60402 7.42242
#
# Compressibility (1/GPa) = 0.01407861
#
# Stress axis : x y z
#
# Youngs Moduli (GPa) = 105.71409 83.80872 91.11296
#
# Poissons Ratio (x) = 0.29411 0.25441
# Poissons Ratio (y) = 0.37098 0.25899
# Poissons Ratio (z) = 0.29518 0.23823
#
# Static dielectric constant tensor:
#      x y z
#    x 4.300610 -0.559540 0.075600 
#    y -0.559540 4.645910 0.084790 
#    z 0.075600 0.084790 3.869060 
# 
# 
# High freq. dielectric constant tensor:
#      x y z
#    x 1.834930 -0.007750 0.004120 
#    y -0.007750 1.831890 0.004690 
#    z 0.004120 0.004690 1.831500 
# 
# From -- ./inp_files/419752.got.cif
#   From: 2010.06.25/outbox.cif.g09.slc.cpg/sg2_210_cif.got.tgz:419752.got - 2010.06.27 13:26:56.
