data_PCOD8034797
_publ_section_title
;
Structure prediction by ZEFSAII (Michael W. Deem and Ramdas Pophale) SiO2 
 PCOD8034797
Probable space group: P -1
;
_chemical_formula_sum "Si O2"
_cell_formula_units_Z 16
_cell_length_a 8.479656
_cell_length_b 6.592700
_cell_length_c 19.063946
_cell_angle_alpha 44.055438
_cell_angle_beta 90.341493
_cell_angle_gamma 77.552053
_cell_volume 703.047955
_symmetry_space_group_name_H-M "P -1"
_symmetry_group_IT_number 2
_symmetry_cell_setting 'triclinic'
loop_
_space_group_symop_operation_xyz
x,y,z
-x,-y,-z
loop_
_atom_site_type_symbol
_atom_site_label
_atom_site_fract_x
_atom_site_fract_y
_atom_site_fract_z
Si Si1 0.082676 0.722088 0.480497
Si Si2 0.912346 0.384354 0.344985
Si Si3 0.657278 0.290572 0.010840
Si Si4 0.714582 0.622384 0.150116
Si Si5 0.940723 0.299124 0.104669
Si Si6 0.402337 0.396416 0.204656
Si Si7 0.205914 0.655858 0.276172
Si Si8 0.623616 0.262813 0.610808
O O1 0.173247 0.548905 0.594644
O O2 0.199560 0.835749 0.401716
O O3 0.000000 0.500000 0.500000
O O4 0.933420 0.028602 0.420892
O O5 0.792985 0.585583 0.236714
O O6 0.091690 0.437927 0.336587
O O7 0.808678 0.177464 0.093412
O O8 0.626382 0.989733 0.051221
O O9 0.500000 0.500000 0.000000
O O10 0.695199 0.490917 0.896799
O O11 0.859050 0.495747 0.124118
O O12 0.581530 0.444103 0.186776
O O13 0.094808 0.009365 0.199640
O O14 0.000000 0.500000 0.000000
O O15 0.295412 0.604275 0.214268
O O16 0.434111 0.035585 0.305054
O O17 0.352137 0.581677 0.353749
O O18 0.500000 0.500000 0.500000
#
# Coordination Sequence:
#
# PCOD8034797 Si02
#       8
#     2   2   2   2   2   2   2   2
#     4  11  24  46  71 100 145 190 248 306 361 434
#     4  11  25  44  73 104 140 189 250 303 361 437
#     4  12  27  49  75 110 149 196 244 298 374 443
#     4  12  28  47  75 111 149 197 243 300 376 441
#     4  12  27  45  78 107 148 197 246 300 362 437
#     4  12  29  47  74 108 157 189 248 305 369 446
#     4  12  26  48  73 109 148 191 245 307 364 433
#     4  12  29  46  74 106 148 196 247 302 376 433
#
# _framework density 22.758047999999999
#
# number of rings (size 3 to 8) (size 9 to 14) (size 15 to 20)
#    0.000    0.250    5.000    2.625    8.750    1.500 
#    0.000    0.000    0.000    0.000    0.000    0.000 
#    0.000    0.000    0.000    0.000    0.000    0.000 
#
# Total GULP energy -198421.235568 kJ/mol
# GULP energy per Si atom -12401.327223 kJ/mol
# Density = 2.270625 g / cm^3
# Si number density = 22.758048 Si / 1000 Ang^3
#
#
#
# Elastic Constant Matrix: (Units=GPa)
#
#
# Indices 1 2 3 4 5 6 
#
# 1 57.1379 22.0890 24.3416 -7.7337 -5.8112 9.4943
# 2 22.0890 132.8234 58.8974 -0.5644 -4.6239 -3.1040
# 3 24.3416 58.8974 140.2321 2.9195 -3.9531 6.8058
# 4 -7.7337 -0.5644 2.9195 52.4535 4.4003 -8.0600
# 5 -5.8112 -4.6239 -3.9531 4.4003 47.2283 6.8566
# 6 9.4943 -3.1040 6.8058 -8.0600 6.8566 42.3643
#
#
#
# Elastic Compliance Matrix: (Units=1/GPa)
#
#
# Indices 1 2 3 4 5 6 
#
# 1 0.020736 -0.002413 -0.002346 0.002267 0.002550 -0.004428
# 2 -0.002413 0.009626 -0.003719 0.000241 0.000038 0.001883
# 3 -0.002346 -0.003719 0.009211 -0.001170 0.000448 -0.001522
# 4 0.002267 0.000241 -0.001170 0.020257 -0.002251 0.003916
# 5 0.002550 0.000038 0.000448 -0.002251 0.022421 -0.004698
# 6 -0.004428 0.001883 -0.001522 0.003916 -0.004698 0.026485
#
#
# Mechanical properties :
#
#
# Convention : Reuss Voigt Hill
#
# Bulk Modulus (GPa) = 44.21705 60.09439 52.15572
# Shear Modulus (GPa) = 37.52861 43.40023 40.46442
#
# Velocity S-wave (km/s) = 4.06523 4.37169 4.22124
# Velocity P-wave (km/s) = 6.44252 7.20731 6.83562
#
# Compressibility (1/GPa) = 0.02261571
#
# Stress axis : x y z
#
# Youngs Moduli (GPa) = 48.22503 103.88862 108.56328
#
# Poissons Ratio (x) = 0.25070 0.25472
# Poissons Ratio (y) = 0.11638 0.40377
# Poissons Ratio (z) = 0.11315 0.38639
#
# Static dielectric constant tensor:
#      x y z
#    x 4.006030 0.250210 0.077570 
#    y 0.250210 4.326480 0.310340 
#    z 0.077570 0.310340 4.445100 
# 
# 
# High freq. dielectric constant tensor:
#      x y z
#    x 1.889660 0.010410 -0.008360 
#    y 0.010410 1.913270 0.010880 
#    z -0.008360 0.010880 1.918110 
# 
# From -- ./inp_files/111621.got.cif
#   From: 2010.06.25/outbox.cif.g09.slc.cpg/sg2_56_cif.got.tgz:111621.got - 2010.06.27 13:26:56.
