data_PCOD8034266
_publ_section_title
;
Structure prediction by ZEFSAII (Michael W. Deem and Ramdas Pophale) SiO2 
 PCOD8034266
Probable space group: P -1
;
_chemical_formula_sum "Si O2"
_cell_formula_units_Z 16
_cell_length_a 23.341335
_cell_length_b 19.962615
_cell_length_c 8.713520
_cell_angle_alpha 40.277149
_cell_angle_beta 148.120955
_cell_angle_gamma 159.656630
_cell_volume 733.096395
_symmetry_space_group_name_H-M "P -1"
_symmetry_group_IT_number 2
_symmetry_cell_setting 'triclinic'
loop_
_space_group_symop_operation_xyz
x,y,z
-x,-y,-z
loop_
_atom_site_type_symbol
_atom_site_label
_atom_site_fract_x
_atom_site_fract_y
_atom_site_fract_z
Si Si1 0.007080 0.220572 0.207819
Si Si2 0.860629 0.320291 0.607316
Si Si3 0.443743 0.477428 0.739174
Si Si4 0.286164 0.648532 0.526422
Si Si5 0.920778 0.210680 0.369325
Si Si6 0.795922 0.894237 0.677091
Si Si7 0.445665 0.936313 0.165809
Si Si8 0.642960 0.795843 0.161037
O O1 0.989864 0.217449 0.355538
O O2 0.222748 0.346822 0.433670
O O3 0.830025 0.997950 0.135288
O O4 0.984176 0.314247 0.917002
O O5 0.820083 0.343826 0.635590
O O6 0.000000 0.500000 0.500000
O O7 0.643087 0.123505 0.383343
O O8 0.605446 0.694597 0.682070
O O9 0.459724 0.384509 0.842060
O O10 0.500000 0.500000 0.000000
O O11 0.368716 0.758554 0.355436
O O12 0.116227 0.422583 0.518130
O O13 0.470600 0.746198 0.872022
O O14 0.836320 0.044558 0.564881
O O15 0.735191 0.138242 0.057113
O O16 0.734230 0.834933 0.462398
O O17 0.000000 0.000000 0.000000
O O18 0.500000 0.000000 0.000000
#
# Coordination Sequence:
#
# PCOD8034266 Si02
#       8
#     2   2   2   2   2   2   2   2
#     4  11  24  44  70 101 142 183 229 291 353 414
#     4  12  26  44  69 106 144 186 237 287 353 424
#     4  12  26  46  72 105 139 182 237 297 352 425
#     4  12  24  47  74 101 146 189 234 290 355 420
#     4  11  25  44  70 101 141 188 229 291 354 416
#     4  11  25  48  71 103 139 183 239 292 354 425
#     4  12  26  45  68 105 141 186 239 289 352 421
#     4  11  24  47  72 101 136 189 234 290 360 417
#
# _framework density 21.825233999999998
#
# number of rings (size 3 to 8) (size 9 to 14) (size 15 to 20)
#    0.000    0.500    2.500    6.750    5.250    1.000 
#    4.500    0.000    0.000    0.000    0.000    0.000 
#    0.000    0.000    0.000    0.000    0.000    0.000 
#
# Total GULP energy -198369.890452 kJ/mol
# GULP energy per Si atom -12398.118153 kJ/mol
# Density = 2.177556 g / cm^3
# Si number density = 21.825234 Si / 1000 Ang^3
#
#
#
# Elastic Constant Matrix: (Units=GPa)
#
#
# Indices 1 2 3 4 5 6 
#
# 1 70.5779 30.0195 21.4808 -19.0132 -0.0879 -4.6548
# 2 30.0195 115.0933 77.9008 -133.4703 110.2143 -84.5605
# 3 21.4808 77.9008 133.2710 30.4277 -23.0740 25.9041
# 4 -19.0132 -133.4703 30.4277 -130.9832 169.4406 -119.1122
# 5 -0.0879 110.2143 -23.0740 169.4406 -111.5850 114.9195
# 6 -4.6548 -84.5605 25.9041 -119.1122 114.9195 -42.8901
#
#
#
# Elastic Compliance Matrix: (Units=1/GPa)
#
#
# Indices 1 2 3 4 5 6 
#
# 1 0.016441 -0.002249 -0.001548 0.003227 0.002545 -0.000428
# 2 -0.002249 0.005604 -0.001914 -0.001376 0.002579 -0.001226
# 3 -0.001548 -0.001914 0.008270 0.000596 -0.002730 -0.000035
# 4 0.003227 -0.001376 0.000596 0.012511 0.008790 -0.008470
# 5 0.002545 0.002579 -0.002730 0.008790 0.014132 0.006443
# 6 -0.000428 -0.001226 -0.000035 -0.008470 0.006443 0.019913
#
#
# Mechanical properties :
#
#
# Convention : Reuss Voigt Hill
#
# Bulk Modulus (GPa) = 52.93329 64.19382 58.56356
# Shear Modulus (GPa) = 52.85948 -44.45560 4.20194
#
# Velocity S-wave (km/s) = 4.92666 -4.51809 1.38905
# Velocity P-wave (km/s) = 7.52785 1.50300 5.42806
#
# Compressibility (1/GPa) = 0.01889170
#
# Stress axis : x y z
#
# Youngs Moduli (GPa) = 60.82377 178.45730 120.92303
#
# Poissons Ratio (x) = 0.40143 0.18720
# Poissons Ratio (y) = 0.13682 0.23141
# Poissons Ratio (z) = 0.09416 0.34152
#
# Static dielectric constant tensor:
#      x y z
#    x 3.711120 -0.011990 0.088690 
#    y -0.011990 4.668120 -0.088190 
#    z 0.088690 -0.088190 4.063220 
# 
# 
# High freq. dielectric constant tensor:
#      x y z
#    x 1.836070 -0.001430 0.004930 
#    y -0.001430 1.889990 0.000670 
#    z 0.004930 0.000670 1.878890 
# 
# From -- ./inp_files/355281.got.cif
#   From: 2010.06.25/outbox.cif.g09.slc.cpg/sg2_178_cif.got.tgz:355281.got - 2010.06.27 13:26:56.
