data_PCOD8034783
_publ_section_title
;
Structure prediction by ZEFSAII (Michael W. Deem and Ramdas Pophale) SiO2 
 PCOD8034783
Probable space group: P -1
;
_chemical_formula_sum "Si O2"
_cell_formula_units_Z 16
_cell_length_a 12.081942
_cell_length_b 8.808922
_cell_length_c 9.728144
_cell_angle_alpha 95.502791
_cell_angle_beta 104.681753
_cell_angle_gamma 50.649348
_cell_volume 771.565985
_symmetry_space_group_name_H-M "P -1"
_symmetry_group_IT_number 2
_symmetry_cell_setting 'triclinic'
loop_
_space_group_symop_operation_xyz
x,y,z
-x,-y,-z
loop_
_atom_site_type_symbol
_atom_site_label
_atom_site_fract_x
_atom_site_fract_y
_atom_site_fract_z
Si Si1 0.106841 0.847769 0.634851
Si Si2 0.452350 0.985079 0.131904
Si Si3 0.417718 0.653513 0.104137
Si Si4 0.116319 0.977312 0.942152
Si Si5 0.437493 0.623421 0.625625
Si Si6 0.122934 0.301009 0.100512
Si Si7 0.063213 0.316842 0.402323
Si Si8 0.603776 0.995727 0.420753
O O1 0.091790 0.973432 0.771521
O O2 0.273733 0.704709 0.619785
O O3 0.053404 0.722452 0.638823
O O4 0.000000 0.000000 0.500000
O O5 0.296817 0.201941 0.139916
O O6 0.447782 0.807758 0.131568
O O7 0.586453 0.916112 0.268877
O O8 0.500000 0.000000 0.000000
O O9 0.447999 0.537272 0.241985
O O10 0.500000 0.500000 0.000000
O O11 0.252744 0.764115 0.017011
O O12 0.125233 0.144019 0.001603
O O13 0.000000 0.000000 0.000000
O O14 0.500000 0.500000 0.500000
O O15 0.450767 0.791447 0.620659
O O16 0.075771 0.349514 0.249082
O O17 0.000000 0.500000 0.000000
O O18 0.226666 0.134011 0.489493
O O19 0.000000 0.500000 0.500000
O O20 0.500000 0.000000 0.500000
#
# Coordination Sequence:
#
# PCOD8034783 Si02
#       8
#     2   2   2   2   2   2   2   2
#     4  12  27  48  73 105 145 190 242 299 359 428
#     4  11  26  43  74 103 146 189 233 299 357 423
#     4  11  24  46  70 104 140 182 246 288 354 429
#     4  11  25  46  73  99 143 186 233 298 353 419
#     4  12  28  44  74 105 142 191 239 296 361 430
#     4  11  27  47  70 106 141 188 243 291 359 431
#     4  12  29  48  73 106 147 191 240 299 364 432
#     4  12  26  50  69 103 149 189 238 295 364 427
#
# _framework density 20.737047
#
# number of rings (size 3 to 8) (size 9 to 14) (size 15 to 20)
#    0.000    0.500    5.000    1.500   12.250    2.000 
#    0.000    0.000    0.000    0.000    0.000    0.000 
#    0.000    0.000    0.000    0.000    0.000    0.000 
#
# Total GULP energy -198228.204464 kJ/mol
# GULP energy per Si atom -12389.262779 kJ/mol
# Density = 2.068985 g / cm^3
# Si number density = 20.737047 Si / 1000 Ang^3
#
#
#
# Elastic Constant Matrix: (Units=GPa)
#
#
# Indices 1 2 3 4 5 6 
#
# 1 116.4562 38.8211 49.5322 3.5972 -10.4807 -6.5007
# 2 38.8211 132.8570 72.0717 -2.1746 -5.9652 -4.2240
# 3 49.5322 72.0717 205.4210 4.2473 -9.4951 -5.0293
# 4 3.5972 -2.1746 4.2473 52.8451 -1.1421 -4.5400
# 5 -10.4807 -5.9652 -9.4951 -1.1421 43.1582 0.2720
# 6 -6.5007 -4.2240 -5.0293 -4.5400 0.2720 33.5815
#
#
#
# Elastic Compliance Matrix: (Units=1/GPa)
#
#
# Indices 1 2 3 4 5 6 
#
# 1 0.010199 -0.001973 -0.001638 -0.000484 0.001822 0.001401
# 2 -0.001973 0.009735 -0.002933 0.000820 0.000240 0.000512
# 3 -0.001638 -0.002933 0.006334 -0.000489 0.000576 0.000192
# 4 -0.000484 0.000820 -0.000489 0.019255 0.000382 0.002536
# 5 0.001822 0.000240 0.000576 0.000382 0.023781 0.000328
# 6 0.001401 0.000512 0.000192 0.002536 0.000328 0.030483
#
#
# Mechanical properties :
#
#
# Convention : Reuss Voigt Hill
#
# Bulk Modulus (GPa) = 75.88211 86.17602 81.02906
# Shear Modulus (GPa) = 42.63746 45.53758 44.08752
#
# Velocity S-wave (km/s) = 4.53934 4.69118 4.61589
# Velocity P-wave (km/s) = 8.00913 8.42554 8.21997
#
# Compressibility (1/GPa) = 0.01317834
#
# Stress axis : x y z
#
# Youngs Moduli (GPa) = 98.05327 102.72240 157.88689
#
# Poissons Ratio (x) = 0.20265 0.25869
# Poissons Ratio (y) = 0.19344 0.46311
# Poissons Ratio (z) = 0.16066 0.30130
#
# Static dielectric constant tensor:
#      x y z
#    x 1.057350 -0.000880 -1.403970 
#    y -0.000880 3.939640 0.040880 
#    z -1.403970 0.040880 3.312720 
# 
# 
# High freq. dielectric constant tensor:
#      x y z
#    x 1.825350 -0.007260 0.002540 
#    y -0.007260 1.821690 0.000630 
#    z 0.002540 0.000630 1.839580 
# 
# From -- ./inp_files/206918.got.cif
#   From: 2010.06.25/outbox.cif.g09.slc.cpg/sg2_104_cif.got.tgz:206918.got - 2010.06.27 13:26:56.
