data_PCOD8034686
_publ_section_title
;
Structure prediction by ZEFSAII (Michael W. Deem and Ramdas Pophale) SiO2 
 PCOD8034686
Probable space group: P -1
;
_chemical_formula_sum "Si O2"
_cell_formula_units_Z 12
_cell_length_a 8.157578
_cell_length_b 11.817736
_cell_length_c 8.437752
_cell_angle_alpha 38.633006
_cell_angle_beta 108.162453
_cell_angle_gamma 108.073643
_cell_volume 479.484334
_symmetry_space_group_name_H-M "P -1"
_symmetry_group_IT_number 2
_symmetry_cell_setting 'triclinic'
loop_
_space_group_symop_operation_xyz
x,y,z
-x,-y,-z
loop_
_atom_site_type_symbol
_atom_site_label
_atom_site_fract_x
_atom_site_fract_y
_atom_site_fract_z
Si Si1 0.687175 0.181855 0.193557
Si Si2 0.819829 0.102647 0.642889
Si Si3 0.303909 0.450886 0.060654
Si Si4 0.821390 0.467400 0.389915
Si Si5 0.199267 0.129264 0.606477
Si Si6 0.338351 0.215524 0.881064
O O1 0.684097 0.095377 0.463952
O O2 0.815304 0.079933 0.231234
O O3 0.743034 0.398838 0.988745
O O4 0.502755 0.148244 0.089411
O O5 0.765610 0.250495 0.593958
O O6 0.010831 0.172466 0.557750
O O7 0.821162 0.909147 0.943475
O O8 0.274703 0.254377 0.346743
O O9 0.500000 0.500000 0.000000
O O10 0.169128 0.448750 0.876499
O O11 0.679821 0.569692 0.333329
O O12 0.000000 0.500000 0.500000
O O13 0.337173 0.169400 0.745975
#
# Coordination Sequence:
#
# PCOD8034686 Si02
#       6
#     2   2   2   2   2   2
#     4  11  26  45  75 100 143 185 228 286 344 411
#     4  11  26  46  73 104 141 184 228 283 347 412
#     4  11  26  48  71 100 138 185 234 282 345 409
#     4  11  24  45  74  99 138 185 231 280 345 406
#     4  12  27  45  69 109 140 180 232 284 349 408
#     4  12  25  46  72 107 140 182 230 283 346 413
#
# _framework density 25.026886000000001
#
# number of rings (size 3 to 8) (size 9 to 14) (size 15 to 20)
#    0.000    0.667    3.333    3.000    4.667    6.000 
#    0.000    0.000    0.000    0.000    0.000    0.000 
#    0.000    0.000    0.000    0.000    0.000    0.000 
#
# Total GULP energy -148776.223032 kJ/mol
# GULP energy per Si atom -12398.018586 kJ/mol
# Density = 2.496992 g / cm^3
# Si number density = 25.026886 Si / 1000 Ang^3
#
#
#
# Elastic Constant Matrix: (Units=GPa)
#
#
# Indices 1 2 3 4 5 6 
#
# 1 70.9261 25.2176 47.7731 -2.8607 9.0095 1.6838
# 2 25.2176 184.1813 51.3562 10.2751 25.8375 -18.4385
# 3 47.7731 51.3562 90.7159 15.8143 17.8350 4.8579
# 4 -2.8607 10.2751 15.8143 53.2695 -0.8862 25.5613
# 5 9.0095 25.8375 17.8350 -0.8862 32.5695 -5.2728
# 6 1.6838 -18.4385 4.8579 25.5613 -5.2728 40.5204
#
#
#
# Elastic Compliance Matrix: (Units=1/GPa)
#
#
# Indices 1 2 3 4 5 6 
#
# 1 0.023537 -0.000406 -0.013343 0.007262 0.000658 -0.004058
# 2 -0.000406 0.007551 -0.003129 -0.003200 -0.003376 0.005407
# 3 -0.013343 -0.003129 0.022225 -0.006786 -0.006191 -0.000059
# 4 0.007262 -0.003200 -0.006786 0.031790 0.001748 -0.020771
# 5 0.000658 -0.003376 -0.006191 0.001748 0.037108 0.002905
# 6 -0.004058 0.005407 -0.000059 -0.020771 0.002905 0.040796
#
#
# Mechanical properties :
#
#
# Convention : Reuss Voigt Hill
#
# Bulk Modulus (GPa) = 51.13379 66.05744 58.59562
# Shear Modulus (GPa) = 24.59641 40.03697 32.31669
#
# Velocity S-wave (km/s) = 3.13836 4.00404 3.59734
# Velocity P-wave (km/s) = 5.79727 6.91580 6.38109
#
# Compressibility (1/GPa) = 0.01955654
#
# Stress axis : x y z
#
# Youngs Moduli (GPa) = 42.48709 132.43345 44.99441
#
# Poissons Ratio (x) = 0.05374 0.60037
# Poissons Ratio (y) = 0.01724 0.14079
# Poissons Ratio (z) = 0.56692 0.41438
#
# Static dielectric constant tensor:
#      x y z
#    x 4.053800 -0.176160 0.386950 
#    y -0.176160 4.967300 0.071250 
#    z 0.386950 0.071250 4.533630 
# 
# 
# High freq. dielectric constant tensor:
#      x y z
#    x 1.961710 -0.006610 0.033260 
#    y -0.006610 2.028490 0.006920 
#    z 0.033260 0.006920 1.999740 
# 
# From -- ./inp_files/173880.got.cif
#   From: 2010.06.25/outbox.cif.g09.slc.cpg/sg2_87_cif.got.tgz:173880.got - 2010.06.27 13:26:56.
