data_PCOD8034666
_publ_section_title
;
Structure prediction by ZEFSAII (Michael W. Deem and Ramdas Pophale) SiO2 
 PCOD8034666
Probable space group: P -1
;
_chemical_formula_sum "Si O2"
_cell_formula_units_Z 16
_cell_length_a 6.562047
_cell_length_b 8.244847
_cell_length_c 13.678477
_cell_angle_alpha 107.543419
_cell_angle_beta 83.886397
_cell_angle_gamma 89.777379
_cell_volume 701.108366
_symmetry_space_group_name_H-M "P -1"
_symmetry_group_IT_number 2
_symmetry_cell_setting 'triclinic'
loop_
_space_group_symop_operation_xyz
x,y,z
-x,-y,-z
loop_
_atom_site_type_symbol
_atom_site_label
_atom_site_fract_x
_atom_site_fract_y
_atom_site_fract_z
Si Si1 0.250913 0.904699 0.661489
Si Si2 0.100853 0.233387 0.222281
Si Si3 0.264693 0.590967 0.291326
Si Si4 0.511818 0.671880 0.470764
Si Si5 0.374955 0.662953 0.077875
Si Si6 0.501210 0.024265 0.150288
Si Si7 0.905288 0.839100 0.422601
Si Si8 0.856168 0.167887 0.044656
O O1 0.340313 0.801693 0.545969
O O2 0.419005 0.912416 0.738435
O O3 0.043722 0.818894 0.691185
O O4 0.196020 0.094827 0.661558
O O5 0.229407 0.392936 0.275271
O O6 0.260911 0.076819 0.161175
O O7 0.958236 0.280569 0.144197
O O8 0.463780 0.637178 0.352576
O O9 0.294322 0.625044 0.182367
O O10 0.071703 0.695070 0.362137
O O11 0.500000 0.500000 0.500000
O O12 0.734125 0.752812 0.482826
O O13 0.526561 0.820159 0.104117
O O14 0.500000 0.500000 0.000000
O O15 0.176962 0.715954 0.029193
O O16 0.628261 0.111396 0.074100
O O17 0.000000 0.000000 0.500000
O O18 0.000000 0.000000 0.000000
#
# Coordination Sequence:
#
# PCOD8034666 Si02
#       8
#     2   2   2   2   2   2   2   2
#     4  11  25  43  76 105 143 194 244 300 372 453
#     4  11  25  46  74 107 145 195 248 306 373 448
#     4  12  28  46  71 108 150 188 248 307 370 443
#     4  12  27  47  74 107 149 195 245 304 373 446
#     4  12  27  46  74 106 150 195 242 317 378 434
#     4  11  24  45  74 103 146 191 251 304 370 450
#     4  12  27  45  73 106 148 194 248 301 372 442
#     4  11  25  46  73 104 140 198 258 302 377 448
#
# _framework density 22.821006000000001
#
# number of rings (size 3 to 8) (size 9 to 14) (size 15 to 20)
#    0.000    0.500    2.500    4.500    8.750    5.500 
#    0.000    0.000    0.000    0.000    0.000    0.000 
#    0.000    0.000    0.000    0.000    0.000    0.000 
#
# Total GULP energy -198459.439063 kJ/mol
# GULP energy per Si atom -12403.714941 kJ/mol
# Density = 2.276906 g / cm^3
# Si number density = 22.821006 Si / 1000 Ang^3
#
#
#
# Elastic Constant Matrix: (Units=GPa)
#
#
# Indices 1 2 3 4 5 6 
#
# 1 125.2031 50.5311 51.7213 -3.1202 -6.3492 8.7619
# 2 50.5311 131.0079 50.6218 0.2067 3.8040 1.8521
# 3 51.7213 50.6218 117.6587 -5.4125 -12.4548 4.2139
# 4 -3.1202 0.2067 -5.4125 45.6067 -3.1384 0.3883
# 5 -6.3492 3.8040 -12.4548 -3.1384 30.6635 1.8621
# 6 8.7619 1.8521 4.2139 0.3883 1.8621 47.2715
#
#
#
# Elastic Compliance Matrix: (Units=1/GPa)
#
#
# Indices 1 2 3 4 5 6 
#
# 1 0.010684 -0.002895 -0.003221 0.000473 0.001411 -0.001639
# 2 -0.002895 0.010214 -0.003549 -0.000907 -0.003437 0.000596
# 3 -0.003221 -0.003549 0.012048 0.001565 0.004860 -0.000542
# 4 0.000473 -0.000907 0.001565 0.022371 0.003166 -0.000500
# 5 0.001411 -0.003437 0.004860 0.003166 0.035750 -0.001994
# 6 -0.001639 0.000596 -0.000542 -0.000500 -0.001994 0.021566
#
#
# Mechanical properties :
#
#
# Convention : Reuss Voigt Hill
#
# Bulk Modulus (GPa) = 73.44308 75.51313 74.47810
# Shear Modulus (GPa) = 36.62989 39.44136 38.03562
#
# Velocity S-wave (km/s) = 4.01071 4.16178 4.08694
# Velocity P-wave (km/s) = 7.32802 7.50034 7.41468
#
# Compressibility (1/GPa) = 0.01361599
#
# Stress axis : x y z
#
# Youngs Moduli (GPa) = 93.59692 97.90746 83.00219
#
# Poissons Ratio (x) = 0.28342 0.26738
# Poissons Ratio (y) = 0.27094 0.29455
# Poissons Ratio (z) = 0.30151 0.34745
#
# Static dielectric constant tensor:
#      x y z
#    x 4.487760 -0.580920 0.185030 
#    y -0.580920 5.292110 -0.089230 
#    z 0.185030 -0.089230 4.453320 
# 
# 
# High freq. dielectric constant tensor:
#      x y z
#    x 1.907920 -0.003360 0.009690 
#    y -0.003360 1.906120 -0.001610 
#    z 0.009690 -0.001610 1.915300 
# 
# From -- ./inp_files/53752.got.cif
#   From: 2010.06.25/outbox.cif.g09.slc.cpg/sg2_27_cif.got.tgz:53752.got - 2010.06.27 13:26:56.
