data_PCOD8034213
_publ_section_title
;
Structure prediction by ZEFSAII (Michael W. Deem and Ramdas Pophale) SiO2 
 PCOD8034213
Probable space group: P -1
;
_chemical_formula_sum "Si O2"
_cell_formula_units_Z 16
_cell_length_a 9.457339
_cell_length_b 9.650128
_cell_length_c 11.554681
_cell_angle_alpha 99.127261
_cell_angle_beta 87.377629
_cell_angle_gamma 137.041466
_cell_volume 705.644434
_symmetry_space_group_name_H-M "P -1"
_symmetry_group_IT_number 2
_symmetry_cell_setting 'triclinic'
loop_
_space_group_symop_operation_xyz
x,y,z
-x,-y,-z
loop_
_atom_site_type_symbol
_atom_site_label
_atom_site_fract_x
_atom_site_fract_y
_atom_site_fract_z
Si Si1 0.529887 0.862396 0.359357
Si Si2 0.788495 0.260537 0.972939
Si Si3 0.232629 0.220460 0.032091
Si Si4 0.145185 0.982937 0.446407
Si Si5 0.673028 0.909010 0.790103
Si Si6 0.077437 0.625731 0.397979
Si Si7 0.734193 0.226831 0.231124
Si Si8 0.423206 0.638750 0.116834
O O1 0.329622 0.805986 0.402251
O O2 0.440515 0.672722 0.258108
O O3 0.648499 0.879764 0.464267
O O4 0.690210 0.072030 0.304637
O O5 0.727092 0.164448 0.091488
O O6 0.796391 0.131998 0.870986
O O7 0.612938 0.239180 0.929155
O O8 0.000000 0.500000 0.000000
O O9 0.235559 0.391768 0.067611
O O10 0.341690 0.230844 0.140309
O O11 0.358898 0.269439 0.919840
O O12 0.000000 0.000000 0.000000
O O13 0.208128 0.060840 0.322761
O O14 0.014841 0.743199 0.420415
O O15 0.000000 0.000000 0.500000
O O16 0.439356 0.780129 0.747137
O O17 0.000000 0.500000 0.500000
O O18 0.961540 0.462380 0.275060
#
# Coordination Sequence:
#
# PCOD8034213 Si02
#       8
#     2   2   2   2   2   2   2   2
#     4  12  25  48  75 104 143 186 248 296 355 427
#     4  12  23  43  74 112 137 181 241 293 354 426
#     4  11  26  44  69  99 150 187 224 283 373 426
#     4  12  28  48  71 105 147 190 241 302 358 427
#     4  12  24  47  70 103 144 187 237 299 354 424
#     4  12  25  46  77 104 137 195 243 292 360 424
#     4  12  23  43  80 106 143 179 244 305 353 421
#     4  11  24  44  68 105 139 184 229 289 354 432
#
# _framework density 22.674308
#
# number of rings (size 3 to 8) (size 9 to 14) (size 15 to 20)
#    0.000    0.250    5.000    4.500    1.750    3.000 
#    0.000    1.875    0.000    0.000    0.000    0.000 
#    0.000    0.000    0.000    0.000    0.000    0.000 
#
# Total GULP energy -198483.582586 kJ/mol
# GULP energy per Si atom -12405.223912 kJ/mol
# Density = 2.262270 g / cm^3
# Si number density = 22.674308 Si / 1000 Ang^3
#
#
#
# Elastic Constant Matrix: (Units=GPa)
#
#
# Indices 1 2 3 4 5 6 
#
# 1 96.0117 31.1658 43.6805 7.5719 -15.4498 -2.9864
# 2 31.1658 104.7807 28.7972 5.3085 -7.2132 7.0340
# 3 43.6805 28.7972 127.3644 2.8565 -12.4808 -5.3081
# 4 7.5719 5.3085 2.8565 39.1000 4.0740 7.0405
# 5 -15.4498 -7.2132 -12.4808 4.0740 37.4633 2.0959
# 6 -2.9864 7.0340 -5.3081 7.0405 2.0959 35.5010
#
#
#
# Elastic Compliance Matrix: (Units=1/GPa)
#
#
# Indices 1 2 3 4 5 6 
#
# 1 0.013908 -0.002819 -0.003596 -0.002755 0.004211 0.001488
# 2 -0.002819 0.011055 -0.001570 -0.000436 0.000637 -0.002613
# 3 -0.003596 -0.001570 0.009636 -0.000190 0.001367 0.001406
# 4 -0.002755 -0.000436 -0.000190 0.027570 -0.003979 -0.005407
# 5 0.004211 0.000637 0.001367 -0.003979 0.029469 -0.000518
# 6 0.001488 -0.002613 0.001406 -0.005407 -0.000518 0.030124
#
#
# Mechanical properties :
#
#
# Convention : Reuss Voigt Hill
#
# Bulk Modulus (GPa) = 53.67569 59.49374 56.58472
# Shear Modulus (GPa) = 34.73644 37.38040 36.05842
#
# Velocity S-wave (km/s) = 3.91829 4.06468 3.99215
# Velocity P-wave (km/s) = 6.64790 6.95156 6.80142
#
# Compressibility (1/GPa) = 0.01863041
#
# Stress axis : x y z
#
# Youngs Moduli (GPa) = 71.90360 90.45776 103.77268
#
# Poissons Ratio (x) = 0.25499 0.37315
# Poissons Ratio (y) = 0.20268 0.16287
# Poissons Ratio (z) = 0.25856 0.14197
#
# Static dielectric constant tensor:
#      x y z
#    x 4.436300 -0.294380 0.442520 
#    y -0.294380 4.546820 -0.137020 
#    z 0.442520 -0.137020 4.757110 
# 
# 
# High freq. dielectric constant tensor:
#      x y z
#    x 1.883760 0.003010 -0.001050 
#    y 0.003010 1.901330 0.001720 
#    z -0.001050 0.001720 1.910800 
# 
# From -- ./inp_files/382657.got.cif
#   From: 2010.06.25/outbox.cif.g09.slc.cpg/sg2_192_cif.got.tgz:382657.got - 2010.06.27 13:26:56.
