data_PCOD8034587
_publ_section_title
;
Structure prediction by ZEFSAII (Michael W. Deem and Ramdas Pophale) SiO2 
 PCOD8034587
Probable space group: P -1
;
_chemical_formula_sum "Si O2"
_cell_formula_units_Z 14
_cell_length_a 10.223388
_cell_length_b 14.119808
_cell_length_c 12.758549
_cell_angle_alpha 31.464442
_cell_angle_beta 128.194756
_cell_angle_gamma 137.582407
_cell_volume 648.103388
_symmetry_space_group_name_H-M "P -1"
_symmetry_group_IT_number 2
_symmetry_cell_setting 'triclinic'
loop_
_space_group_symop_operation_xyz
x,y,z
-x,-y,-z
loop_
_atom_site_type_symbol
_atom_site_label
_atom_site_fract_x
_atom_site_fract_y
_atom_site_fract_z
Si Si1 0.174771 0.444323 0.754674
Si Si2 0.007963 0.286965 0.604452
Si Si3 0.615694 0.649923 0.721740
Si Si4 0.325801 0.056495 0.719328
Si Si5 0.064247 0.108979 0.186316
Si Si6 0.780187 0.391321 0.957793
Si Si7 0.355535 0.585991 0.354925
O O1 0.043494 0.284402 0.748375
O O2 0.399929 0.528831 0.772736
O O3 0.153268 0.649701 0.556346
O O4 0.095385 0.312688 0.946615
O O5 0.211237 0.468021 0.489067
O O6 0.938383 0.059943 0.735430
O O7 0.757436 0.824083 0.710524
O O8 0.670109 0.469192 0.904798
O O9 0.642317 0.766699 0.515316
O O10 0.131772 0.987266 0.753610
O O11 0.512198 0.164617 0.787037
O O12 0.319664 0.860810 0.842254
O O13 0.768861 0.450080 0.776644
O O14 0.000000 0.500000 0.000000
O O15 0.500000 0.500000 0.500000
#
# Coordination Sequence:
#
# PCOD8034587 Si02
#       7
#     2   2   2   2   2   2   2
#     4  11  26  47  66  97 140 183 232 281 339 413
#     4  11  24  45  71  97 136 181 234 285 336 411
#     4  12  26  47  67 104 143 180 227 289 345 415
#     4  12  25  44  74 104 135 182 232 283 348 408
#     4  12  25  42  73  99 138 180 229 285 348 402
#     4  12  26  42  71 108 140 176 230 290 346 407
#     4  12  22  46  73 103 141 179 230 293 342 403
#
# _framework density 21.601493999999999
#
# number of rings (size 3 to 8) (size 9 to 14) (size 15 to 20)
#    0.000    0.286    5.714    2.571    2.000    1.714 
#    0.000    0.000    0.000    0.000    0.000    0.000 
#    0.000    0.000    0.000    0.000    0.000    0.000 
#
# Total GULP energy -173671.935612 kJ/mol
# GULP energy per Si atom -12405.138258 kJ/mol
# Density = 2.155233 g / cm^3
# Si number density = 21.601494 Si / 1000 Ang^3
#
#
#
# Elastic Constant Matrix: (Units=GPa)
#
#
# Indices 1 2 3 4 5 6 
#
# 1 97.5705 25.2445 28.6258 -4.9263 13.2742 10.3137
# 2 25.2445 113.0941 38.9073 4.2074 -2.8830 8.2622
# 3 28.6258 38.9073 77.0065 0.7253 3.5537 4.1708
# 4 -4.9263 4.2074 0.7253 40.1397 -5.7032 5.4144
# 5 13.2742 -2.8830 3.5537 -5.7032 34.3348 -0.4489
# 6 10.3137 8.2622 4.1708 5.4144 -0.4489 32.0103
#
#
#
# Elastic Compliance Matrix: (Units=1/GPa)
#
#
# Indices 1 2 3 4 5 6 
#
# 1 0.012768 -0.001528 -0.003589 0.001642 -0.004467 -0.003592
# 2 -0.001528 0.011108 -0.005040 -0.000781 0.001895 -0.001560
# 3 -0.003589 -0.005040 0.016892 -0.000379 -0.000843 0.000309
# 4 0.001642 -0.000781 -0.000379 0.026354 0.003655 -0.004685
# 5 -0.004467 0.001895 -0.000843 0.003655 0.031717 0.000887
# 6 -0.003592 -0.001560 0.000309 -0.004685 0.000887 0.033564
#
#
# Mechanical properties :
#
#
# Convention : Reuss Voigt Hill
#
# Bulk Modulus (GPa) = 48.88905 52.58073 50.73489
# Shear Modulus (GPa) = 31.34076 34.28984 32.81530
#
# Velocity S-wave (km/s) = 3.81315 3.98852 3.90182
# Velocity P-wave (km/s) = 6.48600 6.75316 6.62093
#
# Compressibility (1/GPa) = 0.02045448
#
# Stress axis : x y z
#
# Youngs Moduli (GPa) = 78.32344 90.02122 59.19830
#
# Poissons Ratio (x) = 0.13753 0.21246
# Poissons Ratio (y) = 0.11966 0.29837
# Poissons Ratio (z) = 0.28110 0.45373
#
# Static dielectric constant tensor:
#      x y z
#    x 2.206300 -0.743660 -0.400320 
#    y -0.743660 4.095610 -0.186850 
#    z -0.400320 -0.186850 3.824220 
# 
# 
# High freq. dielectric constant tensor:
#      x y z
#    x 1.851850 -0.003980 0.006710 
#    y -0.003980 1.866690 0.004370 
#    z 0.006710 0.004370 1.852220 
# 
# From -- ./inp_files/157659.got.cif
#   From: 2010.06.25/outbox.cif.g09.slc.cpg/sg2_79_cif.got.tgz:157659.got - 2010.06.27 13:26:56.
