data_PCOD8034504
_publ_section_title
;
Structure prediction by ZEFSAII (Michael W. Deem and Ramdas Pophale) SiO2 
 PCOD8034504
Probable space group: P -1
;
_chemical_formula_sum "Si O2"
_cell_formula_units_Z 16
_cell_length_a 19.006941
_cell_length_b 10.634988
_cell_length_c 16.445830
_cell_angle_alpha 22.702417
_cell_angle_beta 146.265302
_cell_angle_gamma 136.114033
_cell_volume 695.573385
_symmetry_space_group_name_H-M "P -1"
_symmetry_group_IT_number 2
_symmetry_cell_setting 'triclinic'
loop_
_space_group_symop_operation_xyz
x,y,z
-x,-y,-z
loop_
_atom_site_type_symbol
_atom_site_label
_atom_site_fract_x
_atom_site_fract_y
_atom_site_fract_z
Si Si1 0.589375 0.110123 0.586439
Si Si2 0.587620 0.249210 0.913112
Si Si3 0.225369 0.776318 0.434415
Si Si4 0.738310 0.697172 0.104970
Si Si5 0.097285 0.693760 0.939647
Si Si6 0.831372 0.452284 0.079001
Si Si7 0.645604 0.297592 0.769104
Si Si8 0.988528 0.439542 0.402433
O O1 0.693554 0.282989 0.536469
O O2 0.500000 0.000000 0.500000
O O3 0.506656 0.382821 0.405287
O O4 0.654710 0.760762 0.903424
O O5 0.706022 0.279956 0.069245
O O6 0.647499 0.099664 0.974023
O O7 0.500000 0.000000 0.000000
O O8 0.297262 0.562623 0.708391
O O9 0.086402 0.685979 0.337619
O O10 0.212674 0.159005 0.217935
O O11 0.889932 0.579417 0.297892
O O12 0.698832 0.067010 0.882738
O O13 0.081619 0.709631 0.817298
O O14 0.241364 0.496760 0.226329
O O15 0.069827 0.072272 0.722719
O O16 0.000000 0.500000 0.000000
O O17 0.910919 0.405150 0.266249
O O18 0.500000 0.500000 0.500000
#
# Coordination Sequence:
#
# PCOD8034504 Si02
#       8
#     2   2   2   2   2   2   2   2
#     4  12  25  47  71 108 145 194 249 299 370 442
#     4  11  24  46  71  99 147 192 246 300 365 448
#     4  12  25  45  74 107 149 188 246 305 363 443
#     4  12  25  45  78 105 145 194 247 301 374 435
#     4  11  26  45  71 105 150 191 247 308 365 445
#     4  11  25  46  69 109 146 189 247 307 369 437
#     4  11  24  45  69 106 142 191 247 297 369 440
#     4  12  25  47  73 109 146 195 246 304 377 439
#
# _framework density 23.002606
#
# number of rings (size 3 to 8) (size 9 to 14) (size 15 to 20)
#    0.000    0.500    5.000    2.625    3.500    1.500 
#    0.000    3.750    0.000    0.000    0.000    0.000 
#    0.000    0.000    0.000    0.000    0.000    0.000 
#
# Total GULP energy -198233.475936 kJ/mol
# GULP energy per Si atom -12389.592246 kJ/mol
# Density = 2.295025 g / cm^3
# Si number density = 23.002606 Si / 1000 Ang^3
#
#
#
# Elastic Constant Matrix: (Units=GPa)
#
#
# Indices 1 2 3 4 5 6 
#
# 1 126.6779 45.0982 29.9193 8.1285 15.9258 8.1025
# 2 45.0982 138.6893 39.2894 12.2109 -0.5473 25.6071
# 3 29.9193 39.2894 105.6239 23.1118 -5.3698 4.9209
# 4 8.1285 12.2109 23.1118 36.4395 -5.5835 3.5552
# 5 15.9258 -0.5473 -5.3698 -5.5835 45.1743 -6.3830
# 6 8.1025 25.6071 4.9209 3.5552 -6.3830 42.5658
#
#
#
# Elastic Compliance Matrix: (Units=1/GPa)
#
#
# Indices 1 2 3 4 5 6 
#
# 1 0.009796 -0.002486 -0.001863 -0.000700 -0.003887 -0.000678
# 2 -0.002486 0.009726 -0.002550 -0.000610 -0.000097 -0.005047
# 3 -0.001863 -0.002550 0.012379 -0.006475 0.001469 0.001219
# 4 -0.000700 -0.000610 -0.006475 0.032518 0.003353 -0.000965
# 5 -0.003887 -0.000097 0.001469 0.003353 0.024667 0.004048
# 6 -0.000678 -0.005047 0.001219 -0.000965 0.004048 0.027205
#
#
# Mechanical properties :
#
#
# Convention : Reuss Voigt Hill
#
# Bulk Modulus (GPa) = 55.24089 66.62277 60.93183
# Shear Modulus (GPa) = 36.73150 41.94821 39.33985
#
# Velocity S-wave (km/s) = 4.00038 4.27503 4.13998
# Velocity P-wave (km/s) = 6.73830 7.30711 7.02846
#
# Compressibility (1/GPa) = 0.01810253
#
# Stress axis : x y z
#
# Youngs Moduli (GPa) = 102.08081 102.81333 80.78523
#
# Poissons Ratio (x) = 0.25561 0.15050
# Poissons Ratio (y) = 0.25379 0.20601
# Poissons Ratio (z) = 0.19017 0.26218
#
# Static dielectric constant tensor:
#      x y z
#    x 4.569650 -0.225230 0.319280 
#    y -0.225230 4.349230 0.132770 
#    z 0.319280 0.132770 4.340540 
# 
# 
# High freq. dielectric constant tensor:
#      x y z
#    x 1.930230 -0.011020 0.015410 
#    y -0.011020 1.909000 0.016930 
#    z 0.015410 0.016930 1.901720 
# 
# From -- ./inp_files/577883.got.cif
#   From: 2010.06.25/outbox.cif.g09.slc.cpg/sg2_289_cif.got.tgz:577883.got - 2010.06.27 13:26:56.
