data_PCOD8034747
_publ_section_title
;
Structure prediction by ZEFSAII (Michael W. Deem and Ramdas Pophale) SiO2 
 PCOD8034747
Probable space group: P -1
;
_chemical_formula_sum "Si O2"
_cell_formula_units_Z 16
_cell_length_a 9.082399
_cell_length_b 8.873309
_cell_length_c 23.217562
_cell_angle_alpha 39.559477
_cell_angle_beta 55.367475
_cell_angle_gamma 84.597001
_cell_volume 739.706291
_symmetry_space_group_name_H-M "P -1"
_symmetry_group_IT_number 2
_symmetry_cell_setting 'triclinic'
loop_
_space_group_symop_operation_xyz
x,y,z
-x,-y,-z
loop_
_atom_site_type_symbol
_atom_site_label
_atom_site_fract_x
_atom_site_fract_y
_atom_site_fract_z
Si Si1 0.680379 0.135772 0.969321
Si Si2 0.360129 0.717885 0.359900
Si Si3 0.971038 0.429421 0.625284
Si Si4 0.761042 0.438452 0.085025
Si Si5 0.488991 0.337196 0.404726
Si Si6 0.254627 0.308241 0.870898
Si Si7 0.630814 0.755175 0.942449
Si Si8 0.870622 0.321415 0.359769
O O1 0.944986 0.403025 0.807551
O O2 0.592962 0.265125 0.992122
O O3 0.500000 0.000000 0.000000
O O4 0.621118 0.825761 0.098272
O O5 0.207632 0.587139 0.490326
O O6 0.493795 0.584667 0.366130
O O7 0.211213 0.597963 0.368910
O O8 0.542361 0.091745 0.213965
O O9 0.023766 0.624001 0.615069
O O10 0.863875 0.087712 0.769768
O O11 0.757229 0.493020 0.137595
O O12 0.732971 0.674262 0.993573
O O13 0.000000 0.500000 0.000000
O O14 0.605818 0.456922 0.281315
O O15 0.641938 0.293249 0.423370
O O16 0.220989 0.006551 0.550437
O O17 0.000000 0.000000 0.000000
O O18 0.500000 0.500000 0.000000
#
# Coordination Sequence:
#
# PCOD8034747 Si02
#       8
#     2   2   2   2   2   2   2   2
#     4  12  24  44  73 101 131 182 229 283 337 400
#     4  11  26  45  68 100 138 181 226 277 348 401
#     4  11  24  46  68  99 136 178 226 283 334 406
#     4  12  27  45  69 103 141 181 224 281 346 406
#     4  11  26  45  68 100 137 182 227 279 338 408
#     4  12  24  45  70 101 138 177 228 280 335 406
#     4  12  26  44  70 103 138 176 230 280 342 405
#     4  11  25  46  68  99 137 178 231 279 339 399
#
# _framework density 21.630206000000001
#
# number of rings (size 3 to 8) (size 9 to 14) (size 15 to 20)
#    0.000    0.500    5.000    2.250    5.250    1.000 
#    2.250    0.000    0.000    0.000    0.000    0.000 
#    0.000    0.000    0.000    0.000    0.000    0.000 
#
# Total GULP energy -198286.865934 kJ/mol
# GULP energy per Si atom -12392.929121 kJ/mol
# Density = 2.158097 g / cm^3
# Si number density = 21.630206 Si / 1000 Ang^3
#
#
#
# Elastic Constant Matrix: (Units=GPa)
#
#
# Indices 1 2 3 4 5 6 
#
# 1 78.7970 23.0475 14.2162 -0.9886 -3.4171 -4.1109
# 2 23.0475 115.5859 19.8313 -1.5916 -3.7686 -7.3854
# 3 14.2162 19.8313 113.9132 -3.8145 -1.1823 3.3105
# 4 -0.9886 -1.5916 -3.8145 39.7775 1.7594 -3.9792
# 5 -3.4171 -3.7686 -1.1823 1.7594 30.9542 -1.8908
# 6 -4.1109 -7.3854 3.3105 -3.9792 -1.8908 38.9031
#
#
#
# Elastic Compliance Matrix: (Units=1/GPa)
#
#
# Indices 1 2 3 4 5 6 
#
# 1 0.013747 -0.002397 -0.001314 0.000184 0.001238 0.001188
# 2 -0.002397 0.009514 -0.001388 0.000322 0.000929 0.001749
# 3 -0.001314 -0.001388 0.009239 0.000689 -0.000069 -0.001121
# 4 0.000184 0.000322 0.000689 0.025534 -0.001208 0.002575
# 5 0.001238 0.000929 -0.000069 -0.001208 0.032730 0.001780
# 6 0.001188 0.001749 -0.001121 0.002575 0.001780 0.026608
#
#
# Mechanical properties :
#
#
# Convention : Reuss Voigt Hill
#
# Bulk Modulus (GPa) = 44.83612 46.94290 45.88951
# Shear Modulus (GPa) = 37.03598 38.67367 37.85482
#
# Velocity S-wave (km/s) = 4.14240 4.23300 4.18795
# Velocity P-wave (km/s) = 6.60703 6.75579 6.68182
#
# Compressibility (1/GPa) = 0.02230345
#
# Stress axis : x y z
#
# Youngs Moduli (GPa) = 72.74352 105.10752 108.23576
#
# Poissons Ratio (x) = 0.25193 0.14221
# Poissons Ratio (y) = 0.17436 0.15019
# Poissons Ratio (z) = 0.09557 0.14585
#
# Static dielectric constant tensor:
#      x y z
#    x 4.003720 0.233820 -0.097420 
#    y 0.233820 3.901630 -0.074350 
#    z -0.097420 -0.074350 3.888140 
# 
# 
# High freq. dielectric constant tensor:
#      x y z
#    x 1.858450 0.005980 -0.000100 
#    y 0.005980 1.859630 -0.006020 
#    z -0.000100 -0.006020 1.858540 
# 
# From -- ./inp_files/190804.got.cif
#   From: 2010.06.25/outbox.cif.g09.slc.cpg/sg2_96_cif.got.tgz:190804.got - 2010.06.27 13:26:56.
