data_PCOD8034357
_publ_section_title
;
Structure prediction by ZEFSAII (Michael W. Deem and Ramdas Pophale) SiO2 
 PCOD8034357
Probable space group: P -1
;
_chemical_formula_sum "Si O2"
_cell_formula_units_Z 14
_cell_length_a 15.235510
_cell_length_b 6.821385
_cell_length_c 14.695024
_cell_angle_alpha 67.268513
_cell_angle_beta 26.721798
_cell_angle_gamma 67.029039
_cell_volume 629.624877
_symmetry_space_group_name_H-M "P -1"
_symmetry_group_IT_number 2
_symmetry_cell_setting 'triclinic'
loop_
_space_group_symop_operation_xyz
x,y,z
-x,-y,-z
loop_
_atom_site_type_symbol
_atom_site_label
_atom_site_fract_x
_atom_site_fract_y
_atom_site_fract_z
Si Si1 0.155533 0.873102 0.652049
Si Si2 0.157748 0.034705 0.227391
Si Si3 0.489551 0.277434 0.106006
Si Si4 0.498628 0.159763 0.316218
Si Si5 0.880735 0.863547 0.069852
Si Si6 0.917918 0.719442 0.583341
Si Si7 0.635030 0.554460 0.448060
O O1 0.286231 0.662094 0.532591
O O2 0.996742 0.965298 0.710081
O O3 0.296336 0.050640 0.517999
O O4 0.034863 0.787492 0.862799
O O5 0.148885 0.263969 0.249366
O O6 0.094778 0.863237 0.388534
O O7 0.371764 0.933488 0.016352
O O8 0.524910 0.306865 0.176089
O O9 0.276410 0.197936 0.307462
O O10 0.500000 0.500000 0.000000
O O11 0.493629 0.301571 0.385999
O O12 0.686515 0.987428 0.182423
O O13 0.818425 0.665934 0.220366
O O14 0.000000 0.000000 0.000000
O O15 0.000000 0.500000 0.500000
O O16 0.500000 0.500000 0.500000
#
# Coordination Sequence:
#
# PCOD8034357 Si02
#       7
#     2   2   2   2   2   2   2
#     4  12  25  45  72 103 144 187 242 294 369 430
#     4  11  25  44  69 102 137 190 233 295 359 426
#     4  12  25  47  72 103 145 193 243 297 358 432
#     4  12  26  47  73 104 149 189 240 306 366 421
#     4  12  24  48  75 101 147 190 236 301 366 432
#     4  11  24  44  72  98 139 182 240 296 354 414
#     4  12  26  46  74 108 144 189 245 304 362 436
#
# _framework density 22.235461999999998
#
# number of rings (size 3 to 8) (size 9 to 14) (size 15 to 20)
#    0.000    0.286    7.143    2.143    2.000    0.000 
#    7.714    0.000    0.000    0.000    0.000    0.000 
#    0.000    0.000    0.000    0.000    0.000    0.000 
#
# Total GULP energy -173461.621255 kJ/mol
# GULP energy per Si atom -12390.115804 kJ/mol
# Density = 2.218485 g / cm^3
# Si number density = 22.235462 Si / 1000 Ang^3
#
#
#
# Elastic Constant Matrix: (Units=GPa)
#
#
# Indices 1 2 3 4 5 6 
#
# 1 113.6018 39.2143 34.5153 12.2604 -4.9825 11.9425
# 2 39.2143 111.4224 39.1068 18.8474 3.8463 11.5166
# 3 34.5153 39.1068 98.3030 12.9746 -1.8220 6.1078
# 4 12.2604 18.8474 12.9746 36.5941 -7.2017 0.5780
# 5 -4.9825 3.8463 -1.8220 -7.2017 46.6921 4.9436
# 6 11.9425 11.5166 6.1078 0.5780 4.9436 40.6175
#
#
#
# Elastic Compliance Matrix: (Units=1/GPa)
#
#
# Indices 1 2 3 4 5 6 
#
# 1 0.010860 -0.002576 -0.002475 -0.001136 0.001336 -0.002237
# 2 -0.002576 0.012033 -0.003201 -0.004542 -0.001893 -0.001878
# 3 -0.002475 -0.003201 0.012591 -0.001939 0.000219 -0.000257
# 4 -0.001136 -0.004542 -0.001939 0.031700 0.004976 0.000857
# 5 0.001336 -0.001893 0.000219 0.004976 0.022781 -0.002733
# 6 -0.002237 -0.001878 -0.000257 0.000857 -0.002733 0.026169
#
#
# Mechanical properties :
#
#
# Convention : Reuss Voigt Hill
#
# Bulk Modulus (GPa) = 52.68769 60.99999 56.84384
# Shear Modulus (GPa) = 35.98028 38.81346 37.39687
#
# Velocity S-wave (km/s) = 4.02699 4.18253 4.10549
# Velocity P-wave (km/s) = 6.73565 7.12867 6.93494
#
# Compressibility (1/GPa) = 0.01897977
#
# Stress axis : x y z
#
# Youngs Moduli (GPa) = 92.07907 83.10543 79.42210
#
# Poissons Ratio (x) = 0.21412 0.19653
# Poissons Ratio (y) = 0.23724 0.25425
# Poissons Ratio (z) = 0.22785 0.26604
#
# Static dielectric constant tensor:
#      x y z
#    x 8.443080 2.834010 -3.011980 
#    y 2.834010 5.597740 -1.515310 
#    z -3.011980 -1.515310 6.621850 
# 
# 
# High freq. dielectric constant tensor:
#      x y z
#    x 1.884040 0.007690 -0.004480 
#    y 0.007690 1.867500 0.015400 
#    z -0.004480 0.015400 1.891850 
# 
# From -- ./inp_files/43904.got.cif
#   From: 2010.06.25/outbox.cif.g09.slc.cpg/sg2_22_cif.got.tgz:43904.got - 2010.06.27 13:26:56.
