data_PCOD8034777
_publ_section_title
;
Structure prediction by ZEFSAII (Michael W. Deem and Ramdas Pophale) SiO2 
 PCOD8034777
Probable space group: P -1
;
_chemical_formula_sum "Si O2"
_cell_formula_units_Z 14
_cell_length_a 9.260026
_cell_length_b 8.682543
_cell_length_c 11.239782
_cell_angle_alpha 119.547099
_cell_angle_beta 56.269046
_cell_angle_gamma 94.960048
_cell_volume 631.506906
_symmetry_space_group_name_H-M "P -1"
_symmetry_group_IT_number 2
_symmetry_cell_setting 'triclinic'
loop_
_space_group_symop_operation_xyz
x,y,z
-x,-y,-z
loop_
_atom_site_type_symbol
_atom_site_label
_atom_site_fract_x
_atom_site_fract_y
_atom_site_fract_z
Si Si1 0.148054 0.932092 0.678516
Si Si2 0.579179 0.942155 0.770542
Si Si3 0.214732 0.141868 0.120685
Si Si4 0.514991 0.301023 0.464236
Si Si5 0.770948 0.676163 0.219568
Si Si6 0.897208 0.511316 0.856566
Si Si7 0.178082 0.838629 0.367274
O O1 0.278287 0.815860 0.674587
O O2 0.205480 0.813970 0.486680
O O3 0.941306 0.959041 0.820466
O O4 0.174497 0.134031 0.736442
O O5 0.686483 0.834995 0.792865
O O6 0.606274 0.790941 0.598854
O O7 0.656615 0.108859 0.754125
O O8 0.366176 0.017509 0.919726
O O9 0.122196 0.336809 0.178863
O O10 0.500000 0.500000 0.500000
O O11 0.431566 0.299539 0.633395
O O12 0.901699 0.542268 0.202500
O O13 0.769327 0.589235 0.056707
O O14 0.842267 0.342314 0.757293
O O15 0.000000 0.000000 0.500000
#
# Coordination Sequence:
#
# PCOD8034777 Si02
#       7
#     2   2   2   2   2   2   2
#     4  12  25  45  75  98 142 188 229 276 355 407
#     4  11  25  47  69 100 145 180 231 283 351 405
#     4  11  26  44  71 105 138 184 227 291 339 409
#     4  12  27  44  70 105 139 179 234 290 340 410
#     4  11  24  46  70 103 140 184 229 287 343 413
#     4  11  25  42  72 103 141 177 236 281 346 403
#     4  12  23  46  72 100 136 187 231 282 342 418
#
# _framework density 22.169195999999999
#
# number of rings (size 3 to 8) (size 9 to 14) (size 15 to 20)
#    0.000    0.571    4.286    2.143    4.000    8.000 
#    0.000    0.000    0.000    0.000    0.000    0.000 
#    0.000    0.000    0.000    0.000    0.000    0.000 
#
# Total GULP energy -173633.301691 kJ/mol
# GULP energy per Si atom -12402.378692 kJ/mol
# Density = 2.211874 g / cm^3
# Si number density = 22.169196 Si / 1000 Ang^3
#
#
#
# Elastic Constant Matrix: (Units=GPa)
#
#
# Indices 1 2 3 4 5 6 
#
# 1 90.8972 52.4144 41.9094 4.7546 -1.0586 -1.5535
# 2 52.4144 143.2159 50.5828 0.2783 -2.1772 1.9845
# 3 41.9094 50.5828 124.4439 -12.2724 2.4171 20.4599
# 4 4.7546 0.2783 -12.2724 35.7741 9.5340 -2.6795
# 5 -1.0586 -2.1772 2.4171 9.5340 51.3342 7.7643
# 6 -1.5535 1.9845 20.4599 -2.6795 7.7643 41.3642
#
#
#
# Elastic Compliance Matrix: (Units=1/GPa)
#
#
# Indices 1 2 3 4 5 6 
#
# 1 0.015676 -0.004221 -0.004349 -0.003510 0.000607 0.002601
# 2 -0.004221 0.009430 -0.002555 -0.000465 0.000438 0.000540
# 3 -0.004349 -0.002555 0.011897 0.004470 -0.000757 -0.005494
# 4 -0.003510 -0.000465 0.004470 0.031713 -0.006332 0.000923
# 5 0.000607 0.000438 -0.000757 -0.006332 0.021334 -0.004038
# 6 0.002601 0.000540 -0.005494 0.000923 -0.004038 0.027782
#
#
# Mechanical properties :
#
#
# Convention : Reuss Voigt Hill
#
# Bulk Modulus (GPa) = 67.77936 72.04115 69.91025
# Shear Modulus (GPa) = 34.48302 39.93785 37.21044
#
# Velocity S-wave (km/s) = 3.94820 4.24902 4.10136
# Velocity P-wave (km/s) = 7.17108 7.52587 7.35062
#
# Compressibility (1/GPa) = 0.01475375
#
# Stress axis : x y z
#
# Youngs Moduli (GPa) = 63.79326 106.04934 84.05155
#
# Poissons Ratio (x) = 0.44763 0.36554
# Poissons Ratio (y) = 0.26927 0.21471
# Poissons Ratio (z) = 0.27744 0.27091
#
# Static dielectric constant tensor:
#      x y z
#    x 4.300730 -0.089980 0.100040 
#    y -0.089980 4.044270 -0.053640 
#    z 0.100040 -0.053640 4.291380 
# 
# 
# High freq. dielectric constant tensor:
#      x y z
#    x 1.886970 -0.008110 0.002080 
#    y -0.008110 1.870180 -0.005670 
#    z 0.002080 -0.005670 1.882030 
# 
# From -- ./inp_files/156149.got.cif
#   From: 2010.06.25/outbox.cif.g09.slc.cpg/sg2_79_cif.got.tgz:156149.got - 2010.06.27 13:26:56.
