data_PCOD8034934
_publ_section_title
;
Structure prediction by ZEFSAII (Michael W. Deem and Ramdas Pophale) SiO2 
 PCOD8034934
Probable space group: P -1
;
_chemical_formula_sum "Si O2"
_cell_formula_units_Z 14
_cell_length_a 20.692811
_cell_length_b 8.954476
_cell_length_c 9.083984
_cell_angle_alpha 47.395414
_cell_angle_beta 131.837342
_cell_angle_gamma 149.181685
_cell_volume 618.117362
_symmetry_space_group_name_H-M "P -1"
_symmetry_group_IT_number 2
_symmetry_cell_setting 'triclinic'
loop_
_space_group_symop_operation_xyz
x,y,z
-x,-y,-z
loop_
_atom_site_type_symbol
_atom_site_label
_atom_site_fract_x
_atom_site_fract_y
_atom_site_fract_z
Si Si1 0.377456 0.387394 0.969246
Si Si2 0.385116 0.245711 0.391783
Si Si3 0.980360 0.824496 0.227625
Si Si4 0.127877 0.793967 0.838918
Si Si5 0.368390 0.786946 0.533139
Si Si6 0.160601 0.782621 0.565626
Si Si7 0.088967 0.339627 0.255962
O O1 0.360784 0.589574 0.765347
O O2 0.245373 0.042026 0.962124
O O3 0.500000 0.500000 0.000000
O O4 0.390239 0.402283 0.154489
O O5 0.500000 0.500000 0.500000
O O6 0.386269 0.016966 0.499638
O O7 0.264090 0.069659 0.428676
O O8 0.839585 0.470347 0.279891
O O9 0.041554 0.707435 0.366841
O O10 0.033410 0.030507 0.315079
O O11 0.000000 0.000000 0.000000
O O12 0.184654 0.897418 0.692649
O O13 0.008736 0.748052 0.706599
O O14 0.080241 0.485265 0.012233
O O15 0.236070 0.561986 0.385869
O O16 0.500000 0.000000 0.500000
#
# Coordination Sequence:
#
# PCOD8034934 Si02
#       7
#     2   2   2   2   2   2   2
#     4  12  25  49  79 104 147 195 250 307 361 444
#     4  12  29  49  73 108 150 193 246 309 374 435
#     4  11  25  43  70 104 153 190 236 301 374 432
#     4  11  24  46  77 108 149 194 249 301 368 444
#     4  12  27  49  78 107 142 197 254 301 371 446
#     4  11  27  44  69 108 153 189 240 304 371 438
#     4  11  25  45  78 110 145 196 251 305 368 437
#
# _framework density 22.649422000000001
#
# number of rings (size 3 to 8) (size 9 to 14) (size 15 to 20)
#    0.000    0.571    4.286    1.714   10.000    1.714 
#    0.000    0.000    0.000    0.000    0.000    0.000 
#    0.000    0.000    0.000    0.000    0.000    0.000 
#
# Total GULP energy -173458.344712 kJ/mol
# GULP energy per Si atom -12389.881765 kJ/mol
# Density = 2.259787 g / cm^3
# Si number density = 22.649422 Si / 1000 Ang^3
#
#
#
# Elastic Constant Matrix: (Units=GPa)
#
#
# Indices 1 2 3 4 5 6 
#
# 1 118.4619 48.2865 59.6867 -0.2749 -9.2701 8.6056
# 2 48.2865 120.9422 54.3063 7.5240 -2.7465 -4.8751
# 3 59.6867 54.3063 170.4125 -13.0716 -12.2626 -5.9979
# 4 -0.2749 7.5240 -13.0716 47.1499 -1.1552 2.7402
# 5 -9.2701 -2.7465 -12.2626 -1.1552 46.1149 -5.8930
# 6 8.6056 -4.8751 -5.9979 2.7402 -5.8930 45.7640
#
#
#
# Elastic Compliance Matrix: (Units=1/GPa)
#
#
# Indices 1 2 3 4 5 6 
#
# 1 0.011621 -0.003368 -0.003030 -0.000048 0.000969 -0.002813
# 2 -0.003368 0.010939 -0.002488 -0.002559 -0.000552 0.001555
# 3 -0.003030 -0.002488 0.008088 0.002579 0.001640 0.001421
# 4 -0.000048 -0.002559 0.002579 0.022422 0.000939 -0.001147
# 5 0.000969 -0.000552 0.001640 0.000939 0.022669 0.002837
# 6 -0.002813 0.001555 0.001421 -0.001147 0.002837 0.023166
#
#
# Mechanical properties :
#
#
# Convention : Reuss Voigt Hill
#
# Bulk Modulus (GPa) = 77.65563 81.59728 79.62645
# Shear Modulus (GPa) = 41.33296 44.30823 42.82059
#
# Velocity S-wave (km/s) = 4.27652 4.42776 4.35280
# Velocity P-wave (km/s) = 7.66454 7.88952 7.77784
#
# Compressibility (1/GPa) = 0.01287737
#
# Stress axis : x y z
#
# Youngs Moduli (GPa) = 86.05133 91.41265 123.63873
#
# Poissons Ratio (x) = 0.30784 0.37463
# Poissons Ratio (y) = 0.28979 0.30761
# Poissons Ratio (z) = 0.26074 0.22743
#
# Static dielectric constant tensor:
#      x y z
#    x -0.071330 4.992930 -0.499740 
#    y 4.992930 -2.007130 0.693980 
#    z -0.499740 0.693980 4.035400 
# 
# 
# High freq. dielectric constant tensor:
#      x y z
#    x 1.892770 -0.000270 -0.003830 
#    y -0.000270 1.909160 -0.018960 
#    z -0.003830 -0.018960 1.911210 
# 
# From -- ./inp_files/241848.got.cif
#   From: 2010.06.25/outbox.cif.g09.slc.cpg/sg2_121_cif.got.tgz:241848.got - 2010.06.27 13:26:56.
