data_PCOD8034034
_publ_section_title
;
Structure prediction by ZEFSAII (Michael W. Deem and Ramdas Pophale) SiO2 
 PCOD8034034
Probable space group: P -1
;
_chemical_formula_sum "Si O2"
_cell_formula_units_Z 16
_cell_length_a 8.716409
_cell_length_b 13.713708
_cell_length_c 13.471415
_cell_angle_alpha 143.366965
_cell_angle_beta 93.288739
_cell_angle_gamma 111.960010
_cell_volume 680.277514
_symmetry_space_group_name_H-M "P -1"
_symmetry_group_IT_number 2
_symmetry_cell_setting 'triclinic'
loop_
_space_group_symop_operation_xyz
x,y,z
-x,-y,-z
loop_
_atom_site_type_symbol
_atom_site_label
_atom_site_fract_x
_atom_site_fract_y
_atom_site_fract_z
Si Si1 0.682485 0.219907 0.955920
Si Si2 0.816268 0.501346 0.369999
Si Si3 0.253511 0.219852 0.328850
Si Si4 0.928026 0.714068 0.949379
Si Si5 0.770494 0.108420 0.414284
Si Si6 0.291328 0.531402 0.451236
Si Si7 0.971136 0.629293 0.177591
Si Si8 0.277259 0.307805 0.894097
O O1 0.454621 0.987312 0.713931
O O2 0.669481 0.263963 0.107486
O O3 0.753200 0.436776 0.076926
O O4 0.870632 0.229991 0.948095
O O5 0.726577 0.621130 0.457217
O O6 0.807641 0.439125 0.435641
O O7 0.060715 0.690288 0.493185
O O8 0.270517 0.320613 0.303840
O O9 0.451287 0.238127 0.364215
O O10 0.023776 0.957572 0.113420
O O11 0.838578 0.535216 0.709678
O O12 0.732528 0.598359 0.925500
O O13 0.819520 0.208019 0.609118
O O14 0.769730 0.912870 0.259978
O O15 0.926968 0.770843 0.239487
O O16 0.000000 0.500000 0.000000
O O17 0.500000 0.500000 0.000000
#
# Coordination Sequence:
#
# PCOD8034034 Si02
#       8
#     2   2   2   2   2   2   2   2
#     4  11  25  42  62  98 136 174 210 273 331 387
#     4   9  21  41  66  94 136 168 218 267 322 391
#     4   9  20  39  66  97 126 173 217 265 322 384
#     4  12  24  41  66  98 134 167 224 267 327 388
#     4  11  24  43  70  95 130 177 220 264 329 390
#     4   9  21  40  68  97 130 173 215 273 321 382
#     4  11  24  47  64  95 134 167 218 277 328 383
#     4  12  24  44  69  99 127 175 221 275 320 390
#
# _framework density 23.519812999999999
#
# number of rings (size 3 to 8) (size 9 to 14) (size 15 to 20)
#    0.750    0.750    3.750    0.750    1.750    4.000 
#    2.250    1.250    0.000    0.000    0.000    0.000 
#    0.000    0.000    0.000    0.000    0.000    0.000 
#
# Total GULP energy -198246.293957 kJ/mol
# GULP energy per Si atom -12390.393372 kJ/mol
# Density = 2.346628 g / cm^3
# Si number density = 23.519813 Si / 1000 Ang^3
#
#
#
# Elastic Constant Matrix: (Units=GPa)
#
#
# Indices 1 2 3 4 5 6 
#
# 1 102.3872 31.0379 42.8877 -20.0570 9.3027 20.3193
# 2 31.0379 97.2609 43.9885 -21.4396 9.4557 32.1932
# 3 42.8877 43.9885 130.9652 -29.7120 15.3984 29.6378
# 4 -20.0570 -21.4396 -29.7120 38.4305 2.5568 -1.2508
# 5 9.3027 9.4557 15.3984 2.5568 38.6972 -7.1110
# 6 20.3193 32.1932 29.6378 -1.2508 -7.1110 29.2641
#
#
#
# Elastic Compliance Matrix: (Units=1/GPa)
#
#
# Indices 1 2 3 4 5 6 
#
# 1 0.014321 0.003571 0.001332 0.010522 -0.008641 -0.016871
# 2 0.003571 0.027017 0.006732 0.022042 -0.019461 -0.042805
# 3 0.001332 0.006732 0.017347 0.017945 -0.015357 -0.028864
# 4 0.010522 0.022042 0.017945 0.057836 -0.028849 -0.054266
# 5 -0.008641 -0.019461 -0.015357 -0.028849 0.050620 0.054029
# 6 -0.016871 -0.042805 -0.028864 -0.054266 0.054029 0.133016
#
#
# Mechanical properties :
#
#
# Convention : Reuss Voigt Hill
#
# Bulk Modulus (GPa) = 12.20196 62.93794 37.56995
# Shear Modulus (GPa) = 16.43631 35.45831 25.94731
#
# Velocity S-wave (km/s) = 2.64640 3.88699 3.32506
# Velocity P-wave (km/s) = 3.81276 6.85292 5.54525
#
# Compressibility (1/GPa) = 0.08195408
#
# Stress axis : x y z
#
# Youngs Moduli (GPa) = 69.82888 37.01441 57.64659
#
# Poissons Ratio (x) = -0.13219 -0.07677
# Poissons Ratio (y) = -0.24938 -0.38807
# Poissons Ratio (z) = -0.09299 -0.24918
#
# Static dielectric constant tensor:
#      x y z
#    x 4.017260 -0.003590 -0.039420 
#    y -0.003590 4.441670 0.007580 
#    z -0.039420 0.007580 3.992080 
# 
# 
# High freq. dielectric constant tensor:
#      x y z
#    x 1.931090 -0.002520 -0.004410 
#    y -0.002520 1.936380 0.000810 
#    z -0.004410 0.000810 1.908520 
# 
# From -- ./inp_files/504471.got.cif
#   From: 2010.06.25/outbox.cif.g09.slc.cpg/sg2_253_cif.got.tgz:504471.got - 2010.06.27 13:26:56.
