data_PCOD8034663
_publ_section_title
;
Structure prediction by ZEFSAII (Michael W. Deem and Ramdas Pophale) SiO2 
 PCOD8034663
Probable space group: P -1
;
_chemical_formula_sum "Si O2"
_cell_formula_units_Z 16
_cell_length_a 21.398739
_cell_length_b 14.816096
_cell_length_c 10.129335
_cell_angle_alpha 139.627703
_cell_angle_beta 36.741079
_cell_angle_gamma 152.359648
_cell_volume 875.476409
_symmetry_space_group_name_H-M "P -1"
_symmetry_group_IT_number 2
_symmetry_cell_setting 'triclinic'
loop_
_space_group_symop_operation_xyz
x,y,z
-x,-y,-z
loop_
_atom_site_type_symbol
_atom_site_label
_atom_site_fract_x
_atom_site_fract_y
_atom_site_fract_z
Si Si1 0.768436 0.590152 0.046584
Si Si2 0.799956 0.878628 0.937326
Si Si3 0.371115 0.031882 0.371741
Si Si4 0.489233 0.857544 0.018934
Si Si5 0.679523 0.838576 0.833439
Si Si6 0.075478 0.859924 0.723030
Si Si7 0.098933 0.052419 0.632764
Si Si8 0.575467 0.609511 0.219273
O O1 0.832282 0.726028 0.221675
O O2 0.672437 0.616005 0.165417
O O3 0.664113 0.362868 0.008211
O O4 0.902367 0.655003 0.800508
O O5 0.757587 0.939510 0.954736
O O6 0.650815 0.663702 0.006904
O O7 0.929652 0.895237 0.687348
O O8 0.874325 0.030294 0.100487
O O9 0.430269 0.233851 0.554531
O O10 0.453088 0.983647 0.256129
O O11 0.191582 0.844530 0.482186
O O12 0.400424 0.048385 0.185495
O O13 0.567549 0.859499 0.014582
O O14 0.802339 0.945363 0.630131
O O15 0.590827 0.608563 0.741477
O O16 0.096239 0.990498 0.716684
#
# Coordination Sequence:
#
# PCOD8034663 Si02
#       8
#     2   2   2   2   2   2   2   2
#     4  10  17  31  54  77  97 127 169 211 242 289
#     4  10  19  32  49  79 102 132 159 207 252 295
#     4  10  19  34  51  74 100 138 164 201 254 291
#     4  10  21  32  49  78 104 127 169 208 244 292
#     4  11  21  31  51  80 103 127 167 208 242 294
#     4  10  18  33  55  72 102 131 167 202 252 289
#     4  11  17  32  53  79  98 130 164 210 248 288
#     4  10  18  33  52  73 103 131 164 202 254 292
#
# _framework density 18.275763000000001
#
# number of rings (size 3 to 8) (size 9 to 14) (size 15 to 20)
#    0.000    1.750    5.000    2.250    0.000    2.500 
#    0.000    2.500    0.000    0.000    3.250    8.750 
#    0.000    0.000    0.000    0.000    0.000    0.000 
#
# Total GULP energy -198253.710306 kJ/mol
# GULP energy per Si atom -12390.856894 kJ/mol
# Density = 1.823417 g / cm^3
# Si number density = 18.275763 Si / 1000 Ang^3
#
#
#
# Elastic Constant Matrix: (Units=GPa)
#
#
# Indices 1 2 3 4 5 6 
#
# 1 105.0967 28.5386 37.5611 4.0542 -6.8687 1.9320
# 2 28.5386 49.6531 38.0486 -16.9804 -11.7067 0.2714
# 3 37.5611 38.0486 68.8396 -13.1453 -19.5475 -2.4609
# 4 4.0542 -16.9804 -13.1453 25.3907 -0.5950 -6.6189
# 5 -6.8687 -11.7067 -19.5475 -0.5950 30.0541 -0.4383
# 6 1.9320 0.2714 -2.4609 -6.6189 -0.4383 18.2708
#
#
#
# Elastic Compliance Matrix: (Units=1/GPa)
#
#
# Indices 1 2 3 4 5 6 
#
# 1 0.015156 -0.008846 -0.008090 -0.014753 -0.005653 -0.008041
# 2 -0.008846 0.046821 -0.012817 0.028663 0.008580 0.009103
# 3 -0.008090 -0.012817 0.033196 0.013025 0.015162 0.010599
# 4 -0.014753 0.028663 0.013025 0.076136 0.018223 0.030907
# 5 -0.005653 0.008580 0.015162 0.018223 0.045695 0.010210
# 6 -0.008041 0.009103 0.010599 0.030907 0.010210 0.068316
#
#
# Mechanical properties :
#
#
# Convention : Reuss Voigt Hill
#
# Bulk Modulus (GPa) = 28.03668 47.98732 38.01200
# Shear Modulus (GPa) = 14.01680 22.70583 18.36132
#
# Velocity S-wave (km/s) = 2.77241 3.52860 3.17311
# Velocity P-wave (km/s) = 5.06187 6.55101 5.85398
#
# Compressibility (1/GPa) = 0.03566756
#
# Stress axis : x y z
#
# Youngs Moduli (GPa) = 65.98099 21.35816 30.12366
#
# Poissons Ratio (x) = 0.18892 0.24371
# Poissons Ratio (y) = 0.58364 0.38609
# Poissons Ratio (z) = 0.53380 0.27375
#
# Static dielectric constant tensor:
#      x y z
#    x 3.377810 0.132100 -0.201670 
#    y 0.132100 3.636250 -0.487820 
#    z -0.201670 -0.487820 3.371630 
# 
# 
# High freq. dielectric constant tensor:
#      x y z
#    x 1.701650 0.008620 -0.007780 
#    y 0.008620 1.700620 -0.041330 
#    z -0.007780 -0.041330 1.688680 
# 
# From -- ./inp_files/199570.got.cif
#   From: 2010.06.25/outbox.cif.g09.slc.cpg/sg2_100_cif.got.tgz:199570.got - 2010.06.27 13:26:56.
