data_PCOD8034230
_publ_section_title
;
Structure prediction by ZEFSAII (Michael W. Deem and Ramdas Pophale) SiO2 
 PCOD8034230
Probable space group: P -1
;
_chemical_formula_sum "Si O2"
_cell_formula_units_Z 10
_cell_length_a 6.984049
_cell_length_b 7.962097
_cell_length_c 12.988797
_cell_angle_alpha 41.518079
_cell_angle_beta 118.378740
_cell_angle_gamma 96.342823
_cell_volume 382.123373
_symmetry_space_group_name_H-M "P -1"
_symmetry_group_IT_number 2
_symmetry_cell_setting 'triclinic'
loop_
_space_group_symop_operation_xyz
x,y,z
-x,-y,-z
loop_
_atom_site_type_symbol
_atom_site_label
_atom_site_fract_x
_atom_site_fract_y
_atom_site_fract_z
Si Si1 0.482144 0.873906 0.872828
Si Si2 0.085232 0.475184 0.706959
Si Si3 0.254551 0.507127 0.061832
Si Si4 0.636186 0.723162 0.598963
Si Si5 0.723140 0.463133 0.475493
O O1 0.565234 0.774803 0.822589
O O2 0.375730 0.202989 0.698821
O O3 0.702014 0.740848 0.070631
O O4 0.271674 0.774332 0.891023
O O5 0.179546 0.626808 0.575616
O O6 0.884565 0.707278 0.621898
O O7 0.939735 0.322976 0.677585
O O8 0.317511 0.515699 0.193718
O O9 0.000000 0.500000 0.000000
O O10 0.476844 0.657843 0.499926
O O11 0.500000 0.000000 0.500000
#
# Coordination Sequence:
#
# PCOD8034230 Si02
#       5
#     2   2   2   2   2
#     4  11  24  47  71 101 137 181 233 276 344 410
#     4  11  24  45  71 100 135 185 224 284 343 401
#     4  11  24  44  69 102 138 178 224 285 341 404
#     4  12  26  45  68 103 139 178 232 284 342 405
#     4  11  26  46  69 102 138 181 230 282 339 410
#
# _framework density 26.169560000000001
#
# number of rings (size 3 to 8) (size 9 to 14) (size 15 to 20)
#    0.000    0.800    4.000    2.400    0.000    6.400 
#    0.000    0.000    0.000    0.000    0.000    0.000 
#    0.000    0.000    0.000    0.000    0.000    0.000 
#
# Total GULP energy -123939.427444 kJ/mol
# GULP energy per Si atom -12393.942744 kJ/mol
# Density = 2.611000 g / cm^3
# Si number density = 26.169560 Si / 1000 Ang^3
#
#
#
# Elastic Constant Matrix: (Units=GPa)
#
#
# Indices 1 2 3 4 5 6 
#
# 1 175.9459 44.2914 32.1583 -11.7631 11.2208 4.5529
# 2 44.2914 121.7686 31.8324 -8.3456 2.2162 3.2794
# 3 32.1583 31.8324 71.3977 28.3700 9.9005 2.6873
# 4 -11.7631 -8.3456 28.3700 49.9236 3.4853 1.3470
# 5 11.2208 2.2162 9.9005 3.4853 30.4904 21.3837
# 6 4.5529 3.2794 2.6873 1.3470 21.3837 57.8094
#
#
#
# Elastic Compliance Matrix: (Units=1/GPa)
#
#
# Indices 1 2 3 4 5 6 
#
# 1 0.007078 -0.001279 -0.003865 0.003775 -0.001907 0.000312
# 2 -0.001279 0.010692 -0.006417 0.005026 0.001931 -0.001039
# 3 -0.003865 -0.006417 0.025857 -0.016306 -0.006124 0.002112
# 4 0.003775 0.005026 -0.016306 0.031011 0.000512 -0.000736
# 5 -0.001907 0.001931 -0.006124 0.000512 0.047354 -0.017203
# 6 0.000312 -0.001039 0.002112 -0.000736 -0.017203 0.023615
#
#
# Mechanical properties :
#
#
# Convention : Reuss Voigt Hill
#
# Bulk Modulus (GPa) = 48.76701 65.07515 56.92108
# Shear Modulus (GPa) = 28.47993 45.03334 36.75664
#
# Velocity S-wave (km/s) = 3.30250 4.15279 3.75181
# Velocity P-wave (km/s) = 5.76346 6.92206 6.36916
#
# Compressibility (1/GPa) = 0.02050566
#
# Stress axis : x y z
#
# Youngs Moduli (GPa) = 141.28486 93.52596 38.67464
#
# Poissons Ratio (x) = 0.11963 0.14947
# Poissons Ratio (y) = 0.18072 0.24816
# Poissons Ratio (z) = 0.54606 0.60012
#
# Static dielectric constant tensor:
#      x y z
#    x 5.276660 -0.509690 -0.224830 
#    y -0.509690 5.058420 1.137030 
#    z -0.224830 1.137030 5.622720 
# 
# 
# High freq. dielectric constant tensor:
#      x y z
#    x 2.079810 -0.020380 -0.002560 
#    y -0.020380 2.041550 0.036420 
#    z -0.002560 0.036420 2.042490 
# 
# From -- ./inp_files/22373.got.cif
#   From: 2010.06.25/outbox.cif.g09.slc.cpg/sg2_12_cif.got.tgz:22373.got - 2010.06.27 13:26:56.
