data_PCOD8034936
_publ_section_title
;
Structure prediction by ZEFSAII (Michael W. Deem and Ramdas Pophale) SiO2 
 PCOD8034936
Probable space group: P -1
;
_chemical_formula_sum "Si O2"
_cell_formula_units_Z 16
_cell_length_a 13.899058
_cell_length_b 8.999920
_cell_length_c 16.839661
_cell_angle_alpha 142.791072
_cell_angle_beta 147.833701
_cell_angle_gamma 39.897162
_cell_volume 649.246208
_symmetry_space_group_name_H-M "P -1"
_symmetry_group_IT_number 2
_symmetry_cell_setting 'triclinic'
loop_
_space_group_symop_operation_xyz
x,y,z
-x,-y,-z
loop_
_atom_site_type_symbol
_atom_site_label
_atom_site_fract_x
_atom_site_fract_y
_atom_site_fract_z
Si Si1 0.773043 0.238351 0.223985
Si Si2 0.863285 0.956462 0.319834
Si Si3 0.564854 0.465514 0.619889
Si Si4 0.475590 0.988245 0.133817
Si Si5 0.286464 0.194977 0.347617
Si Si6 0.873956 0.076195 0.758219
Si Si7 0.908301 0.397552 0.072213
Si Si8 0.458247 0.722571 0.168891
O O1 0.663546 0.535429 0.257206
O O2 0.839312 0.191198 0.341276
O O3 0.942461 0.133347 0.235452
O O4 0.625860 0.072661 0.041175
O O5 0.923999 0.687172 0.199096
O O6 0.689057 0.957808 0.252876
O O7 0.000000 0.000000 0.500000
O O8 0.500000 0.500000 0.500000
O O9 0.623588 0.716358 0.790467
O O10 0.382069 0.426898 0.523752
O O11 0.756107 0.238556 0.672356
O O12 0.453776 0.783890 0.098135
O O13 0.085066 0.249238 0.186270
O O14 0.261219 0.080696 0.366652
O O15 0.439427 0.986701 0.313792
O O16 0.923696 0.263167 0.939307
O O17 0.712540 0.395433 0.977540
#
# Coordination Sequence:
#
# PCOD8034936 Si02
#       8
#     2   2   2   2   2   2   2   2
#     4  12  27  48  76 110 144 190 250 298 359 438
#     4  12  29  47  71 106 154 193 237 300 372 428
#     4  12  27  47  71 106 153 190 242 299 363 431
#     4  12  25  46  77 104 144 199 240 298 363 427
#     4  11  24  48  76 106 147 194 241 300 362 428
#     4  11  27  46  79 110 139 195 247 302 359 424
#     4  11  24  49  79 107 143 190 253 298 354 436
#     4  11  24  46  78 106 148 190 246 297 357 436
#
# _framework density 24.643965000000001
#
# number of rings (size 3 to 8) (size 9 to 14) (size 15 to 20)
#    0.000    0.500    2.500    5.625    8.750    1.000 
#    2.250    1.250    0.000    0.000    0.000    0.000 
#    0.000    0.000    0.000    0.000    0.000    0.000 
#
# Total GULP energy -198383.294948 kJ/mol
# GULP energy per Si atom -12398.955934 kJ/mol
# Density = 2.458787 g / cm^3
# Si number density = 24.643965 Si / 1000 Ang^3
#
#
#
# Elastic Constant Matrix: (Units=GPa)
#
#
# Indices 1 2 3 4 5 6 
#
# 1 101.4198 43.3417 10.1496 -14.8385 3.5938 -2.5765
# 2 43.3417 154.7152 18.5683 -19.4356 -4.5385 6.1001
# 3 10.1496 18.5683 56.1481 -10.6451 3.5879 12.7686
# 4 -14.8385 -19.4356 -10.6451 39.2152 8.6176 6.3135
# 5 3.5938 -4.5385 3.5879 8.6176 29.6131 -6.7264
# 6 -2.5765 6.1001 12.7686 6.3135 -6.7264 39.8323
#
#
#
# Elastic Compliance Matrix: (Units=1/GPa)
#
#
# Indices 1 2 3 4 5 6 
#
# 1 0.011752 -0.002903 -0.000408 0.003450 -0.002752 0.000324
# 2 -0.002903 0.007817 -0.001370 0.002437 0.000733 -0.001208
# 3 -0.000408 -0.001370 0.022653 0.008551 -0.007601 -0.009717
# 4 0.003450 0.002437 0.008551 0.035088 -0.013739 -0.010773
# 5 -0.002752 0.000733 -0.007601 -0.013739 0.041716 0.011368
# 6 0.000324 -0.001208 -0.009717 -0.010773 0.011368 0.032053
#
#
# Mechanical properties :
#
#
# Convention : Reuss Voigt Hill
#
# Bulk Modulus (GPa) = 30.43316 50.71136 40.57226
# Shear Modulus (GPa) = 29.17224 37.74703 33.45964
#
# Velocity S-wave (km/s) = 3.44430 3.91793 3.68872
# Velocity P-wave (km/s) = 5.30976 6.41009 5.88569
#
# Compressibility (1/GPa) = 0.03285889
#
# Stress axis : x y z
#
# Youngs Moduli (GPa) = 85.09151 127.93377 44.14337
#
# Poissons Ratio (x) = 0.37144 0.01801
# Poissons Ratio (y) = 0.24705 0.06048
# Poissons Ratio (z) = 0.03472 0.17529
#
# Static dielectric constant tensor:
#      x y z
#    x 4.329730 0.087570 0.170570 
#    y 0.087570 4.519510 0.054790 
#    z 0.170570 0.054790 4.520650 
# 
# 
# High freq. dielectric constant tensor:
#      x y z
#    x 1.977040 0.002340 0.003450 
#    y 0.002340 1.996280 -0.002520 
#    z 0.003450 -0.002520 1.985920 
# 
# From -- ./inp_files/572948.got.cif
#   From: 2010.06.25/outbox.cif.g09.slc.cpg/sg2_287_cif.got.tgz:572948.got - 2010.06.27 13:26:56.
