data_PCOD8034859
_publ_section_title
;
Structure prediction by ZEFSAII (Michael W. Deem and Ramdas Pophale) SiO2 
 PCOD8034859
Probable space group: P -1
;
_chemical_formula_sum "Si O2"
_cell_formula_units_Z 16
_cell_length_a 11.884414
_cell_length_b 8.717838
_cell_length_c 18.936653
_cell_angle_alpha 83.983131
_cell_angle_beta 143.304186
_cell_angle_gamma 123.576910
_cell_volume 716.030682
_symmetry_space_group_name_H-M "P -1"
_symmetry_group_IT_number 2
_symmetry_cell_setting 'triclinic'
loop_
_space_group_symop_operation_xyz
x,y,z
-x,-y,-z
loop_
_atom_site_type_symbol
_atom_site_label
_atom_site_fract_x
_atom_site_fract_y
_atom_site_fract_z
Si Si1 0.703239 0.782645 0.098020
Si Si2 0.862755 0.151061 0.620759
Si Si3 0.765185 0.752333 0.438674
Si Si4 0.380850 0.072901 0.079968
Si Si5 0.159415 0.605838 0.295644
Si Si6 0.187439 0.484228 0.629190
Si Si7 0.112407 0.484610 0.126329
Si Si8 0.136794 0.850354 0.747032
O O1 0.021312 0.934278 0.284847
O O2 0.625147 0.879314 0.105368
O O3 0.500000 0.500000 0.000000
O O4 0.732710 0.869064 0.032032
O O5 0.995174 0.372651 0.728768
O O6 0.990580 0.269502 0.601150
O O7 0.503853 0.891510 0.451198
O O8 0.691835 0.550954 0.368623
O O9 0.469734 0.670966 0.302459
O O10 0.913892 0.802253 0.585702
O O11 0.000000 0.000000 0.500000
O O12 0.501475 0.241202 0.199816
O O13 0.646383 0.128627 0.185261
O O14 0.071299 0.790621 0.958183
O O15 0.029928 0.528011 0.153995
O O16 0.089803 0.389410 0.301608
O O17 0.000000 0.500000 0.500000
O O18 0.000000 0.500000 0.000000
#
# Coordination Sequence:
#
# PCOD8034859 Si02
#       8
#     2   2   2   2   2   2   2   2
#     4  12  24  40  69 105 146 176 240 296 364 416
#     4  11  25  43  71 109 137 192 236 308 352 429
#     4  12  27  48  76 101 142 199 238 288 358 441
#     4  12  26  45  74 105 141 189 235 305 365 423
#     4  11  24  46  73 101 146 186 245 289 367 430
#     4  12  24  48  73 103 145 190 250 288 359 434
#     4  12  29  47  71 109 147 188 237 305 367 428
#     4  12  24  47  74 103 142 193 243 290 364 439
#
# _framework density 22.345410999999999
#
# number of rings (size 3 to 8) (size 9 to 14) (size 15 to 20)
#    0.000    0.250    5.000    3.375    5.250    2.500 
#    0.000    0.000    0.000    0.000    0.000    0.000 
#    0.000    0.000    0.000    0.000    0.000    0.000 
#
# Total GULP energy -198250.873960 kJ/mol
# GULP energy per Si atom -12390.679622 kJ/mol
# Density = 2.229455 g / cm^3
# Si number density = 22.345411 Si / 1000 Ang^3
#
#
#
# Elastic Constant Matrix: (Units=GPa)
#
#
# Indices 1 2 3 4 5 6 
#
# 1 86.6643 21.3752 24.4699 3.3228 -34.0800 -6.5086
# 2 21.3752 140.2834 58.5141 -8.3130 -16.6536 4.7791
# 3 24.4699 58.5141 81.1529 -11.4698 -18.9542 10.6386
# 4 3.3228 -8.3130 -11.4698 60.9885 -3.9276 -8.7206
# 5 -34.0800 -16.6536 -18.9542 -3.9276 50.1236 3.7120
# 6 -6.5086 4.7791 10.6386 -8.7206 3.7120 35.4675
#
#
#
# Elastic Compliance Matrix: (Units=1/GPa)
#
#
# Indices 1 2 3 4 5 6 
#
# 1 0.016508 -0.000247 -0.002947 -0.000455 0.009784 0.002811
# 2 -0.000247 0.010240 -0.007280 0.000176 0.000439 0.000756
# 3 -0.002947 -0.007280 0.020444 0.002480 0.003909 -0.005491
# 4 -0.000455 0.000176 0.002480 0.017495 0.001816 0.003260
# 5 0.009784 0.000439 0.003909 0.001816 0.028515 -0.001974
# 6 0.002811 0.000756 -0.005491 0.003260 -0.001974 0.031264
#
#
# Mechanical properties :
#
#
# Convention : Reuss Voigt Hill
#
# Bulk Modulus (GPa) = 38.10705 57.42434 47.76570
# Shear Modulus (GPa) = 32.43352 42.89869 37.66611
#
# Velocity S-wave (km/s) = 3.81394 4.38630 4.11010
# Velocity P-wave (km/s) = 6.04032 7.16988 6.62920
#
# Compressibility (1/GPa) = 0.02624186
#
# Stress axis : x y z
#
# Youngs Moduli (GPa) = 60.57776 97.66027 48.91495
#
# Poissons Ratio (x) = 0.02416 0.14415
# Poissons Ratio (y) = 0.01499 0.35611
# Poissons Ratio (z) = 0.17852 0.71099
#
# Static dielectric constant tensor:
#      x y z
#    x 4.352970 -0.396580 -0.360240 
#    y -0.396580 4.191680 0.052010 
#    z -0.360240 0.052010 4.321380 
# 
# 
# High freq. dielectric constant tensor:
#      x y z
#    x 1.879740 -0.012760 -0.024420 
#    y -0.012760 1.896100 0.001980 
#    z -0.024420 0.001980 1.896760 
# 
# From -- ./inp_files/566746.got.cif
#   From: 2010.06.25/outbox.cif.g09.slc.cpg/sg2_284_cif.got.tgz:566746.got - 2010.06.27 13:26:56.
