data_PCOD8034881
_publ_section_title
;
Structure prediction by ZEFSAII (Michael W. Deem and Ramdas Pophale) SiO2 
 PCOD8034881
Probable space group: P -1
;
_chemical_formula_sum "Si O2"
_cell_formula_units_Z 16
_cell_length_a 9.204926
_cell_length_b 9.128799
_cell_length_c 11.943332
_cell_angle_alpha 57.520228
_cell_angle_beta 56.278417
_cell_angle_gamma 77.950664
_cell_volume 698.433313
_symmetry_space_group_name_H-M "P -1"
_symmetry_group_IT_number 2
_symmetry_cell_setting 'triclinic'
loop_
_space_group_symop_operation_xyz
x,y,z
-x,-y,-z
loop_
_atom_site_type_symbol
_atom_site_label
_atom_site_fract_x
_atom_site_fract_y
_atom_site_fract_z
Si Si1 0.312111 0.403933 0.165419
Si Si2 0.502026 0.626824 0.683364
Si Si3 0.936833 0.307544 0.878007
Si Si4 0.808607 0.157343 0.222399
Si Si5 0.239905 0.903760 0.152010
Si Si6 0.295841 0.224177 0.672368
Si Si7 0.554974 0.759007 0.163402
Si Si8 0.062263 0.089231 0.321780
O O1 0.339519 0.356629 0.302126
O O2 0.153206 0.519990 0.176630
O O3 0.241802 0.223878 0.205786
O O4 0.500000 0.500000 0.000000
O O5 0.374472 0.766790 0.714696
O O6 0.584839 0.653458 0.514474
O O7 0.392892 0.432294 0.810047
O O8 0.831822 0.149326 0.917982
O O9 0.138355 0.328491 0.741570
O O10 0.927728 0.259467 0.032699
O O11 0.911472 0.184241 0.285513
O O12 0.771575 0.955639 0.286578
O O13 0.351298 0.760467 0.215785
O O14 0.088843 0.926257 0.296752
O O15 0.339597 0.098977 0.019665
O O16 0.417432 0.189640 0.739798
O O17 0.000000 0.000000 0.500000
#
# Coordination Sequence:
#
# PCOD8034881 Si02
#       8
#     2   2   2   2   2   2   2   2
#     4  12  27  49  73 107 145 194 245 298 368 436
#     4  12  27  45  72 106 150 189 240 304 369 433
#     4  12  25  48  76 100 143 190 247 302 353 435
#     4  12  26  48  72 108 146 193 242 300 365 435
#     4  11  24  46  74 102 136 192 244 297 354 441
#     4  12  26  45  70 107 143 192 243 302 364 433
#     4  11  25  44  74 102 142 186 245 295 364 431
#     4  12  29  47  73 107 151 191 242 302 374 432
#
# _framework density 22.908415000000002
#
# number of rings (size 3 to 8) (size 9 to 14) (size 15 to 20)
#    0.000    0.250    5.000    3.375    7.000    2.000 
#    0.000    0.000    0.000    0.000    0.000    0.000 
#    0.000    0.000    0.000    0.000    0.000    0.000 
#
# Total GULP energy -198421.496331 kJ/mol
# GULP energy per Si atom -12401.343521 kJ/mol
# Density = 2.285627 g / cm^3
# Si number density = 22.908415 Si / 1000 Ang^3
#
#
#
# Elastic Constant Matrix: (Units=GPa)
#
#
# Indices 1 2 3 4 5 6 
#
# 1 120.5700 33.9801 53.3581 2.8714 25.2494 7.3162
# 2 33.9801 89.9664 37.4595 14.1176 5.1490 -8.6312
# 3 53.3581 37.4595 113.7369 25.8041 17.7360 -10.4503
# 4 2.8714 14.1176 25.8041 24.8724 2.5859 -5.3345
# 5 25.2494 5.1490 17.7360 2.5859 38.5883 6.0158
# 6 7.3162 -8.6312 -10.4503 -5.3345 6.0158 46.5101
#
#
#
# Elastic Compliance Matrix: (Units=1/GPa)
#
#
# Indices 1 2 3 4 5 6 
#
# 1 0.012965 -0.003429 -0.005822 0.006505 -0.005390 -0.002541
# 2 -0.003429 0.014143 -0.001830 -0.005442 0.001256 0.001966
# 3 -0.005822 -0.001830 0.016006 -0.013972 -0.002825 0.002935
# 4 0.006505 -0.005442 -0.013972 0.057503 -0.001208 0.001579
# 5 -0.005390 0.001256 -0.002825 -0.001208 0.031235 -0.003732
# 6 -0.002541 0.001966 0.002935 0.001579 -0.003732 0.023589
#
#
# Mechanical properties :
#
#
# Convention : Reuss Voigt Hill
#
# Bulk Modulus (GPa) = 47.72571 63.76319 55.74445
# Shear Modulus (GPa) = 27.08791 35.29254 31.19022
#
# Velocity S-wave (km/s) = 3.44240 3.92930 3.69388
# Velocity P-wave (km/s) = 6.05629 6.96277 6.52529
#
# Compressibility (1/GPa) = 0.02095307
#
# Stress axis : x y z
#
# Youngs Moduli (GPa) = 77.13370 70.70652 62.47644
#
# Poissons Ratio (x) = 0.24243 0.36371
# Poissons Ratio (y) = 0.26447 0.11433
# Poissons Ratio (z) = 0.44904 0.12939
#
# Static dielectric constant tensor:
#      x y z
#    x 4.360430 -0.007450 0.212240 
#    y -0.007450 4.221770 0.055370 
#    z 0.212240 0.055370 4.013250 
# 
# 
# High freq. dielectric constant tensor:
#      x y z
#    x 1.919690 0.003280 0.016320 
#    y 0.003280 1.911260 0.006570 
#    z 0.016320 0.006570 1.896760 
# 
# From -- ./inp_files/262005.got.cif
#   From: 2010.06.25/outbox.cif.g09.slc.cpg/sg2_132_cif.got.tgz:262005.got - 2010.06.27 13:26:56.
