data_PCOD8034345
_publ_section_title
;
Structure prediction by ZEFSAII (Michael W. Deem and Ramdas Pophale) SiO2 
 PCOD8034345
Probable space group: P -1
;
_chemical_formula_sum "Si O2"
_cell_formula_units_Z 16
_cell_length_a 24.512050
_cell_length_b 14.565436
_cell_length_c 8.682377
_cell_angle_alpha 52.035069
_cell_angle_beta 41.442800
_cell_angle_gamma 20.876104
_cell_volume 681.720221
_symmetry_space_group_name_H-M "P -1"
_symmetry_group_IT_number 2
_symmetry_cell_setting 'triclinic'
loop_
_space_group_symop_operation_xyz
x,y,z
-x,-y,-z
loop_
_atom_site_type_symbol
_atom_site_label
_atom_site_fract_x
_atom_site_fract_y
_atom_site_fract_z
Si Si1 0.625560 0.677864 0.247199
Si Si2 0.988055 0.350973 0.787630
Si Si3 0.602845 0.562382 0.715152
Si Si4 0.802410 0.695118 0.520821
Si Si5 0.740942 0.139263 0.911586
Si Si6 0.133962 0.599980 0.504309
Si Si7 0.681646 0.250748 0.258103
Si Si8 0.852679 0.260011 0.939134
O O1 0.582049 0.640678 0.508401
O O2 0.429031 0.995497 0.284371
O O3 0.798989 0.541539 0.080752
O O4 0.693224 0.528467 0.102975
O O5 0.904817 0.505330 0.645024
O O6 0.091806 0.314978 0.712710
O O7 0.143655 0.049595 0.724532
O O8 0.744407 0.268427 0.712045
O O9 0.675284 0.573873 0.661502
O O10 0.392344 0.778425 0.994303
O O11 0.821296 0.591114 0.435796
O O12 0.641250 0.248379 0.178331
O O13 0.966472 0.811464 0.771152
O O14 0.050892 0.771795 0.349985
O O15 0.500000 0.500000 0.500000
O O16 0.747435 0.295959 0.024231
O O17 0.000000 0.000000 0.000000
#
# Coordination Sequence:
#
# PCOD8034345 Si02
#       8
#     2   2   2   2   2   2   2   2
#     4  12  24  47  72 104 147 187 245 292 352 421
#     4  11  24  44  72 104 143 190 238 302 349 411
#     4  11  25  44  71 101 144 187 226 298 364 424
#     4  11  26  46  69 104 144 196 246 290 341 425
#     4  11  25  45  69 105 146 184 229 295 370 434
#     4  12  25  45  70 100 145 188 236 287 360 424
#     4  12  24  45  74 109 142 177 239 305 365 430
#     4  12  23  41  72 109 135 182 238 296 361 420
#
# _framework density 23.470040000000001
#
# number of rings (size 3 to 8) (size 9 to 14) (size 15 to 20)
#    0.000    0.500    3.750    4.500    0.000    4.500 
#    2.250    4.375    0.000    0.000    0.000    0.000 
#    0.000    0.000    0.000    0.000    0.000    0.000 
#
# Total GULP energy -198277.717031 kJ/mol
# GULP energy per Si atom -12392.357314 kJ/mol
# Density = 2.341662 g / cm^3
# Si number density = 23.470040 Si / 1000 Ang^3
#
#
#
# Elastic Constant Matrix: (Units=GPa)
#
#
# Indices 1 2 3 4 5 6 
#
# 1 147.7391 43.9790 45.2311 15.5139 -34.7665 23.9024
# 2 43.9790 126.7798 49.4626 27.8356 -7.4781 4.6319
# 3 45.2311 49.4626 86.1002 5.2761 -14.7657 13.6301
# 4 15.5139 27.8356 5.2761 30.4735 -2.5904 -2.1159
# 5 -34.7665 -7.4781 -14.7657 -2.5904 48.0519 -6.3289
# 6 23.9024 4.6319 13.6301 -2.1159 -6.3289 38.5579
#
#
#
# Elastic Compliance Matrix: (Units=1/GPa)
#
#
# Indices 1 2 3 4 5 6 
#
# 1 0.010471 -0.001229 -0.002873 -0.003544 0.005707 -0.004586
# 2 -0.001229 0.012994 -0.006540 -0.010173 -0.001328 0.000737
# 3 -0.002873 -0.006540 0.017450 0.004385 0.002105 -0.003016
# 4 -0.003544 -0.010173 0.004385 0.043458 0.000105 0.004271
# 5 0.005707 -0.001328 0.002105 0.000105 0.025393 0.000051
# 6 -0.004586 0.000737 -0.003016 0.004271 0.000051 0.029998
#
#
# Mechanical properties :
#
#
# Convention : Reuss Voigt Hill
#
# Bulk Modulus (GPa) = 50.93900 70.88495 60.91198
# Shear Modulus (GPa) = 29.83433 38.21308 34.02371
#
# Velocity S-wave (km/s) = 3.56921 4.03943 3.81158
# Velocity P-wave (km/s) = 6.22388 7.21276 6.73649
#
# Compressibility (1/GPa) = 0.01963132
#
# Stress axis : x y z
#
# Youngs Moduli (GPa) = 95.50013 76.95911 57.30537
#
# Poissons Ratio (x) = 0.09461 0.16463
# Poissons Ratio (y) = 0.11740 0.37477
# Poissons Ratio (z) = 0.27435 0.50331
#
# Static dielectric constant tensor:
#      x y z
#    x 4.704310 0.193420 -0.486690 
#    y 0.193420 4.311990 -0.174340 
#    z -0.486690 -0.174340 4.318580 
# 
# 
# High freq. dielectric constant tensor:
#      x y z
#    x 1.941330 -0.002760 -0.021110 
#    y -0.002760 1.929320 -0.015120 
#    z -0.021110 -0.015120 1.922290 
# 
# From -- ./inp_files/357367.got.cif
#   From: 2010.06.25/outbox.cif.g09.slc.cpg/sg2_179_cif.got.tgz:357367.got - 2010.06.27 13:26:56.
