data_PCOD8034293
_publ_section_title
;
Structure prediction by ZEFSAII (Michael W. Deem and Ramdas Pophale) SiO2 
 PCOD8034293
Probable space group: P -1
;
_chemical_formula_sum "Si O2"
_cell_formula_units_Z 16
_cell_length_a 13.720641
_cell_length_b 11.888931
_cell_length_c 10.810116
_cell_angle_alpha 155.477939
_cell_angle_beta 100.797311
_cell_angle_gamma 82.242656
_cell_volume 716.200657
_symmetry_space_group_name_H-M "P -1"
_symmetry_group_IT_number 2
_symmetry_cell_setting 'triclinic'
loop_
_space_group_symop_operation_xyz
x,y,z
-x,-y,-z
loop_
_atom_site_type_symbol
_atom_site_label
_atom_site_fract_x
_atom_site_fract_y
_atom_site_fract_z
Si Si1 0.205251 0.694260 0.992345
Si Si2 0.881941 0.081654 0.180954
Si Si3 0.606719 0.611698 0.588433
Si Si4 0.388818 0.864525 0.054377
Si Si5 0.295869 0.558783 0.127945
Si Si6 0.567124 0.911181 0.315318
Si Si7 0.783945 0.580993 0.769210
Si Si8 0.111186 0.146756 0.310016
O O1 0.173294 0.430809 0.638202
O O2 0.307563 0.865700 0.145148
O O3 0.218078 0.602804 0.044390
O O4 0.123480 0.915340 0.185370
O O5 0.996264 0.203171 0.327157
O O6 0.814536 0.314781 0.440320
O O7 0.868650 0.828559 0.018874
O O8 0.846874 0.970519 0.925713
O O9 0.500000 0.500000 0.500000
O O10 0.680791 0.675679 0.784785
O O11 0.598654 0.868463 0.757170
O O12 0.650877 0.383540 0.288585
O O13 0.496236 0.818411 0.091278
O O14 0.228628 0.461208 0.130335
O O15 0.358160 0.837450 0.459039
O O16 0.370639 0.339402 0.881970
O O17 0.500000 0.000000 0.500000
#
# Coordination Sequence:
#
# PCOD8034293 Si02
#       8
#     2   2   2   2   2   2   2   2
#     4  12  24  42  67 100 131 168 220 279 330 380
#     4  11  24  45  71  99 128 174 215 272 341 398
#     4  12  25  41  63  96 132 170 215 270 319 382
#     4  12  24  39  67  93 127 170 221 271 325 377
#     4  12  27  44  65  97 137 180 220 270 320 401
#     4  12  24  43  64  94 135 178 225 266 321 383
#     4  12  24  45  67  95 138 179 218 258 337 402
#     4  11  24  44  71 101 131 160 221 287 332 386
#
# _framework density 22.340108000000001
#
# number of rings (size 3 to 8) (size 9 to 14) (size 15 to 20)
#    0.000    0.250    1.250    9.750    1.750    2.000 
#    0.000    3.750    0.000    0.000    0.000    0.000 
#    0.000    0.000    0.000    0.000    0.000    0.000 
#
# Total GULP energy -198498.445136 kJ/mol
# GULP energy per Si atom -12406.152821 kJ/mol
# Density = 2.228926 g / cm^3
# Si number density = 22.340108 Si / 1000 Ang^3
#
#
#
# Elastic Constant Matrix: (Units=GPa)
#
#
# Indices 1 2 3 4 5 6 
#
# 1 76.2358 41.9667 23.0825 -3.2886 5.1506 3.3387
# 2 41.9667 134.2126 24.0219 16.9705 5.7490 2.3482
# 3 23.0825 24.0219 104.8668 18.5355 9.1468 -5.2759
# 4 -3.2886 16.9705 18.5355 36.3033 -0.3730 -0.0918
# 5 5.1506 5.7490 9.1468 -0.3730 40.8756 6.5712
# 6 3.3387 2.3482 -5.2759 -0.0918 6.5712 34.0432
#
#
#
# Elastic Compliance Matrix: (Units=1/GPa)
#
#
# Indices 1 2 3 4 5 6 
#
# 1 0.017701 -0.005593 -0.003773 0.006137 -0.000243 -0.001872
# 2 -0.005593 0.009888 -0.000072 -0.005100 -0.000713 -0.000021
# 3 -0.003773 -0.000072 0.011883 -0.006396 -0.002668 0.002714
# 4 0.006137 -0.005100 -0.006396 0.033767 0.001928 -0.001522
# 5 -0.000243 -0.000713 -0.002668 0.001928 0.026073 -0.005368
# 6 -0.001872 -0.000021 0.002714 -0.001522 -0.005368 0.031012
#
#
# Mechanical properties :
#
#
# Convention : Reuss Voigt Hill
#
# Bulk Modulus (GPa) = 48.54834 54.82862 51.68848
# Shear Modulus (GPa) = 32.03813 37.32735 34.68274
#
# Velocity S-wave (km/s) = 3.79107 4.09206 3.94444
# Velocity P-wave (km/s) = 6.39856 6.85000 6.62813
#
# Compressibility (1/GPa) = 0.02059803
#
# Stress axis : x y z
#
# Youngs Moduli (GPa) = 56.49319 101.13117 84.15729
#
# Poissons Ratio (x) = 0.56558 0.31752
# Poissons Ratio (y) = 0.31594 0.00602
# Poissons Ratio (z) = 0.21314 0.00723
#
# Static dielectric constant tensor:
#      x y z
#    x 3.915330 -0.068430 0.049780 
#    y -0.068430 4.075860 0.090390 
#    z 0.049780 0.090390 4.119300 
# 
# 
# High freq. dielectric constant tensor:
#      x y z
#    x 1.877780 -0.004450 0.006040 
#    y -0.004450 1.883720 0.011950 
#    z 0.006040 0.011950 1.893090 
# 
# From -- ./inp_files/452714.got.cif
#   From: 2010.06.25/outbox.cif.g09.slc.cpg/sg2_227_cif.got.tgz:452714.got - 2010.06.27 13:26:56.
