data_PCOD8034141
_publ_section_title
;
Structure prediction by ZEFSAII (Michael W. Deem and Ramdas Pophale) SiO2 
 PCOD8034141
Probable space group: P -1
;
_chemical_formula_sum "Si O2"
_cell_formula_units_Z 16
_cell_length_a 9.137440
_cell_length_b 17.307999
_cell_length_c 11.531735
_cell_angle_alpha 41.971205
_cell_angle_beta 85.201447
_cell_angle_gamma 53.044064
_cell_volume 714.711971
_symmetry_space_group_name_H-M "P -1"
_symmetry_group_IT_number 2
_symmetry_cell_setting 'triclinic'
loop_
_space_group_symop_operation_xyz
x,y,z
-x,-y,-z
loop_
_atom_site_type_symbol
_atom_site_label
_atom_site_fract_x
_atom_site_fract_y
_atom_site_fract_z
Si Si1 0.853640 0.889340 0.869779
Si Si2 0.062299 0.795600 0.705447
Si Si3 0.680595 0.543502 0.436997
Si Si4 0.539518 0.097493 0.329108
Si Si5 0.481237 0.353661 0.182334
Si Si6 0.831958 0.645671 0.143898
Si Si7 0.368913 0.327644 0.447471
Si Si8 0.854589 0.190003 0.868002
O O1 0.932708 0.843208 0.781869
O O2 0.564195 0.100326 0.673879
O O3 0.884910 0.740616 0.085413
O O4 0.019121 0.877655 0.939399
O O5 0.221935 0.813494 0.679945
O O6 0.283167 0.568565 0.900778
O O7 0.836698 0.933820 0.472531
O O8 0.790731 0.583956 0.319862
O O9 0.623613 0.616723 0.490315
O O10 0.856513 0.317356 0.666988
O O11 0.425057 0.673685 0.244217
O O12 0.418583 0.267806 0.233162
O O13 0.500000 0.000000 0.500000
O O14 0.395996 0.202085 0.100398
O O15 0.441841 0.382454 0.291257
O O16 0.102465 0.440725 0.301827
O O17 0.000000 0.000000 0.000000
#
# Coordination Sequence:
#
# PCOD8034141 Si02
#       8
#     2   2   2   2   2   2   2   2
#     4  12  24  44  73  99 143 183 235 287 357 414
#     4  11  24  45  70 104 136 186 234 291 352 417
#     4  11  26  46  73 101 143 182 236 288 351 418
#     4  12  24  45  69 103 146 182 232 289 346 417
#     4  11  24  43  75 100 135 184 235 293 351 413
#     4  12  27  45  69 104 144 190 231 289 346 425
#     4  12  23  44  71 100 137 187 231 289 350 411
#     4  11  24  46  73 106 136 181 234 297 348 413
#
# _framework density 22.386641000000001
#
# number of rings (size 3 to 8) (size 9 to 14) (size 15 to 20)
#    0.000    0.500    6.250    0.750    1.750    4.500 
#    2.250    0.000    0.000    0.000    0.000    0.000 
#    0.000    0.000    0.000    0.000    0.000    0.000 
#
# Total GULP energy -198323.812695 kJ/mol
# GULP energy per Si atom -12395.238293 kJ/mol
# Density = 2.233569 g / cm^3
# Si number density = 22.386641 Si / 1000 Ang^3
#
#
#
# Elastic Constant Matrix: (Units=GPa)
#
#
# Indices 1 2 3 4 5 6 
#
# 1 118.4578 48.5808 34.0345 0.4064 7.2120 -3.9513
# 2 48.5808 91.9967 43.3105 -11.2707 -1.3544 -2.8401
# 3 34.0345 43.3105 86.3450 -8.9661 25.2557 -9.7792
# 4 0.4064 -11.2707 -8.9661 28.7890 -10.9022 2.8600
# 5 7.2120 -1.3544 25.2557 -10.9022 54.1666 2.8054
# 6 -3.9513 -2.8401 -9.7792 2.8600 2.8054 31.7038
#
#
#
# Elastic Compliance Matrix: (Units=1/GPa)
#
#
# Indices 1 2 3 4 5 6 
#
# 1 0.011362 -0.005845 -0.001272 -0.003644 -0.001851 0.000993
# 2 -0.005845 0.019120 -0.008918 0.007805 0.007146 -0.003103
# 3 -0.001272 -0.008918 0.020033 -0.001663 -0.010053 0.006262
# 4 -0.003644 0.007805 -0.001663 0.041634 0.010090 -0.004917
# 5 -0.001851 0.007146 -0.010053 0.010090 0.025910 -0.005895
# 6 0.000993 -0.003103 0.006262 -0.004917 -0.005895 0.034284
#
#
# Mechanical properties :
#
#
# Convention : Reuss Voigt Hill
#
# Bulk Modulus (GPa) = 54.20903 60.96124 57.58513
# Shear Modulus (GPa) = 26.23814 34.32348 30.28081
#
# Velocity S-wave (km/s) = 3.42723 3.91987 3.68180
# Velocity P-wave (km/s) = 6.31891 6.91212 6.62216
#
# Compressibility (1/GPa) = 0.01844711
#
# Stress axis : x y z
#
# Youngs Moduli (GPa) = 88.00960 52.30016 49.91750
#
# Poissons Ratio (x) = 0.30567 0.06348
# Poissons Ratio (y) = 0.51437 0.44517
# Poissons Ratio (z) = 0.11192 0.46642
#
# Static dielectric constant tensor:
#      x y z
#    x 4.244170 0.034020 0.153930 
#    y 0.034020 3.734970 -0.196250 
#    z 0.153930 -0.196250 4.538110 
# 
# 
# High freq. dielectric constant tensor:
#      x y z
#    x 1.892020 0.003930 0.007140 
#    y 0.003930 1.856060 -0.017570 
#    z 0.007140 -0.017570 1.910510 
# 
# From -- ./inp_files/402831.got.cif
#   From: 2010.06.25/outbox.cif.g09.slc.cpg/sg2_202_cif.got.tgz:402831.got - 2010.06.27 13:26:56.
