data_PCOD8034333
_publ_section_title
;
Structure prediction by ZEFSAII (Michael W. Deem and Ramdas Pophale) SiO2 
 PCOD8034333
Probable space group: P -1
;
_chemical_formula_sum "Si O2"
_cell_formula_units_Z 16
_cell_length_a 11.354673
_cell_length_b 18.307338
_cell_length_c 9.307904
_cell_angle_alpha 150.478445
_cell_angle_beta 55.458961
_cell_angle_gamma 133.139975
_cell_volume 693.574139
_symmetry_space_group_name_H-M "P -1"
_symmetry_group_IT_number 2
_symmetry_cell_setting 'triclinic'
loop_
_space_group_symop_operation_xyz
x,y,z
-x,-y,-z
loop_
_atom_site_type_symbol
_atom_site_label
_atom_site_fract_x
_atom_site_fract_y
_atom_site_fract_z
Si Si1 0.081308 0.209246 0.471660
Si Si2 0.419288 0.117922 0.747323
Si Si3 0.231981 0.824941 0.887821
Si Si4 0.439991 0.506805 0.708918
Si Si5 0.618416 0.408761 0.657093
Si Si6 0.086457 0.271397 0.887577
Si Si7 0.837282 0.061859 0.152350
Si Si8 0.319469 0.133168 0.538412
O O1 0.259372 0.362908 0.604613
O O2 0.011529 0.233018 0.712788
O O3 0.967121 0.206984 0.415410
O O4 0.084046 0.031075 0.156434
O O5 0.312177 0.068954 0.594396
O O6 0.500000 0.000000 0.500000
O O7 0.304296 0.083605 0.905748
O O8 0.553411 0.311574 0.972661
O O9 0.319504 0.712590 0.667234
O O10 0.229894 0.847337 0.754890
O O11 0.049525 0.739333 0.927342
O O12 0.336038 0.004683 0.197279
O O13 0.500000 0.500000 0.500000
O O14 0.563323 0.491903 0.711134
O O15 0.471081 0.313822 0.708142
O O16 0.762423 0.544817 0.886028
O O17 0.150101 0.135796 0.640313
#
# Coordination Sequence:
#
# PCOD8034333 Si02
#       8
#     2   2   2   2   2   2   2   2
#     4  11  24  44  72 101 143 188 237 286 352 427
#     4  12  27  46  72 108 144 183 235 296 356 421
#     4  12  27  44  74 105 145 183 238 293 350 416
#     4  12  25  45  73 102 138 188 236 286 357 420
#     4  12  26  47  73 106 140 185 238 295 350 419
#     4  12  24  46  70 107 137 187 239 288 352 414
#     4  11  25  45  67 108 145 185 233 289 357 417
#     4  12  24  45  75 101 144 187 239 287 345 423
#
# _framework density 23.068911
#
# number of rings (size 3 to 8) (size 9 to 14) (size 15 to 20)
#    0.000    0.250    5.000    3.750    7.000    0.000 
#    0.000    1.250    0.000    0.000    0.000    0.000 
#    0.000    0.000    0.000    0.000    0.000    0.000 
#
# Total GULP energy -198460.001925 kJ/mol
# GULP energy per Si atom -12403.750120 kJ/mol
# Density = 2.301640 g / cm^3
# Si number density = 23.068911 Si / 1000 Ang^3
#
#
#
# Elastic Constant Matrix: (Units=GPa)
#
#
# Indices 1 2 3 4 5 6 
#
# 1 69.8899 49.6720 48.9290 10.1197 7.5759 -13.0878
# 2 49.6720 106.2369 30.1542 -9.4593 8.7933 -11.8014
# 3 48.9290 30.1542 105.4007 8.6112 2.4771 -14.4015
# 4 10.1197 -9.4593 8.6112 38.6067 2.6108 5.6901
# 5 7.5759 8.7933 2.4771 2.6108 51.5119 1.0537
# 6 -13.0878 -11.8014 -14.4015 5.6901 1.0537 35.9014
#
#
#
# Elastic Compliance Matrix: (Units=1/GPa)
#
#
# Indices 1 2 3 4 5 6 
#
# 1 0.033213 -0.012810 -0.010117 -0.010280 -0.001803 0.005521
# 2 -0.012810 0.015888 0.000812 0.007186 -0.001227 -0.000224
# 3 -0.010117 0.000812 0.014329 -0.000747 0.000648 0.002426
# 4 -0.010280 0.007186 -0.000747 0.031582 -0.001143 -0.006657
# 5 -0.001803 -0.001227 0.000648 -0.001143 0.019939 -0.001205
# 6 0.005521 -0.000224 0.002426 -0.006657 -0.001205 0.031857
#
#
# Mechanical properties :
#
#
# Convention : Reuss Voigt Hill
#
# Bulk Modulus (GPa) = 52.08029 59.89310 55.98669
# Shear Modulus (GPa) = 25.32443 35.38884 30.35664
#
# Velocity S-wave (km/s) = 3.31686 3.92094 3.63148
# Velocity P-wave (km/s) = 6.10686 6.82037 6.47345
#
# Compressibility (1/GPa) = 0.01920112
#
# Stress axis : x y z
#
# Youngs Moduli (GPa) = 30.10859 62.93912 69.78967
#
# Poissons Ratio (x) = 0.80627 0.70604
# Poissons Ratio (y) = 0.38570 -0.05670
# Poissons Ratio (z) = 0.30460 -0.05113
#
# Static dielectric constant tensor:
#      x y z
#    x 4.191600 0.086890 0.165070 
#    y 0.086890 1.283970 -0.193100 
#    z 0.165070 -0.193100 4.230050 
# 
# 
# High freq. dielectric constant tensor:
#      x y z
#    x 1.907370 -0.000030 0.015140 
#    y -0.000030 1.919930 -0.004360 
#    z 0.015140 -0.004360 1.923610 
# 
# From -- ./inp_files/280247.got.cif
#   From: 2010.06.25/outbox.cif.g09.slc.cpg/sg2_141_cif.got.tgz:280247.got - 2010.06.27 13:26:56.
