data_PCOD8034147
_publ_section_title
;
Structure prediction by ZEFSAII (Michael W. Deem and Ramdas Pophale) SiO2 
 PCOD8034147
Probable space group: P -1
;
_chemical_formula_sum "Si O2"
_cell_formula_units_Z 14
_cell_length_a 20.284064
_cell_length_b 8.400511
_cell_length_c 14.294074
_cell_angle_alpha 32.487790
_cell_angle_beta 151.439399
_cell_angle_gamma 130.436416
_cell_volume 583.694889
_symmetry_space_group_name_H-M "P -1"
_symmetry_group_IT_number 2
_symmetry_cell_setting 'triclinic'
loop_
_space_group_symop_operation_xyz
x,y,z
-x,-y,-z
loop_
_atom_site_type_symbol
_atom_site_label
_atom_site_fract_x
_atom_site_fract_y
_atom_site_fract_z
Si Si1 0.236249 0.843556 0.117585
Si Si2 0.781825 0.292993 0.157657
Si Si3 0.625679 0.552688 0.225130
Si Si4 0.049527 0.677250 0.812889
Si Si5 0.906788 0.218302 0.856041
Si Si6 0.652377 0.598666 0.032113
Si Si7 0.505140 0.299547 0.700346
O O1 0.135085 0.977810 0.016338
O O2 0.342666 0.479756 0.452507
O O3 0.136349 0.840842 0.905171
O O4 0.335309 0.054934 0.114268
O O5 0.853854 0.474157 0.085178
O O6 0.768026 0.413531 0.187607
O O7 0.620317 0.335944 0.899881
O O8 0.890912 0.932649 0.462206
O O9 0.758838 0.478215 0.499814
O O10 0.692906 0.421416 0.271097
O O11 0.515574 0.377077 0.211568
O O12 0.531891 0.928597 0.906898
O O13 0.008596 0.390665 0.947664
O O14 0.000000 0.000000 0.000000
O O15 0.500000 0.500000 0.500000
#
# Coordination Sequence:
#
# PCOD8034147 Si02
#       7
#     2   2   2   2   2   2   2
#     4  12  27  47  76 109 146 197 247 301 366 435
#     4  11  24  43  75 102 148 192 244 298 367 434
#     4  11  26  49  72 110 147 195 247 303 368 433
#     4  11  25  46  71 109 146 195 243 294 377 438
#     4  12  28  47  74 109 154 188 247 306 371 439
#     4  11  26  46  74 107 146 194 245 306 364 424
#     4  12  23  48  77 104 145 193 252 303 356 438
#
# _framework density 23.985132
#
# number of rings (size 3 to 8) (size 9 to 14) (size 15 to 20)
#    0.000    0.571    4.286    2.143    6.000    7.429 
#    0.000    0.000    0.000    0.000    0.000    0.000 
#    0.000    0.000    0.000    0.000    0.000    0.000 
#
# Total GULP energy -173497.604626 kJ/mol
# GULP energy per Si atom -12392.686045 kJ/mol
# Density = 2.393054 g / cm^3
# Si number density = 23.985132 Si / 1000 Ang^3
#
#
#
# Elastic Constant Matrix: (Units=GPa)
#
#
# Indices 1 2 3 4 5 6 
#
# 1 179.7315 49.4082 28.8014 -0.7807 10.2346 -2.3287
# 2 49.4082 141.7711 31.5920 4.6978 -4.6613 20.6383
# 3 28.8014 31.5920 61.2102 13.0362 -3.4355 7.4046
# 4 -0.7807 4.6978 13.0362 21.0776 3.2676 -4.0770
# 5 10.2346 -4.6613 -3.4355 3.2676 21.8191 -1.1259
# 6 -2.3287 20.6383 7.4046 -4.0770 -1.1259 40.7549
#
#
#
# Elastic Compliance Matrix: (Units=1/GPa)
#
#
# Indices 1 2 3 4 5 6 
#
# 1 0.007125 -0.002348 -0.003641 0.004297 -0.004929 0.002551
# 2 -0.002348 0.009247 -0.002587 -0.001830 0.002713 -0.004455
# 3 -0.003641 -0.002587 0.023818 -0.016292 0.007105 -0.004659
# 4 0.004297 -0.001830 -0.016292 0.062149 -0.013765 0.009969
# 5 -0.004929 0.002713 0.007105 -0.013765 0.051754 -0.002894
# 6 0.002551 -0.004455 -0.004659 0.009969 -0.002894 0.028702
#
#
# Mechanical properties :
#
#
# Convention : Reuss Voigt Hill
#
# Bulk Modulus (GPa) = 43.40642 66.92401 55.16521
# Shear Modulus (GPa) = 24.08184 34.92439 29.50311
#
# Velocity S-wave (km/s) = 3.17208 3.82001 3.51102
# Velocity P-wave (km/s) = 5.61718 6.88618 6.28379
#
# Compressibility (1/GPa) = 0.02303807
#
# Stress axis : x y z
#
# Youngs Moduli (GPa) = 140.34918 108.14831 41.98562
#
# Poissons Ratio (x) = 0.25388 0.15288
# Poissons Ratio (y) = 0.32948 0.10861
# Poissons Ratio (z) = 0.51106 0.27976
#
# Static dielectric constant tensor:
#      x y z
#    x 4.677360 0.135120 0.208210 
#    y 0.135120 4.279540 0.103680 
#    z 0.208210 0.103680 4.186450 
# 
# 
# High freq. dielectric constant tensor:
#      x y z
#    x 1.973990 0.002390 0.008400 
#    y 0.002390 1.953390 0.010980 
#    z 0.008400 0.010980 1.930110 
# 
# From -- ./inp_files/540377.got.cif
#   From: 2010.06.25/outbox.cif.g09.slc.cpg/sg2_271_cif.got.tgz:540377.got - 2010.06.27 13:26:56.
