data_PCOD8034023
_publ_section_title
;
Structure prediction by ZEFSAII (Michael W. Deem and Ramdas Pophale) SiO2 
 PCOD8034023
Probable space group: P -1
;
_chemical_formula_sum "Si O2"
_cell_formula_units_Z 16
_cell_length_a 13.585731
_cell_length_b 12.310237
_cell_length_c 11.901073
_cell_angle_alpha 96.630217
_cell_angle_beta 148.997678
_cell_angle_gamma 62.182955
_cell_volume 708.117619
_symmetry_space_group_name_H-M "P -1"
_symmetry_group_IT_number 2
_symmetry_cell_setting 'triclinic'
loop_
_space_group_symop_operation_xyz
x,y,z
-x,-y,-z
loop_
_atom_site_type_symbol
_atom_site_label
_atom_site_fract_x
_atom_site_fract_y
_atom_site_fract_z
Si Si1 0.363153 0.084211 0.258894
Si Si2 0.755899 0.322660 0.767641
Si Si3 0.088242 0.158141 0.537824
Si Si4 0.518313 0.828585 0.005980
Si Si5 0.303237 0.842326 0.459469
Si Si6 0.396815 0.674923 0.752074
Si Si7 0.692008 0.105584 0.953808
Si Si8 0.704220 0.331824 0.972767
O O1 0.489181 0.141526 0.335278
O O2 0.500000 0.000000 0.500000
O O3 0.430884 0.951846 0.230722
O O4 0.036060 0.239413 0.966164
O O5 0.500000 0.500000 0.500000
O O6 0.683691 0.225853 0.656102
O O7 0.817188 0.314832 0.958125
O O8 0.196863 0.233617 0.686465
O O9 0.890280 0.201136 0.449152
O O10 0.954237 0.217354 0.291321
O O11 0.349126 0.968039 0.763561
O O12 0.311626 0.906968 0.918133
O O13 0.595331 0.678849 0.011786
O O14 0.374132 0.721280 0.606838
O O15 0.996982 0.010090 0.199229
O O16 0.507132 0.506984 0.847418
O O17 0.535624 0.285373 0.794838
#
# Coordination Sequence:
#
# PCOD8034023 Si02
#       8
#     2   2   2   2   2   2   2   2
#     4  11  26  44  74 107 135 183 248 291 345 418
#     4  11  25  49  68 106 143 184 230 292 361 414
#     4  11  25  44  69 101 138 185 234 283 344 414
#     4  11  25  41  69 102 138 183 233 281 345 421
#     4  11  24  46  75 100 142 182 235 288 351 420
#     4  12  24  45  66 103 140 185 224 285 352 412
#     4  11  24  43  70 103 138 183 232 293 346 412
#     4  12  25  46  72  96 145 184 228 290 350 414
#
# _framework density 22.595116000000001
#
# number of rings (size 3 to 8) (size 9 to 14) (size 15 to 20)
#    0.000    0.750    3.750    3.000    7.000    3.000 
#    0.000    0.000    0.000    0.000    0.000    0.000 
#    0.000    0.000    0.000    0.000    0.000    0.000 
#
# Total GULP energy -198376.404662 kJ/mol
# GULP energy per Si atom -12398.525291 kJ/mol
# Density = 2.254369 g / cm^3
# Si number density = 22.595116 Si / 1000 Ang^3
#
#
#
# Elastic Constant Matrix: (Units=GPa)
#
#
# Indices 1 2 3 4 5 6 
#
# 1 90.8679 42.1728 42.3474 10.8201 -12.2767 6.9372
# 2 42.1728 165.9090 55.4206 20.0000 1.1735 12.8292
# 3 42.3474 55.4206 91.7836 9.6489 -13.5223 5.2053
# 4 10.8201 20.0000 9.6489 28.8196 9.3518 -5.7436
# 5 -12.2767 1.1735 -13.5223 9.3518 37.9738 12.4886
# 6 6.9372 12.8292 5.2053 -5.7436 12.4886 35.7523
#
#
#
# Elastic Compliance Matrix: (Units=1/GPa)
#
#
# Indices 1 2 3 4 5 6 
#
# 1 0.015922 -0.001342 -0.004423 -0.007012 0.007182 -0.005599
# 2 -0.001342 0.008436 -0.003793 -0.004714 0.000105 -0.003008
# 3 -0.004423 -0.003793 0.016860 -0.004220 0.006814 -0.003294
# 4 -0.007012 -0.004714 -0.004220 0.053781 -0.023630 0.020561
# 5 0.007182 0.000105 0.006814 -0.023630 0.043998 -0.021589
# 6 -0.005599 -0.003008 -0.003294 0.020561 -0.021589 0.041460
#
#
# Mechanical properties :
#
#
# Convention : Reuss Voigt Hill
#
# Bulk Modulus (GPa) = 45.24443 69.82688 57.53566
# Shear Modulus (GPa) = 24.16168 34.41711 29.28939
#
# Velocity S-wave (km/s) = 3.27361 3.90707 3.60428
# Velocity P-wave (km/s) = 5.86141 7.16409 6.54524
#
# Compressibility (1/GPa) = 0.02210217
#
# Stress axis : x y z
#
# Youngs Moduli (GPa) = 62.80670 118.54426 59.31202
#
# Poissons Ratio (x) = 0.15914 0.26232
# Poissons Ratio (y) = 0.08431 0.22494
# Poissons Ratio (z) = 0.27777 0.44959
#
# Static dielectric constant tensor:
#      x y z
#    x 4.079590 0.038890 -0.090310 
#    y 0.038890 4.440550 0.279840 
#    z -0.090310 0.279840 3.952270 
# 
# 
# High freq. dielectric constant tensor:
#      x y z
#    x 1.893590 -0.001450 -0.014510 
#    y -0.001450 1.912270 0.018730 
#    z -0.014510 0.018730 1.872840 
# 
# From -- ./inp_files/452517.got.cif
#   From: 2010.06.25/outbox.cif.g09.slc.cpg/sg2_227_cif.got.tgz:452517.got - 2010.06.27 13:26:56.
