data_PCOD8034134
_publ_section_title
;
Structure prediction by ZEFSAII (Michael W. Deem and Ramdas Pophale) SiO2 
 PCOD8034134
Probable space group: P -1
;
_chemical_formula_sum "Si O2"
_cell_formula_units_Z 16
_cell_length_a 32.162588
_cell_length_b 5.081338
_cell_length_c 9.669827
_cell_angle_alpha 107.236449
_cell_angle_beta 150.528400
_cell_angle_gamma 83.181271
_cell_volume 709.239199
_symmetry_space_group_name_H-M "P -1"
_symmetry_group_IT_number 2
_symmetry_cell_setting 'triclinic'
loop_
_space_group_symop_operation_xyz
x,y,z
-x,-y,-z
loop_
_atom_site_type_symbol
_atom_site_label
_atom_site_fract_x
_atom_site_fract_y
_atom_site_fract_z
Si Si1 0.842141 0.844655 0.523926
Si Si2 0.239167 0.588612 0.291072
Si Si3 0.282330 0.239799 0.598365
Si Si4 0.706452 0.606255 0.874055
Si Si5 0.036793 0.326551 0.688151
Si Si6 0.999700 0.370699 0.122623
Si Si7 0.557667 0.808198 0.771876
Si Si8 0.391271 0.958467 0.332962
O O1 0.780934 0.694375 0.453542
O O2 0.909277 0.706906 0.617945
O O3 0.779359 0.856044 0.211778
O O4 0.905056 0.128902 0.824448
O O5 0.296387 0.484873 0.558332
O O6 0.262171 0.518748 0.191537
O O7 0.245337 0.923669 0.373482
O O8 0.140673 0.401320 0.007049
O O9 0.377892 0.252969 0.936742
O O10 0.633869 0.762040 0.638464
O O11 0.673470 0.342942 0.845895
O O12 0.995361 0.373817 0.719537
O O13 0.000000 0.500000 0.500000
O O14 0.000000 0.000000 0.500000
O O15 0.000000 0.500000 0.000000
O O16 0.500000 0.500000 0.500000
O O17 0.612545 0.017789 0.842233
O O18 0.490805 0.970063 0.669815
#
# Coordination Sequence:
#
# PCOD8034134 Si02
#       8
#     2   2   2   2   2   2   2   2
#     4  11  25  43  71 103 139 185 244 304 357 414
#     4  12  28  47  68 107 150 190 244 285 373 431
#     4  12  26  47  74 104 145 192 231 308 356 430
#     4  12  26  46  72 104 144 193 234 297 360 430
#     4  12  27  48  73  99 145 201 241 294 358 432
#     4  11  26  43  68 105 140 181 248 305 350 422
#     4  11  24  45  78 112 137 183 240 295 363 432
#     4  11  24  43  74 106 140 174 246 290 341 443
#
# _framework density 22.559387000000001
#
# number of rings (size 3 to 8) (size 9 to 14) (size 15 to 20)
#    0.000    0.500    3.750    3.000   12.250    0.000 
#    0.000    3.750    0.000    0.000    0.000    0.000 
#    0.000    0.000    0.000    0.000    0.000    0.000 
#
# Total GULP energy -198237.296964 kJ/mol
# GULP energy per Si atom -12389.831060 kJ/mol
# Density = 2.250804 g / cm^3
# Si number density = 22.559387 Si / 1000 Ang^3
#
#
#
# Elastic Constant Matrix: (Units=GPa)
#
#
# Indices 1 2 3 4 5 6 
#
# 1 114.0851 73.9833 37.3961 -31.9332 -18.6083 -76.6858
# 2 73.9833 78.0011 36.0483 51.1777 5.2363 86.4506
# 3 37.3961 36.0483 91.1739 -23.0914 -7.9261 -27.0771
# 4 -31.9332 51.1777 -23.0914 -28.7239 -7.4417 -122.4889
# 5 -18.6083 5.2363 -7.9261 -7.4417 25.6488 -12.8788
# 6 -76.6858 86.4506 -27.0771 -122.4889 -12.8788 -145.1352
#
#
#
# Elastic Compliance Matrix: (Units=1/GPa)
#
#
# Indices 1 2 3 4 5 6 
#
# 1 0.009795 -0.002227 -0.004595 -0.005142 0.003823 -0.001644
# 2 -0.002227 0.008907 -0.000683 0.003611 -0.000774 0.003631
# 3 -0.004595 -0.000683 0.013028 0.001844 0.000363 -0.001998
# 4 -0.005142 0.003611 0.001844 0.016884 -0.003717 -0.009396
# 5 0.003823 -0.000774 0.000363 -0.003717 0.039490 -0.002916
# 6 -0.001644 0.003631 -0.001998 -0.009396 -0.002916 0.004703
#
#
# Mechanical properties :
#
#
# Convention : Reuss Voigt Hill
#
# Bulk Modulus (GPa) = 59.80893 64.23506 62.02199
# Shear Modulus (GPa) = 44.09562 -20.58657 11.75452
#
# Velocity S-wave (km/s) = 4.42593 -3.02412 2.28512
# Velocity P-wave (km/s) = 7.25864 4.04250 5.87493
#
# Compressibility (1/GPa) = 0.01671991
#
# Stress axis : x y z
#
# Youngs Moduli (GPa) = 102.09250 112.27284 76.75730
#
# Poissons Ratio (x) = 0.25006 0.35272
# Poissons Ratio (y) = 0.22738 0.05239
# Poissons Ratio (z) = 0.46914 0.07664
#
# Static dielectric constant tensor:
#      x y z
#    x 4.177870 -0.093250 0.130280 
#    y -0.093250 4.151580 -0.233990 
#    z 0.130280 -0.233990 4.049070 
# 
# 
# High freq. dielectric constant tensor:
#      x y z
#    x 1.895790 -0.007670 0.010410 
#    y -0.007670 1.897690 -0.011490 
#    z 0.010410 -0.011490 1.891310 
# 
# From -- ./inp_files/358271.got.cif
#   From: 2010.06.25/outbox.cif.g09.slc.cpg/sg2_180_cif.got.tgz:358271.got - 2010.06.27 13:26:56.
