data_PCOD8034038
_publ_section_title
;
Structure prediction by ZEFSAII (Michael W. Deem and Ramdas Pophale) SiO2 
 PCOD8034038
Probable space group: P -1
;
_chemical_formula_sum "Si O2"
_cell_formula_units_Z 14
_cell_length_a 16.755809
_cell_length_b 20.518456
_cell_length_c 5.093389
_cell_angle_alpha 81.643761
_cell_angle_beta 99.735235
_cell_angle_gamma 159.264623
_cell_volume 610.649367
_symmetry_space_group_name_H-M "P -1"
_symmetry_group_IT_number 2
_symmetry_cell_setting 'triclinic'
loop_
_space_group_symop_operation_xyz
x,y,z
-x,-y,-z
loop_
_atom_site_type_symbol
_atom_site_label
_atom_site_fract_x
_atom_site_fract_y
_atom_site_fract_z
Si Si1 0.213800 0.623081 0.158463
Si Si2 0.958441 0.619936 0.410332
Si Si3 0.545819 0.381501 0.069854
Si Si4 0.374501 0.877609 0.252812
Si Si5 0.369790 0.113244 0.019752
Si Si6 0.394586 0.490320 0.496238
Si Si7 0.112882 0.868978 0.515166
O O1 0.147514 0.516345 0.386270
O O2 0.373018 0.797072 0.296085
O O3 0.364648 0.706587 0.958512
O O4 0.000000 0.500000 0.000000
O O5 0.776956 0.523488 0.206511
O O6 0.116136 0.706856 0.225340
O O7 0.090624 0.772414 0.585179
O O8 0.468826 0.372159 0.266062
O O9 0.357715 0.182260 0.033221
O O10 0.586156 0.450521 0.784175
O O11 0.500000 0.000000 0.500000
O O12 0.500000 0.000000 0.000000
O O13 0.251246 0.007806 0.741573
O O14 0.243959 0.978489 0.252920
O O15 0.500000 0.500000 0.500000
O O16 0.131882 0.282060 0.547749
#
# Coordination Sequence:
#
# PCOD8034038 Si02
#       7
#     2   2   2   2   2   2   2
#     4  12  26  44  67  97 136 184 232 285 334 386
#     4  11  24  45  66  94 131 181 232 273 330 410
#     4  11  24  44  71  98 133 179 218 266 331 404
#     4  12  26  43  63  95 132 175 226 290 341 378
#     4  12  24  44  66 100 136 175 226 277 328 395
#     4  11  24  47  74 104 135 172 218 268 331 412
#     4  11  24  43  70  98 130 176 220 275 336 397
#
# _framework density 22.926414000000001
#
# number of rings (size 3 to 8) (size 9 to 14) (size 15 to 20)
#    0.000    0.571    0.000    9.429    0.000    5.714 
#    0.000    4.286    0.000    0.000    0.000    0.000 
#    0.000    0.000    0.000    0.000    0.000    0.000 
#
# Total GULP energy -173649.846924 kJ/mol
# GULP energy per Si atom -12403.560495 kJ/mol
# Density = 2.287423 g / cm^3
# Si number density = 22.926414 Si / 1000 Ang^3
#
#
#
# Elastic Constant Matrix: (Units=GPa)
#
#
# Indices 1 2 3 4 5 6 
#
# 1 141.0191 76.1187 51.5545 -23.5130 -27.7724 -22.0727
# 2 76.1187 74.2219 8.9539 -36.7653 10.2516 6.7697
# 3 51.5545 8.9539 69.9731 -35.6990 -1.6793 32.4922
# 4 -23.5130 -36.7653 -35.6990 42.6752 -6.1491 -4.0504
# 5 -27.7724 10.2516 -1.6793 -6.1491 34.5507 -5.8386
# 6 -22.0727 6.7697 32.4922 -4.0504 -5.8386 18.7352
#
#
#
# Elastic Compliance Matrix: (Units=1/GPa)
#
#
# Indices 1 2 3 4 5 6 
#
# 1 0.001953 0.003103 0.009371 0.010524 0.000861 -0.012529
# 2 0.003103 0.011174 -0.012064 0.003799 0.003039 0.022309
# 3 0.009371 -0.012064 0.005224 0.002151 0.013616 0.011048
# 4 0.010524 0.003799 0.002151 0.038914 0.017962 0.021306
# 5 0.000861 0.003039 0.013616 0.017962 0.030869 -0.010195
# 6 -0.012529 0.022309 0.011048 0.021306 -0.010195 0.012822
#
#
# Mechanical properties :
#
#
# Convention : Reuss Voigt Hill
#
# Bulk Modulus (GPa) = 52.15983 62.05204 57.10594
# Shear Modulus (GPa) = 46.93683 29.09804 38.01743
#
# Velocity S-wave (km/s) = 4.52960 3.56644 4.07656
# Velocity P-wave (km/s) = 7.08214 6.63956 6.86442
#
# Compressibility (1/GPa) = 0.01917184
#
# Stress axis : x y z
#
# Youngs Moduli (GPa) = 511.93854 89.49602 191.41456
#
# Poissons Ratio (x) = -0.27770 -1.79383
# Poissons Ratio (y) = -1.58852 2.30924
# Poissons Ratio (z) = -4.79759 1.07969
#
# Static dielectric constant tensor:
#      x y z
#    x 4.877740 -0.187230 0.186440 
#    y -0.187230 4.615560 0.165400 
#    z 0.186440 0.165400 4.650290 
# 
# 
# High freq. dielectric constant tensor:
#      x y z
#    x 1.909760 -0.020500 -0.019370 
#    y -0.020500 1.918540 0.000200 
#    z -0.019370 0.000200 1.914090 
# 
# From -- ./inp_files/112408.got.cif
#   From: 2010.06.25/outbox.cif.g09.slc.cpg/sg2_57_cif.got.tgz:112408.got - 2010.06.27 13:26:56.
