data_PCOD8034810
_publ_section_title
;
Structure prediction by ZEFSAII (Michael W. Deem and Ramdas Pophale) SiO2 
 PCOD8034810
Probable space group: P -1
;
_chemical_formula_sum "Si O2"
_cell_formula_units_Z 16
_cell_length_a 20.328472
_cell_length_b 9.146364
_cell_length_c 12.206008
_cell_angle_alpha 38.363564
_cell_angle_beta 28.925751
_cell_angle_gamma 48.269382
_cell_volume 679.670364
_symmetry_space_group_name_H-M "P -1"
_symmetry_group_IT_number 2
_symmetry_cell_setting 'triclinic'
loop_
_space_group_symop_operation_xyz
x,y,z
-x,-y,-z
loop_
_atom_site_type_symbol
_atom_site_label
_atom_site_fract_x
_atom_site_fract_y
_atom_site_fract_z
Si Si1 0.965476 0.034355 0.349953
Si Si2 0.166485 0.601030 0.544611
Si Si3 0.971746 0.190918 0.022681
Si Si4 0.456051 0.851151 0.044174
Si Si5 0.626835 0.484917 0.098937
Si Si6 0.222423 0.790225 0.117845
Si Si7 0.198592 0.370744 0.046439
Si Si8 0.588440 0.855795 0.267797
O O1 0.959700 0.272707 0.289921
O O2 0.907236 0.827412 0.635313
O O3 0.896653 0.060249 0.314142
O O4 0.118192 0.982717 0.126519
O O5 0.303032 0.712619 0.343111
O O6 0.174143 0.642993 0.380247
O O7 0.114293 0.322641 0.786300
O O8 0.870762 0.382741 0.012122
O O9 0.000000 0.000000 0.000000
O O10 0.559902 0.644631 0.010480
O O11 0.500000 0.000000 0.000000
O O12 0.481778 0.036755 0.799657
O O13 0.515205 0.296575 0.418748
O O14 0.757768 0.377901 0.915638
O O15 0.680702 0.625079 0.043577
O O16 0.368746 0.921979 0.849366
O O17 0.275762 0.282874 0.877439
#
# Coordination Sequence:
#
# PCOD8034810 Si02
#       8
#     2   2   2   2   2   2   2   2
#     4  12  24  48  78 104 145 192 243 303 369 426
#     4  11  24  47  76 108 144 193 243 301 360 438
#     4  12  29  45  71 115 148 189 242 301 368 437
#     4  11  24  47  74 106 141 188 247 296 359 430
#     4  12  27  43  72 104 148 194 229 300 364 432
#     4  11  24  46  71 105 148 184 238 304 365 425
#     4  12  25  47  74 107 146 190 246 301 360 434
#     4  11  25  46  72 104 141 191 245 293 354 441
#
# _framework density 23.540824000000001
#
# number of rings (size 3 to 8) (size 9 to 14) (size 15 to 20)
#    0.000    0.500    5.000    3.000    5.250    4.000 
#    4.500    0.000    0.000    0.000    0.000    0.000 
#    0.000    0.000    0.000    0.000    0.000    0.000 
#
# Total GULP energy -198223.239467 kJ/mol
# GULP energy per Si atom -12388.952467 kJ/mol
# Density = 2.348724 g / cm^3
# Si number density = 23.540824 Si / 1000 Ang^3
#
#
#
# Elastic Constant Matrix: (Units=GPa)
#
#
# Indices 1 2 3 4 5 6 
#
# 1 242.6549 107.3653 91.8353 -37.5537 -82.9645 39.1429
# 2 107.3653 161.8779 76.2340 -8.8468 -23.4931 17.4554
# 3 91.8353 76.2340 89.0688 2.2988 -26.8416 26.8387
# 4 -37.5537 -8.8468 2.2988 32.7581 29.1996 -11.9173
# 5 -82.9645 -23.4931 -26.8416 29.1996 89.2815 -28.1646
# 6 39.1429 17.4554 26.8387 -11.9173 -28.1646 51.3679
#
#
#
# Elastic Compliance Matrix: (Units=1/GPa)
#
#
# Indices 1 2 3 4 5 6 
#
# 1 0.011359 -0.002193 -0.009186 0.009565 0.004603 0.001632
# 2 -0.002193 0.011583 -0.009145 0.004212 -0.002437 0.002154
# 3 -0.009186 -0.009145 0.033140 -0.021653 0.002713 -0.010743
# 4 0.009565 0.004212 -0.021653 0.059002 -0.012906 0.009206
# 5 0.004603 -0.002437 0.002713 -0.012906 0.021325 0.004601
# 6 0.001632 0.002154 -0.010743 0.009206 0.004601 0.027763
#
#
# Mechanical properties :
#
#
# Convention : Reuss Voigt Hill
#
# Bulk Modulus (GPa) = 66.51978 116.05230 91.28604
# Shear Modulus (GPa) = 23.78345 49.22597 36.50471
#
# Velocity S-wave (km/s) = 3.18198 4.57780 3.94216
# Velocity P-wave (km/s) = 6.46673 8.79472 7.71899
#
# Compressibility (1/GPa) = 0.01503312
#
# Stress axis : x y z
#
# Youngs Moduli (GPa) = 88.03876 86.33475 30.17516
#
# Poissons Ratio (x) = 0.18931 0.27719
# Poissons Ratio (y) = 0.19305 0.27596
# Poissons Ratio (z) = 0.80874 0.78954
#
# Static dielectric constant tensor:
#      x y z
#    x 7.652690 -1.419670 -2.495050 
#    y -1.419670 4.986230 0.903450 
#    z -2.495050 0.903450 6.340200 
# 
# 
# High freq. dielectric constant tensor:
#      x y z
#    x 1.943040 0.001530 0.005100 
#    y 0.001530 1.935180 -0.007540 
#    z 0.005100 -0.007540 1.929220 
# 
# From -- ./inp_files/278739.got.cif
#   From: 2010.06.25/outbox.cif.g09.slc.cpg/sg2_140_cif.got.tgz:278739.got - 2010.06.27 13:26:56.
