data_PCOD8034584
_publ_section_title
;
Structure prediction by ZEFSAII (Michael W. Deem and Ramdas Pophale) SiO2 
 PCOD8034584
Probable space group: P -1
;
_chemical_formula_sum "Si O2"
_cell_formula_units_Z 12
_cell_length_a 8.763665
_cell_length_b 5.677558
_cell_length_c 14.731148
_cell_angle_alpha 44.103660
_cell_angle_beta 98.169443
_cell_angle_gamma 88.941997
_cell_volume 497.152416
_symmetry_space_group_name_H-M "P -1"
_symmetry_group_IT_number 2
_symmetry_cell_setting 'triclinic'
loop_
_space_group_symop_operation_xyz
x,y,z
-x,-y,-z
loop_
_atom_site_type_symbol
_atom_site_label
_atom_site_fract_x
_atom_site_fract_y
_atom_site_fract_z
Si Si1 0.115874 0.354237 0.630827
Si Si2 0.922248 0.415644 0.111459
Si Si3 0.352948 0.776528 0.489767
Si Si4 0.097597 0.411234 0.304661
Si Si5 0.576180 0.799426 0.971972
Si Si6 0.628896 0.303454 0.691537
O O1 0.287122 0.415367 0.598267
O O2 0.000000 0.500000 0.500000
O O3 0.058484 0.582962 0.651620
O O4 0.113521 0.965305 0.768818
O O5 0.053266 0.475077 0.178767
O O6 0.759135 0.669658 0.043394
O O7 0.000000 0.500000 0.000000
O O8 0.523517 0.695061 0.576972
O O9 0.379765 0.853242 0.365567
O O10 0.218953 0.068876 0.435129
O O11 0.190006 0.711867 0.261669
O O12 0.548826 0.087179 0.814252
O O13 0.500000 0.500000 0.000000
O O14 0.500000 0.000000 0.000000
#
# Coordination Sequence:
#
# PCOD8034584 Si02
#       6
#     2   2   2   2   2   2
#     4  12  24  44  71 110 146 190 255 319 382 458
#     4  12  29  49  79 108 156 204 263 324 388 468
#     4  11  24  45  71 108 148 191 252 320 389 463
#     4  12  24  44  76 108 147 196 254 315 395 454
#     4  12  31  54  78 113 158 211 264 320 393 474
#     4  11  26  46  73 105 153 197 252 317 390 464
#
# _framework density 24.137467000000001
#
# number of rings (size 3 to 8) (size 9 to 14) (size 15 to 20)
#    0.000    0.333    3.333    4.000    9.333    1.333 
#    0.000    0.000    0.000    0.000    0.000    0.000 
#    0.000    0.000    0.000    0.000    0.000    0.000 
#
# Total GULP energy -148682.709034 kJ/mol
# GULP energy per Si atom -12390.225753 kJ/mol
# Density = 2.408253 g / cm^3
# Si number density = 24.137467 Si / 1000 Ang^3
#
#
#
# Elastic Constant Matrix: (Units=GPa)
#
#
# Indices 1 2 3 4 5 6 
#
# 1 109.1966 27.9727 45.2410 15.8677 10.7533 -18.7315
# 2 27.9727 90.3436 43.0117 14.3537 -1.4696 -24.2436
# 3 45.2410 43.0117 147.1349 15.8523 -11.4226 -16.3975
# 4 15.8677 14.3537 15.8523 36.7150 -7.9473 8.2381
# 5 10.7533 -1.4696 -11.4226 -7.9473 54.2046 7.9212
# 6 -18.7315 -24.2436 -16.3975 8.2381 7.9212 46.0670
#
#
#
# Elastic Compliance Matrix: (Units=1/GPa)
#
#
# Indices 1 2 3 4 5 6 
#
# 1 0.012965 0.000134 -0.002964 -0.006928 -0.005146 0.006411
# 2 0.000134 0.016196 -0.003117 -0.007729 -0.002740 0.009322
# 3 -0.002964 -0.003117 0.008898 -0.000879 0.002236 0.000094
# 4 -0.006928 -0.007729 -0.000879 0.039116 0.009015 -0.015743
# 5 -0.005146 -0.002740 0.002236 0.009015 0.022386 -0.008200
# 6 0.006411 0.009322 0.000094 -0.015743 -0.008200 0.033479
#
#
# Mechanical properties :
#
#
# Convention : Reuss Voigt Hill
#
# Bulk Modulus (GPa) = 38.21880 64.34732 51.28306
# Shear Modulus (GPa) = 32.54032 42.76064 37.65048
#
# Velocity S-wave (km/s) = 3.67567 4.21354 3.95376
# Velocity P-wave (km/s) = 5.82084 7.09848 6.49117
#
# Compressibility (1/GPa) = 0.02616513
#
# Stress axis : x y z
#
# Youngs Moduli (GPa) = 77.13262 61.74315 112.38533
#
# Poissons Ratio (x) = -0.00830 0.33314
# Poissons Ratio (y) = -0.01037 0.35031
# Poissons Ratio (z) = 0.22864 0.19246
#
# Static dielectric constant tensor:
#      x y z
#    x 4.940660 0.131660 -0.020290 
#    y 0.131660 4.524020 -0.028420 
#    z -0.020290 -0.028420 4.780380 
# 
# 
# High freq. dielectric constant tensor:
#      x y z
#    x 1.979830 -0.005870 0.005730 
#    y -0.005870 1.950400 0.000900 
#    z 0.005730 0.000900 1.977030 
# 
# From -- ./inp_files/26498.got.cif
#   From: 2010.06.25/outbox.cif.g09.slc.cpg/sg2_14_cif.got.tgz:26498.got - 2010.06.27 13:26:56.
