data_PCOD8035240
_publ_section_title
;
Structure prediction by ZEFSAII (Michael W. Deem and Ramdas Pophale) SiO2 
 PCOD8035240
Probable space group: P -1
;
_chemical_formula_sum "Si O2"
_cell_formula_units_Z 12
_cell_length_a 7.744961
_cell_length_b 10.415003
_cell_length_c 16.837097
_cell_angle_alpha 148.368574
_cell_angle_beta 57.983042
_cell_angle_gamma 129.065742
_cell_volume 552.964276
_symmetry_space_group_name_H-M "P -1"
_symmetry_group_IT_number 2
_symmetry_cell_setting 'triclinic'
loop_
_space_group_symop_operation_xyz
x,y,z
-x,-y,-z
loop_
_atom_site_type_symbol
_atom_site_label
_atom_site_fract_x
_atom_site_fract_y
_atom_site_fract_z
Si Si1 0.305654 0.775802 0.334717
Si Si2 0.425505 0.720420 0.546894
Si Si3 0.911007 0.194085 0.886184
Si Si4 0.974620 0.223784 0.068923
Si Si5 0.548144 0.237625 0.255335
Si Si6 0.790181 0.051045 0.393868
O O1 0.152056 0.804703 0.458636
O O2 0.189737 0.495190 0.172180
O O3 0.349353 0.014740 0.386268
O O4 0.545308 0.802280 0.325962
O O5 0.457298 0.460393 0.371087
O O6 0.365336 0.710508 0.648483
O O7 0.218107 0.735399 0.557041
O O8 0.646007 0.055549 0.864804
O O9 0.973809 0.153837 0.939758
O O10 0.018932 0.047374 0.724367
O O11 0.000000 0.500000 0.000000
O O12 0.751151 0.263884 0.163294
O O13 0.000000 0.000000 0.000000
#
# Coordination Sequence:
#
# PCOD8035240 Si02
#       6
#     2   2   2   2   2   2
#     4   9  22  43  72  92 124 177 224 264 318 396
#     4   9  21  43  69  97 125 173 222 279 312 392
#     4  12  28  43  68  97 140 177 213 274 332 401
#     4  12  28  43  68  97 140 177 213 274 332 401
#     4  11  25  41  65 103 132 168 223 278 329 376
#     4   9  22  43  72  92 124 177 224 264 318 396
#
# _framework density 21.701219999999999
#
# number of rings (size 3 to 8) (size 9 to 14) (size 15 to 20)
#    1.000    0.667    0.000    2.500   11.667    2.000 
#    0.000    0.000    0.000    0.000    0.000    0.000 
#    0.000    0.000    0.000    0.000    0.000    0.000 
#
# Total GULP energy -148798.706474 kJ/mol
# GULP energy per Si atom -12399.892206 kJ/mol
# Density = 2.165183 g / cm^3
# Si number density = 21.701220 Si / 1000 Ang^3
#
#
#
# Elastic Constant Matrix: (Units=GPa)
#
#
# Indices 1 2 3 4 5 6 
#
# 1 34.9171 7.3416 -1.3344 -2.1210 -13.3194 -5.7585
# 2 7.3416 76.6500 17.5746 10.1918 -3.2193 -5.3507
# 3 -1.3344 17.5746 63.8173 -2.0283 -3.6042 0.3717
# 4 -2.1210 10.1918 -2.0283 50.2905 -3.8860 3.0409
# 5 -13.3194 -3.2193 -3.6042 -3.8860 31.2611 7.6361
# 6 -5.7585 -5.3507 0.3717 3.0409 7.6361 39.3767
#
#
#
# Elastic Compliance Matrix: (Units=1/GPa)
#
#
# Indices 1 2 3 4 5 6 
#
# 1 0.035815 -0.003781 0.002754 0.003478 0.015261 0.001470
# 2 -0.003781 0.014985 -0.004420 -0.003621 -0.001541 0.002104
# 3 0.002754 -0.004420 0.017198 0.002024 0.003232 -0.001143
# 4 0.003478 -0.003621 0.002024 0.021358 0.004620 -0.002548
# 5 0.015261 -0.001541 0.003232 0.004620 0.040813 -0.006279
# 6 0.001470 0.002104 -0.001143 -0.002548 -0.006279 0.027322
#
#
# Mechanical properties :
#
#
# Convention : Reuss Voigt Hill
#
# Bulk Modulus (GPa) = 17.51188 24.72755 21.11971
# Shear Modulus (GPa) = 26.67814 34.30582 30.49198
#
# Velocity S-wave (km/s) = 3.51000 3.98027 3.75251
# Velocity P-wave (km/s) = 4.95114 5.70462 5.34118
#
# Compressibility (1/GPa) = 0.05710411
#
# Stress axis : x y z
#
# Youngs Moduli (GPa) = 27.92162 66.73122 58.14579
#
# Poissons Ratio (x) = 0.25229 -0.16013
# Poissons Ratio (y) = 0.10556 0.25702
# Poissons Ratio (z) = -0.07689 0.29497
#
# Static dielectric constant tensor:
#      x y z
#    x 3.648130 -0.085080 0.034790 
#    y -0.085080 3.951580 -0.009150 
#    z 0.034790 -0.009150 3.862120 
# 
# 
# High freq. dielectric constant tensor:
#      x y z
#    x 1.840930 -0.004360 0.006330 
#    y -0.004360 1.860320 -0.002860 
#    z 0.006330 -0.002860 1.853840 
# 
# From -- ./inp_files/560135.got.cif
#   From: 2010.06.25/outbox.cif.g09.slc.cpg/sg2_281_cif.got.tgz:560135.got - 2010.06.27 13:26:56.
