data_PCOD8035480
_publ_section_title
;
Structure prediction by ZEFSAII (Michael W. Deem and Ramdas Pophale) SiO2 
 PCOD8035480
Probable space group: P -1
;
_chemical_formula_sum "Si O2"
_cell_formula_units_Z 14
_cell_length_a 8.788823
_cell_length_b 18.874895
_cell_length_c 4.884129
_cell_angle_alpha 66.600565
_cell_angle_beta 66.221073
_cell_angle_gamma 48.716576
_cell_volume 546.937064
_symmetry_space_group_name_H-M "P -1"
_symmetry_group_IT_number 2
_symmetry_cell_setting 'triclinic'
loop_
_space_group_symop_operation_xyz
x,y,z
-x,-y,-z
loop_
_atom_site_type_symbol
_atom_site_label
_atom_site_fract_x
_atom_site_fract_y
_atom_site_fract_z
Si Si1 0.217917 0.971105 0.972573
Si Si2 0.043830 0.172431 0.613041
Si Si3 0.806747 0.417549 0.121613
Si Si4 0.590615 0.151435 0.478241
Si Si5 0.152469 0.237128 0.918915
Si Si6 0.632195 0.294007 0.477215
Si Si7 0.213883 0.476147 0.494839
O O1 0.399165 0.883504 0.784765
O O2 0.202611 0.067103 0.791096
O O3 0.247102 0.942317 0.313214
O O4 0.000000 0.000000 0.000000
O O5 0.146373 0.171845 0.254312
O O6 0.803891 0.209865 0.689511
O O7 0.023674 0.247116 0.729535
O O8 0.710511 0.358894 0.264127
O O9 0.822812 0.450844 0.355748
O O10 0.043069 0.344454 0.952273
O O11 0.684405 0.507579 0.864541
O O12 0.634764 0.231785 0.319515
O O13 0.377987 0.194908 0.718827
O O14 0.391319 0.366911 0.638142
O O15 0.000000 0.500000 0.500000
#
# Coordination Sequence:
#
# PCOD8035480 Si02
#       7
#     2   2   2   2   2   2   2
#     4  12  26  44  71 102 144 177 243 282 350 399
#     4  11  25  45  70  98 141 187 229 295 337 419
#     4  11  25  46  71 100 142 179 226 285 340 418
#     4  12  27  44  72 103 138 187 229 295 337 415
#     4  11  25  46  70 104 141 180 237 281 356 398
#     4  11  26  44  72 101 138 185 233 275 353 408
#     4  12  26  46  72 104 139 177 228 288 344 407
#
# _framework density 25.597093000000001
#
# number of rings (size 3 to 8) (size 9 to 14) (size 15 to 20)
#    0.000    0.571    1.429    6.000    4.000    9.143 
#    0.000    0.000    0.000    0.000    0.000    0.000 
#    0.000    0.000    0.000    0.000    0.000    0.000 
#
# Total GULP energy -173445.353539 kJ/mol
# GULP energy per Si atom -12388.953824 kJ/mol
# Density = 2.553883 g / cm^3
# Si number density = 25.597093 Si / 1000 Ang^3
#
#
#
# Elastic Constant Matrix: (Units=GPa)
#
#
# Indices 1 2 3 4 5 6 
#
# 1 96.6432 41.3816 27.1975 6.7361 6.2313 4.4462
# 2 41.3816 132.2365 12.0063 5.1433 -1.1601 7.4174
# 3 27.1975 12.0063 79.0253 16.5102 3.7076 13.9150
# 4 6.7361 5.1433 16.5102 27.2757 5.6891 -1.5176
# 5 6.2313 -1.1601 3.7076 5.6891 27.5571 9.0151
# 6 4.4462 7.4174 13.9150 -1.5176 9.0151 38.8363
#
#
#
# Elastic Compliance Matrix: (Units=1/GPa)
#
#
# Indices 1 2 3 4 5 6 
#
# 1 0.013315 -0.003926 -0.004274 0.000808 -0.003274 0.001548
# 2 -0.003926 0.008935 0.000594 -0.001646 0.002192 -0.002043
# 3 -0.004274 0.000594 0.017327 -0.010585 0.003126 -0.006972
# 4 0.000808 -0.001646 -0.010585 0.045952 -0.011055 0.008376
# 5 -0.003274 0.002192 0.003126 -0.011055 0.042751 -0.011520
# 6 0.001548 -0.002043 -0.006972 0.008376 -0.011520 0.031461
#
#
# Mechanical properties :
#
#
# Convention : Reuss Voigt Hill
#
# Bulk Modulus (GPa) = 41.04035 52.11952 46.57994
# Shear Modulus (GPa) = 27.31147 33.88845 30.59996
#
# Velocity S-wave (km/s) = 3.27000 3.64252 3.46127
# Velocity P-wave (km/s) = 5.50684 6.17222 5.84900
#
# Compressibility (1/GPa) = 0.02436626
#
# Stress axis : x y z
#
# Youngs Moduli (GPa) = 75.10590 111.92509 57.71301
#
# Poissons Ratio (x) = 0.43937 0.24665
# Poissons Ratio (y) = 0.29483 -0.03430
# Poissons Ratio (z) = 0.32099 -0.06653
#
# Static dielectric constant tensor:
#      x y z
#    x 4.736900 -0.140200 0.199350 
#    y -0.140200 5.676760 -0.414550 
#    z 0.199350 -0.414550 5.104910 
# 
# 
# High freq. dielectric constant tensor:
#      x y z
#    x 2.026940 -0.000380 0.003390 
#    y -0.000380 2.038990 -0.005550 
#    z 0.003390 -0.005550 2.015080 
# 
# From -- ./inp_files/43582.got.cif
#   From: 2010.06.25/outbox.cif.g09.slc.cpg/sg2_22_cif.got.tgz:43582.got - 2010.06.27 13:26:56.
