data_PCOD8035176
_publ_section_title
;
Structure prediction by ZEFSAII (Michael W. Deem and Ramdas Pophale) SiO2 
 PCOD8035176
Probable space group: P -1
;
_chemical_formula_sum "Si O2"
_cell_formula_units_Z 10
_cell_length_a 13.304666
_cell_length_b 16.204421
_cell_length_c 11.127027
_cell_angle_alpha 22.972586
_cell_angle_beta 34.948581
_cell_angle_gamma 26.129883
_cell_volume 412.008670
_symmetry_space_group_name_H-M "P -1"
_symmetry_group_IT_number 2
_symmetry_cell_setting 'triclinic'
loop_
_space_group_symop_operation_xyz
x,y,z
-x,-y,-z
loop_
_atom_site_type_symbol
_atom_site_label
_atom_site_fract_x
_atom_site_fract_y
_atom_site_fract_z
Si Si1 0.820932 0.201764 0.166902
Si Si2 0.836612 0.751561 0.149397
Si Si3 0.527687 0.307675 0.832805
Si Si4 0.684986 0.398214 0.784593
Si Si5 0.023936 0.682664 0.812823
O O1 0.578888 0.352355 0.264062
O O2 0.796314 0.177921 0.079869
O O3 0.001411 0.905189 0.450995
O O4 0.926424 0.355591 0.875914
O O5 0.821075 0.511734 0.486147
O O6 0.837030 0.830777 0.903730
O O7 0.620417 0.018338 0.073052
O O8 0.500000 0.500000 0.500000
O O9 0.700677 0.250241 0.845273
O O10 0.272655 0.474618 0.911274
O O11 0.000000 0.500000 0.000000
#
# Coordination Sequence:
#
# PCOD8035176 Si02
#       5
#     2   2   2   2   2
#     4  11  24  49  71 104 148 183 234 295 347 421
#     4  12  25  47  76 103 141 188 237 287 352 417
#     4  12  24  45  73 105 140 185 237 286 347 422
#     4  11  26  47  73 105 144 187 234 290 353 416
#     4  12  25  47  75 106 141 187 237 292 350 417
#
# _framework density 24.271335000000001
#
# number of rings (size 3 to 8) (size 9 to 14) (size 15 to 20)
#    0.000    0.400    4.000    4.800    0.000    3.200 
#    3.600    3.000    0.000    0.000    0.000    0.000 
#    0.000    0.000    0.000    0.000    0.000    0.000 
#
# Total GULP energy -124018.289784 kJ/mol
# GULP energy per Si atom -12401.828978 kJ/mol
# Density = 2.421609 g / cm^3
# Si number density = 24.271335 Si / 1000 Ang^3
#
#
#
# Elastic Constant Matrix: (Units=GPa)
#
#
# Indices 1 2 3 4 5 6 
#
# 1 173.2058 41.3621 55.5207 3.7792 7.1682 14.4829
# 2 41.3621 93.3421 38.3994 2.6701 5.1164 1.2688
# 3 55.5207 38.3994 85.8318 9.7621 6.0552 8.5319
# 4 3.7792 2.6701 9.7621 28.3214 -0.1233 -2.5502
# 5 7.1682 5.1164 6.0552 -0.1233 50.7056 9.5131
# 6 14.4829 1.2688 8.5319 -2.5502 9.5131 46.9513
#
#
#
# Elastic Compliance Matrix: (Units=1/GPa)
#
#
# Indices 1 2 3 4 5 6 
#
# 1 0.007596 -0.001685 -0.004045 0.000403 -0.000136 -0.001513
# 2 -0.001685 0.013581 -0.005155 0.000834 -0.000756 0.001288
# 3 -0.004045 -0.005155 0.017395 -0.005146 -0.000637 -0.001924
# 4 0.000403 0.000834 -0.005146 0.037203 0.000038 0.002801
# 5 -0.000136 -0.000756 -0.000637 0.000038 0.020644 -0.004003
# 6 -0.001513 0.001288 -0.001924 0.002801 -0.004003 0.023043
#
#
# Mechanical properties :
#
#
# Convention : Reuss Voigt Hill
#
# Bulk Modulus (GPa) = 59.52238 69.21600 64.36919
# Shear Modulus (GPa) = 34.05181 39.66881 36.86031
#
# Velocity S-wave (km/s) = 3.74968 4.04714 3.90125
# Velocity P-wave (km/s) = 6.58208 7.10061 6.84626
#
# Compressibility (1/GPa) = 0.01680040
#
# Stress axis : x y z
#
# Youngs Moduli (GPa) = 131.64793 73.63261 57.48656
#
# Poissons Ratio (x) = 0.12409 0.23256
# Poissons Ratio (y) = 0.22186 0.29636
# Poissons Ratio (z) = 0.53257 0.37960
#
# Static dielectric constant tensor:
#      x y z
#    x 4.836840 -0.369210 0.157100 
#    y -0.369210 4.987610 0.141990 
#    z 0.157100 0.141990 4.201840 
# 
# 
# High freq. dielectric constant tensor:
#      x y z
#    x 1.985790 -0.002400 0.004190 
#    y -0.002400 1.969750 0.021160 
#    z 0.004190 0.021160 1.946940 
# 
# From -- ./inp_files/143901.got.cif
#   From: 2010.06.25/outbox.cif.g09.slc.cpg/sg2_72_cif.got.tgz:143901.got - 2010.06.27 13:26:56.
