data_PCOD8035707
_publ_section_title
;
Structure prediction by ZEFSAII (Michael W. Deem and Ramdas Pophale) SiO2 
 PCOD8035707
Probable space group: P -1
;
_chemical_formula_sum "Si O2"
_cell_formula_units_Z 16
_cell_length_a 6.690302
_cell_length_b 17.059200
_cell_length_c 14.008016
_cell_angle_alpha 33.468192
_cell_angle_beta 97.911649
_cell_angle_gamma 115.050537
_cell_volume 720.558311
_symmetry_space_group_name_H-M "P -1"
_symmetry_group_IT_number 2
_symmetry_cell_setting 'triclinic'
loop_
_space_group_symop_operation_xyz
x,y,z
-x,-y,-z
loop_
_atom_site_type_symbol
_atom_site_label
_atom_site_fract_x
_atom_site_fract_y
_atom_site_fract_z
Si Si1 0.221112 0.872740 0.224925
Si Si2 0.962025 0.469909 0.330000
Si Si3 0.620192 0.378638 0.937461
Si Si4 0.018763 0.908356 0.502841
Si Si5 0.513860 0.373912 0.275004
Si Si6 0.787934 0.152766 0.968933
Si Si7 0.225609 0.690539 0.805179
Si Si8 0.846993 0.912900 0.860435
O O1 0.156437 0.867738 0.115351
O O2 0.109049 0.679617 0.448007
O O3 0.085507 0.939847 0.208284
O O4 0.509944 0.005466 0.127134
O O5 0.122136 0.475975 0.244476
O O6 0.133430 0.652784 0.208503
O O7 0.703080 0.427351 0.319710
O O8 0.514451 0.467797 0.903220
O O9 0.653098 0.256787 0.134885
O O10 0.424245 0.259491 0.963391
O O11 0.758751 0.787060 0.556162
O O12 0.150077 0.815193 0.637972
O O13 0.000000 0.000000 0.500000
O O14 0.179620 0.043556 0.294064
O O15 0.591961 0.315755 0.247647
O O16 0.950043 0.127048 0.078328
O O17 0.000000 0.500000 0.000000
#
# Coordination Sequence:
#
# PCOD8035707 Si02
#       8
#     2   2   2   2   2   2   2   2
#     4  11  25  46  73 104 142 177 235 294 348 423
#     4  12  24  44  72 104 140 182 235 285 357 417
#     4  12  25  41  71  98 138 187 231 286 346 414
#     4  12  29  44  69 107 138 183 236 292 349 410
#     4  12  23  44  68  96 137 187 231 284 345 410
#     4  11  25  47  73 104 137 188 228 290 361 414
#     4  12  25  42  65  96 136 184 233 281 342 413
#     4  12  25  46  69 100 142 180 233 289 352 417
#
# _framework density 22.205006000000001
#
# number of rings (size 3 to 8) (size 9 to 14) (size 15 to 20)
#    0.000    0.250    5.000    4.125    3.500    3.000 
#    0.000    0.625    0.000    0.000    0.000    0.000 
#    0.000    0.000    0.000    0.000    0.000    0.000 
#
# Total GULP energy -198350.918746 kJ/mol
# GULP energy per Si atom -12396.932422 kJ/mol
# Density = 2.215447 g / cm^3
# Si number density = 22.205006 Si / 1000 Ang^3
#
#
#
# Elastic Constant Matrix: (Units=GPa)
#
#
# Indices 1 2 3 4 5 6 
#
# 1 109.2607 36.7078 48.0761 -4.4885 8.9516 -1.3267
# 2 36.7078 92.9652 32.0877 -8.1907 1.9788 -7.4502
# 3 48.0761 32.0877 127.5978 -4.0203 8.7726 -3.2617
# 4 -4.4885 -8.1907 -4.0203 38.1446 0.9522 -4.0760
# 5 8.9516 1.9788 8.7726 0.9522 32.7811 -5.1922
# 6 -1.3267 -7.4502 -3.2617 -4.0760 -5.1922 49.5142
#
#
#
# Elastic Compliance Matrix: (Units=1/GPa)
#
#
# Indices 1 2 3 4 5 6 
#
# 1 0.012074 -0.003535 -0.003513 0.000278 -0.002255 -0.000653
# 2 -0.003535 0.013171 -0.001916 0.002407 0.000939 0.002057
# 3 -0.003513 -0.001916 0.009759 0.000255 -0.001525 0.000121
# 4 0.000278 0.002407 0.000255 0.027081 -0.000673 0.002545
# 5 -0.002255 0.000939 -0.001525 -0.000673 0.032012 0.003282
# 6 -0.000653 0.002057 0.000121 0.002545 0.003282 0.021050
#
#
# Mechanical properties :
#
#
# Convention : Reuss Voigt Hill
#
# Bulk Modulus (GPa) = 58.56610 62.61853 60.59232
# Shear Modulus (GPa) = 36.03159 38.28479 37.15819
#
# Velocity S-wave (km/s) = 4.03262 4.15679 4.09518
# Velocity P-wave (km/s) = 6.93651 7.16240 7.05036
#
# Compressibility (1/GPa) = 0.01707472
#
# Stress axis : x y z
#
# Youngs Moduli (GPa) = 82.82197 75.92529 102.47228
#
# Poissons Ratio (x) = 0.26838 0.36001
# Poissons Ratio (y) = 0.29276 0.19638
# Poissons Ratio (z) = 0.29097 0.14551
#
# Static dielectric constant tensor:
#      x y z
#    x 4.286650 0.563820 0.974110 
#    y 0.563820 4.651620 1.083090 
#    z 0.974110 1.083090 6.276760 
# 
# 
# High freq. dielectric constant tensor:
#      x y z
#    x 1.887450 0.006940 -0.004250 
#    y 0.006940 1.882100 -0.011890 
#    z -0.004250 -0.011890 1.870880 
# 
# From -- ./inp_files/53648.got.cif
#   From: 2010.06.25/outbox.cif.g09.slc.cpg/sg2_27_cif.got.tgz:53648.got - 2010.06.27 13:26:56.
