data_PCOD8035793
_publ_section_title
;
Structure prediction by ZEFSAII (Michael W. Deem and Ramdas Pophale) SiO2 
 PCOD8035793
Probable space group: P -1
;
_chemical_formula_sum "Si O2"
_cell_formula_units_Z 14
_cell_length_a 9.770883
_cell_length_b 8.771536
_cell_length_c 9.157789
_cell_angle_alpha 72.090886
_cell_angle_beta 64.259480
_cell_angle_gamma 67.809113
_cell_volume 644.866213
_symmetry_space_group_name_H-M "P -1"
_symmetry_group_IT_number 2
_symmetry_cell_setting 'triclinic'
loop_
_space_group_symop_operation_xyz
x,y,z
-x,-y,-z
loop_
_atom_site_type_symbol
_atom_site_label
_atom_site_fract_x
_atom_site_fract_y
_atom_site_fract_z
Si Si1 0.933533 0.559879 0.787697
Si Si2 0.773445 0.323256 0.791998
Si Si3 0.343526 0.952796 0.542274
Si Si4 0.791762 0.705263 0.109877
Si Si5 0.189479 0.945552 0.915998
Si Si6 0.531748 0.349477 0.640128
Si Si7 0.962960 0.841969 0.491071
O O1 0.800685 0.495786 0.785240
O O2 0.006339 0.678936 0.620778
O O3 0.076151 0.397754 0.809171
O O4 0.855611 0.670366 0.927913
O O5 0.637295 0.374026 0.719583
O O6 0.934763 0.202227 0.688802
O O7 0.729244 0.218315 0.976818
O O8 0.255408 0.894581 0.737078
O O9 0.379200 0.814632 0.441416
O O10 0.500000 0.000000 0.500000
O O11 0.221452 0.115844 0.480009
O O12 0.633365 0.653122 0.214743
O O13 0.748991 0.901666 0.102789
O O14 0.000000 0.000000 0.000000
O O15 0.500000 0.500000 0.500000
O O16 0.000000 0.000000 0.500000
#
# Coordination Sequence:
#
# PCOD8035793 Si02
#       7
#     2   2   2   2   2   2   2
#     4  11  26  43  74 103 142 187 245 296 354 430
#     4  12  26  45  74 106 140 195 238 293 359 431
#     4  12  27  46  72 105 142 190 234 302 360 415
#     4  11  25  47  70 107 145 190 237 303 359 422
#     4  12  24  46  75 106 144 184 245 290 357 431
#     4  12  29  47  70 104 151 186 239 304 365 420
#     4  12  24  44  71 104 139 187 241 287 353 432
#
# _framework density 21.709928000000001
#
# number of rings (size 3 to 8) (size 9 to 14) (size 15 to 20)
#    0.000    0.286    5.714    2.143    4.000    2.286 
#    0.000    0.000    0.000    0.000    0.000    0.000 
#    0.000    0.000    0.000    0.000    0.000    0.000 
#
# Total GULP energy -173679.684380 kJ/mol
# GULP energy per Si atom -12405.691741 kJ/mol
# Density = 2.166052 g / cm^3
# Si number density = 21.709928 Si / 1000 Ang^3
#
#
#
# Elastic Constant Matrix: (Units=GPa)
#
#
# Indices 1 2 3 4 5 6 
#
# 1 136.8909 8.5984 26.5003 -6.9277 7.8411 5.5853
# 2 8.5984 58.9873 17.8084 -14.5877 9.1395 16.8420
# 3 26.5003 17.8084 105.0475 -14.2858 7.1112 -4.3937
# 4 -6.9277 -14.5877 -14.2858 37.8457 1.0269 -9.1952
# 5 7.8411 9.1395 7.1112 1.0269 37.9329 5.9559
# 6 5.5853 16.8420 -4.3937 -9.1952 5.9559 35.0804
#
#
#
# Elastic Compliance Matrix: (Units=1/GPa)
#
#
# Indices 1 2 3 4 5 6 
#
# 1 0.007803 0.000064 -0.001890 0.000478 -0.001099 -0.001198
# 2 0.000064 0.022395 -0.003241 0.005283 -0.003502 -0.009189
# 3 -0.001890 -0.003241 0.011386 0.003869 -0.001790 0.004601
# 4 0.000478 0.005283 0.003869 0.031791 -0.004040 0.006891
# 5 -0.001099 -0.003502 -0.001790 -0.004040 0.028549 -0.004274
# 6 -0.001198 -0.009189 0.004601 0.006891 -0.004274 0.036216
#
#
# Mechanical properties :
#
#
# Convention : Reuss Voigt Hill
#
# Bulk Modulus (GPa) = 31.79880 45.19332 38.49606
# Shear Modulus (GPa) = 31.49457 38.70637 35.10047
#
# Velocity S-wave (km/s) = 3.81294 4.22701 4.02530
# Velocity P-wave (km/s) = 5.83640 6.68472 6.27491
#
# Compressibility (1/GPa) = 0.03144773
#
# Stress axis : x y z
#
# Youngs Moduli (GPa) = 128.15640 44.65367 87.83068
#
# Poissons Ratio (x) = -0.00284 0.16599
# Poissons Ratio (y) = -0.00816 0.28470
# Poissons Ratio (z) = 0.24220 0.14474
#
# Static dielectric constant tensor:
#      x y z
#    x 4.404960 0.230400 0.355630 
#    y 0.230400 4.082010 0.192840 
#    z 0.355630 0.192840 4.464060 
# 
# 
# High freq. dielectric constant tensor:
#      x y z
#    x 1.860390 0.005590 0.002840 
#    y 0.005590 1.857170 0.003190 
#    z 0.002840 0.003190 1.869450 
# 
# From -- ./inp_files/157097.got.cif
#   From: 2010.06.25/outbox.cif.g09.slc.cpg/sg2_79_cif.got.tgz:157097.got - 2010.06.27 13:26:56.
