data_PCOD8035946
_publ_section_title
;
Structure prediction by ZEFSAII (Michael W. Deem and Ramdas Pophale) SiO2 
 PCOD8035946
Probable space group: P -1
;
_chemical_formula_sum "Si O2"
_cell_formula_units_Z 12
_cell_length_a 15.697104
_cell_length_b 10.382515
_cell_length_c 15.712931
_cell_angle_alpha 153.847361
_cell_angle_beta 152.246766
_cell_angle_gamma 31.626561
_cell_volume 504.838204
_symmetry_space_group_name_H-M "P -1"
_symmetry_group_IT_number 2
_symmetry_cell_setting 'triclinic'
loop_
_space_group_symop_operation_xyz
x,y,z
-x,-y,-z
loop_
_atom_site_type_symbol
_atom_site_label
_atom_site_fract_x
_atom_site_fract_y
_atom_site_fract_z
Si Si1 0.977191 0.523681 0.893413
Si Si2 0.602819 0.207652 0.763986
Si Si3 0.356631 0.233258 0.953719
Si Si4 0.930372 0.146550 0.139282
Si Si5 0.319807 0.787371 0.517693
Si Si6 0.265612 0.211254 0.568136
O O1 0.161670 0.362358 0.907479
O O2 0.830888 0.329226 0.629748
O O3 0.000000 0.500000 0.000000
O O4 0.891727 0.874546 0.999324
O O5 0.477300 0.247042 0.762917
O O6 0.500000 0.000000 0.500000
O O7 0.554219 0.497801 0.832383
O O8 0.829759 0.127552 0.946099
O O9 0.343549 0.075646 0.759625
O O10 0.500000 0.000000 0.000000
O O11 0.842055 0.471477 0.296586
O O12 0.158939 0.132473 0.339005
O O13 0.500000 0.500000 0.500000
O O14 0.259841 0.921470 0.449854
#
# Coordination Sequence:
#
# PCOD8035946 Si02
#       6
#     2   2   2   2   2   2
#     4  12  26  47  77 106 149 199 249 309 381 449
#     4  12  28  47  75 110 152 195 255 310 387 448
#     4  12  30  48  71 111 153 197 254 314 376 458
#     4  11  25  48  75 108 148 197 257 308 381 452
#     4  12  26  49  78 110 151 198 256 308 383 455
#     4  11  25  48  77 109 144 204 248 317 380 447
#
# _framework density 23.769992999999999
#
# number of rings (size 3 to 8) (size 9 to 14) (size 15 to 20)
#    0.000    0.333    3.333    4.000    9.333    2.667 
#    0.000    0.000    0.000    0.000    0.000    0.000 
#    0.000    0.000    0.000    0.000    0.000    0.000 
#
# Total GULP energy -148660.202563 kJ/mol
# GULP energy per Si atom -12388.350214 kJ/mol
# Density = 2.371589 g / cm^3
# Si number density = 23.769993 Si / 1000 Ang^3
#
#
#
# Elastic Constant Matrix: (Units=GPa)
#
#
# Indices 1 2 3 4 5 6 
#
# 1 80.5690 44.7638 48.8600 4.1593 12.0154 3.4878
# 2 44.7638 174.6259 78.2123 14.7508 10.3135 17.5164
# 3 48.8600 78.2123 162.4319 -1.2459 10.0292 1.7564
# 4 4.1593 14.7508 -1.2459 49.5695 13.8762 2.4019
# 5 12.0154 10.3135 10.0292 13.8762 62.7040 -0.7867
# 6 3.4878 17.5164 1.7564 2.4019 -0.7867 38.3992
#
#
#
# Elastic Compliance Matrix: (Units=1/GPa)
#
#
# Indices 1 2 3 4 5 6 
#
# 1 0.016262 -0.002390 -0.003608 -0.000139 -0.002118 -0.000257
# 2 -0.002390 0.008318 -0.003271 -0.002215 0.000062 -0.003288
# 3 -0.003608 -0.003271 0.008847 0.001581 -0.000519 0.001306
# 4 -0.000139 -0.002215 0.001581 0.022252 -0.004793 -0.000539
# 5 -0.002118 0.000062 -0.000519 -0.004793 0.017498 0.000846
# 6 -0.000257 -0.003288 0.001306 -0.000539 0.000846 0.027557
#
#
# Mechanical properties :
#
#
# Convention : Reuss Voigt Hill
#
# Bulk Modulus (GPa) = 67.17122 84.58877 75.88000
# Shear Modulus (GPa) = 40.24632 46.52058 43.38345
#
# Velocity S-wave (km/s) = 4.11926 4.42873 4.27679
# Velocity P-wave (km/s) = 7.13755 7.86226 7.50865
#
# Compressibility (1/GPa) = 0.01488733
#
# Stress axis : x y z
#
# Youngs Moduli (GPa) = 61.49305 120.22761 113.03196
#
# Poissons Ratio (x) = 0.28734 0.40786
# Poissons Ratio (y) = 0.14696 0.36977
# Poissons Ratio (z) = 0.22189 0.39331
#
# Static dielectric constant tensor:
#      x y z
#    x 3.516790 -1.976760 0.826570 
#    y -1.976760 -1.825020 2.289580 
#    z 0.826570 2.289580 4.181730 
# 
# 
# High freq. dielectric constant tensor:
#      x y z
#    x 1.951240 -0.001010 -0.001040 
#    y -0.001010 1.952710 0.005070 
#    z -0.001040 0.005070 1.972670 
# 
# From -- ./inp_files/181988.got.cif
#   From: 2010.06.25/outbox.cif.g09.slc.cpg/sg2_91_cif.got.tgz:181988.got - 2010.06.27 13:26:56.
