data_PCOD8035873
_publ_section_title
;
Structure prediction by ZEFSAII (Michael W. Deem and Ramdas Pophale) SiO2 
 PCOD8035873
Probable space group: P -1
;
_chemical_formula_sum "Si O2"
_cell_formula_units_Z 16
_cell_length_a 14.738694
_cell_length_b 8.790463
_cell_length_c 8.652436
_cell_angle_alpha 64.857863
_cell_angle_beta 137.167399
_cell_angle_gamma 102.455085
_cell_volume 681.494318
_symmetry_space_group_name_H-M "P -1"
_symmetry_group_IT_number 2
_symmetry_cell_setting 'triclinic'
loop_
_space_group_symop_operation_xyz
x,y,z
-x,-y,-z
loop_
_atom_site_type_symbol
_atom_site_label
_atom_site_fract_x
_atom_site_fract_y
_atom_site_fract_z
Si Si1 0.792422 0.648867 0.118380
Si Si2 0.964700 0.314493 0.084747
Si Si3 0.578134 0.849213 0.259081
Si Si4 0.537548 0.813581 0.564757
Si Si5 0.732876 0.256624 0.622750
Si Si6 0.942667 0.278991 0.431441
Si Si7 0.624531 0.567678 0.201456
Si Si8 0.163274 0.007191 0.388185
O O1 0.832091 0.448062 0.227165
O O2 0.690446 0.690086 0.116599
O O3 0.929458 0.724493 0.290878
O O4 0.697347 0.735260 0.822426
O O5 0.992714 0.268586 0.319926
O O6 0.811307 0.293508 0.860632
O O7 0.044626 0.165066 0.141465
O O8 0.000000 0.500000 0.000000
O O9 0.505736 0.822440 0.340571
O O10 0.578759 0.671108 0.252492
O O11 0.724448 0.896399 0.442611
O O12 0.500000 0.000000 0.000000
O O13 0.427360 0.714864 0.550411
O O14 0.500000 0.000000 0.500000
O O15 0.744347 0.410573 0.453071
O O16 0.790239 0.081952 0.679461
O O17 0.873858 0.121184 0.470194
O O18 0.500000 0.500000 0.000000
#
# Coordination Sequence:
#
# PCOD8035873 Si02
#       8
#     2   2   2   2   2   2   2   2
#     4  11  25  47  76 107 155 194 261 307 383 450
#     4  12  29  47  73 110 154 193 259 317 379 456
#     4  12  28  46  76 106 153 196 252 314 385 451
#     4  12  27  45  74 115 150 197 252 320 378 453
#     4  12  26  46  75 107 146 197 249 312 385 450
#     4  11  27  47  78 108 148 210 248 317 377 455
#     4  12  24  48  72 106 149 199 245 311 379 451
#     4  12  26  50  73 110 144 203 253 311 389 452
#
# _framework density 23.477819
#
# number of rings (size 3 to 8) (size 9 to 14) (size 15 to 20)
#    0.000    0.250    3.750    4.500    8.750    0.500 
#    0.000    0.000    0.000    0.000    0.000    0.000 
#    0.000    0.000    0.000    0.000    0.000    0.000 
#
# Total GULP energy -198333.070656 kJ/mol
# GULP energy per Si atom -12395.816916 kJ/mol
# Density = 2.342438 g / cm^3
# Si number density = 23.477819 Si / 1000 Ang^3
#
#
#
# Elastic Constant Matrix: (Units=GPa)
#
#
# Indices 1 2 3 4 5 6 
#
# 1 105.8634 37.4653 23.8691 3.6679 -9.6248 -6.4620
# 2 37.4653 146.0337 45.4628 2.9993 0.6170 -14.4307
# 3 23.8691 45.4628 134.7030 1.5116 6.3966 -6.0550
# 4 3.6679 2.9993 1.5116 44.4069 -1.0477 3.6827
# 5 -9.6248 0.6170 6.3966 -1.0477 40.3990 2.3429
# 6 -6.4620 -14.4307 -6.0550 3.6827 2.3429 42.3464
#
#
#
# Elastic Compliance Matrix: (Units=1/GPa)
#
#
# Indices 1 2 3 4 5 6 
#
# 1 0.010864 -0.002343 -0.001232 -0.000681 0.002767 0.000589
# 2 -0.002343 0.008396 -0.002290 -0.000493 -0.000467 0.002245
# 3 -0.001232 -0.002290 0.008509 -0.000100 -0.001628 0.000347
# 4 -0.000681 -0.000493 -0.000100 0.022817 0.000587 -0.002303
# 5 0.002767 -0.000467 -0.001628 0.000587 0.025776 -0.001447
# 6 0.000589 0.002245 0.000347 -0.002303 -0.001447 0.024800
#
#
# Mechanical properties :
#
#
# Convention : Reuss Voigt Hill
#
# Bulk Modulus (GPa) = 62.34576 66.68829 64.51702
# Shear Modulus (GPa) = 42.28783 44.08399 43.18591
#
# Velocity S-wave (km/s) = 4.24864 4.33793 4.29352
# Velocity P-wave (km/s) = 7.11904 7.31824 7.21933
#
# Compressibility (1/GPa) = 0.01603958
#
# Stress axis : x y z
#
# Youngs Moduli (GPa) = 92.04479 119.10902 117.52504
#
# Poissons Ratio (x) = 0.27911 0.14473
# Poissons Ratio (y) = 0.21569 0.26910
# Poissons Ratio (z) = 0.11336 0.27273
#
# Static dielectric constant tensor:
#      x y z
#    x 4.444850 0.021400 0.207850 
#    y 0.021400 4.240370 -0.072100 
#    z 0.207850 -0.072100 4.332360 
# 
# 
# High freq. dielectric constant tensor:
#      x y z
#    x 1.933720 0.001440 0.001250 
#    y 0.001440 1.937930 -0.002430 
#    z 0.001250 -0.002430 1.941460 
# 
# From -- ./inp_files/298040.got.cif
#   From: 2010.06.25/outbox.cif.g09.slc.cpg/sg2_150_cif.got.tgz:298040.got - 2010.06.27 13:26:56.
