data_PCOD8035736
_publ_section_title
;
Structure prediction by ZEFSAII (Michael W. Deem and Ramdas Pophale) SiO2 
 PCOD8035736
Probable space group: P -1
;
_chemical_formula_sum "Si O2"
_cell_formula_units_Z 14
_cell_length_a 8.326710
_cell_length_b 16.412886
_cell_length_c 11.427670
_cell_angle_alpha 147.844747
_cell_angle_beta 74.580415
_cell_angle_gamma 125.971894
_cell_volume 567.367390
_symmetry_space_group_name_H-M "P -1"
_symmetry_group_IT_number 2
_symmetry_cell_setting 'triclinic'
loop_
_space_group_symop_operation_xyz
x,y,z
-x,-y,-z
loop_
_atom_site_type_symbol
_atom_site_label
_atom_site_fract_x
_atom_site_fract_y
_atom_site_fract_z
Si Si1 0.285749 0.867604 0.148024
Si Si2 0.270394 0.972645 0.653238
Si Si3 0.072271 0.192705 0.293886
Si Si4 0.576785 0.744342 0.538659
Si Si5 0.898846 0.689474 0.175362
Si Si6 0.421645 0.355562 0.970179
Si Si7 0.234937 0.592269 0.623639
O O1 0.034990 0.686615 0.042285
O O2 0.504613 0.994960 0.351600
O O3 0.295918 0.039771 0.295491
O O4 0.311715 0.748298 0.905252
O O5 0.153846 0.874685 0.684531
O O6 0.092945 0.830957 0.409614
O O7 0.358382 0.204840 0.906222
O O8 0.227083 0.241931 0.433221
O O9 0.206142 0.399199 0.436706
O O10 0.000000 0.000000 0.000000
O O11 0.423516 0.534294 0.230164
O O12 0.433963 0.727970 0.651778
O O13 0.669474 0.454913 0.988388
O O14 0.784848 0.774666 0.248484
O O15 0.000000 0.500000 0.500000
#
# Coordination Sequence:
#
# PCOD8035736 Si02
#       7
#     2   2   2   2   2   2   2
#     4  12  27  44  70 105 147 188 226 294 355 423
#     4  12  25  47  69 107 144 181 237 291 355 413
#     4  12  24  44  74 102 138 185 237 291 345 419
#     4  12  24  46  71 102 138 184 239 288 351 412
#     4  11  26  46  71 104 145 185 239 284 353 418
#     4  11  25  46  75 102 137 189 240 291 342 417
#     4  12  25  46  69 106 143 182 235 293 357 415
#
# _framework density 24.675370000000001
#
# number of rings (size 3 to 8) (size 9 to 14) (size 15 to 20)
#    0.000    0.286    1.429    7.714    4.000    0.571 
#    0.000    0.000    0.000    0.000    0.000    0.000 
#    0.000    0.000    0.000    0.000    0.000    0.000 
#
# Total GULP energy -173582.115099 kJ/mol
# GULP energy per Si atom -12398.722507 kJ/mol
# Density = 2.461921 g / cm^3
# Si number density = 24.675370 Si / 1000 Ang^3
#
#
#
# Elastic Constant Matrix: (Units=GPa)
#
#
# Indices 1 2 3 4 5 6 
#
# 1 134.6420 22.3476 32.7796 3.4752 30.1726 -0.3227
# 2 22.3476 117.7519 33.1956 -12.6465 4.8047 26.6266
# 3 32.7796 33.1956 94.2398 0.2281 2.0057 -4.8842
# 4 3.4752 -12.6465 0.2281 22.9505 -0.8806 -1.9831
# 5 30.1726 4.8047 2.0057 -0.8806 43.1062 7.0970
# 6 -0.3227 26.6266 -4.8842 -1.9831 7.0970 54.9254
#
#
#
# Elastic Compliance Matrix: (Units=1/GPa)
#
#
# Indices 1 2 3 4 5 6 
#
# 1 0.009947 -0.001377 -0.002754 -0.002392 -0.006942 0.001292
# 2 -0.001377 0.011904 -0.004062 0.006323 0.000949 -0.006034
# 3 -0.002754 -0.004062 0.013128 -0.001653 0.001259 0.002898
# 4 -0.002392 0.006323 -0.001653 0.047367 0.002313 -0.001815
# 5 -0.006942 0.000949 0.001259 0.002313 0.028599 -0.004001
# 6 0.001292 -0.006034 0.002898 -0.001815 -0.004001 0.021849
#
#
# Mechanical properties :
#
#
# Convention : Reuss Voigt Hill
#
# Bulk Modulus (GPa) = 53.78960 58.14215 55.96588
# Shear Modulus (GPa) = 32.17966 41.41714 36.79840
#
# Velocity S-wave (km/s) = 3.61518 4.10137 3.86593
# Velocity P-wave (km/s) = 6.26676 6.78545 6.53125
#
# Compressibility (1/GPa) = 0.01859096
#
# Stress axis : x y z
#
# Youngs Moduli (GPa) = 100.53507 84.00577 76.17529
#
# Poissons Ratio (x) = 0.11568 0.20981
# Poissons Ratio (y) = 0.13844 0.30945
# Poissons Ratio (z) = 0.27690 0.34126
#
# Static dielectric constant tensor:
#      x y z
#    x 4.217730 -0.604330 0.372410 
#    y -0.604330 3.971340 -0.055860 
#    z 0.372410 -0.055860 4.456520 
# 
# 
# High freq. dielectric constant tensor:
#      x y z
#    x 1.994190 0.001900 0.019540 
#    y 0.001900 2.003240 -0.002420 
#    z 0.019540 -0.002420 1.970630 
# 
# From -- ./inp_files/289168.got.cif
#   From: 2010.06.25/outbox.cif.g09.slc.cpg/sg2_145_cif.got.tgz:289168.got - 2010.06.27 13:26:56.
