data_PCOD8035352
_publ_section_title
;
Structure prediction by ZEFSAII (Michael W. Deem and Ramdas Pophale) SiO2 
 PCOD8035352
Probable space group: P -1
;
_chemical_formula_sum "Si O2"
_cell_formula_units_Z 14
_cell_length_a 15.298031
_cell_length_b 12.349791
_cell_length_c 5.155169
_cell_angle_alpha 121.519558
_cell_angle_beta 100.808818
_cell_angle_gamma 44.270560
_cell_volume 550.258762
_symmetry_space_group_name_H-M "P -1"
_symmetry_group_IT_number 2
_symmetry_cell_setting 'triclinic'
loop_
_space_group_symop_operation_xyz
x,y,z
-x,-y,-z
loop_
_atom_site_type_symbol
_atom_site_label
_atom_site_fract_x
_atom_site_fract_y
_atom_site_fract_z
Si Si1 0.138771 0.290224 0.281872
Si Si2 0.268913 0.486437 0.915586
Si Si3 0.988543 0.208639 0.103909
Si Si4 0.858614 0.177018 0.401921
Si Si5 0.449793 0.797747 0.433938
Si Si6 0.619130 0.281830 0.220272
Si Si7 0.709887 0.799259 0.245535
O O1 0.246045 0.223089 0.462712
O O2 0.000000 0.500000 0.500000
O O3 0.114533 0.165846 0.160129
O O4 0.181125 0.273029 0.989949
O O5 0.136362 0.580411 0.812304
O O6 0.392334 0.381140 0.662525
O O7 0.312289 0.330585 0.950910
O O8 0.232500 0.662586 0.231496
O O9 0.942480 0.198437 0.336901
O O10 0.036045 0.044122 0.729034
O O11 0.756547 0.214273 0.195377
O O12 0.374729 0.832091 0.693675
O O13 0.420174 0.979098 0.599503
O O14 0.403594 0.760983 0.121183
O O15 0.500000 0.500000 0.500000
#
# Coordination Sequence:
#
# PCOD8035352 Si02
#       7
#     2   2   2   2   2   2   2
#     4  12  25  49  74 104 142 189 237 292 351 423
#     4  12  26  44  70 100 144 184 236 290 358 416
#     4  11  25  44  69 102 139 184 236 295 355 420
#     4  11  25  44  69 102 139 184 236 295 355 420
#     4  12  27  47  74 106 143 188 238 291 351 420
#     4  12  25  49  74 104 142 189 237 292 351 423
#     4  12  27  47  74 106 143 188 238 291 351 420
#
# _framework density 25.442574
#
# number of rings (size 3 to 8) (size 9 to 14) (size 15 to 20)
#    0.000    0.286    2.857    6.000    4.000    0.000 
#    0.000    2.857    0.000    0.000    0.000    0.000 
#    0.000    0.000    0.000    0.000    0.000    0.000 
#
# Total GULP energy -173593.969837 kJ/mol
# GULP energy per Si atom -12399.569274 kJ/mol
# Density = 2.538467 g / cm^3
# Si number density = 25.442574 Si / 1000 Ang^3
#
#
#
# Elastic Constant Matrix: (Units=GPa)
#
#
# Indices 1 2 3 4 5 6 
#
# 1 97.4255 3.0963 14.1008 -3.8502 -14.7880 7.3160
# 2 3.0963 84.3017 19.2128 12.8137 -0.4668 14.1965
# 3 14.1008 19.2128 91.0241 12.3498 -7.5465 1.2447
# 4 -3.8502 12.8137 12.3498 51.1615 0.6121 0.1969
# 5 -14.7880 -0.4668 -7.5465 0.6121 33.3398 3.5827
# 6 7.3160 14.1965 1.2447 0.1969 3.5827 39.2049
#
#
#
# Elastic Compliance Matrix: (Units=1/GPa)
#
#
# Indices 1 2 3 4 5 6 
#
# 1 0.011482 0.000228 -0.001528 0.001126 0.005013 -0.002640
# 2 0.000228 0.013669 -0.002447 -0.002801 0.000320 -0.004930
# 3 -0.001528 -0.002447 0.012237 -0.002483 0.002038 0.000609
# 4 0.001126 -0.002801 -0.002483 0.020935 -0.000575 0.000830
# 5 0.005013 0.000320 0.002038 -0.000575 0.033139 -0.004142
# 6 -0.002640 -0.004930 0.000609 0.000830 -0.004142 0.028140
#
#
# Mechanical properties :
#
#
# Convention : Reuss Voigt Hill
#
# Bulk Modulus (GPa) = 33.45118 38.39678 35.92398
# Shear Modulus (GPa) = 36.48048 40.49734 38.48891
#
# Velocity S-wave (km/s) = 3.79071 3.99396 3.89366
# Velocity P-wave (km/s) = 5.68644 6.03268 5.86212
#
# Compressibility (1/GPa) = 0.02989431
#
# Stress axis : x y z
#
# Youngs Moduli (GPa) = 87.09385 73.15831 81.72159
#
# Poissons Ratio (x) = -0.01666 0.12485
# Poissons Ratio (y) = -0.01983 0.19993
# Poissons Ratio (z) = 0.13306 0.17898
#
# Static dielectric constant tensor:
#      x y z
#    x 5.254280 0.145050 0.153480 
#    y 0.145050 4.789500 0.385770 
#    z 0.153480 0.385770 4.674790 
# 
# 
# High freq. dielectric constant tensor:
#      x y z
#    x 2.021630 0.006450 0.000970 
#    y 0.006450 2.020950 0.031830 
#    z 0.000970 0.031830 2.022090 
# 
# From -- ./inp_files/68809.got.cif
#   From: 2010.06.25/outbox.cif.g09.slc.cpg/sg2_35_cif.got.tgz:68809.got - 2010.06.27 13:26:56.
