data_PCOD8035627
_publ_section_title
;
Structure prediction by ZEFSAII (Michael W. Deem and Ramdas Pophale) SiO2 
 PCOD8035627
Probable space group: P -1
;
_chemical_formula_sum "Si O2"
_cell_formula_units_Z 14
_cell_length_a 8.431447
_cell_length_b 12.694436
_cell_length_c 9.010916
_cell_angle_alpha 143.471324
_cell_angle_beta 92.544522
_cell_angle_gamma 85.422167
_cell_volume 571.922918
_symmetry_space_group_name_H-M "P -1"
_symmetry_group_IT_number 2
_symmetry_cell_setting 'triclinic'
loop_
_space_group_symop_operation_xyz
x,y,z
-x,-y,-z
loop_
_atom_site_type_symbol
_atom_site_label
_atom_site_fract_x
_atom_site_fract_y
_atom_site_fract_z
Si Si1 0.248955 0.076075 0.675203
Si Si2 0.417165 0.412848 0.036651
Si Si3 0.666677 0.016320 0.101367
Si Si4 0.711702 0.461280 0.289205
Si Si5 0.130054 0.212147 0.367453
Si Si6 0.213828 0.613242 0.479185
Si Si7 0.106989 0.881294 0.205678
O O1 0.067555 0.154289 0.782648
O O2 0.235170 0.908905 0.374337
O O3 0.357062 0.222142 0.773167
O O4 0.338573 0.012156 0.755499
O O5 0.540318 0.402768 0.167958
O O6 0.261854 0.526231 0.223467
O O7 0.500000 0.500000 0.000000
O O8 0.806875 0.885776 0.890234
O O9 0.500000 0.000000 0.000000
O O10 0.693511 0.215915 0.294121
O O11 0.748815 0.642390 0.407425
O O12 0.728726 0.513152 0.522774
O O13 0.838104 0.293517 0.079457
O O14 0.972562 0.335069 0.465268
O O15 0.098667 0.064739 0.320831
#
# Coordination Sequence:
#
# PCOD8035627 Si02
#       7
#     2   2   2   2   2   2   2
#     4  11  25  46  70 103 149 189 240 296 366 426
#     4  12  28  47  70 107 144 193 246 302 370 430
#     4  12  24  43  74 110 147 186 239 300 362 430
#     4  12  25  45  74 106 148 187 239 302 368 426
#     4  12  24  47  76 110 144 190 248 296 358 434
#     4  12  24  46  73 104 148 189 246 300 357 435
#     4  11  25  47  73 110 143 194 243 294 359 443
#
# _framework density 24.478822999999998
#
# number of rings (size 3 to 8) (size 9 to 14) (size 15 to 20)
#    0.000    0.286    2.857    6.429    2.000    0.571 
#    0.000    3.571    0.000    0.000    0.000    0.000 
#    0.000    0.000    0.000    0.000    0.000    0.000 
#
# Total GULP energy -173592.790193 kJ/mol
# GULP energy per Si atom -12399.485014 kJ/mol
# Density = 2.442311 g / cm^3
# Si number density = 24.478823 Si / 1000 Ang^3
#
#
#
# Elastic Constant Matrix: (Units=GPa)
#
#
# Indices 1 2 3 4 5 6 
#
# 1 52.0527 35.8429 -19.6573 -16.0183 20.3885 12.2361
# 2 35.8429 121.0574 28.1337 -9.1755 7.9570 10.0613
# 3 -19.6573 28.1337 48.9118 -12.8195 10.9428 13.2449
# 4 -16.0183 -9.1755 -12.8195 43.5075 8.9392 11.4396
# 5 20.3885 7.9570 10.9428 8.9392 49.4297 1.5217
# 6 12.2361 10.0613 13.2449 11.4396 1.5217 41.0380
#
#
#
# Elastic Compliance Matrix: (Units=1/GPa)
#
#
# Indices 1 2 3 4 5 6 
#
# 1 -0.029723 0.011797 -0.039899 -0.032269 0.024200 0.026945
# 2 0.011797 0.004904 0.011008 0.013811 -0.010229 -0.011743
# 3 -0.039899 0.011008 -0.021535 -0.029871 0.024129 0.023580
# 4 -0.032269 0.013811 -0.029871 -0.002611 0.017681 0.015949
# 5 0.024200 -0.010229 0.024129 0.017681 0.003897 -0.017569
# 6 0.026945 -0.011743 0.023580 0.015949 -0.017569 0.007808
#
#
# Mechanical properties :
#
#
# Convention : Reuss Voigt Hill
#
# Bulk Modulus (GPa) = -12.41595 34.51784 11.05095
# Shear Modulus (GPa) = -167.11363 38.64186 -64.23589
#
# Velocity S-wave (km/s) = -8.27145 3.97745 -5.12819
# Velocity P-wave (km/s) = 9.81354 5.93508 5.52632
#
# Compressibility (1/GPa) = -0.08054159
#
# Stress axis : x y z
#
# Youngs Moduli (GPa) = -33.64397 203.89806 -46.43584
#
# Poissons Ratio (x) = -2.40541 -1.85276
# Poissons Ratio (y) = 0.39690 0.51118
# Poissons Ratio (z) = -1.34237 -2.24458
#
# Static dielectric constant tensor:
#      x y z
#    x 4.550760 0.264080 0.185250 
#    y 0.264080 4.395420 0.052260 
#    z 0.185250 0.052260 4.678100 
# 
# 
# High freq. dielectric constant tensor:
#      x y z
#    x 1.983600 0.009720 0.011850 
#    y 0.009720 1.970550 0.003320 
#    z 0.011850 0.003320 1.982020 
# 
# From -- ./inp_files/191105.got.cif
#   From: 2010.06.25/outbox.cif.g09.slc.cpg/sg2_96_cif.got.tgz:191105.got - 2010.06.27 13:26:56.
