data_PCOD8035105
_publ_section_title
;
Structure prediction by ZEFSAII (Michael W. Deem and Ramdas Pophale) SiO2 
 PCOD8035105
Probable space group: P -1
;
_chemical_formula_sum "Si O2"
_cell_formula_units_Z 16
_cell_length_a 17.451371
_cell_length_b 6.825746
_cell_length_c 8.295819
_cell_angle_alpha 101.568625
_cell_angle_beta 48.900206
_cell_angle_gamma 92.093013
_cell_volume 723.430857
_symmetry_space_group_name_H-M "P -1"
_symmetry_group_IT_number 2
_symmetry_cell_setting 'triclinic'
loop_
_space_group_symop_operation_xyz
x,y,z
-x,-y,-z
loop_
_atom_site_type_symbol
_atom_site_label
_atom_site_fract_x
_atom_site_fract_y
_atom_site_fract_z
Si Si1 0.513530 0.216738 0.081276
Si Si2 0.407401 0.935738 0.721175
Si Si3 0.661410 0.460836 0.728156
Si Si4 0.764232 0.211054 0.268834
Si Si5 0.909521 0.879443 0.157929
Si Si6 0.943831 0.828385 0.468823
Si Si7 0.889517 0.484688 0.942859
Si Si8 0.758570 0.703741 0.894600
O O1 0.406370 0.359331 0.242271
O O2 0.549092 0.206416 0.215326
O O3 0.595014 0.299204 0.865635
O O4 0.500000 0.000000 0.000000
O O5 0.500000 0.000000 0.500000
O O6 0.339822 0.801173 0.687175
O O7 0.340344 0.135025 0.913235
O O8 0.742583 0.357310 0.473189
O O9 0.728384 0.537279 0.788531
O O10 0.805878 0.986350 0.235110
O O11 0.852022 0.298292 0.059099
O O12 0.897436 0.892316 0.368997
O O13 0.930489 0.647259 0.032968
O O14 0.000000 0.000000 0.000000
O O15 0.850742 0.810333 0.714402
O O16 0.018617 0.616317 0.315850
O O17 0.000000 0.000000 0.500000
O O18 0.794337 0.593205 0.991860
#
# Coordination Sequence:
#
# PCOD8035105 Si02
#       8
#     2   2   2   2   2   2   2   2
#     4  11  24  48  71  99 144 180 238 295 353 410
#     4  12  27  47  74 102 146 190 233 296 354 419
#     4  11  27  43  74 106 134 189 238 290 352 419
#     4  12  27  46  74 107 141 190 238 290 357 424
#     4  12  26  47  74 105 149 185 238 291 356 428
#     4  12  27  46  75 106 143 189 236 298 357 421
#     4  12  26  49  73 104 148 189 237 291 360 425
#     4  12  26  46  72 106 141 187 240 287 356 424
#
# _framework density 22.116834999999998
#
# number of rings (size 3 to 8) (size 9 to 14) (size 15 to 20)
#    0.000    0.250    3.750    4.500    8.750    2.500 
#    0.000    0.000    0.000    0.000    0.000    0.000 
#    0.000    0.000    0.000    0.000    0.000    0.000 
#
# Total GULP energy -198527.002306 kJ/mol
# GULP energy per Si atom -12407.937644 kJ/mol
# Density = 2.206650 g / cm^3
# Si number density = 22.116835 Si / 1000 Ang^3
#
#
#
# Elastic Constant Matrix: (Units=GPa)
#
#
# Indices 1 2 3 4 5 6 
#
# 1 116.0176 51.3053 21.5002 1.1840 13.3042 0.2149
# 2 51.3053 130.1151 41.2300 8.0247 1.8909 7.5232
# 3 21.5002 41.2300 112.1805 13.1393 -5.8290 -0.5880
# 4 1.1840 8.0247 13.1393 31.5758 4.9198 7.4967
# 5 13.3042 1.8909 -5.8290 4.9198 39.7920 -1.5680
# 6 0.2149 7.5232 -0.5880 7.4967 -1.5680 55.9330
#
#
#
# Elastic Compliance Matrix: (Units=1/GPa)
#
#
# Indices 1 2 3 4 5 6 
#
# 1 0.011035 -0.004088 -0.000998 0.001595 -0.003832 0.000176
# 2 -0.004088 0.010337 -0.002869 -0.001068 0.000538 -0.001247
# 3 -0.000998 -0.002869 0.010822 -0.004428 0.002649 0.001171
# 4 0.001595 -0.001068 -0.004428 0.035774 -0.005746 -0.004865
# 5 -0.003832 0.000538 0.002649 -0.005746 0.027544 0.001512
# 6 0.000176 -0.001247 0.001171 -0.004865 0.001512 0.018752
#
#
# Mechanical properties :
#
#
# Convention : Reuss Voigt Hill
#
# Bulk Modulus (GPa) = 61.40753 65.15379 63.28066
# Shear Modulus (GPa) = 36.87280 41.74533 39.30907
#
# Velocity S-wave (km/s) = 4.08754 4.34924 4.22042
# Velocity P-wave (km/s) = 7.07833 7.39892 7.24040
#
# Compressibility (1/GPa) = 0.01628465
#
# Stress axis : x y z
#
# Youngs Moduli (GPa) = 90.62271 96.74339 92.40246
#
# Poissons Ratio (x) = 0.39547 0.09217
# Poissons Ratio (y) = 0.37045 0.26511
# Poissons Ratio (z) = 0.09040 0.27757
#
# Static dielectric constant tensor:
#      x y z
#    x 4.795860 -0.588120 0.389750 
#    y -0.588120 4.495490 -0.218120 
#    z 0.389750 -0.218120 3.871120 
# 
# 
# High freq. dielectric constant tensor:
#      x y z
#    x 1.892610 -0.000210 0.004270 
#    y -0.000210 1.882180 0.002180 
#    z 0.004270 0.002180 1.875260 
# 
# From -- ./inp_files/135133.got.cif
#   From: 2010.06.25/outbox.cif.g09.slc.cpg/sg2_68_cif.got.tgz:135133.got - 2010.06.27 13:26:56.
