data_PCOD8035803
_publ_section_title
;
Structure prediction by ZEFSAII (Michael W. Deem and Ramdas Pophale) SiO2 
 PCOD8035803
Probable space group: P -1
;
_chemical_formula_sum "Si O2"
_cell_formula_units_Z 14
_cell_length_a 9.140596
_cell_length_b 10.011157
_cell_length_c 12.266103
_cell_angle_alpha 57.574988
_cell_angle_beta 126.800371
_cell_angle_gamma 132.318282
_cell_volume 647.609027
_symmetry_space_group_name_H-M "P -1"
_symmetry_group_IT_number 2
_symmetry_cell_setting 'triclinic'
loop_
_space_group_symop_operation_xyz
x,y,z
-x,-y,-z
loop_
_atom_site_type_symbol
_atom_site_label
_atom_site_fract_x
_atom_site_fract_y
_atom_site_fract_z
Si Si1 0.441848 0.429529 0.385161
Si Si2 0.096877 0.531477 0.148967
Si Si3 0.721490 0.235135 0.266111
Si Si4 0.733520 0.046351 0.888992
Si Si5 0.859919 0.988525 0.543886
Si Si6 0.023881 0.095292 0.806800
Si Si7 0.805814 0.509932 0.353947
O O1 0.500000 0.500000 0.500000
O O2 0.287575 0.492000 0.238375
O O3 0.344601 0.211880 0.441251
O O4 0.660792 0.519170 0.378295
O O5 0.188641 0.739389 0.145103
O O6 0.918202 0.378385 0.215894
O O7 0.000000 0.500000 0.000000
O O8 0.662180 0.347066 0.275211
O O9 0.524303 0.084880 0.170353
O O10 0.788430 0.132350 0.426377
O O11 0.811933 0.009600 0.824525
O O12 0.816385 0.969083 0.054354
O O13 0.000000 0.000000 0.500000
O O14 0.990372 0.038743 0.691228
O O15 0.116414 0.311890 0.764493
O O16 0.000000 0.500000 0.500000
#
# Coordination Sequence:
#
# PCOD8035803 Si02
#       7
#     2   2   2   2   2   2   2
#     4  12  26  44  72 105 142 188 239 298 363 424
#     4  12  27  50  71 106 153 187 236 303 364 433
#     4  12  26  46  76 105 141 193 241 297 361 428
#     4  11  27  47  73 106 146 192 243 292 366 434
#     4  12  24  44  70 103 142 184 242 296 360 423
#     4  11  25  47  71 105 147 188 242 301 353 436
#     4  12  25  46  75 104 144 189 244 298 358 429
#
# _framework density 21.617982999999999
#
# number of rings (size 3 to 8) (size 9 to 14) (size 15 to 20)
#    0.000    0.286    4.286    4.286    4.000    3.429 
#    0.000    0.000    0.000    0.000    0.000    0.000 
#    0.000    0.000    0.000    0.000    0.000    0.000 
#
# Total GULP energy -173586.335008 kJ/mol
# GULP energy per Si atom -12399.023929 kJ/mol
# Density = 2.156878 g / cm^3
# Si number density = 21.617983 Si / 1000 Ang^3
#
#
#
# Elastic Constant Matrix: (Units=GPa)
#
#
# Indices 1 2 3 4 5 6 
#
# 1 123.8566 33.2395 64.3538 9.0630 10.0146 0.7729
# 2 33.2395 146.2685 66.0113 0.5409 4.8697 1.2736
# 3 64.3538 66.0113 159.5218 -3.4695 -4.0147 2.7479
# 4 9.0630 0.5409 -3.4695 45.7607 -6.1027 -4.4618
# 5 10.0146 4.8697 -4.0147 -6.1027 17.3461 13.2278
# 6 0.7729 1.2736 2.7479 -4.4618 13.2278 32.9057
#
#
#
# Elastic Compliance Matrix: (Units=1/GPa)
#
#
# Indices 1 2 3 4 5 6 
#
# 1 0.012320 0.000141 -0.005558 -0.004208 -0.013863 0.005172
# 2 0.000141 0.008699 -0.003842 -0.000929 -0.005233 0.001958
# 3 -0.005558 -0.003842 0.010536 0.003003 0.011436 -0.004790
# 4 -0.004208 -0.000929 0.003003 0.024537 0.013799 -0.002336
# 5 -0.013863 -0.005233 0.011436 0.013799 0.106024 -0.041176
# 6 0.005172 0.001958 -0.004790 -0.002336 -0.041176 0.046828
#
#
# Mechanical properties :
#
#
# Convention : Reuss Voigt Hill
#
# Bulk Modulus (GPa) = 76.70388 84.09511 80.39950
# Shear Modulus (GPa) = 21.56927 36.93868 29.25397
#
# Velocity S-wave (km/s) = 3.16214 4.13813 3.68261
# Velocity P-wave (km/s) = 6.99219 7.86239 7.44002
#
# Compressibility (1/GPa) = 0.01303715
#
# Stress axis : x y z
#
# Youngs Moduli (GPa) = 81.16576 114.95045 94.90849
#
# Poissons Ratio (x) = -0.01616 0.52749
# Poissons Ratio (y) = -0.01141 0.36466
# Poissons Ratio (z) = 0.45111 0.44166
#
# Static dielectric constant tensor:
#      x y z
#    x 3.740430 -0.065170 -0.227550 
#    y -0.065170 4.128100 -0.108000 
#    z -0.227550 -0.108000 3.831820 
# 
# 
# High freq. dielectric constant tensor:
#      x y z
#    x 1.853080 -0.007400 -0.006400 
#    y -0.007400 1.870330 -0.007740 
#    z -0.006400 -0.007740 1.864090 
# 
# From -- ./inp_files/157696.got.cif
#   From: 2010.06.25/outbox.cif.g09.slc.cpg/sg2_79_cif.got.tgz:157696.got - 2010.06.27 13:26:56.
