data_PCOD8035785
_publ_section_title
;
Structure prediction by ZEFSAII (Michael W. Deem and Ramdas Pophale) SiO2 
 PCOD8035785
Probable space group: P -1
;
_chemical_formula_sum "Si O2"
_cell_formula_units_Z 16
_cell_length_a 22.172840
_cell_length_b 16.485840
_cell_length_c 11.851427
_cell_angle_alpha 41.819677
_cell_angle_beta 150.297650
_cell_angle_gamma 159.020377
_cell_volume 713.755293
_symmetry_space_group_name_H-M "P -1"
_symmetry_group_IT_number 2
_symmetry_cell_setting 'triclinic'
loop_
_space_group_symop_operation_xyz
x,y,z
-x,-y,-z
loop_
_atom_site_type_symbol
_atom_site_label
_atom_site_fract_x
_atom_site_fract_y
_atom_site_fract_z
Si Si1 0.106754 0.433248 0.831354
Si Si2 0.142452 0.236233 0.439514
Si Si3 0.473766 0.383278 0.675767
Si Si4 0.714446 0.185279 0.862707
Si Si5 0.225721 0.926610 0.134335
Si Si6 0.290624 0.846044 0.687448
Si Si7 0.183785 0.892348 0.679895
Si Si8 0.737483 0.452195 0.515164
O O1 0.298943 0.710032 0.872739
O O2 0.925340 0.276591 0.805245
O O3 0.971873 0.338976 0.591856
O O4 0.261172 0.445195 0.052106
O O5 0.392505 0.395800 0.634013
O O6 0.239880 0.415045 0.502792
O O7 0.000000 0.000000 0.500000
O O8 0.965129 0.143359 0.155020
O O9 0.500000 0.500000 0.500000
O O10 0.266762 0.103161 0.602868
O O11 0.665790 0.072303 0.783487
O O12 0.850432 0.429631 0.790903
O O13 0.477361 0.038020 0.691645
O O14 0.806571 0.164802 0.122228
O O15 0.457162 0.191014 0.295004
O O16 0.337904 0.959010 0.763786
O O17 0.889006 0.619114 0.473137
#
# Coordination Sequence:
#
# PCOD8035785 Si02
#       8
#     2   2   2   2   2   2   2   2
#     4  11  25  47  69 106 146 190 233 311 359 429
#     4  12  27  51  69 104 147 193 249 297 355 433
#     4  12  26  46  73  96 143 199 240 299 355 426
#     4  12  24  45  74 112 146 185 236 308 371 433
#     4  12  26  47  76 106 148 185 245 301 366 431
#     4  11  26  42  72 107 147 183 240 297 376 430
#     4  12  26  45  68 108 144 190 241 296 367 432
#     4  12  27  45  77 107 144 195 240 299 374 432
#
# _framework density 22.416646
#
# number of rings (size 3 to 8) (size 9 to 14) (size 15 to 20)
#    0.000    0.250    6.250    1.875    7.000    0.500 
#    2.250    1.250    0.000    0.000    0.000    0.000 
#    0.000    0.000    0.000    0.000    0.000    0.000 
#
# Total GULP energy -198265.817449 kJ/mol
# GULP energy per Si atom -12391.613591 kJ/mol
# Density = 2.236562 g / cm^3
# Si number density = 22.416646 Si / 1000 Ang^3
#
#
#
# Elastic Constant Matrix: (Units=GPa)
#
#
# Indices 1 2 3 4 5 6 
#
# 1 170.1916 61.7133 35.4946 -5.1299 14.4537 2.6315
# 2 61.7133 153.1267 32.7218 -20.8968 -3.4977 -0.3311
# 3 35.4946 32.7218 70.5215 -22.1984 5.5880 -2.9187
# 4 -5.1299 -20.8968 -22.1984 22.5837 1.5384 6.7170
# 5 14.4537 -3.4977 5.5880 1.5384 34.8177 -0.0921
# 6 2.6315 -0.3311 -2.9187 6.7170 -0.0921 43.4656
#
#
#
# Elastic Compliance Matrix: (Units=1/GPa)
#
#
# Indices 1 2 3 4 5 6 
#
# 1 0.007862 -0.003047 -0.003746 -0.004509 -0.002770 -0.000060
# 2 -0.003047 0.008889 -0.000532 0.007141 0.001925 -0.000883
# 3 -0.003746 -0.000532 0.023616 0.022597 -0.003292 -0.001691
# 4 -0.004509 0.007141 0.022597 0.075289 -0.004390 -0.009799
# 5 -0.002770 0.001925 -0.003292 -0.004390 0.030788 0.000705
# 6 -0.000060 -0.000883 -0.001691 -0.009799 0.000705 0.024406
#
#
# Mechanical properties :
#
#
# Convention : Reuss Voigt Hill
#
# Bulk Modulus (GPa) = 38.88344 72.63324 55.75834
# Shear Modulus (GPa) = 25.76375 37.76740 31.76557
#
# Velocity S-wave (km/s) = 3.39383 4.10908 3.76846
# Velocity P-wave (km/s) = 5.72197 7.41515 6.62289
#
# Compressibility (1/GPa) = 0.02571789
#
# Stress axis : x y z
#
# Youngs Moduli (GPa) = 127.19538 112.50145 42.34420
#
# Poissons Ratio (x) = 0.34277 0.15860
# Poissons Ratio (y) = 0.38754 0.02253
# Poissons Ratio (z) = 0.47641 0.05986
#
# Static dielectric constant tensor:
#      x y z
#    x 4.021760 0.017840 -0.038840 
#    y 0.017840 3.907580 -0.492210 
#    z -0.038840 -0.492210 3.650660 
# 
# 
# High freq. dielectric constant tensor:
#      x y z
#    x 1.890790 0.019380 0.009630 
#    y 0.019380 1.903260 -0.000190 
#    z 0.009630 -0.000190 1.886600 
# 
# From -- ./inp_files/475360.got.cif
#   From: 2010.06.25/outbox.cif.g09.slc.cpg/sg2_238_cif.got.tgz:475360.got - 2010.06.27 13:26:56.
