data_PCOD8035880
_publ_section_title
;
Structure prediction by ZEFSAII (Michael W. Deem and Ramdas Pophale) SiO2 
 PCOD8035880
Probable space group: P -1
;
_chemical_formula_sum "Si O2"
_cell_formula_units_Z 12
_cell_length_a 8.793345
_cell_length_b 15.577396
_cell_length_c 8.636230
_cell_angle_alpha 121.818980
_cell_angle_beta 57.029319
_cell_angle_gamma 151.727670
_cell_volume 466.652391
_symmetry_space_group_name_H-M "P -1"
_symmetry_group_IT_number 2
_symmetry_cell_setting 'triclinic'
loop_
_space_group_symop_operation_xyz
x,y,z
-x,-y,-z
loop_
_atom_site_type_symbol
_atom_site_label
_atom_site_fract_x
_atom_site_fract_y
_atom_site_fract_z
Si Si1 0.308108 0.068999 0.399097
Si Si2 0.256935 0.208874 0.052113
Si Si3 0.031205 0.294841 0.705797
Si Si4 0.283182 0.686601 0.878015
Si Si5 0.708158 0.386227 0.699909
Si Si6 0.226745 0.405553 0.362645
O O1 0.462944 0.138458 0.207853
O O2 0.575544 0.228599 0.529118
O O3 0.211763 0.912650 0.353473
O O4 0.000000 0.000000 0.500000
O O5 0.534517 0.317179 0.131176
O O6 0.080065 0.232824 0.210849
O O7 0.408476 0.290725 0.875673
O O8 0.000000 0.000000 0.000000
O O9 0.065464 0.350651 0.565338
O O10 0.380996 0.420202 0.691673
O O11 0.879866 0.310701 0.912269
O O12 0.008505 0.498561 0.754182
O O13 0.857680 0.538517 0.644646
#
# Coordination Sequence:
#
# PCOD8035880 Si02
#       6
#     2   2   2   2   2   2
#     4  12  25  49  76 110 148 198 248 303 369 443
#     4  12  27  49  77 109 150 198 251 304 374 442
#     4  11  25  47  77 107 152 195 250 301 370 437
#     4  12  28  47  77 111 151 192 248 316 363 436
#     4  12  26  46  78 112 149 194 253 301 373 435
#     4  11  25  47  78 106 149 201 242 304 374 441
#
# _framework density 25.715073
#
# number of rings (size 3 to 8) (size 9 to 14) (size 15 to 20)
#    0.000    0.333    3.333    5.000    2.333    2.667 
#    0.000    2.500    0.000    0.000    0.000    0.000 
#    0.000    0.000    0.000    0.000    0.000    0.000 
#
# Total GULP energy -148863.590474 kJ/mol
# GULP energy per Si atom -12405.299206 kJ/mol
# Density = 2.565654 g / cm^3
# Si number density = 25.715073 Si / 1000 Ang^3
#
#
#
# Elastic Constant Matrix: (Units=GPa)
#
#
# Indices 1 2 3 4 5 6 
#
# 1 62.1095 35.0408 17.8792 12.7900 15.4719 -7.7076
# 2 35.0408 139.1441 60.0533 8.6868 1.0855 -10.9999
# 3 17.8792 60.0533 149.8307 -13.9746 14.7461 -4.7299
# 4 12.7900 8.6868 -13.9746 64.2250 -5.8356 -6.6807
# 5 15.4719 1.0855 14.7461 -5.8356 31.5761 0.1421
# 6 -7.7076 -10.9999 -4.7299 -6.6807 0.1421 38.6180
#
#
#
# Elastic Compliance Matrix: (Units=1/GPa)
#
#
# Indices 1 2 3 4 5 6 
#
# 1 0.023426 -0.005411 0.000214 -0.004755 -0.012282 0.002383
# 2 -0.005411 0.010352 -0.003921 -0.000682 0.003994 0.001256
# 3 0.000214 -0.003921 0.008791 0.002105 -0.003688 0.000380
# 4 -0.004755 -0.000682 0.002105 0.017713 0.004634 0.002162
# 5 -0.012282 0.003994 -0.003688 0.004634 0.040134 -0.001111
# 6 0.002383 0.001256 0.000380 0.002162 -0.001111 0.027153
#
#
# Mechanical properties :
#
#
# Convention : Reuss Voigt Hill
#
# Bulk Modulus (GPa) = 41.09391 64.11455 52.60423
# Shear Modulus (GPa) = 32.48514 42.75787 37.62150
#
# Velocity S-wave (km/s) = 3.55811 4.08211 3.82909
# Velocity P-wave (km/s) = 5.73545 6.87059 6.32852
#
# Compressibility (1/GPa) = 0.02433451
#
# Stress axis : x y z
#
# Youngs Moduli (GPa) = 42.68760 96.59782 113.74633
#
# Poissons Ratio (x) = 0.52265 -0.02430
# Poissons Ratio (y) = 0.23096 0.44597
# Poissons Ratio (z) = -0.00912 0.37873
#
# Static dielectric constant tensor:
#      x y z
#    x 4.727380 0.022290 0.180730 
#    y 0.022290 5.111950 -0.146610 
#    z 0.180730 -0.146610 5.041950 
# 
# 
# High freq. dielectric constant tensor:
#      x y z
#    x 2.026710 -0.006460 -0.000890 
#    y -0.006460 2.048930 -0.009670 
#    z -0.000890 -0.009670 2.053070 
# 
# From -- ./inp_files/208653.got.cif
#   From: 2010.06.25/outbox.cif.g09.slc.cpg/sg2_105_cif.got.tgz:208653.got - 2010.06.27 13:26:56.
