data_PCOD8035797
_publ_section_title
;
Structure prediction by ZEFSAII (Michael W. Deem and Ramdas Pophale) SiO2 
 PCOD8035797
Probable space group: P -1
;
_chemical_formula_sum "Si O2"
_cell_formula_units_Z 12
_cell_length_a 13.234635
_cell_length_b 8.383070
_cell_length_c 10.889549
_cell_angle_alpha 111.478462
_cell_angle_beta 33.674429
_cell_angle_gamma 88.628807
_cell_volume 480.565309
_symmetry_space_group_name_H-M "P -1"
_symmetry_group_IT_number 2
_symmetry_cell_setting 'triclinic'
loop_
_space_group_symop_operation_xyz
x,y,z
-x,-y,-z
loop_
_atom_site_type_symbol
_atom_site_label
_atom_site_fract_x
_atom_site_fract_y
_atom_site_fract_z
Si Si1 0.502690 0.021640 0.330529
Si Si2 0.913705 0.521589 0.729545
Si Si3 0.830466 0.091315 0.369979
Si Si4 0.775656 0.232862 0.739302
Si Si5 0.419243 0.212899 0.214916
Si Si6 0.652931 0.261226 0.342804
O O1 0.270954 0.042322 0.566993
O O2 0.513944 0.140968 0.235772
O O3 0.512258 0.160395 0.468062
O O4 0.739461 0.769701 0.023901
O O5 0.778371 0.423110 0.840673
O O6 0.000000 0.500000 0.500000
O O7 0.136625 0.393102 0.557902
O O8 0.768337 0.226070 0.596795
O O9 0.722975 0.266193 0.413822
O O10 0.111912 0.907237 0.022933
O O11 0.530875 0.307663 0.059879
O O12 0.000000 0.000000 0.500000
O O13 0.500000 0.000000 0.000000
O O14 0.500000 0.500000 0.500000
#
# Coordination Sequence:
#
# PCOD8035797 Si02
#       6
#     2   2   2   2   2   2
#     4  12  26  46  70 101 142 179 231 288 347 415
#     4  12  24  40  67 104 144 182 221 280 343 415
#     4  11  25  47  71 101 138 181 236 285 350 412
#     4  12  23  42  72 106 146 184 223 279 353 423
#     4  12  23  44  65 107 145 179 226 277 348 422
#     4  11  28  50  71  98 133 185 245 295 340 407
#
# _framework density 24.970592
#
# number of rings (size 3 to 8) (size 9 to 14) (size 15 to 20)
#    0.000    0.333    5.000    2.500    0.000   12.667 
#    0.000    0.000    0.000    0.000    0.000    0.000 
#    0.000    0.000    0.000    0.000    0.000    0.000 
#
# Total GULP energy -148852.233961 kJ/mol
# GULP energy per Si atom -12404.352830 kJ/mol
# Density = 2.491376 g / cm^3
# Si number density = 24.970592 Si / 1000 Ang^3
#
#
#
# Elastic Constant Matrix: (Units=GPa)
#
#
# Indices 1 2 3 4 5 6 
#
# 1 131.5474 53.5531 43.1853 14.5252 -14.2806 -5.6752
# 2 53.5531 143.1398 51.1152 14.3353 -19.4939 8.9898
# 3 43.1853 51.1152 87.7623 -6.3704 -26.1385 1.5312
# 4 14.5252 14.3353 -6.3704 45.6295 -2.5593 -8.5485
# 5 -14.2806 -19.4939 -26.1385 -2.5593 40.6848 -7.5132
# 6 -5.6752 8.9898 1.5312 -8.5485 -7.5132 53.1218
#
#
#
# Elastic Compliance Matrix: (Units=1/GPa)
#
#
# Indices 1 2 3 4 5 6 
#
# 1 0.010151 -0.002160 -0.003967 -0.002901 0.000000 0.001097
# 2 -0.002160 0.010113 -0.004981 -0.003612 0.000227 -0.002348
# 3 -0.003967 -0.004981 0.019542 0.006519 0.009604 0.002263
# 4 -0.002901 -0.003612 0.006519 0.026018 0.003973 0.004862
# 5 0.000000 0.000227 0.009604 0.003973 0.032003 0.004851
# 6 0.001097 -0.002348 0.002263 0.004862 0.004851 0.020742
#
#
# Mechanical properties :
#
#
# Convention : Reuss Voigt Hill
#
# Bulk Modulus (GPa) = 56.85051 73.12855 64.98953
# Shear Modulus (GPa) = 34.09523 42.19361 38.14442
#
# Velocity S-wave (km/s) = 3.69916 4.11509 3.91266
# Velocity P-wave (km/s) = 6.40792 7.20612 6.81871
#
# Compressibility (1/GPa) = 0.01758999
#
# Stress axis : x y z
#
# Youngs Moduli (GPa) = 98.51280 98.88253 51.17292
#
# Poissons Ratio (x) = 0.21355 0.20300
# Poissons Ratio (y) = 0.21275 0.25490
# Poissons Ratio (z) = 0.39080 0.49255
#
# Static dielectric constant tensor:
#      x y z
#    x 4.970090 0.099680 0.316860 
#    y 0.099680 4.645800 0.194980 
#    z 0.316860 0.194980 4.887950 
# 
# 
# High freq. dielectric constant tensor:
#      x y z
#    x 2.013660 -0.002420 -0.012820 
#    y -0.002420 2.007720 -0.007790 
#    z -0.012820 -0.007790 1.991530 
# 
# From -- ./inp_files/446166.got.cif
#   From: 2010.06.25/outbox.cif.g09.slc.cpg/sg2_224_cif.got.tgz:446166.got - 2010.06.27 13:26:56.
