data_PCOD8035710
_publ_section_title
;
Structure prediction by ZEFSAII (Michael W. Deem and Ramdas Pophale) SiO2 
 PCOD8035710
Probable space group: P -1
;
_chemical_formula_sum "Si O2"
_cell_formula_units_Z 14
_cell_length_a 8.952944
_cell_length_b 8.251917
_cell_length_c 11.062144
_cell_angle_alpha 115.271468
_cell_angle_beta 126.336376
_cell_angle_gamma 75.325040
_cell_volume 595.338459
_symmetry_space_group_name_H-M "P -1"
_symmetry_group_IT_number 2
_symmetry_cell_setting 'triclinic'
loop_
_space_group_symop_operation_xyz
x,y,z
-x,-y,-z
loop_
_atom_site_type_symbol
_atom_site_label
_atom_site_fract_x
_atom_site_fract_y
_atom_site_fract_z
Si Si1 0.214551 0.476797 0.586410
Si Si2 0.948659 0.220412 0.778545
Si Si3 0.715939 0.502712 0.625619
Si Si4 0.701269 0.920568 0.213633
Si Si5 0.678903 0.230230 0.105603
Si Si6 0.991291 0.789539 0.923908
Si Si7 0.679308 0.933381 0.489799
O O1 0.226442 0.579505 0.499305
O O2 0.338448 0.578155 0.776991
O O3 0.296583 0.278008 0.555027
O O4 0.000000 0.500000 0.500000
O O5 0.793644 0.366926 0.718343
O O6 0.126839 0.216635 0.771941
O O7 0.855555 0.024335 0.667401
O O8 0.004067 0.278366 0.957966
O O9 0.500000 0.500000 0.500000
O O10 0.801593 0.703487 0.751663
O O11 0.684716 0.986878 0.366079
O O12 0.732840 0.081584 0.184543
O O13 0.513058 0.815348 0.063661
O O14 0.833217 0.265845 0.089289
O O15 0.000000 0.000000 0.000000
O O16 0.500000 0.000000 0.500000
#
# Coordination Sequence:
#
# PCOD8035710 Si02
#       7
#     2   2   2   2   2   2   2
#     4  12  24  46  74 105 147 194 254 308 376 445
#     4  12  25  48  75 108 152 195 253 314 374 452
#     4  12  28  47  76 109 151 200 253 314 379 452
#     4  11  25  46  75 107 149 195 253 308 381 450
#     4  11  25  46  73 107 149 199 247 311 377 454
#     4  12  25  49  76 111 154 196 253 311 385 446
#     4  12  26  48  74 108 148 196 249 311 381 454
#
# _framework density 23.516033
#
# number of rings (size 3 to 8) (size 9 to 14) (size 15 to 20)
#    0.000    0.286    2.857    6.000    2.000    1.714 
#    2.571    0.000    0.000    0.000    0.000    0.000 
#    0.000    0.000    0.000    0.000    0.000    0.000 
#
# Total GULP energy -173449.874743 kJ/mol
# GULP energy per Si atom -12389.276767 kJ/mol
# Density = 2.346251 g / cm^3
# Si number density = 23.516033 Si / 1000 Ang^3
#
#
#
# Elastic Constant Matrix: (Units=GPa)
#
#
# Indices 1 2 3 4 5 6 
#
# 1 175.3581 35.4048 86.1178 -7.0805 -1.1264 -8.0565
# 2 35.4048 104.9788 29.0029 11.9211 8.5015 -19.6521
# 3 86.1178 29.0029 152.4086 18.8527 8.6275 -11.2058
# 4 -7.0805 11.9211 18.8527 44.5170 4.6101 3.0924
# 5 -1.1264 8.5015 8.6275 4.6101 57.0874 -3.2590
# 6 -8.0565 -19.6521 -11.2058 3.0924 -3.2590 27.9231
#
#
#
# Elastic Compliance Matrix: (Units=1/GPa)
#
#
# Indices 1 2 3 4 5 6 
#
# 1 0.008876 -0.002403 -0.005259 0.004303 0.000888 -0.001614
# 2 -0.002403 0.012444 0.000206 -0.004278 -0.001101 0.008492
# 3 -0.005259 0.000206 0.010472 -0.005443 -0.001089 0.003306
# 4 0.004303 -0.004278 -0.005443 0.027200 -0.001057 -0.007089
# 5 0.000888 -0.001101 -0.001089 -0.001057 0.018021 0.001264
# 6 -0.001614 0.008492 0.003306 -0.007089 0.001264 0.043583
#
#
# Mechanical properties :
#
#
# Convention : Reuss Voigt Hill
#
# Bulk Modulus (GPa) = 59.24642 81.53295 70.38969
# Shear Modulus (GPa) = 35.42710 44.72016 40.07363
#
# Velocity S-wave (km/s) = 3.88559 4.36557 4.13255
# Velocity P-wave (km/s) = 6.73640 7.75612 7.26418
#
# Compressibility (1/GPa) = 0.01687866
#
# Stress axis : x y z
#
# Youngs Moduli (GPa) = 112.66571 80.35937 95.49474
#
# Poissons Ratio (x) = 0.19311 0.50222
# Poissons Ratio (y) = 0.27074 -0.01964
# Poissons Ratio (z) = 0.59252 -0.01653
#
# Static dielectric constant tensor:
#      x y z
#    x 4.259920 0.201920 -0.124080 
#    y 0.201920 3.844500 0.050010 
#    z -0.124080 0.050010 4.698570 
# 
# 
# High freq. dielectric constant tensor:
#      x y z
#    x 1.951270 0.006570 -0.006560 
#    y 0.006570 1.922800 0.004990 
#    z -0.006560 0.004990 1.955270 
# 
# From -- ./inp_files/328651.got.cif
#   From: 2010.06.25/outbox.cif.g09.slc.cpg/sg2_165_cif.got.tgz:328651.got - 2010.06.27 13:26:56.
