data_PCOD8035088
_publ_section_title
;
Structure prediction by ZEFSAII (Michael W. Deem and Ramdas Pophale) SiO2 
 PCOD8035088
Probable space group: P -1
;
_chemical_formula_sum "Si O2"
_cell_formula_units_Z 16
_cell_length_a 24.528993
_cell_length_b 13.358115
_cell_length_c 15.803738
_cell_angle_alpha 154.553352
_cell_angle_beta 22.611644
_cell_angle_gamma 156.397337
_cell_volume 740.341521
_symmetry_space_group_name_H-M "P -1"
_symmetry_group_IT_number 2
_symmetry_cell_setting 'triclinic'
loop_
_space_group_symop_operation_xyz
x,y,z
-x,-y,-z
loop_
_atom_site_type_symbol
_atom_site_label
_atom_site_fract_x
_atom_site_fract_y
_atom_site_fract_z
Si Si1 0.123691 0.758543 0.969277
Si Si2 0.987351 0.088325 0.329164
Si Si3 0.345009 0.715331 0.485558
Si Si4 0.293806 0.977729 0.205573
Si Si5 0.146820 0.042268 0.763285
Si Si6 0.430567 0.592823 0.746166
Si Si7 0.366989 0.191777 0.082618
Si Si8 0.274842 0.667797 0.358026
O O1 0.200801 0.653263 0.708982
O O2 0.000000 0.500000 0.000000
O O3 0.016027 0.865196 0.160545
O O4 0.264999 0.986414 0.997995
O O5 0.160424 0.351747 0.263391
O O6 0.893128 0.965211 0.283598
O O7 0.879147 0.155862 0.599696
O O8 0.389102 0.480560 0.249634
O O9 0.283301 0.728562 0.491173
O O10 0.500000 0.000000 0.500000
O O11 0.425738 0.237557 0.265039
O O12 0.274340 0.073027 0.213200
O O13 0.349961 0.758108 0.949414
O O14 0.194130 0.816077 0.538867
O O15 0.297661 0.335925 0.792814
O O16 0.000000 0.000000 0.000000
O O17 0.500000 0.500000 0.500000
O O18 0.547114 0.229317 0.858238
#
# Coordination Sequence:
#
# PCOD8035088 Si02
#       8
#     2   2   2   2   2   2   2   2
#     4  12  28  46  74 104 143 186 235 291 351 421
#     4  12  26  48  69 106 144 184 232 292 353 418
#     4  12  25  47  72 102 140 186 235 288 352 413
#     4  11  27  43  73 102 143 182 231 290 351 411
#     4  12  27  44  72 105 142 185 236 286 352 421
#     4  11  24  48  69 100 141 187 232 286 343 418
#     4  12  27  47  72 108 138 184 241 289 349 420
#     4  12  26  46  73 100 144 182 234 294 346 417
#
# _framework density 21.611647000000001
#
# number of rings (size 3 to 8) (size 9 to 14) (size 15 to 20)
#    0.000    0.250    3.750    4.500    8.750    3.000 
#    0.000    0.000    0.000    0.000    0.000    0.000 
#    0.000    0.000    0.000    0.000    0.000    0.000 
#
# Total GULP energy -198548.593245 kJ/mol
# GULP energy per Si atom -12409.287078 kJ/mol
# Density = 2.156246 g / cm^3
# Si number density = 21.611647 Si / 1000 Ang^3
#
#
#
# Elastic Constant Matrix: (Units=GPa)
#
#
# Indices 1 2 3 4 5 6 
#
# 1 106.7286 16.9302 38.3730 0.1203 -8.4027 -8.6639
# 2 16.9302 109.8519 40.4749 2.4963 -3.9315 -14.5577
# 3 38.3730 40.4749 138.9424 -9.0811 -0.2043 -3.1813
# 4 0.1203 2.4963 -9.0811 45.5382 -8.7973 2.9900
# 5 -8.4027 -3.9315 -0.2043 -8.7973 43.2545 -2.9614
# 6 -8.6639 -14.5577 -3.1813 2.9900 -2.9614 30.0817
#
#
#
# Elastic Compliance Matrix: (Units=1/GPa)
#
#
# Indices 1 2 3 4 5 6 
#
# 1 0.010856 -0.000110 -0.002918 -0.000375 0.002216 0.003020
# 2 -0.000110 0.011043 -0.003155 -0.001375 0.001045 0.005218
# 3 -0.002918 -0.003155 0.009013 0.001987 -0.000521 -0.001663
# 4 -0.000375 -0.001375 0.001987 0.023446 0.004412 -0.002459
# 5 0.002216 0.001045 -0.000521 0.004412 0.024751 0.003087
# 6 0.003020 0.005218 -0.001663 -0.002459 0.003087 0.037011
#
#
# Mechanical properties :
#
#
# Convention : Reuss Voigt Hill
#
# Bulk Modulus (GPa) = 53.92161 60.78656 57.35409
# Shear Modulus (GPa) = 37.12820 41.09122 39.10971
#
# Velocity S-wave (km/s) = 4.14934 4.36517 4.25862
# Velocity P-wave (km/s) = 6.92535 7.32080 7.12582
#
# Compressibility (1/GPa) = 0.01854544
#
# Stress axis : x y z
#
# Youngs Moduli (GPa) = 92.11246 90.55608 110.94575
#
# Poissons Ratio (x) = 0.00994 0.32378
# Poissons Ratio (y) = 0.01011 0.35008
# Poissons Ratio (z) = 0.26882 0.28574
#
# Static dielectric constant tensor:
#      x y z
#    x 3.994780 -0.033500 0.043550 
#    y -0.033500 4.045440 -0.018900 
#    z 0.043550 -0.018900 4.145000 
# 
# 
# High freq. dielectric constant tensor:
#      x y z
#    x 1.860860 -0.002500 0.000810 
#    y -0.002500 1.867770 -0.001760 
#    z 0.000810 -0.001760 1.863210 
# 
# From -- ./inp_files/94430.got.cif
#   From: 2010.06.25/outbox.cif.g09.slc.cpg/sg2_48_cif.got.tgz:94430.got - 2010.06.27 13:26:56.
