data_PCOD8035142
_publ_section_title
;
Structure prediction by ZEFSAII (Michael W. Deem and Ramdas Pophale) SiO2 
 PCOD8035142
Probable space group: P -1
;
_chemical_formula_sum "Si O2"
_cell_formula_units_Z 14
_cell_length_a 12.547990
_cell_length_b 5.061021
_cell_length_c 10.927296
_cell_angle_alpha 65.919034
_cell_angle_beta 75.347709
_cell_angle_gamma 72.264284
_cell_volume 596.798023
_symmetry_space_group_name_H-M "P -1"
_symmetry_group_IT_number 2
_symmetry_cell_setting 'triclinic'
loop_
_space_group_symop_operation_xyz
x,y,z
-x,-y,-z
loop_
_atom_site_type_symbol
_atom_site_label
_atom_site_fract_x
_atom_site_fract_y
_atom_site_fract_z
Si Si1 0.705107 0.413621 0.317760
Si Si2 0.251668 0.320764 0.982975
Si Si3 0.115543 0.856391 0.057034
Si Si4 0.796220 0.468852 0.691931
Si Si5 0.134800 0.932519 0.479585
Si Si6 0.421419 0.318981 0.129315
Si Si7 0.432990 0.037506 0.637705
O O1 0.716419 0.667981 0.169900
O O2 0.824215 0.266843 0.375062
O O3 0.658659 0.160718 0.310212
O O4 0.621030 0.608952 0.404682
O O5 0.198090 0.662552 0.970627
O O6 0.358386 0.179424 0.065525
O O7 0.163372 0.115617 0.057337
O O8 0.103885 0.641350 0.215443
O O9 0.000000 0.000000 0.000000
O O10 0.806877 0.234142 0.625004
O O11 0.675632 0.484409 0.791645
O O12 0.814617 0.777006 0.575311
O O13 0.000000 0.000000 0.500000
O O14 0.492681 0.062892 0.243203
O O15 0.500000 0.500000 0.000000
O O16 0.500000 0.000000 0.500000
#
# Coordination Sequence:
#
# PCOD8035142 Si02
#       7
#     2   2   2   2   2   2   2
#     4  12  26  44  70 104 142 180 252 292 357 440
#     4  11  25  44  69 109 141 186 242 297 353 452
#     4  11  25  43  74  99 143 181 235 310 369 416
#     4  11  26  47  69 109 140 188 252 297 358 452
#     4  12  27  48  74 101 146 197 239 306 370 432
#     4  11  24  48  74 109 151 197 239 301 377 429
#     4  12  26  45  73 104 146 194 241 304 361 430
#
# _framework density 23.458523
#
# number of rings (size 3 to 8) (size 9 to 14) (size 15 to 20)
#    0.000    0.571    1.429    6.429    6.000    4.000 
#    0.000    0.000    0.000    0.000    0.000    0.000 
#    0.000    0.000    0.000    0.000    0.000    0.000 
#
# Total GULP energy -173579.291198 kJ/mol
# GULP energy per Si atom -12398.520800 kJ/mol
# Density = 2.340513 g / cm^3
# Si number density = 23.458523 Si / 1000 Ang^3
#
#
#
# Elastic Constant Matrix: (Units=GPa)
#
#
# Indices 1 2 3 4 5 6 
#
# 1 156.5549 47.6669 54.7045 -8.4876 29.3801 -6.5977
# 2 47.6669 100.5439 23.5519 -3.3812 12.2078 0.6565
# 3 54.7045 23.5519 132.2865 -3.6023 24.4475 -16.8876
# 4 -8.4876 -3.3812 -3.6023 32.5212 -7.5494 3.3932
# 5 29.3801 12.2078 24.4475 -7.5494 52.4737 -7.6431
# 6 -6.5977 0.6565 -16.8876 3.3932 -7.6431 34.0020
#
#
#
# Elastic Compliance Matrix: (Units=1/GPa)
#
#
# Indices 1 2 3 4 5 6 
#
# 1 0.008848 -0.003207 -0.002554 0.001045 -0.002903 -0.000247
# 2 -0.003207 0.011764 -0.000809 0.000277 -0.000735 -0.001444
# 3 -0.002554 -0.000809 0.009681 -0.000643 -0.002424 0.003848
# 4 0.001045 0.000277 -0.000643 0.032144 0.003918 -0.002449
# 5 -0.002903 -0.000735 -0.002424 0.003918 0.022987 0.003023
# 6 -0.000247 -0.001444 0.003848 -0.002449 0.003023 0.032225
#
#
# Mechanical properties :
#
#
# Convention : Reuss Voigt Hill
#
# Bulk Modulus (GPa) = 58.30311 71.24799 64.77555
# Shear Modulus (GPa) = 36.62802 41.36351 38.99577
#
# Velocity S-wave (km/s) = 3.95574 4.20368 4.08159
# Velocity P-wave (km/s) = 6.76546 7.34840 7.06295
#
# Compressibility (1/GPa) = 0.01715174
#
# Stress axis : x y z
#
# Youngs Moduli (GPa) = 113.02501 85.00657 103.29089
#
# Poissons Ratio (x) = 0.27261 0.26384
# Poissons Ratio (y) = 0.36247 0.08359
# Poissons Ratio (z) = 0.28870 0.06879
#
# Static dielectric constant tensor:
#      x y z
#    x 4.997120 0.733200 -0.499170 
#    y 0.733200 5.129280 -0.822690 
#    z -0.499170 -0.822690 5.295130 
# 
# 
# High freq. dielectric constant tensor:
#      x y z
#    x 1.922450 0.001670 0.017980 
#    y 0.001670 1.936390 0.001760 
#    z 0.017980 0.001760 1.947210 
# 
# From -- ./inp_files/408931.got.cif
#   From: 2010.06.25/outbox.cif.g09.slc.cpg/sg2_205_cif.got.tgz:408931.got - 2010.06.27 13:26:56.
