data_PCOD8035973
_publ_section_title
;
Structure prediction by ZEFSAII (Michael W. Deem and Ramdas Pophale) SiO2 
 PCOD8035973
Probable space group: P -1
;
_chemical_formula_sum "Si O2"
_cell_formula_units_Z 10
_cell_length_a 14.717082
_cell_length_b 9.289144
_cell_length_c 9.164066
_cell_angle_alpha 31.943325
_cell_angle_beta 141.529046
_cell_angle_gamma 140.893785
_cell_volume 387.932370
_symmetry_space_group_name_H-M "P -1"
_symmetry_group_IT_number 2
_symmetry_cell_setting 'triclinic'
loop_
_space_group_symop_operation_xyz
x,y,z
-x,-y,-z
loop_
_atom_site_type_symbol
_atom_site_label
_atom_site_fract_x
_atom_site_fract_y
_atom_site_fract_z
Si Si1 0.085176 0.854328 0.122256
Si Si2 0.719335 0.177530 0.358496
Si Si3 0.921528 0.287669 0.262365
Si Si4 0.220440 0.141118 0.770440
Si Si5 0.529197 0.539663 0.674773
O O1 0.183353 0.698222 0.477982
O O2 0.958454 0.626456 0.055094
O O3 0.211050 0.087641 0.978337
O O4 0.000000 0.000000 0.000000
O O5 0.838275 0.104880 0.457304
O O6 0.581338 0.881358 0.478248
O O7 0.660750 0.413507 0.003430
O O8 0.083825 0.255028 0.452026
O O9 0.804231 0.163733 0.085181
O O10 0.379874 0.383883 0.718701
O O11 0.500000 0.500000 0.500000
#
# Coordination Sequence:
#
# PCOD8035973 Si02
#       5
#     2   2   2   2   2
#     4  12  26  48  79 117 157 199 260 324 391 454
#     4  12  27  48  83 109 158 207 254 321 397 457
#     4  11  25  48  79 111 151 207 264 314 378 466
#     4  11  27  47  79 115 151 205 260 321 380 464
#     4  12  28  51  76 114 157 206 259 320 392 463
#
# _framework density 25.777688999999999
#
# number of rings (size 3 to 8) (size 9 to 14) (size 15 to 20)
#    0.000    0.400    4.000    3.000    5.600    1.600 
#    0.000    0.000    0.000    0.000    0.000    0.000 
#    0.000    0.000    0.000    0.000    0.000    0.000 
#
# Total GULP energy -123959.332959 kJ/mol
# GULP energy per Si atom -12395.933296 kJ/mol
# Density = 2.571902 g / cm^3
# Si number density = 25.777689 Si / 1000 Ang^3
#
#
#
# Elastic Constant Matrix: (Units=GPa)
#
#
# Indices 1 2 3 4 5 6 
#
# 1 163.5049 35.5138 13.6669 -9.7496 -37.6362 27.2349
# 2 35.5138 83.7113 6.6703 -16.6823 -9.3227 15.8574
# 3 13.6669 6.6703 86.6410 -8.2040 -27.9410 6.0104
# 4 -9.7496 -16.6823 -8.2040 29.5878 -8.1978 1.7109
# 5 -37.6362 -9.3227 -27.9410 -8.1978 41.6113 -1.6542
# 6 27.2349 15.8574 6.0104 1.7109 -1.6542 43.5265
#
#
#
# Elastic Compliance Matrix: (Units=1/GPa)
#
#
# Indices 1 2 3 4 5 6 
#
# 1 0.010693 -0.000260 0.004099 0.008744 0.013811 -0.006981
# 2 -0.000260 0.016335 0.002811 0.012348 0.007491 -0.006377
# 3 0.004099 0.002811 0.018635 0.013804 0.019333 -0.005970
# 4 0.008744 0.012348 0.013804 0.056695 0.030599 -0.012942
# 5 0.013811 0.007491 0.019333 0.030599 0.056692 -0.013089
# 6 -0.006981 -0.006377 -0.005970 -0.012942 -0.013089 0.030502
#
#
# Mechanical properties :
#
#
# Convention : Reuss Voigt Hill
#
# Bulk Modulus (GPa) = 16.95958 49.50659 33.23309
# Shear Modulus (GPa) = 25.52250 41.47885 33.50068
#
# Velocity S-wave (km/s) = 3.15000 4.01571 3.60891
# Velocity P-wave (km/s) = 4.45235 6.38343 5.50325
#
# Compressibility (1/GPa) = 0.05896372
#
# Stress axis : x y z
#
# Youngs Moduli (GPa) = 93.51761 61.21706 53.66331
#
# Poissons Ratio (x) = 0.01592 -0.21999
# Poissons Ratio (y) = 0.02433 -0.15084
# Poissons Ratio (z) = -0.38337 -0.17208
#
# Static dielectric constant tensor:
#      x y z
#    x 4.857840 -0.049110 -0.221920 
#    y -0.049110 4.951970 0.148580 
#    z -0.221920 0.148580 4.501810 
# 
# 
# High freq. dielectric constant tensor:
#      x y z
#    x 2.045030 0.004040 -0.018500 
#    y 0.004040 2.035840 -0.001990 
#    z -0.018500 -0.001990 2.019190 
# 
# From -- ./inp_files/15935.got.cif
#   From: 2010.06.25/outbox.cif.g09.slc.cpg/sg2_8_cif.got.tgz:15935.got - 2010.06.27 13:26:56.
