data_PCOD8035312
_publ_section_title
;
Structure prediction by ZEFSAII (Michael W. Deem and Ramdas Pophale) SiO2 
 PCOD8035312
Probable space group: P -1
;
_chemical_formula_sum "Si O2"
_cell_formula_units_Z 16
_cell_length_a 12.775176
_cell_length_b 14.188178
_cell_length_c 11.824495
_cell_angle_alpha 159.465349
_cell_angle_beta 103.148910
_cell_angle_gamma 80.021420
_cell_volume 727.117338
_symmetry_space_group_name_H-M "P -1"
_symmetry_group_IT_number 2
_symmetry_cell_setting 'triclinic'
loop_
_space_group_symop_operation_xyz
x,y,z
-x,-y,-z
loop_
_atom_site_type_symbol
_atom_site_label
_atom_site_fract_x
_atom_site_fract_y
_atom_site_fract_z
Si Si1 0.901671 0.962837 0.152142
Si Si2 0.381273 0.847932 0.302276
Si Si3 0.279266 0.385696 0.905323
Si Si4 0.224125 0.536897 0.311988
Si Si5 0.571664 0.254737 0.253501
Si Si6 0.870080 0.823397 0.547808
Si Si7 0.704998 0.210360 0.022535
Si Si8 0.100299 0.371282 0.428957
O O1 0.861995 0.251964 0.485231
O O2 0.829477 0.734297 0.947016
O O3 0.893558 0.905132 0.949946
O O4 0.026702 0.969357 0.233650
O O5 0.500000 0.000000 0.500000
O O6 0.305822 0.078133 0.571456
O O7 0.370565 0.607273 0.122013
O O8 0.349864 0.709025 0.017504
O O9 0.171885 0.376172 0.789107
O O10 0.259599 0.473134 0.124063
O O11 0.328293 0.662557 0.546964
O O12 0.500000 0.500000 0.500000
O O13 0.611048 0.151534 0.026011
O O14 0.500000 0.000000 0.000000
O O15 0.918581 0.657964 0.474991
O O16 0.770184 0.956622 0.727768
O O17 0.786180 0.450225 0.364518
O O18 0.000000 0.500000 0.500000
#
# Coordination Sequence:
#
# PCOD8035312 Si02
#       8
#     2   2   2   2   2   2   2   2
#     4  12  25  42  72 104 139 181 226 277 350 414
#     4  11  25  45  73 101 131 183 241 295 341 390
#     4  11  26  46  69  98 143 181 231 286 338 414
#     4  12  27  47  68 100 143 186 229 277 340 425
#     4  12  29  46  69  98 138 184 228 282 345 412
#     4  11  25  43  71 105 139 175 231 286 349 405
#     4  11  25  44  72 102 141 173 234 291 344 407
#     4  12  22  42  70 105 140 177 222 292 352 408
#
# _framework density 22.004702000000002
#
# number of rings (size 3 to 8) (size 9 to 14) (size 15 to 20)
#    0.000    0.500    3.750    3.750    5.250    1.000 
#    0.000    0.000    0.000    0.000    0.000    0.000 
#    0.000    0.000    0.000    0.000    0.000    0.000 
#
# Total GULP energy -198412.626413 kJ/mol
# GULP energy per Si atom -12400.789151 kJ/mol
# Density = 2.195462 g / cm^3
# Si number density = 22.004702 Si / 1000 Ang^3
#
#
#
# Elastic Constant Matrix: (Units=GPa)
#
#
# Indices 1 2 3 4 5 6 
#
# 1 113.1143 35.4367 23.1940 -7.0286 5.0231 9.3963
# 2 35.4367 101.6241 25.4820 -14.5839 -7.2097 12.3913
# 3 23.1940 25.4820 71.7957 -7.8316 -9.7536 3.3740
# 4 -7.0286 -14.5839 -7.8316 45.2930 5.6572 -1.3345
# 5 5.0231 -7.2097 -9.7536 5.6572 41.4960 -0.2754
# 6 9.3963 12.3913 3.3740 -1.3345 -0.2754 32.6053
#
#
#
# Elastic Compliance Matrix: (Units=1/GPa)
#
#
# Indices 1 2 3 4 5 6 
#
# 1 0.010569 -0.002940 -0.002574 0.000509 -0.002475 -0.001662
# 2 -0.002940 0.012503 -0.002820 0.002797 0.001461 -0.003486
# 3 -0.002574 -0.002820 0.016348 0.001086 0.003517 0.000196
# 4 0.000509 0.002797 0.001086 0.023551 -0.002534 -0.000379
# 5 -0.002475 0.001461 0.003517 -0.002534 0.025824 -0.000091
# 6 -0.001662 -0.003486 0.000196 -0.000379 -0.000091 0.032437
#
#
# Mechanical properties :
#
#
# Convention : Reuss Voigt Hill
#
# Bulk Modulus (GPa) = 43.95314 50.52882 47.24098
# Shear Modulus (GPa) = 34.36831 37.37364 35.87098
#
# Velocity S-wave (km/s) = 3.95633 4.12568 4.04189
# Velocity P-wave (km/s) = 6.39436 6.76074 6.58010
#
# Compressibility (1/GPa) = 0.02275150
#
# Stress axis : x y z
#
# Youngs Moduli (GPa) = 94.61617 79.98354 61.17004
#
# Poissons Ratio (x) = 0.23516 0.15743
# Poissons Ratio (y) = 0.27818 0.17252
# Poissons Ratio (z) = 0.24350 0.22558
#
# Static dielectric constant tensor:
#      x y z
#    x 4.200010 0.015880 0.079310 
#    y 0.015880 4.369070 -0.140540 
#    z 0.079310 -0.140540 4.167120 
# 
# 
# High freq. dielectric constant tensor:
#      x y z
#    x 1.874170 0.000150 0.011610 
#    y 0.000150 1.870370 -0.004310 
#    z 0.011610 -0.004310 1.873920 
# 
# From -- ./inp_files/434130.got.cif
#   From: 2010.06.25/outbox.cif.g09.slc.cpg/sg2_218_cif.got.tgz:434130.got - 2010.06.27 13:26:56.
