data_PCOD8035861
_publ_section_title
;
Structure prediction by ZEFSAII (Michael W. Deem and Ramdas Pophale) SiO2 
 PCOD8035861
Probable space group: P -1
;
_chemical_formula_sum "Si O2"
_cell_formula_units_Z 14
_cell_length_a 9.346167
_cell_length_b 10.897992
_cell_length_c 14.561622
_cell_angle_alpha 131.245422
_cell_angle_beta 28.180599
_cell_angle_gamma 122.251722
_cell_volume 521.914341
_symmetry_space_group_name_H-M "P -1"
_symmetry_group_IT_number 2
_symmetry_cell_setting 'triclinic'
loop_
_space_group_symop_operation_xyz
x,y,z
-x,-y,-z
loop_
_atom_site_type_symbol
_atom_site_label
_atom_site_fract_x
_atom_site_fract_y
_atom_site_fract_z
Si Si1 0.178329 0.257149 0.720443
Si Si2 0.736846 0.174157 0.776661
Si Si3 0.848683 0.613068 0.820647
Si Si4 0.181214 0.862957 0.648442
Si Si5 0.114400 0.600258 0.855600
Si Si6 0.982415 0.742250 0.522021
Si Si7 0.380391 0.891761 0.888476
O O1 0.474458 0.119767 0.503912
O O2 0.280655 0.413430 0.683509
O O3 0.930044 0.172648 0.760508
O O4 0.040151 0.331164 0.929380
O O5 0.954408 0.154258 0.554273
O O6 0.517089 0.032954 0.824982
O O7 0.512898 0.347694 0.978739
O O8 0.029015 0.759195 0.758664
O O9 0.873884 0.595708 0.907504
O O10 0.995033 0.450331 0.604790
O O11 0.209739 0.769051 0.488710
O O12 0.962643 0.038713 0.845323
O O13 0.351400 0.731003 0.761421
O O14 0.632206 0.819137 0.788117
#
# Coordination Sequence:
#
# PCOD8035861 Si02
#       7
#     2   2   2   2   2   2   2
#     4  11  26  47  75 110 141 186 241 298 351 427
#     4  11  26  47  75 108 145 184 243 291 363 419
#     4  11  25  47  75 107 141 192 238 294 354 429
#     4  11  27  45  71 109 146 188 238 291 363 419
#     4  11  26  47  77 103 148 182 242 294 361 416
#     4  12  24  46  76 104 143 190 242 293 348 428
#     4  11  28  49  73 103 148 193 235 294 359 426
#
# _framework density 26.824327
#
# number of rings (size 3 to 8) (size 9 to 14) (size 15 to 20)
#    0.000    0.857    1.429    3.429   12.000    4.000 
#    2.571    0.000    0.000    0.000    0.000    0.000 
#    0.000    0.000    0.000    0.000    0.000    0.000 
#
# Total GULP energy -173570.248339 kJ/mol
# GULP energy per Si atom -12397.874881 kJ/mol
# Density = 2.676327 g / cm^3
# Si number density = 26.824327 Si / 1000 Ang^3
#
#
#
# Elastic Constant Matrix: (Units=GPa)
#
#
# Indices 1 2 3 4 5 6 
#
# 1 176.1679 24.6999 61.9972 2.8827 -24.6312 -2.8122
# 2 24.6999 104.6015 18.1808 21.2651 -14.1587 17.2590
# 3 61.9972 18.1808 146.8283 7.6223 -39.4801 2.4054
# 4 2.8827 21.2651 7.6223 23.9442 -0.5426 -6.5287
# 5 -24.6312 -14.1587 -39.4801 -0.5426 50.6328 -4.0420
# 6 -2.8122 17.2590 2.4054 -6.5287 -4.0420 31.9449
#
#
#
# Elastic Compliance Matrix: (Units=1/GPa)
#
#
# Indices 1 2 3 4 5 6 
#
# 1 0.007017 -0.001973 -0.002602 0.002445 0.001060 0.002513
# 2 -0.001973 0.015730 0.000747 -0.017140 0.002890 -0.011865
# 3 -0.002602 0.000747 0.009750 -0.003664 0.006402 -0.001305
# 4 0.002445 -0.017140 -0.003664 0.063846 -0.003997 0.022294
# 5 0.001060 0.002890 0.006402 -0.003997 0.026065 0.000531
# 6 0.002513 -0.011865 -0.001305 0.022294 0.000531 0.042657
#
#
# Mechanical properties :
#
#
# Convention : Reuss Voigt Hill
#
# Bulk Modulus (GPa) = 40.25719 70.81707 55.53713
# Shear Modulus (GPa) = 27.62419 42.81904 35.22162
#
# Velocity S-wave (km/s) = 3.21256 3.99968 3.62753
# Velocity P-wave (km/s) = 5.36666 6.91285 6.18824
#
# Compressibility (1/GPa) = 0.02484028
#
# Stress axis : x y z
#
# Youngs Moduli (GPa) = 142.51260 63.57458 102.56681
#
# Poissons Ratio (x) = 0.12543 0.26684
# Poissons Ratio (y) = 0.28118 -0.07658
# Poissons Ratio (z) = 0.37076 -0.04747
#
# Static dielectric constant tensor:
#      x y z
#    x 4.662700 -0.120000 -0.364240 
#    y -0.120000 5.486430 0.238600 
#    z -0.364240 0.238600 5.007700 
# 
# 
# High freq. dielectric constant tensor:
#      x y z
#    x 2.071410 -0.007580 -0.017000 
#    y -0.007580 2.105980 0.010140 
#    z -0.017000 0.010140 2.078410 
# 
# From -- ./inp_files/500758.got.cif
#   From: 2010.06.25/outbox.cif.g09.slc.cpg/sg2_251_cif.got.tgz:500758.got - 2010.06.27 13:26:56.
