data_PCOD8035291
_publ_section_title
;
Structure prediction by ZEFSAII (Michael W. Deem and Ramdas Pophale) SiO2 
 PCOD8035291
Probable space group: P -1
;
_chemical_formula_sum "Si O2"
_cell_formula_units_Z 16
_cell_length_a 9.235978
_cell_length_b 12.082315
_cell_length_c 17.348237
_cell_angle_alpha 30.147614
_cell_angle_beta 122.172459
_cell_angle_gamma 131.140153
_cell_volume 728.818718
_symmetry_space_group_name_H-M "P -1"
_symmetry_group_IT_number 2
_symmetry_cell_setting 'triclinic'
loop_
_space_group_symop_operation_xyz
x,y,z
-x,-y,-z
loop_
_atom_site_type_symbol
_atom_site_label
_atom_site_fract_x
_atom_site_fract_y
_atom_site_fract_z
Si Si1 0.086943 0.102973 0.346549
Si Si2 0.051658 0.641621 0.535701
Si Si3 0.388644 0.120595 0.939788
Si Si4 0.295400 0.492487 0.590053
Si Si5 0.290926 0.103099 0.550387
Si Si6 0.984307 0.236558 0.881629
Si Si7 0.338490 0.641562 0.822583
Si Si8 0.377014 0.507420 0.082500
O O1 0.200021 0.210239 0.394851
O O2 0.171054 0.322754 0.174500
O O3 0.133275 0.882205 0.467322
O O4 0.856630 0.999970 0.356694
O O5 0.228032 0.658212 0.523815
O O6 0.872415 0.641702 0.438954
O O7 0.973724 0.391359 0.713094
O O8 0.318923 0.281662 0.770742
O O9 0.496268 0.281521 0.947900
O O10 0.500000 0.000000 0.000000
O O11 0.211949 0.861113 0.069591
O O12 0.500708 0.676970 0.497478
O O13 0.316646 0.882477 0.650344
O O14 0.155870 0.391609 0.895181
O O15 0.000000 0.000000 0.000000
O O16 0.521987 0.657988 0.817961
O O17 0.352520 0.641295 0.919406
#
# Coordination Sequence:
#
# PCOD8035291 Si02
#       8
#     2   2   2   2   2   2   2   2
#     4  11  25  43  68  98 136 178 227 279 344 408
#     4  11  25  43  72  98 136 178 230 288 333 412
#     4  12  28  45  70  99 143 184 223 286 352 416
#     4  11  25  45  68 103 132 181 232 279 346 407
#     4  11  25  43  68  98 136 178 227 279 344 408
#     4  12  24  45  68  99 137 184 233 280 342 408
#     4  11  25  43  72  98 136 178 230 288 333 412
#     4  11  25  45  68 103 132 181 232 279 346 407
#
# _framework density 21.953332
#
# number of rings (size 3 to 8) (size 9 to 14) (size 15 to 20)
#    0.000    0.750    5.000    0.750    7.000    3.000 
#    0.000    0.000    0.000    0.000    0.000    0.000 
#    0.000    0.000    0.000    0.000    0.000    0.000 
#
# Total GULP energy -198382.808840 kJ/mol
# GULP energy per Si atom -12398.925552 kJ/mol
# Density = 2.190337 g / cm^3
# Si number density = 21.953332 Si / 1000 Ang^3
#
#
#
# Elastic Constant Matrix: (Units=GPa)
#
#
# Indices 1 2 3 4 5 6 
#
# 1 121.5789 25.8362 17.9260 9.2231 -22.3950 14.7751
# 2 25.8362 86.4262 44.7834 23.0731 -2.3199 7.1030
# 3 17.9260 44.7834 61.2809 6.1225 -11.2395 1.6886
# 4 9.2231 23.0731 6.1225 30.7249 3.1538 -4.6280
# 5 -22.3950 -2.3199 -11.2395 3.1538 42.0489 -14.3534
# 6 14.7751 7.1030 1.6886 -4.6280 -14.3534 29.9053
#
#
#
# Elastic Compliance Matrix: (Units=1/GPa)
#
#
# Indices 1 2 3 4 5 6 
#
# 1 0.009990 -0.001666 -0.000591 -0.002498 0.004291 -0.002834
# 2 -0.001666 0.026646 -0.018226 -0.016745 -0.006513 -0.010194
# 3 -0.000591 -0.018226 0.030433 0.008150 0.009118 0.008540
# 4 -0.002498 -0.016745 0.008150 0.046017 0.000629 0.012174
# 5 0.004291 -0.006513 0.009118 0.000629 0.033199 0.014943
# 6 -0.002834 -0.010194 0.008540 0.012174 0.014943 0.045834
#
#
# Mechanical properties :
#
#
# Convention : Reuss Voigt Hill
#
# Bulk Modulus (GPa) = 38.30615 49.59745 43.95180
# Shear Modulus (GPa) = 20.67943 32.58517 26.63230
#
# Velocity S-wave (km/s) = 3.07249 3.85683 3.48678
# Velocity P-wave (km/s) = 5.48395 6.51727 6.02281
#
# Compressibility (1/GPa) = 0.02610547
#
# Stress axis : x y z
#
# Youngs Moduli (GPa) = 100.09555 37.52894 32.85884
#
# Poissons Ratio (x) = 0.06251 0.01940
# Poissons Ratio (y) = 0.16672 0.59889
# Poissons Ratio (z) = 0.05911 0.68400
#
# Static dielectric constant tensor:
#      x y z
#    x 4.080720 -0.082360 0.126480 
#    y -0.082360 3.664600 0.258660 
#    z 0.126480 0.258660 3.439770 
# 
# 
# High freq. dielectric constant tensor:
#      x y z
#    x 1.877090 0.002440 -0.003710 
#    y 0.002440 1.861740 -0.002250 
#    z -0.003710 -0.002250 1.863620 
# 
# From -- ./inp_files/186748.got.cif
#   From: 2010.06.25/outbox.cif.g09.slc.cpg/sg2_94_cif.got.tgz:186748.got - 2010.06.27 13:26:56.
