data_PCOD8035834
_publ_section_title
;
Structure prediction by ZEFSAII (Michael W. Deem and Ramdas Pophale) SiO2 
 PCOD8035834
Probable space group: P -1
;
_chemical_formula_sum "Si O2"
_cell_formula_units_Z 14
_cell_length_a 9.216591
_cell_length_b 15.947028
_cell_length_c 15.421417
_cell_angle_alpha 144.643532
_cell_angle_beta 140.687695
_cell_angle_gamma 29.243634
_cell_volume 625.103657
_symmetry_space_group_name_H-M "P -1"
_symmetry_group_IT_number 2
_symmetry_cell_setting 'triclinic'
loop_
_space_group_symop_operation_xyz
x,y,z
-x,-y,-z
loop_
_atom_site_type_symbol
_atom_site_label
_atom_site_fract_x
_atom_site_fract_y
_atom_site_fract_z
Si Si1 0.887823 0.075701 0.645238
Si Si2 0.141383 0.150879 0.971395
Si Si3 0.170565 0.420327 0.846428
Si Si4 0.831381 0.200220 0.043435
Si Si5 0.698637 0.784178 0.441841
Si Si6 0.823681 0.429203 0.383929
Si Si7 0.141911 0.725045 0.360657
O O1 0.520460 0.226307 0.609056
O O2 0.992331 0.146751 0.680652
O O3 0.020504 0.063116 0.788917
O O4 0.009632 0.864449 0.500537
O O5 0.990789 0.357325 0.035369
O O6 0.050867 0.171627 0.046907
O O7 0.500000 0.000000 0.000000
O O8 0.172262 0.367402 0.703572
O O9 0.970022 0.393881 0.789124
O O10 0.511046 0.283808 0.925973
O O11 0.770635 0.351664 0.211271
O O12 0.000000 0.000000 0.000000
O O13 0.969782 0.733622 0.584024
O O14 0.500000 0.000000 0.500000
O O15 0.503008 0.591563 0.418360
O O16 0.000000 0.500000 0.500000
#
# Coordination Sequence:
#
# PCOD8035834 Si02
#       7
#     2   2   2   2   2   2   2
#     4  11  25  47  73 109 149 191 245 304 369 434
#     4  12  30  47  74 110 152 195 251 309 368 436
#     4  12  27  50  76 107 153 199 244 303 377 439
#     4  12  29  49  77 109 148 197 246 302 374 443
#     4  12  24  46  74 107 145 192 238 301 368 439
#     4  12  27  46  74 107 145 189 247 296 361 439
#     4  11  27  45  78 108 145 193 247 308 364 436
#
# _framework density 22.396287000000001
#
# number of rings (size 3 to 8) (size 9 to 14) (size 15 to 20)
#    0.000    0.286    4.286    3.000    8.000    1.714 
#    0.000    0.000    0.000    0.000    0.000    0.000 
#    0.000    0.000    0.000    0.000    0.000    0.000 
#
# Total GULP energy -173690.519718 kJ/mol
# GULP energy per Si atom -12406.465694 kJ/mol
# Density = 2.234531 g / cm^3
# Si number density = 22.396287 Si / 1000 Ang^3
#
#
#
# Elastic Constant Matrix: (Units=GPa)
#
#
# Indices 1 2 3 4 5 6 
#
# 1 104.3429 38.6409 29.3174 -8.3305 15.4838 -11.2695
# 2 38.6409 130.8752 22.7453 -12.2474 8.6214 -8.9512
# 3 29.3174 22.7453 99.4041 -10.0062 -8.3104 -2.4526
# 4 -8.3305 -12.2474 -10.0062 40.9814 2.9243 9.0166
# 5 15.4838 8.6214 -8.3104 2.9243 44.7180 0.3545
# 6 -11.2695 -8.9512 -2.4526 9.0166 0.3545 44.8584
#
#
#
# Elastic Compliance Matrix: (Units=1/GPa)
#
#
# Indices 1 2 3 4 5 6 
#
# 1 0.012449 -0.002572 -0.003326 0.000762 -0.004501 0.002315
# 2 -0.002572 0.008897 -0.001179 0.001774 -0.001166 0.000718
# 3 -0.003326 -0.001179 0.011758 0.001775 0.003454 -0.000812
# 4 0.000762 0.001774 0.001775 0.026697 -0.001984 -0.004708
# 5 -0.004501 -0.001166 0.003454 -0.001984 0.024925 -0.000973
# 6 0.002315 0.000718 -0.000812 -0.004708 -0.000973 0.023927
#
#
# Mechanical properties :
#
#
# Convention : Reuss Voigt Hill
#
# Bulk Modulus (GPa) = 52.76381 57.33660 55.05021
# Shear Modulus (GPa) = 38.72309 42.37279 40.54794
#
# Velocity S-wave (km/s) = 4.16263 4.35438 4.25958
# Velocity P-wave (km/s) = 6.83474 7.13704 6.98752
#
# Compressibility (1/GPa) = 0.01895238
#
# Stress axis : x y z
#
# Youngs Moduli (GPa) = 80.32560 112.40044 85.04935
#
# Poissons Ratio (x) = 0.28904 0.28285
# Poissons Ratio (y) = 0.20656 0.10023
# Poissons Ratio (z) = 0.26714 0.13246
#
# Static dielectric constant tensor:
#      x y z
#    x 4.249700 -0.043150 0.006510 
#    y -0.043150 4.088650 0.064260 
#    z 0.006510 0.064260 3.958040 
# 
# 
# High freq. dielectric constant tensor:
#      x y z
#    x 1.898880 -0.001620 -0.002710 
#    y -0.001620 1.891630 0.001700 
#    z -0.002710 0.001700 1.890340 
# 
# From -- ./inp_files/154409.got.cif
#   From: 2010.06.25/outbox.cif.g09.slc.cpg/sg2_78_cif.got.tgz:154409.got - 2010.06.27 13:26:56.
