data_PCOD8035083
_publ_section_title
;
Structure prediction by ZEFSAII (Michael W. Deem and Ramdas Pophale) SiO2 
 PCOD8035083
Probable space group: P -1
;
_chemical_formula_sum "Si O2"
_cell_formula_units_Z 16
_cell_length_a 22.201069
_cell_length_b 8.864230
_cell_length_c 8.766406
_cell_angle_alpha 86.733781
_cell_angle_beta 124.766570
_cell_angle_gamma 137.826130
_cell_volume 712.353730
_symmetry_space_group_name_H-M "P -1"
_symmetry_group_IT_number 2
_symmetry_cell_setting 'triclinic'
loop_
_space_group_symop_operation_xyz
x,y,z
-x,-y,-z
loop_
_atom_site_type_symbol
_atom_site_label
_atom_site_fract_x
_atom_site_fract_y
_atom_site_fract_z
Si Si1 0.894242 0.121058 0.753908
Si Si2 0.356706 0.809054 0.377321
Si Si3 0.923477 0.681532 0.501660
Si Si4 0.083860 0.731846 0.896743
Si Si5 0.583111 0.538286 0.234656
Si Si6 0.603362 0.797673 0.720493
Si Si7 0.928333 0.780320 0.174568
Si Si8 0.358865 0.696043 0.729839
O O1 0.024067 0.461618 0.869564
O O2 0.938379 0.034841 0.754735
O O3 0.731905 0.885440 0.484509
O O4 0.897671 0.123080 0.940974
O O5 0.347332 0.748253 0.543438
O O6 0.500000 0.000000 0.500000
O O7 0.361768 0.998239 0.350524
O O8 0.221622 0.489781 0.117483
O O9 0.923673 0.662438 0.321020
O O10 0.769991 0.469728 0.345090
O O11 0.961719 0.582513 0.618491
O O12 0.048329 0.012148 0.733398
O O13 0.240967 0.999899 0.026839
O O14 0.475101 0.299697 0.229546
O O15 0.637971 0.479569 0.245801
O O16 0.500000 0.500000 0.000000
O O17 0.500000 0.500000 0.500000
O O18 0.500000 0.000000 0.000000
#
# Coordination Sequence:
#
# PCOD8035083 Si02
#       8
#     2   2   2   2   2   2   2   2
#     4  11  24  48  67 104 139 186 238 285 359 421
#     4  12  26  47  74 100 144 194 242 293 352 435
#     4  11  27  43  72 106 141 185 234 301 351 419
#     4  11  26  43  74 103 143 184 235 296 350 422
#     4  12  29  47  73 105 147 189 235 299 360 427
#     4  12  27  47  70 110 143 191 239 292 362 424
#     4  11  25  46  69 103 142 184 243 288 356 422
#     4  12  28  47  72 108 143 188 240 298 361 420
#
# _framework density 22.460750999999998
#
# number of rings (size 3 to 8) (size 9 to 14) (size 15 to 20)
#    0.000    0.500    5.000    1.500   10.500    1.500 
#    0.000    0.000    0.000    0.000    0.000    0.000 
#    0.000    0.000    0.000    0.000    0.000    0.000 
#
# Total GULP energy -198422.437397 kJ/mol
# GULP energy per Si atom -12401.402337 kJ/mol
# Density = 2.240963 g / cm^3
# Si number density = 22.460751 Si / 1000 Ang^3
#
#
#
# Elastic Constant Matrix: (Units=GPa)
#
#
# Indices 1 2 3 4 5 6 
#
# 1 83.2461 6.8441 24.4306 6.1713 19.0994 10.5273
# 2 6.8441 71.5618 41.4157 -0.1918 5.9748 4.5219
# 3 24.4306 41.4157 155.1827 5.8249 7.0331 7.2150
# 4 6.1713 -0.1918 5.8249 41.0170 4.3212 11.2938
# 5 19.0994 5.9748 7.0331 4.3212 45.5076 2.1900
# 6 10.5273 4.5219 7.2150 11.2938 2.1900 31.5249
#
#
#
# Elastic Compliance Matrix: (Units=1/GPa)
#
#
# Indices 1 2 3 4 5 6 
#
# 1 0.014335 0.000464 -0.001937 -0.000205 -0.005568 -0.003950
# 2 0.000464 0.016763 -0.004430 0.001347 -0.001747 -0.001907
# 3 -0.001937 -0.004430 0.007963 -0.000813 0.000254 -0.000266
# 4 -0.000205 0.001347 -0.000813 0.027400 -0.002104 -0.009608
# 5 -0.005568 -0.001747 0.000254 -0.002104 0.024649 0.001094
# 6 -0.003950 -0.001907 -0.000266 -0.009608 0.001094 0.036741
#
#
# Mechanical properties :
#
#
# Convention : Reuss Voigt Hill
#
# Bulk Modulus (GPa) = 36.68958 50.59683 43.64321
# Shear Modulus (GPa) = 33.61557 39.42989 36.52273
#
# Velocity S-wave (km/s) = 3.87284 4.19442 4.03683
# Velocity P-wave (km/s) = 6.03066 6.78478 6.41880
#
# Compressibility (1/GPa) = 0.02725570
#
# Stress axis : x y z
#
# Youngs Moduli (GPa) = 69.75854 59.65496 125.58835
#
# Poissons Ratio (x) = -0.02767 0.24325
# Poissons Ratio (y) = -0.03236 0.55630
# Poissons Ratio (z) = 0.13511 0.26424
#
# Static dielectric constant tensor:
#      x y z
#    x 4.194230 0.122950 -0.054910 
#    y 0.122950 4.365480 0.034200 
#    z -0.054910 0.034200 4.216930 
# 
# 
# High freq. dielectric constant tensor:
#      x y z
#    x 1.896090 0.006540 0.004500 
#    y 0.006540 1.884460 0.008520 
#    z 0.004500 0.008520 1.901340 
# 
# From -- ./inp_files/223205.got.cif
#   From: 2010.06.25/outbox.cif.g09.slc.cpg/sg2_112_cif.got.tgz:223205.got - 2010.06.27 13:26:56.
