data_PCOD8035828
_publ_section_title
;
Structure prediction by ZEFSAII (Michael W. Deem and Ramdas Pophale) SiO2 
 PCOD8035828
Probable space group: P -1
;
_chemical_formula_sum "Si O2"
_cell_formula_units_Z 12
_cell_length_a 11.320523
_cell_length_b 5.403626
_cell_length_c 9.626348
_cell_angle_alpha 124.206364
_cell_angle_beta 107.021394
_cell_angle_gamma 70.399238
_cell_volume 454.662242
_symmetry_space_group_name_H-M "P -1"
_symmetry_group_IT_number 2
_symmetry_cell_setting 'triclinic'
loop_
_space_group_symop_operation_xyz
x,y,z
-x,-y,-z
loop_
_atom_site_type_symbol
_atom_site_label
_atom_site_fract_x
_atom_site_fract_y
_atom_site_fract_z
Si Si1 0.230711 0.366741 0.956076
Si Si2 0.654433 0.870966 0.810357
Si Si3 0.348271 0.598984 0.559638
Si Si4 0.908216 0.994590 0.839970
Si Si5 0.081920 0.902444 0.631579
Si Si6 0.587010 0.738852 0.242250
O O1 0.310037 0.477614 0.891051
O O2 0.130008 0.184418 0.806363
O O3 0.336031 0.167273 0.032224
O O4 0.154691 0.653123 0.108426
O O5 0.604037 0.600814 0.625102
O O6 0.794472 0.836269 0.788231
O O7 0.556365 0.192753 0.846337
O O8 0.199144 0.626401 0.548821
O O9 0.418597 0.418113 0.660434
O O10 0.368985 0.937134 0.644252
O O11 0.986806 0.805768 0.681365
O O12 0.000000 0.000000 0.000000
O O13 0.000000 0.000000 0.500000
#
# Coordination Sequence:
#
# PCOD8035828 Si02
#       6
#     2   2   2   2   2   2
#     4  11  26  46  70 105 145 189 245 300 362 431
#     4  12  27  45  75 104 144 195 235 305 364 427
#     4  11  27  49  75 109 144 191 248 301 357 430
#     4  12  26  44  70 105 146 185 244 297 363 436
#     4  11  25  47  73 103 146 193 242 300 361 432
#     4  11  27  50  75 107 147 190 249 298 361 429
#
# _framework density 26.393219999999999
#
# number of rings (size 3 to 8) (size 9 to 14) (size 15 to 20)
#    0.000    0.667    1.667    4.000   14.000    1.333 
#    0.000    0.000    0.000    0.000    0.000    0.000 
#    0.000    0.000    0.000    0.000    0.000    0.000 
#
# Total GULP energy -148791.566723 kJ/mol
# GULP energy per Si atom -12399.297227 kJ/mol
# Density = 2.633315 g / cm^3
# Si number density = 26.393220 Si / 1000 Ang^3
#
#
#
# Elastic Constant Matrix: (Units=GPa)
#
#
# Indices 1 2 3 4 5 6 
#
# 1 80.8698 -7.8681 0.4288 -10.7776 -20.0711 -16.0416
# 2 -7.8681 89.6981 8.7897 -27.9030 4.3929 -16.2498
# 3 0.4288 8.7897 90.5863 -38.6717 0.3392 -5.1037
# 4 -10.7776 -27.9030 -38.6717 49.0914 -6.4642 1.8481
# 5 -20.0711 4.3929 0.3392 -6.4642 52.2561 -0.1368
# 6 -16.0416 -16.2498 -5.1037 1.8481 -0.1368 50.7646
#
#
#
# Elastic Compliance Matrix: (Units=1/GPa)
#
#
# Indices 1 2 3 4 5 6 
#
# 1 0.017887 0.005714 0.004728 0.011645 0.007820 0.007554
# 2 0.005714 0.017007 0.005142 0.015043 0.002611 0.007226
# 3 0.004728 0.005142 0.018947 0.019203 0.003648 0.004356
# 4 0.011645 0.015043 0.019203 0.047458 0.008977 0.008722
# 5 0.007820 0.002611 0.003648 0.008977 0.023016 0.003409
# 6 0.007554 0.007226 0.004356 0.008722 0.003409 0.024528
#
#
# Mechanical properties :
#
#
# Convention : Reuss Voigt Hill
#
# Bulk Modulus (GPa) = 11.76336 29.31723 20.54029
# Shear Modulus (GPa) = 34.24371 47.74265 40.99318
#
# Velocity S-wave (km/s) = 3.60591 4.25773 3.94530
# Velocity P-wave (km/s) = 4.66942 5.94163 5.34352
#
# Compressibility (1/GPa) = 0.08500973
#
# Stress axis : x y z
#
# Youngs Moduli (GPa) = 55.90509 58.80100 52.77744
#
# Poissons Ratio (x) = -0.33596 -0.24955
# Poissons Ratio (y) = -0.31942 -0.27139
# Poissons Ratio (z) = -0.26434 -0.30236
#
# Static dielectric constant tensor:
#      x y z
#    x 5.323350 -0.235310 0.339120 
#    y -0.235310 4.620150 0.261250 
#    z 0.339120 0.261250 5.381600 
# 
# 
# High freq. dielectric constant tensor:
#      x y z
#    x 2.089330 -0.013620 0.003110 
#    y -0.013620 2.046990 0.001590 
#    z 0.003110 0.001590 2.065820 
# 
# From -- ./inp_files/22327.got.cif
#   From: 2010.06.25/outbox.cif.g09.slc.cpg/sg2_12_cif.got.tgz:22327.got - 2010.06.27 13:26:56.
