data_PCOD8035918
_publ_section_title
;
Structure prediction by ZEFSAII (Michael W. Deem and Ramdas Pophale) SiO2 
 PCOD8035918
Probable space group: P -1
;
_chemical_formula_sum "Si O2"
_cell_formula_units_Z 14
_cell_length_a 5.019860
_cell_length_b 12.625261
_cell_length_c 10.438073
_cell_angle_alpha 50.212826
_cell_angle_beta 88.590008
_cell_angle_gamma 83.147624
_cell_volume 503.547261
_symmetry_space_group_name_H-M "P -1"
_symmetry_group_IT_number 2
_symmetry_cell_setting 'triclinic'
loop_
_space_group_symop_operation_xyz
x,y,z
-x,-y,-z
loop_
_atom_site_type_symbol
_atom_site_label
_atom_site_fract_x
_atom_site_fract_y
_atom_site_fract_z
Si Si1 0.063741 0.269474 0.193508
Si Si2 0.666957 0.569159 0.551783
Si Si3 0.989471 0.021396 0.655184
Si Si4 0.839175 0.637372 0.239180
Si Si5 0.302352 0.500737 0.880158
Si Si6 0.471733 0.178592 0.463317
Si Si7 0.768892 0.953040 0.959440
O O1 0.930715 0.143714 0.231678
O O2 0.351086 0.215342 0.295890
O O3 0.857233 0.343390 0.246625
O O4 0.097540 0.387375 0.996451
O O5 0.500000 0.500000 0.500000
O O6 0.815128 0.659793 0.375800
O O7 0.510315 0.676729 0.573521
O O8 0.876865 0.459331 0.712925
O O9 0.772495 0.092710 0.496593
O O10 0.785973 0.043869 0.760924
O O11 0.262227 0.090230 0.607204
O O12 0.612845 0.552391 0.228115
O O13 0.816500 0.788668 0.057238
O O14 0.500000 0.500000 0.000000
O O15 0.500000 0.000000 0.000000
O O16 0.000000 0.000000 0.000000
#
# Coordination Sequence:
#
# PCOD8035918 Si02
#       7
#     2   2   2   2   2   2   2
#     4  11  26  47  70 112 145 198 247 308 371 446
#     4  11  27  44  76 106 145 197 249 310 370 440
#     4  12  27  48  75 108 149 198 249 301 377 441
#     4  11  25  48  71 108 144 194 250 308 372 439
#     4  11  26  45  77 105 149 195 249 310 374 444
#     4  12  28  48  76 110 151 197 249 307 369 447
#     4  12  27  48  74 108 150 194 246 307 369 447
#
# _framework density 27.802752999999999
#
# number of rings (size 3 to 8) (size 9 to 14) (size 15 to 20)
#    0.000    0.571    2.857    3.429   14.000    1.143 
#    0.000    0.000    0.000    0.000    0.000    0.000 
#    0.000    0.000    0.000    0.000    0.000    0.000 
#
# Total GULP energy -173447.540725 kJ/mol
# GULP energy per Si atom -12389.110052 kJ/mol
# Density = 2.773947 g / cm^3
# Si number density = 27.802753 Si / 1000 Ang^3
#
#
#
# Elastic Constant Matrix: (Units=GPa)
#
#
# Indices 1 2 3 4 5 6 
#
# 1 93.4739 17.9757 -15.1850 -24.6202 12.2637 18.1278
# 2 17.9757 132.4418 -2.0244 -23.4919 4.4120 22.5339
# 3 -15.1850 -2.0244 64.9613 -19.3351 5.5107 11.2021
# 4 -24.6202 -23.4919 -19.3351 67.6162 1.5369 -2.2423
# 5 12.2637 4.4120 5.5107 1.5369 39.4150 2.9888
# 6 18.1278 22.5339 11.2021 -2.2423 2.9888 44.7126
#
#
#
# Elastic Compliance Matrix: (Units=1/GPa)
#
#
# Indices 1 2 3 4 5 6 
#
# 1 0.016653 0.001087 0.008532 0.008737 -0.006186 -0.008585
# 2 0.001087 0.009186 0.002883 0.004264 -0.001520 -0.005477
# 3 0.008532 0.002883 0.022748 0.010424 -0.005829 -0.009699
# 4 0.008737 0.004264 0.010424 0.022320 -0.005004 -0.006849
# 5 -0.006186 -0.001520 -0.005829 -0.005004 0.028279 0.002593
# 6 -0.008585 -0.005477 -0.009699 -0.006849 0.002593 0.030519
#
#
# Mechanical properties :
#
#
# Convention : Reuss Voigt Hill
#
# Bulk Modulus (GPa) = 13.58870 32.48994 23.03932
# Shear Modulus (GPa) = 38.69040 49.68947 44.18993
#
# Velocity S-wave (km/s) = 3.73447 4.23213 3.99106
# Velocity P-wave (km/s) = 4.84697 5.96594 5.43533
#
# Compressibility (1/GPa) = 0.07359055
#
# Stress axis : x y z
#
# Youngs Moduli (GPa) = 60.04902 108.86171 43.96055
#
# Poissons Ratio (x) = -0.11830 -0.37508
# Poissons Ratio (y) = -0.06525 -0.12674
# Poissons Ratio (z) = -0.51235 -0.31385
#
# Static dielectric constant tensor:
#      x y z
#    x 5.353680 -0.541930 -0.843300 
#    y -0.541930 6.134660 0.765090 
#    z -0.843300 0.765090 6.252570 
# 
# 
# High freq. dielectric constant tensor:
#      x y z
#    x 2.121810 0.003140 -0.026310 
#    y 0.003140 2.141740 0.002010 
#    z -0.026310 0.002010 2.154660 
# 
# From -- ./inp_files/64350.got.cif
#   From: 2010.06.25/outbox.cif.g09.slc.cpg/sg2_33_cif.got.tgz:64350.got - 2010.06.27 13:26:56.
