data_PCOD8035439
_publ_section_title
;
Structure prediction by ZEFSAII (Michael W. Deem and Ramdas Pophale) SiO2 
 PCOD8035439
Probable space group: P -1
;
_chemical_formula_sum "Si O2"
_cell_formula_units_Z 16
_cell_length_a 12.401589
_cell_length_b 14.140904
_cell_length_c 5.695923
_cell_angle_alpha 50.864703
_cell_angle_beta 85.249093
_cell_angle_gamma 68.798574
_cell_volume 707.597933
_symmetry_space_group_name_H-M "P -1"
_symmetry_group_IT_number 2
_symmetry_cell_setting 'triclinic'
loop_
_space_group_symop_operation_xyz
x,y,z
-x,-y,-z
loop_
_atom_site_type_symbol
_atom_site_label
_atom_site_fract_x
_atom_site_fract_y
_atom_site_fract_z
Si Si1 0.491187 0.076636 0.132818
Si Si2 0.944400 0.568982 0.149079
Si Si3 0.675058 0.643421 0.166743
Si Si4 0.096282 0.959601 0.242691
Si Si5 0.719864 0.366641 0.757527
Si Si6 0.034693 0.786252 0.847951
Si Si7 0.472874 0.644914 0.868813
Si Si8 0.659128 0.181840 0.760422
O O1 0.500000 0.000000 0.500000
O O2 0.369200 0.210989 0.933785
O O3 0.600894 0.122373 0.063268
O O4 0.500000 0.000000 0.000000
O O5 0.806923 0.597669 0.116672
O O6 0.000000 0.500000 0.500000
O O7 0.000000 0.500000 0.000000
O O8 0.958025 0.706846 0.908924
O O9 0.673430 0.526912 0.524404
O O10 0.585987 0.648823 0.969011
O O11 0.101219 0.821827 0.565686
O O12 0.223827 0.940331 0.153897
O O13 0.061281 0.077476 0.249602
O O14 0.000000 0.000000 0.000000
O O15 0.692815 0.307153 0.615139
O O16 0.861308 0.301884 0.857940
O O17 0.648984 0.313636 0.032078
O O18 0.444739 0.760668 0.501370
O O19 0.500000 0.500000 0.000000
#
# Coordination Sequence:
#
# PCOD8035439 Si02
#       8
#     2   2   2   2   2   2   2   2
#     4  12  30  52  74 107 158 210 258 309 381 476
#     4  12  31  51  79 111 158 206 256 320 392 470
#     4  12  27  51  77 114 152 208 257 319 395 464
#     4  11  25  44  77 108 150 202 257 321 386 462
#     4  12  23  45  77 114 145 184 262 328 384 446
#     4  11  26  47  74 113 152 203 260 318 391 456
#     4  12  24  41  76 111 147 191 246 327 387 443
#     4  12  25  45  76 110 152 196 260 325 386 454
#
# _framework density 22.611712000000001
#
# number of rings (size 3 to 8) (size 9 to 14) (size 15 to 20)
#    0.000    0.250    6.250    1.875    7.000    3.000 
#    0.000    0.000    0.000    0.000    0.000    0.000 
#    0.000    0.000    0.000    0.000    0.000    0.000 
#
# Total GULP energy -198234.148578 kJ/mol
# GULP energy per Si atom -12389.634286 kJ/mol
# Density = 2.256025 g / cm^3
# Si number density = 22.611712 Si / 1000 Ang^3
#
#
#
# Elastic Constant Matrix: (Units=GPa)
#
#
# Indices 1 2 3 4 5 6 
#
# 1 150.2513 44.2208 47.0817 -5.3249 -6.5995 -12.3199
# 2 44.2208 121.1772 49.0593 -4.7479 -9.7037 -2.6080
# 3 47.0817 49.0593 137.2209 -7.0491 -6.0950 -2.5238
# 4 -5.3249 -4.7479 -7.0491 36.7562 0.8744 -1.0634
# 5 -6.5995 -9.7037 -6.0950 0.8744 37.7772 -3.4232
# 6 -12.3199 -2.6080 -2.5238 -1.0634 -3.4232 45.5954
#
#
#
# Elastic Compliance Matrix: (Units=1/GPa)
#
#
# Indices 1 2 3 4 5 6 
#
# 1 0.008084 -0.002036 -0.001946 0.000576 0.000746 0.002030
# 2 -0.002036 0.010330 -0.002890 0.000442 0.001824 0.000028
# 3 -0.001946 -0.002890 0.009056 0.001069 0.000341 -0.000139
# 4 0.000576 0.000442 0.001069 0.027581 -0.000173 0.000870
# 5 0.000746 0.001824 0.000341 -0.000173 0.027344 0.002374
# 6 0.002030 0.000028 -0.000139 0.000870 0.002374 0.022673
#
#
# Mechanical properties :
#
#
# Convention : Reuss Voigt Hill
#
# Bulk Modulus (GPa) = 72.85821 76.59700 74.72761
# Shear Modulus (GPa) = 40.52296 41.91161 41.21728
#
# Velocity S-wave (km/s) = 4.23794 4.30994 4.27409
# Velocity P-wave (km/s) = 7.49922 7.66263 7.58136
#
# Compressibility (1/GPa) = 0.01372529
#
# Stress axis : x y z
#
# Youngs Moduli (GPa) = 123.69940 96.80959 110.42547
#
# Poissons Ratio (x) = 0.19715 0.21485
# Poissons Ratio (y) = 0.25191 0.31914
# Poissons Ratio (z) = 0.24067 0.27979
#
# Static dielectric constant tensor:
#      x y z
#    x 3.703730 1.201780 -0.618710 
#    y 1.201780 1.469220 0.810050 
#    z -0.618710 0.810050 4.327220 
# 
# 
# High freq. dielectric constant tensor:
#      x y z
#    x 1.903140 -0.005700 -0.005100 
#    y -0.005700 1.900730 -0.006680 
#    z -0.005100 -0.006680 1.894370 
# 
# From -- ./inp_files/76976.got.cif
#   From: 2010.06.25/outbox.cif.g09.slc.cpg/sg2_39_cif.got.tgz:76976.got - 2010.06.27 13:26:56.
