data_PCOD8035806
_publ_section_title
;
Structure prediction by ZEFSAII (Michael W. Deem and Ramdas Pophale) SiO2 
 PCOD8035806
Probable space group: P -1
;
_chemical_formula_sum "Si O2"
_cell_formula_units_Z 16
_cell_length_a 20.924609
_cell_length_b 7.888741
_cell_length_c 18.500439
_cell_angle_alpha 39.970486
_cell_angle_beta 161.408138
_cell_angle_gamma 139.128812
_cell_volume 618.803673
_symmetry_space_group_name_H-M "P -1"
_symmetry_group_IT_number 2
_symmetry_cell_setting 'triclinic'
loop_
_space_group_symop_operation_xyz
x,y,z
-x,-y,-z
loop_
_atom_site_type_symbol
_atom_site_label
_atom_site_fract_x
_atom_site_fract_y
_atom_site_fract_z
Si Si1 0.157386 0.823178 0.044911
Si Si2 0.841693 0.276179 0.367752
Si Si3 0.446015 0.528578 0.530761
Si Si4 0.504282 0.029357 0.192981
Si Si5 0.075000 0.808692 0.793044
Si Si6 0.728942 0.371278 0.539907
Si Si7 0.630712 0.628995 0.934731
Si Si8 0.853136 0.851178 0.830624
O O1 0.339563 0.640226 0.309319
O O2 0.242188 0.132787 0.053541
O O3 0.070155 0.809794 0.874888
O O4 0.974962 0.728363 0.936729
O O5 0.000000 0.500000 0.500000
O O6 0.649355 0.198360 0.237828
O O7 0.765014 0.396606 0.171970
O O8 0.948113 0.020077 0.551548
O O9 0.391073 0.206104 0.580158
O O10 0.348078 0.663185 0.449289
O O11 0.691242 0.609788 0.767200
O O12 0.433794 0.239200 0.103780
O O13 0.304527 0.873836 0.988731
O O14 0.958610 0.525297 0.734100
O O15 0.566673 0.511342 0.274697
O O16 0.727509 0.084234 0.593370
O O17 0.000000 0.000000 0.000000
#
# Coordination Sequence:
#
# PCOD8035806 Si02
#       8
#     2   2   2   2   2   2   2   2
#     4  11  25  47  71 107 138 196 242 286 353 428
#     4  12  24  50  80 103 140 184 245 304 348 418
#     4  12  25  47  70 105 154 183 238 293 348 429
#     4  11  26  48  75 108 139 189 241 297 348 427
#     4  11  27  48  72 108 143 187 242 299 350 424
#     4  12  25  48  67 105 154 186 234 296 358 422
#     4  11  26  46  77 105 141 189 244 293 361 419
#     4  12  24  43  74 102 148 198 227 292 361 420
#
# _framework density 25.856342999999999
#
# number of rings (size 3 to 8) (size 9 to 14) (size 15 to 20)
#    0.000    0.500    6.250    2.250    1.750    3.000 
#    4.500    0.625    0.000    0.000    0.000    0.000 
#    0.000    0.000    0.000    0.000    0.000    0.000 
#
# Total GULP energy -198437.193322 kJ/mol
# GULP energy per Si atom -12402.324583 kJ/mol
# Density = 2.579749 g / cm^3
# Si number density = 25.856343 Si / 1000 Ang^3
#
#
#
# Elastic Constant Matrix: (Units=GPa)
#
#
# Indices 1 2 3 4 5 6 
#
# 1 24.5417 21.7284 22.1434 7.7049 13.0861 14.3849
# 2 21.7284 102.8066 37.0488 18.3254 -1.0193 24.0231
# 3 22.1434 37.0488 149.2491 0.6224 -16.6110 15.6885
# 4 7.7049 18.3254 0.6224 65.4849 5.4060 9.9362
# 5 13.0861 -1.0193 -16.6110 5.4060 42.7081 6.3146
# 6 14.3849 24.0231 15.6885 9.9362 6.3146 43.8632
#
#
#
# Elastic Compliance Matrix: (Units=1/GPa)
#
#
# Indices 1 2 3 4 5 6 
#
# 1 0.083886 -0.010304 -0.011646 -0.002564 -0.028223 -0.013058
# 2 -0.010304 0.013599 -0.001005 -0.002340 0.003941 -0.003746
# 3 -0.011646 -0.001005 0.009500 0.001014 0.007153 -0.000288
# 4 -0.002564 -0.002340 0.001014 0.016562 -0.000692 -0.001892
# 5 -0.028223 0.003941 0.007153 -0.000692 0.035079 -0.000354
# 6 -0.013058 -0.003746 -0.000288 -0.001892 -0.000354 0.029715
#
#
# Mechanical properties :
#
#
# Convention : Reuss Voigt Hill
#
# Bulk Modulus (GPa) = 16.37339 48.71540 32.54440
# Shear Modulus (GPa) = 19.63813 43.45639 31.54726
#
# Velocity S-wave (km/s) = 2.75891 4.10406 3.49678
# Velocity P-wave (km/s) = 4.06140 6.42958 5.37747
#
# Compressibility (1/GPa) = 0.06107469
#
# Stress axis : x y z
#
# Youngs Moduli (GPa) = 11.92099 73.53751 105.26743
#
# Poissons Ratio (x) = 0.75773 1.22593
# Poissons Ratio (y) = 0.12283 0.10576
# Poissons Ratio (z) = 0.13883 0.07388
#
# Static dielectric constant tensor:
#      x y z
#    x 4.360010 0.349010 0.012330 
#    y 0.349010 5.528850 -0.505530 
#    z 0.012330 -0.505530 5.646890 
# 
# 
# High freq. dielectric constant tensor:
#      x y z
#    x 1.999450 0.002400 0.012100 
#    y 0.002400 2.049330 0.003380 
#    z 0.012100 0.003380 2.060270 
# 
# From -- ./inp_files/577568.got.cif
#   From: 2010.06.25/outbox.cif.g09.slc.cpg/sg2_289_cif.got.tgz:577568.got - 2010.06.27 13:26:56.
