data_PCOD8035112
_publ_section_title
;
Structure prediction by ZEFSAII (Michael W. Deem and Ramdas Pophale) SiO2 
 PCOD8035112
Probable space group: P -1
;
_chemical_formula_sum "Si O2"
_cell_formula_units_Z 16
_cell_length_a 6.500590
_cell_length_b 9.350338
_cell_length_c 13.791057
_cell_angle_alpha 99.804087
_cell_angle_beta 80.434675
_cell_angle_gamma 64.711579
_cell_volume 719.505880
_symmetry_space_group_name_H-M "P -1"
_symmetry_group_IT_number 2
_symmetry_cell_setting 'triclinic'
loop_
_space_group_symop_operation_xyz
x,y,z
-x,-y,-z
loop_
_atom_site_type_symbol
_atom_site_label
_atom_site_fract_x
_atom_site_fract_y
_atom_site_fract_z
Si Si1 0.575635 0.479505 0.835193
Si Si2 0.068418 0.888180 0.657997
Si Si3 0.115764 0.309404 0.461668
Si Si4 0.642293 0.927068 0.078035
Si Si5 0.435915 0.833336 0.240850
Si Si6 0.885371 0.380492 0.985911
Si Si7 0.509162 0.235442 0.261781
Si Si8 0.296085 0.107204 0.599827
O O1 0.591662 0.327836 0.752187
O O2 0.787150 0.401189 0.886874
O O3 0.619274 0.600625 0.773885
O O4 0.321281 0.579699 0.916341
O O5 0.245393 0.782195 0.717266
O O6 0.064170 0.755884 0.568249
O O7 0.146311 0.012065 0.617455
O O8 0.806118 0.999839 0.729757
O O9 0.347315 0.237235 0.365453
O O10 0.151589 0.270429 0.568467
O O11 0.000000 0.500000 0.500000
O O12 0.551507 0.807715 0.121647
O O13 0.923497 0.810080 0.028483
O O14 0.580727 0.076326 0.172646
O O15 0.500000 0.000000 0.000000
O O16 0.613121 0.849765 0.304439
O O17 0.000000 0.500000 0.000000
O O18 0.500000 0.000000 0.500000
#
# Coordination Sequence:
#
# PCOD8035112 Si02
#       8
#     2   2   2   2   2   2   2   2
#     4  11  28  43  73 108 143 196 235 296 366 422
#     4  12  24  46  75 100 143 188 240 289 368 425
#     4  12  29  46  72 106 145 184 239 302 360 422
#     4  12  25  47  76 102 149 188 237 301 348 424
#     4  12  26  46  71 108 139 191 240 286 361 432
#     4  11  24  48  72 103 147 190 246 291 355 428
#     4  12  27  48  67 112 144 182 244 295 355 430
#     4  12  24  49  72 102 139 185 241 295 351 436
#
# _framework density 22.237485
#
# number of rings (size 3 to 8) (size 9 to 14) (size 15 to 20)
#    0.000    0.250    6.250    1.875    7.000    2.000 
#    0.000    0.000    0.000    0.000    0.000    0.000 
#    0.000    0.000    0.000    0.000    0.000    0.000 
#
# Total GULP energy -198371.770473 kJ/mol
# GULP energy per Si atom -12398.235655 kJ/mol
# Density = 2.218687 g / cm^3
# Si number density = 22.237485 Si / 1000 Ang^3
#
#
#
# Elastic Constant Matrix: (Units=GPa)
#
#
# Indices 1 2 3 4 5 6 
#
# 1 133.1194 53.9690 53.3212 -0.9341 23.3013 -8.1359
# 2 53.9690 142.4204 46.4797 -0.7060 22.3495 -8.7723
# 3 53.3212 46.4797 100.7605 -8.1140 19.3361 -7.7285
# 4 -0.9341 -0.7060 -8.1140 49.5881 -2.9742 3.2162
# 5 23.3013 22.3495 19.3361 -2.9742 28.0867 -2.8343
# 6 -8.1359 -8.7723 -7.7285 3.2162 -2.8343 46.1666
#
#
#
# Elastic Compliance Matrix: (Units=1/GPa)
#
#
# Indices 1 2 3 4 5 6 
#
# 1 0.010732 -0.002044 -0.003861 -0.000777 -0.004638 0.000626
# 2 -0.002044 0.009254 -0.002408 -0.000592 -0.003993 0.000791
# 3 -0.003861 -0.002408 0.014123 0.001891 -0.004320 0.000829
# 4 -0.000777 -0.000592 0.001891 0.020646 0.001873 -0.001256
# 5 -0.004638 -0.003993 -0.004320 0.001873 0.045841 0.000384
# 6 0.000626 0.000791 0.000829 -0.001256 0.000384 0.022171
#
#
# Mechanical properties :
#
#
# Convention : Reuss Voigt Hill
#
# Bulk Modulus (GPa) = 57.19547 75.98222 66.58884
# Shear Modulus (GPa) = 34.43018 39.60364 37.01691
#
# Velocity S-wave (km/s) = 3.93911 4.22470 4.08440
# Velocity P-wave (km/s) = 6.81652 7.61841 7.22859
#
# Compressibility (1/GPa) = 0.01748390
#
# Stress axis : x y z
#
# Youngs Moduli (GPa) = 93.18021 108.05720 70.80535
#
# Poissons Ratio (x) = 0.22090 0.27336
# Poissons Ratio (y) = 0.19048 0.17048
# Poissons Ratio (z) = 0.35975 0.26018
#
# Static dielectric constant tensor:
#      x y z
#    x 4.432660 0.101120 -0.407900 
#    y 0.101120 4.170250 -0.081110 
#    z -0.407900 -0.081110 4.751870 
# 
# 
# High freq. dielectric constant tensor:
#      x y z
#    x 1.884860 -0.001750 0.003170 
#    y -0.001750 1.892080 0.000580 
#    z 0.003170 0.000580 1.877360 
# 
# From -- ./inp_files/97732.got.cif
#   From: 2010.06.25/outbox.cif.g09.slc.cpg/sg2_49_cif.got.tgz:97732.got - 2010.06.27 13:26:56.
