data_PCOD8035118
_publ_section_title
;
Structure prediction by ZEFSAII (Michael W. Deem and Ramdas Pophale) SiO2 
 PCOD8035118
Probable space group: P -1
;
_chemical_formula_sum "Si O2"
_cell_formula_units_Z 16
_cell_length_a 16.270789
_cell_length_b 10.196001
_cell_length_c 8.642137
_cell_angle_alpha 74.954669
_cell_angle_beta 45.233795
_cell_angle_gamma 103.506635
_cell_volume 781.017292
_symmetry_space_group_name_H-M "P -1"
_symmetry_group_IT_number 2
_symmetry_cell_setting 'triclinic'
loop_
_space_group_symop_operation_xyz
x,y,z
-x,-y,-z
loop_
_atom_site_type_symbol
_atom_site_label
_atom_site_fract_x
_atom_site_fract_y
_atom_site_fract_z
Si Si1 0.059281 0.677519 0.789221
Si Si2 0.698995 0.778534 0.259605
Si Si3 0.812480 0.624790 0.942959
Si Si4 0.572675 0.464211 0.727137
Si Si5 0.806521 0.987546 0.341935
Si Si6 0.736544 0.689760 0.711273
Si Si7 0.623366 0.074323 0.684730
Si Si8 0.430992 0.718555 0.489343
O O1 0.224575 0.767163 0.485972
O O2 0.065689 0.809146 0.863797
O O3 0.000000 0.500000 0.000000
O O4 0.959752 0.651571 0.785440
O O5 0.791677 0.743397 0.040413
O O6 0.592780 0.620435 0.562571
O O7 0.802598 0.946557 0.177573
O O8 0.597609 0.800838 0.280654
O O9 0.678460 0.423287 0.196266
O O10 0.828209 0.681639 0.726672
O O11 0.677716 0.535134 0.715477
O O12 0.617405 0.372701 0.586564
O O13 0.402927 0.330804 0.030369
O O14 0.837781 0.874035 0.435997
O O15 0.650942 0.941638 0.621901
O O16 0.585297 0.132257 0.560823
O O17 0.500000 0.000000 0.000000
#
# Coordination Sequence:
#
# PCOD8035118 Si02
#       8
#     2   2   2   2   2   2   2   2
#     4  10  22  42  60  84 118 165 201 242 304 361
#     4  10  19  32  56  96 119 149 198 252 290 355
#     4  11  19  34  62  89 120 159 194 241 302 359
#     4   9  17  29  51  87 125 149 187 236 303 351
#     4   9  22  37  54  89 120 155 202 239 304 350
#     4  10  17  31  54  87 124 150 188 249 291 352
#     4  10  22  39  61  82 115 162 205 244 293 355
#     4  11  18  34  59  87 118 155 201 240 294 353
#
# _framework density 20.486101000000001
#
# number of rings (size 3 to 8) (size 9 to 14) (size 15 to 20)
#    0.750    1.250    3.750    1.500    0.000    1.500 
#    0.000    0.000    0.000    0.750    0.000    0.000 
#    0.000    0.000    0.000    0.000    0.000    0.000 
#
# Total GULP energy -198267.937009 kJ/mol
# GULP energy per Si atom -12391.746063 kJ/mol
# Density = 2.043947 g / cm^3
# Si number density = 20.486101 Si / 1000 Ang^3
#
#
#
# Elastic Constant Matrix: (Units=GPa)
#
#
# Indices 1 2 3 4 5 6 
#
# 1 175.7778 43.8977 37.3148 -4.4646 6.8265 -4.9929
# 2 43.8977 52.1252 12.4548 -15.2964 15.7118 4.8738
# 3 37.3148 12.4548 51.4323 -7.2771 -2.2240 1.3340
# 4 -4.4646 -15.2964 -7.2771 26.5912 3.4924 0.6123
# 5 6.8265 15.7118 -2.2240 3.4924 26.0643 3.7538
# 6 -4.9929 4.8738 1.3340 0.6123 3.7538 28.2439
#
#
#
# Elastic Compliance Matrix: (Units=1/GPa)
#
#
# Indices 1 2 3 4 5 6 
#
# 1 0.008842 -0.009114 -0.004946 -0.005585 0.003061 0.003084
# 2 -0.009114 0.043684 -0.001153 0.026940 -0.026772 -0.006121
# 3 -0.004946 -0.001153 0.024200 0.004689 0.003776 -0.002422
# 4 -0.005585 0.026940 0.004689 0.056346 -0.021315 -0.004246
# 5 0.003061 -0.026772 0.003776 -0.021315 0.057193 -0.002156
# 6 0.003084 -0.006121 -0.002422 -0.004246 -0.002156 0.037500
#
#
# Mechanical properties :
#
#
# Convention : Reuss Voigt Hill
#
# Bulk Modulus (GPa) = 21.59854 51.85221 36.72537
# Shear Modulus (GPa) = 18.27325 28.55774 23.41550
#
# Velocity S-wave (km/s) = 2.98985 3.73769 3.38449
# Velocity P-wave (km/s) = 4.74182 6.63272 5.76532
#
# Compressibility (1/GPa) = 0.04629943
#
# Stress axis : x y z
#
# Youngs Moduli (GPa) = 113.09747 22.89180 41.32251
#
# Poissons Ratio (x) = 0.20865 0.20437
# Poissons Ratio (y) = 1.03082 0.04765
# Poissons Ratio (z) = 0.55934 0.02640
#
# Static dielectric constant tensor:
#      x y z
#    x 3.758780 0.006830 0.074600 
#    y 0.006830 3.740130 -0.088000 
#    z 0.074600 -0.088000 3.356180 
# 
# 
# High freq. dielectric constant tensor:
#      x y z
#    x 1.803330 -0.005220 0.002490 
#    y -0.005220 1.786180 -0.008000 
#    z 0.002490 -0.008000 1.769990 
# 
# From -- ./inp_files/254560.got.cif
#   From: 2010.06.25/outbox.cif.g09.slc.cpg/sg2_128_cif.got.tgz:254560.got - 2010.06.27 13:26:56.
