data_PCOD8035185
_publ_section_title
;
Structure prediction by ZEFSAII (Michael W. Deem and Ramdas Pophale) SiO2 
 PCOD8035185
Probable space group: P -1
;
_chemical_formula_sum "Si O2"
_cell_formula_units_Z 12
_cell_length_a 15.489774
_cell_length_b 8.050141
_cell_length_c 4.943349
_cell_angle_alpha 65.328448
_cell_angle_beta 86.067106
_cell_angle_gamma 55.391131
_cell_volume 449.172400
_symmetry_space_group_name_H-M "P -1"
_symmetry_group_IT_number 2
_symmetry_cell_setting 'triclinic'
loop_
_space_group_symop_operation_xyz
x,y,z
-x,-y,-z
loop_
_atom_site_type_symbol
_atom_site_label
_atom_site_fract_x
_atom_site_fract_y
_atom_site_fract_z
Si Si1 0.927874 0.473264 0.319141
Si Si2 0.218068 0.825050 0.844635
Si Si3 0.266498 0.431496 0.416092
Si Si4 0.385742 0.921025 0.777663
Si Si5 0.482354 0.309908 0.601524
Si Si6 0.889538 0.886747 0.832607
O O1 0.848442 0.430338 0.504084
O O2 0.000000 0.500000 0.500000
O O3 0.993501 0.264194 0.233580
O O4 0.859111 0.710148 0.002062
O O5 0.323388 0.809257 0.909155
O O6 0.192633 0.903224 0.486637
O O7 0.246944 0.575093 0.049377
O O8 0.118202 0.005283 0.945320
O O9 0.356570 0.417508 0.591920
O O10 0.302561 0.179644 0.518132
O O11 0.516698 0.210732 0.362422
O O12 0.443792 0.895437 0.064431
O O13 0.500000 0.500000 0.500000
#
# Coordination Sequence:
#
# PCOD8035185 Si02
#       6
#     2   2   2   2   2   2
#     4  11  24  51  79 109 154 199 256 312 384 446
#     4  12  26  47  78 112 152 197 252 308 378 451
#     4  12  28  48  81 116 146 212 255 308 385 456
#     4  12  26  51  76 110 163 193 254 317 375 449
#     4  12  27  51  77 113 154 200 252 316 377 450
#     4  11  24  49  72 110 153 195 242 323 369 440
#
# _framework density 26.715800000000002
#
# number of rings (size 3 to 8) (size 9 to 14) (size 15 to 20)
#    0.000    0.333    5.000    2.500    0.000    2.667 
#   12.000    0.000    0.000    0.000    0.000    0.000 
#    0.000    0.000    0.000    0.000    0.000    0.000 
#
# Total GULP energy -148788.590386 kJ/mol
# GULP energy per Si atom -12399.049199 kJ/mol
# Density = 2.665499 g / cm^3
# Si number density = 26.715800 Si / 1000 Ang^3
#
#
#
# Elastic Constant Matrix: (Units=GPa)
#
#
# Indices 1 2 3 4 5 6 
#
# 1 143.6875 13.8025 33.2194 -1.4470 -28.2813 -15.8231
# 2 13.8025 69.0742 16.7417 0.3974 -15.3917 -13.1795
# 3 33.2194 16.7417 165.9915 -23.6816 -20.6905 -1.3049
# 4 -1.4470 0.3974 -23.6816 51.4030 1.4999 -7.3726
# 5 -28.2813 -15.3917 -20.6905 1.4999 27.1852 -6.3864
# 6 -15.8231 -13.1795 -1.3049 -7.3726 -6.3864 24.4733
#
#
#
# Elastic Compliance Matrix: (Units=1/GPa)
#
#
# Indices 1 2 3 4 5 6 
#
# 1 0.011954 0.004792 -0.000153 0.001944 0.018625 0.015747
# 2 0.004792 0.022859 0.000155 0.002541 0.023125 0.022217
# 3 -0.000153 0.000155 0.007332 0.003633 0.006024 0.003042
# 4 0.001944 0.002541 0.003633 0.022608 0.007714 0.011643
# 5 0.018625 0.023125 0.006024 0.007714 0.084998 0.049321
# 6 0.015747 0.022217 0.003042 0.011643 0.049321 0.079546
#
#
# Mechanical properties :
#
#
# Convention : Reuss Voigt Hill
#
# Bulk Modulus (GPa) = 19.32966 56.25338 37.79152
# Shear Modulus (GPa) = 21.10107 41.61161 31.35634
#
# Velocity S-wave (km/s) = 2.81345 3.95088 3.42965
# Velocity P-wave (km/s) = 4.21960 6.47415 5.46441
#
# Compressibility (1/GPa) = 0.05173397
#
# Stress axis : x y z
#
# Youngs Moduli (GPa) = 83.65303 43.74599 136.38040
#
# Poissons Ratio (x) = -0.20963 0.02086
# Poissons Ratio (y) = -0.40086 -0.02115
# Poissons Ratio (z) = 0.01279 -0.00678
#
# Static dielectric constant tensor:
#      x y z
#    x 4.692160 -0.212130 -0.254550 
#    y -0.212130 4.843080 -0.067600 
#    z -0.254550 -0.067600 5.237580 
# 
# 
# High freq. dielectric constant tensor:
#      x y z
#    x 2.061830 -0.012740 -0.017870 
#    y -0.012740 2.068710 -0.013570 
#    z -0.017870 -0.013570 2.092660 
# 
# From -- ./inp_files/103653.got.cif
#   From: 2010.06.25/outbox.cif.g09.slc.cpg/sg2_52_cif.got.tgz:103653.got - 2010.06.27 13:26:56.
