data_PCOD8035462
_publ_section_title
;
Structure prediction by ZEFSAII (Michael W. Deem and Ramdas Pophale) SiO2 
 PCOD8035462
Probable space group: P -1
;
_chemical_formula_sum "Si O2"
_cell_formula_units_Z 14
_cell_length_a 14.275737
_cell_length_b 6.408578
_cell_length_c 14.758259
_cell_angle_alpha 119.745864
_cell_angle_beta 149.652810
_cell_angle_gamma 57.989465
_cell_volume 576.079381
_symmetry_space_group_name_H-M "P -1"
_symmetry_group_IT_number 2
_symmetry_cell_setting 'triclinic'
loop_
_space_group_symop_operation_xyz
x,y,z
-x,-y,-z
loop_
_atom_site_type_symbol
_atom_site_label
_atom_site_fract_x
_atom_site_fract_y
_atom_site_fract_z
Si Si1 0.461622 0.124150 0.852518
Si Si2 0.905654 0.044299 0.027410
Si Si3 0.230724 0.661626 0.307772
Si Si4 0.217199 0.014855 0.782697
Si Si5 0.060316 0.492516 0.298019
Si Si6 0.180988 0.511124 0.594657
Si Si7 0.435791 0.194174 0.290573
O O1 0.377360 0.366131 0.774098
O O2 0.339610 0.142813 0.845778
O O3 0.471409 0.876024 0.746666
O O4 0.675164 0.111411 0.063521
O O5 0.908965 0.323114 0.119343
O O6 0.032219 0.846823 0.158958
O O7 0.689533 0.008244 0.836384
O O8 0.000000 0.000000 0.000000
O O9 0.204267 0.484897 0.332252
O O10 0.301668 0.472407 0.242302
O O11 0.390936 0.815713 0.496016
O O12 0.161627 0.802224 0.631297
O O13 0.040357 0.220825 0.713216
O O14 0.175747 0.396334 0.465553
O O15 0.000000 0.500000 0.500000
#
# Coordination Sequence:
#
# PCOD8035462 Si02
#       7
#     2   2   2   2   2   2   2
#     4  11  25  45  69 106 143 187 238 304 358 437
#     4  12  27  48  75 112 147 192 245 303 365 440
#     4  11  26  49  72 110 147 196 244 302 366 439
#     4  11  26  45  72 102 146 191 241 294 369 426
#     4  12  26  46  79 104 147 199 243 298 370 432
#     4  12  26  44  71 106 142 187 243 298 354 435
#     4  11  25  47  75 103 151 191 241 302 365 432
#
# _framework density 24.302204
#
# number of rings (size 3 to 8) (size 9 to 14) (size 15 to 20)
#    0.000    0.571    2.857    3.857    8.000    2.857 
#    5.143    0.000    0.000    0.000    0.000    0.000 
#    0.000    0.000    0.000    0.000    0.000    0.000 
#
# Total GULP energy -173580.781941 kJ/mol
# GULP energy per Si atom -12398.627282 kJ/mol
# Density = 2.424689 g / cm^3
# Si number density = 24.302204 Si / 1000 Ang^3
#
#
#
# Elastic Constant Matrix: (Units=GPa)
#
#
# Indices 1 2 3 4 5 6 
#
# 1 74.2059 26.4962 23.4661 -9.0357 -14.3084 -4.3492
# 2 26.4962 107.2567 42.1021 10.4143 -6.0004 -7.5590
# 3 23.4661 42.1021 115.0964 15.0027 0.6893 13.2251
# 4 -9.0357 10.4143 15.0027 47.5670 -1.6830 -5.5408
# 5 -14.3084 -6.0004 0.6893 -1.6830 39.0829 3.4495
# 6 -4.3492 -7.5590 13.2251 -5.5408 3.4495 40.6693
#
#
#
# Elastic Compliance Matrix: (Units=1/GPa)
#
#
# Indices 1 2 3 4 5 6 
#
# 1 0.017714 -0.002970 -0.003624 0.005697 0.006093 0.002780
# 2 -0.002970 0.011979 -0.003907 -0.001597 0.000494 0.002920
# 3 -0.003624 -0.003907 0.012062 -0.004340 -0.001843 -0.005471
# 4 0.005697 -0.001597 -0.004340 0.024478 0.002544 0.004843
# 5 0.006093 0.000494 -0.001843 0.002544 0.028097 -0.000694
# 6 0.002780 0.002920 -0.005471 0.004843 -0.000694 0.027926
#
#
# Mechanical properties :
#
#
# Convention : Reuss Voigt Hill
#
# Bulk Modulus (GPa) = 48.18373 53.40974 50.79674
# Shear Modulus (GPa) = 33.29469 39.09680 36.19574
#
# Velocity S-wave (km/s) = 3.70540 4.01531 3.86346
# Velocity P-wave (km/s) = 6.17872 6.59712 6.39134
#
# Compressibility (1/GPa) = 0.02075389
#
# Stress axis : x y z
#
# Youngs Moduli (GPa) = 56.45255 83.47850 82.90765
#
# Poissons Ratio (x) = 0.24792 0.30044
# Poissons Ratio (y) = 0.16766 0.32390
# Poissons Ratio (z) = 0.20457 0.32613
#
# Static dielectric constant tensor:
#      x y z
#    x 4.179650 -0.225750 -0.319960 
#    y -0.225750 4.308120 -0.065640 
#    z -0.319960 -0.065640 4.470020 
# 
# 
# High freq. dielectric constant tensor:
#      x y z
#    x 1.969300 -0.016790 -0.011180 
#    y -0.016790 1.956330 0.006530 
#    z -0.011180 0.006530 1.973730 
# 
# From -- ./inp_files/525471.got.cif
#   From: 2010.06.25/outbox.cif.g09.slc.cpg/sg2_263_cif.got.tgz:525471.got - 2010.06.27 13:26:56.
