data_PCOD8035692
_publ_section_title
;
Structure prediction by ZEFSAII (Michael W. Deem and Ramdas Pophale) SiO2 
 PCOD8035692
Probable space group: P -1
;
_chemical_formula_sum "Si O2"
_cell_formula_units_Z 16
_cell_length_a 14.721312
_cell_length_b 8.556557
_cell_length_c 9.742576
_cell_angle_alpha 78.636288
_cell_angle_beta 142.713968
_cell_angle_gamma 110.441409
_cell_volume 689.524143
_symmetry_space_group_name_H-M "P -1"
_symmetry_group_IT_number 2
_symmetry_cell_setting 'triclinic'
loop_
_space_group_symop_operation_xyz
x,y,z
-x,-y,-z
loop_
_atom_site_type_symbol
_atom_site_label
_atom_site_fract_x
_atom_site_fract_y
_atom_site_fract_z
Si Si1 0.887136 0.724643 0.216776
Si Si2 0.422521 0.978933 0.586184
Si Si3 0.190925 0.744846 0.134088
Si Si4 0.448705 0.346593 0.571884
Si Si5 0.249014 0.840454 0.667342
Si Si6 0.391343 0.561534 0.960529
Si Si7 0.748243 0.007210 0.066161
Si Si8 0.146624 0.365381 0.118105
O O1 0.066326 0.728415 0.452105
O O2 0.863399 0.898151 0.203840
O O3 0.779625 0.578791 0.209662
O O4 0.835774 0.691620 0.004103
O O5 0.334390 0.878878 0.364916
O O6 0.304380 0.951482 0.578290
O O7 0.491095 0.180927 0.603042
O O8 0.571664 0.915542 0.810074
O O9 0.219451 0.568433 0.175717
O O10 0.170823 0.817641 0.948005
O O11 0.032531 0.712082 0.036927
O O12 0.500000 0.500000 0.500000
O O13 0.523804 0.405762 0.797772
O O14 0.256717 0.293429 0.359901
O O15 0.269651 0.962604 0.800305
O O16 0.362403 0.727239 0.838952
O O17 0.500000 0.500000 0.000000
#
# Coordination Sequence:
#
# PCOD8035692 Si02
#       8
#     2   2   2   2   2   2   2   2
#     4  12  26  47  77 106 152 195 248 308 370 445
#     4  12  26  48  76 106 152 195 246 309 370 443
#     4  11  26  45  75 107 146 199 244 311 372 437
#     4  12  26  46  76 103 148 192 246 307 366 436
#     4  12  27  51  73 107 156 197 246 301 379 444
#     4  12  28  47  75 111 148 199 247 305 372 443
#     4  12  26  45  74 110 147 194 254 302 373 439
#     4  11  25  46  72 110 148 189 255 307 369 440
#
# _framework density 23.204408999999998
#
# number of rings (size 3 to 8) (size 9 to 14) (size 15 to 20)
#    0.000    0.250    3.750    4.500    7.000    2.000 
#    0.000    0.000    0.000    0.000    0.000    0.000 
#    0.000    0.000    0.000    0.000    0.000    0.000 
#
# Total GULP energy -198493.186868 kJ/mol
# GULP energy per Si atom -12405.824179 kJ/mol
# Density = 2.315159 g / cm^3
# Si number density = 23.204409 Si / 1000 Ang^3
#
#
#
# Elastic Constant Matrix: (Units=GPa)
#
#
# Indices 1 2 3 4 5 6 
#
# 1 112.4883 41.2122 26.5107 -2.9420 -19.0366 -18.6080
# 2 41.2122 78.7403 35.6787 1.2053 -8.1207 -12.3664
# 3 26.5107 35.6787 117.6975 3.3761 -2.6123 -13.7523
# 4 -2.9420 1.2053 3.3761 35.9460 -0.2314 4.2783
# 5 -19.0366 -8.1207 -2.6123 -0.2314 33.5117 -1.3134
# 6 -18.6080 -12.3664 -13.7523 4.2783 -1.3134 43.8767
#
#
#
# Elastic Compliance Matrix: (Units=1/GPa)
#
#
# Indices 1 2 3 4 5 6 
#
# 1 0.012581 -0.005042 -0.000755 0.000859 0.006020 0.003774
# 2 -0.005042 0.017512 -0.003928 -0.000824 0.001134 0.001681
# 3 -0.000755 -0.003928 0.010090 -0.001099 -0.000530 0.001827
# 4 0.000859 -0.000824 -0.001099 0.028376 0.000282 -0.002971
# 5 0.006020 0.001134 -0.000530 0.000282 0.033640 0.003686
# 6 0.003774 0.001681 0.001827 -0.002971 0.003686 0.025838
#
#
# Mechanical properties :
#
#
# Convention : Reuss Voigt Hill
#
# Bulk Modulus (GPa) = 48.23271 57.30325 52.76798
# Shear Modulus (GPa) = 32.38399 36.36852 34.37626
#
# Velocity S-wave (km/s) = 3.73982 3.96322 3.85314
# Velocity P-wave (km/s) = 6.28327 6.75954 6.52575
#
# Compressibility (1/GPa) = 0.02073282
#
# Stress axis : x y z
#
# Youngs Moduli (GPa) = 79.48798 57.10345 99.10496
#
# Poissons Ratio (x) = 0.28791 0.07486
# Poissons Ratio (y) = 0.40077 0.38926
# Poissons Ratio (z) = 0.06004 0.22429
#
# Static dielectric constant tensor:
#      x y z
#    x 4.835730 0.030460 -0.616100 
#    y 0.030460 4.229530 -0.003570 
#    z -0.616100 -0.003570 5.748260 
# 
# 
# High freq. dielectric constant tensor:
#      x y z
#    x 1.942800 0.001430 0.008460 
#    y 0.001430 1.918110 0.001240 
#    z 0.008460 0.001240 1.926680 
# 
# From -- ./inp_files/298447.got.cif
#   From: 2010.06.25/outbox.cif.g09.slc.cpg/sg2_150_cif.got.tgz:298447.got - 2010.06.27 13:26:56.
