data_PCOD8035009
_publ_section_title
;
Structure prediction by ZEFSAII (Michael W. Deem and Ramdas Pophale) SiO2 
 PCOD8035009
Probable space group: P -1
;
_chemical_formula_sum "Si O2"
_cell_formula_units_Z 16
_cell_length_a 9.758918
_cell_length_b 12.273007
_cell_length_c 18.714294
_cell_angle_alpha 27.726367
_cell_angle_beta 46.485179
_cell_angle_gamma 44.884194
_cell_volume 722.930447
_symmetry_space_group_name_H-M "P -1"
_symmetry_group_IT_number 2
_symmetry_cell_setting 'triclinic'
loop_
_space_group_symop_operation_xyz
x,y,z
-x,-y,-z
loop_
_atom_site_type_symbol
_atom_site_label
_atom_site_fract_x
_atom_site_fract_y
_atom_site_fract_z
Si Si1 0.842401 0.160093 0.519066
Si Si2 0.467071 0.412221 0.422076
Si Si3 0.473063 0.782530 0.087715
Si Si4 0.800534 0.790682 0.860427
Si Si5 0.964628 0.082812 0.883426
Si Si6 0.340212 0.056149 0.586388
Si Si7 0.057079 0.578321 0.542545
Si Si8 0.093880 0.749961 0.898164
O O1 0.655458 0.360067 0.436178
O O2 0.959090 0.308592 0.438047
O O3 0.752520 0.987538 0.700572
O O4 0.000000 0.000000 0.500000
O O5 0.526311 0.538248 0.257717
O O6 0.438410 0.151646 0.562607
O O7 0.265554 0.588716 0.426827
O O8 0.264068 0.818289 0.107030
O O9 0.608188 0.753687 0.986740
O O10 0.500000 0.000000 0.000000
O O11 0.930485 0.879665 0.821787
O O12 0.908067 0.530036 0.936480
O O13 0.064403 0.295120 0.707648
O O14 0.049345 0.854179 0.933114
O O15 0.000000 0.000000 0.000000
O O16 0.133881 0.267644 0.522493
O O17 0.500000 0.000000 0.500000
O O18 0.296439 0.802208 0.769676
#
# Coordination Sequence:
#
# PCOD8035009 Si02
#       8
#     2   2   2   2   2   2   2   2
#     4  12  29  47  72 107 148 191 245 301 363 428
#     4  12  26  45  74 104 144 191 243 303 355 433
#     4  12  25  44  74 106 143 191 244 293 368 439
#     4  11  26  45  74 104 147 190 242 297 361 438
#     4  12  28  46  73 107 145 189 243 303 365 430
#     4  12  23  44  73 106 138 186 240 295 364 430
#     4  12  25  48  71 102 145 187 245 299 359 432
#     4  11  24  47  72 102 144 192 238 299 363 433
#
# _framework density 22.132142999999999
#
# number of rings (size 3 to 8) (size 9 to 14) (size 15 to 20)
#    0.000    0.250    5.000    3.750    8.750    0.000 
#    0.000    1.250    0.000    0.000    0.000    0.000 
#    0.000    0.000    0.000    0.000    0.000    0.000 
#
# Total GULP energy -198429.024547 kJ/mol
# GULP energy per Si atom -12401.814034 kJ/mol
# Density = 2.208177 g / cm^3
# Si number density = 22.132143 Si / 1000 Ang^3
#
#
#
# Elastic Constant Matrix: (Units=GPa)
#
#
# Indices 1 2 3 4 5 6 
#
# 1 99.1298 20.8832 40.0043 1.4050 8.5708 14.2378
# 2 20.8832 113.8669 25.4654 17.5273 2.1123 12.5190
# 3 40.0043 25.4654 118.1208 13.7860 5.9884 1.8534
# 4 1.4050 17.5273 13.7860 39.8153 3.2839 -6.4459
# 5 8.5708 2.1123 5.9884 3.2839 41.2212 -5.0133
# 6 14.2378 12.5190 1.8534 -6.4459 -5.0133 45.6972
#
#
#
# Elastic Compliance Matrix: (Units=1/GPa)
#
#
# Indices 1 2 3 4 5 6 
#
# 1 0.012654 -0.001154 -0.003977 0.001065 -0.002516 -0.003591
# 2 -0.001154 0.010314 -0.001247 -0.004555 -0.000118 -0.003071
# 3 -0.003977 -0.001247 0.010409 -0.002770 -0.000311 0.000734
# 4 0.001065 -0.004555 -0.002770 0.028954 -0.001287 0.004972
# 5 -0.002516 -0.000118 -0.000311 -0.001287 0.025353 0.003429
# 6 -0.003591 -0.003071 0.000734 0.004972 0.003429 0.024891
#
#
# Mechanical properties :
#
#
# Convention : Reuss Voigt Hill
#
# Bulk Modulus (GPa) = 48.49351 55.98035 52.23693
# Shear Modulus (GPa) = 37.82012 41.66437 39.74224
#
# Velocity S-wave (km/s) = 4.13829 4.34352 4.24214
# Velocity P-wave (km/s) = 6.69271 7.10658 6.90275
#
# Compressibility (1/GPa) = 0.02062132
#
# Stress axis : x y z
#
# Youngs Moduli (GPa) = 79.02619 96.95906 96.06756
#
# Poissons Ratio (x) = 0.11186 0.38208
# Poissons Ratio (y) = 0.09117 0.11979
# Poissons Ratio (z) = 0.31430 0.12091
#
# Static dielectric constant tensor:
#      x y z
#    x 4.180770 0.083330 -0.178160 
#    y 0.083330 4.077600 0.066980 
#    z -0.178160 0.066980 4.173970 
# 
# 
# High freq. dielectric constant tensor:
#      x y z
#    x 1.874040 0.011280 -0.017250 
#    y 0.011280 1.879960 0.003040 
#    z -0.017250 0.003040 1.878260 
# 
# From -- ./inp_files/263363.got.cif
#   From: 2010.06.25/outbox.cif.g09.slc.cpg/sg2_132_cif.got.tgz:263363.got - 2010.06.27 13:26:56.
