data_PCOD8035357
_publ_section_title
;
Structure prediction by ZEFSAII (Michael W. Deem and Ramdas Pophale) SiO2 
 PCOD8035357
Probable space group: P -1
;
_chemical_formula_sum "Si O2"
_cell_formula_units_Z 10
_cell_length_a 4.943133
_cell_length_b 8.372926
_cell_length_c 13.056270
_cell_angle_alpha 129.808533
_cell_angle_beta 115.998528
_cell_angle_gamma 58.869627
_cell_volume 350.565779
_symmetry_space_group_name_H-M "P -1"
_symmetry_group_IT_number 2
_symmetry_cell_setting 'triclinic'
loop_
_space_group_symop_operation_xyz
x,y,z
-x,-y,-z
loop_
_atom_site_type_symbol
_atom_site_label
_atom_site_fract_x
_atom_site_fract_y
_atom_site_fract_z
Si Si1 0.888477 0.802901 0.937446
Si Si2 0.850996 0.319564 0.491756
Si Si3 0.262399 0.021761 0.807801
Si Si4 0.400983 0.371372 0.841960
Si Si5 0.536970 0.236588 0.595521
O O1 0.070904 0.556912 0.823613
O O2 0.532464 0.853241 0.856536
O O3 0.943165 0.797484 0.069103
O O4 0.000000 0.000000 0.000000
O O5 0.500000 0.500000 0.500000
O O6 0.826568 0.227444 0.564692
O O7 0.166843 0.395940 0.567841
O O8 0.915288 0.125538 0.338214
O O9 0.387032 0.142281 0.788826
O O10 0.628657 0.309398 0.752954
O O11 0.500000 0.500000 0.000000
O O12 0.500000 0.000000 0.500000
#
# Coordination Sequence:
#
# PCOD8035357 Si02
#       5
#     2   2   2   2   2
#     4  11  25  44  69 108 145 184 254 302 365 451
#     4  12  28  49  80 108 154 200 253 312 382 444
#     4  11  26  46  73 107 145 199 244 312 374 445
#     4  12  26  46  77 106 149 196 244 309 381 441
#     4  12  28  50  76 113 151 196 258 309 373 462
#
# _framework density 28.525321000000002
#
# number of rings (size 3 to 8) (size 9 to 14) (size 15 to 20)
#    0.000    0.400    4.000    3.000    8.400    1.600 
#    0.000    0.000    0.000    0.000    0.000    0.000 
#    0.000    0.000    0.000    0.000    0.000    0.000 
#
# Total GULP energy -123919.348332 kJ/mol
# GULP energy per Si atom -12391.934833 kJ/mol
# Density = 2.846040 g / cm^3
# Si number density = 28.525321 Si / 1000 Ang^3
#
#
#
# Elastic Constant Matrix: (Units=GPa)
#
#
# Indices 1 2 3 4 5 6 
#
# 1 70.3144 -32.5216 6.1205 -6.8518 -7.1025 -0.1352
# 2 -32.5216 66.7802 5.1030 4.7456 -8.9438 -9.1228
# 3 6.1205 5.1030 181.5003 -19.3414 -11.5828 -2.8766
# 4 -6.8518 4.7456 -19.3414 44.2499 -3.3510 -9.4142
# 5 -7.1025 -8.9438 -11.5828 -3.3510 49.8888 2.9353
# 6 -0.1352 -9.1228 -2.8766 -9.4142 2.9353 26.0550
#
#
#
# Elastic Compliance Matrix: (Units=1/GPa)
#
#
# Indices 1 2 3 4 5 6 
#
# 1 0.020016 0.010780 -0.000277 0.003122 0.004666 0.004450
# 2 0.010780 0.021871 -0.000422 0.001114 0.004991 0.007508
# 3 -0.000277 -0.000422 0.005964 0.003022 0.001388 0.001445
# 4 0.003122 0.001114 0.003022 0.026619 0.002541 0.010072
# 5 0.004666 0.004991 0.001388 0.002541 0.022075 0.000356
# 6 0.004450 0.007508 0.001445 0.010072 0.000356 0.044790
#
#
# Mechanical properties :
#
#
# Convention : Reuss Voigt Hill
#
# Bulk Modulus (GPa) = 14.70322 30.66652 22.68487
# Shear Modulus (GPa) = 34.75938 46.69828 40.72883
#
# Velocity S-wave (km/s) = 3.49455 4.05048 3.78274
# Velocity P-wave (km/s) = 4.63122 5.71394 5.20083
#
# Compressibility (1/GPa) = 0.06801231
#
# Stress axis : x y z
#
# Youngs Moduli (GPa) = 49.96041 45.72211 167.66394
#
# Poissons Ratio (x) = -0.49287 0.04645
# Poissons Ratio (y) = -0.53856 0.07079
# Poissons Ratio (z) = 0.01384 0.01930
#
# Static dielectric constant tensor:
#      x y z
#    x 5.681450 0.045370 0.079970 
#    y 0.045370 4.858150 -1.140670 
#    z 0.079970 -1.140670 5.355010 
# 
# 
# High freq. dielectric constant tensor:
#      x y z
#    x 2.142530 -0.024750 -0.012290 
#    y -0.024750 2.179030 -0.014410 
#    z -0.012290 -0.014410 2.177350 
# 
# From -- ./inp_files/15126.got.cif
#   From: 2010.06.25/outbox.cif.g09.slc.cpg/sg2_8_cif.got.tgz:15126.got - 2010.06.27 13:26:56.
