data_PCOD8035658
_publ_section_title
;
Structure prediction by ZEFSAII (Michael W. Deem and Ramdas Pophale) SiO2 
 PCOD8035658
Probable space group: P -1
;
_chemical_formula_sum "Si O2"
_cell_formula_units_Z 16
_cell_length_a 9.521693
_cell_length_b 5.566190
_cell_length_c 21.356649
_cell_angle_alpha 58.565593
_cell_angle_beta 46.943253
_cell_angle_gamma 55.158758
_cell_volume 662.275766
_symmetry_space_group_name_H-M "P -1"
_symmetry_group_IT_number 2
_symmetry_cell_setting 'triclinic'
loop_
_space_group_symop_operation_xyz
x,y,z
-x,-y,-z
loop_
_atom_site_type_symbol
_atom_site_label
_atom_site_fract_x
_atom_site_fract_y
_atom_site_fract_z
Si Si1 0.445574 0.851198 0.629816
Si Si2 0.863150 0.862599 0.099818
Si Si3 0.442676 0.104154 0.909940
Si Si4 0.171472 0.209046 0.096834
Si Si5 0.079300 0.193380 0.772885
Si Si6 0.657529 0.444270 0.732233
Si Si7 0.897377 0.789882 0.690315
Si Si8 0.675355 0.226715 0.454815
O O1 0.523437 0.596974 0.692612
O O2 0.341280 0.736217 0.620274
O O3 0.265790 0.134329 0.675579
O O4 0.635411 0.932319 0.533021
O O5 0.638997 0.963271 0.123205
O O6 0.831608 0.969432 0.166540
O O7 0.979293 0.508811 0.118166
O O8 0.000000 0.000000 0.000000
O O9 0.513150 0.392534 0.838542
O O10 0.633579 0.815265 0.914634
O O11 0.253593 0.178933 0.004760
O O12 0.092921 0.941842 0.178153
O O13 0.965738 0.553224 0.759673
O O14 0.774909 0.659098 0.694544
O O15 0.789872 0.112905 0.710459
O O16 0.096957 0.798410 0.590572
O O17 0.500000 0.500000 0.500000
#
# Coordination Sequence:
#
# PCOD8035658 Si02
#       8
#     2   2   2   2   2   2   2   2
#     4  11  28  48  80 111 151 200 256 322 388 480
#     4  12  27  43  73 110 149 204 263 322 381 456
#     4  11  25  46  71 106 151 202 260 316 382 456
#     4  11  25  48  68 106 155 203 253 326 382 453
#     4  12  25  49  75 106 151 206 255 314 388 463
#     4  12  29  48  76 117 155 199 262 318 387 465
#     4  12  28  49  77 112 156 201 252 327 392 465
#     4  11  26  51  79 110 148 198 253 315 402 470
#
# _framework density 24.159120000000001
#
# number of rings (size 3 to 8) (size 9 to 14) (size 15 to 20)
#    0.000    0.500    3.750    2.625   10.500    1.500 
#    0.000    0.000    0.000    0.000    0.000    0.000 
#    0.000    0.000    0.000    0.000    0.000    0.000 
#
# Total GULP energy -198349.443053 kJ/mol
# GULP energy per Si atom -12396.840191 kJ/mol
# Density = 2.410413 g / cm^3
# Si number density = 24.159120 Si / 1000 Ang^3
#
#
#
# Elastic Constant Matrix: (Units=GPa)
#
#
# Indices 1 2 3 4 5 6 
#
# 1 133.8585 22.2445 24.3278 3.7845 4.6655 -0.7677
# 2 22.2445 90.7565 8.7795 -1.9854 3.5326 1.7917
# 3 24.3278 8.7795 109.2394 0.1609 -9.1776 -1.7910
# 4 3.7845 -1.9854 0.1609 32.0979 1.7582 5.2615
# 5 4.6655 3.5326 -9.1776 1.7582 49.2955 -8.4018
# 6 -0.7677 1.7917 -1.7910 5.2615 -8.4018 34.7170
#
#
#
# Elastic Compliance Matrix: (Units=1/GPa)
#
#
# Indices 1 2 3 4 5 6 
#
# 1 0.008151 -0.001819 -0.001742 -0.001035 -0.000908 0.000121
# 2 -0.001819 0.011612 -0.000632 0.001170 -0.001006 -0.001093
# 3 -0.001742 -0.000632 0.009797 -0.000179 0.002222 0.001064
# 4 -0.001035 0.001170 -0.000179 0.032369 -0.002113 -0.005509
# 5 -0.000908 -0.001006 0.002222 -0.002113 0.021916 0.005771
# 6 0.000121 -0.001093 0.001064 -0.005509 0.005771 0.031150
#
#
# Mechanical properties :
#
#
# Convention : Reuss Voigt Hill
#
# Bulk Modulus (GPa) = 47.22782 49.39534 48.31158
# Shear Modulus (GPa) = 38.33200 41.78893 40.06047
#
# Velocity S-wave (km/s) = 3.98760 4.16352 4.07651
# Velocity P-wave (km/s) = 6.38689 6.60329 6.49599
#
# Compressibility (1/GPa) = 0.02117396
#
# Stress axis : x y z
#
# Youngs Moduli (GPa) = 122.68410 86.11917 102.06880
#
# Poissons Ratio (x) = 0.15665 0.17778
# Poissons Ratio (y) = 0.22317 0.06453
# Poissons Ratio (z) = 0.21369 0.05445
#
# Static dielectric constant tensor:
#      x y z
#    x -2.309860 5.393260 -1.160170 
#    y 5.393260 -0.305460 0.701090 
#    z -1.160170 0.701090 4.660800 
# 
# 
# High freq. dielectric constant tensor:
#      x y z
#    x 1.967870 -0.005860 -0.003370 
#    y -0.005860 1.947330 -0.004050 
#    z -0.003370 -0.004050 1.977850 
# 
# From -- ./inp_files/585525.got.cif
#   From: 2010.06.25/outbox.cif.g09.slc.cpg/sg2_293_cif.got.tgz:585525.got - 2010.06.27 13:26:56.
