data_PCOD8035524
_publ_section_title
;
Structure prediction by ZEFSAII (Michael W. Deem and Ramdas Pophale) SiO2 
 PCOD8035524
Probable space group: P -1
;
_chemical_formula_sum "Si O2"
_cell_formula_units_Z 16
_cell_length_a 9.195609
_cell_length_b 8.459783
_cell_length_c 14.670676
_cell_angle_alpha 73.049598
_cell_angle_beta 46.670004
_cell_angle_gamma 97.262852
_cell_volume 701.272923
_symmetry_space_group_name_H-M "P -1"
_symmetry_group_IT_number 2
_symmetry_cell_setting 'triclinic'
loop_
_space_group_symop_operation_xyz
x,y,z
-x,-y,-z
loop_
_atom_site_type_symbol
_atom_site_label
_atom_site_fract_x
_atom_site_fract_y
_atom_site_fract_z
Si Si1 0.750438 0.561310 0.844499
Si Si2 0.708155 0.678184 0.340678
Si Si3 0.197102 0.199455 0.909813
Si Si4 0.908582 0.699151 0.428451
Si Si5 0.908914 0.045746 0.442475
Si Si6 0.009616 0.640772 0.897225
Si Si7 0.313687 0.642849 0.285864
Si Si8 0.551803 0.990890 0.375983
O O1 0.732746 0.443564 0.781304
O O2 0.886657 0.779884 0.723805
O O3 0.903994 0.539575 0.862913
O O4 0.500000 0.500000 0.000000
O O5 0.500000 0.500000 0.500000
O O6 0.772198 0.658743 0.211914
O O7 0.905373 0.688479 0.321256
O O8 0.655277 0.853560 0.331479
O O9 0.431856 0.195853 0.832219
O O10 0.143749 0.268520 0.015480
O O11 0.000000 0.000000 0.000000
O O12 0.734249 0.513960 0.589441
O O13 0.157124 0.743690 0.349172
O O14 0.836128 0.861646 0.443874
O O15 0.692351 0.076168 0.556337
O O16 0.000000 0.000000 0.500000
O O17 0.269064 0.797530 0.758978
O O18 0.000000 0.500000 0.000000
O O19 0.500000 0.000000 0.500000
#
# Coordination Sequence:
#
# PCOD8035524 Si02
#       8
#     2   2   2   2   2   2   2   2
#     4  12  26  49  73 105 152 191 239 311 363 441
#     4  12  26  43  76 103 145 192 248 299 369 430
#     4  12  27  50  69 104 151 192 239 306 365 442
#     4  11  25  45  72 111 140 191 245 303 363 435
#     4  12  27  44  76 107 149 191 245 300 372 430
#     4  12  29  47  75 107 149 199 249 301 379 434
#     4  11  26  47  73 107 150 186 247 304 367 438
#     4  12  26  47  72 108 144 189 254 308 351 446
#
# _framework density 22.815653000000001
#
# number of rings (size 3 to 8) (size 9 to 14) (size 15 to 20)
#    0.000    0.250    7.500    0.000   10.500    0.000 
#    0.000    1.250    0.000    0.000    0.000    0.000 
#    0.000    0.000    0.000    0.000    0.000    0.000 
#
# Total GULP energy -198255.238421 kJ/mol
# GULP energy per Si atom -12390.952401 kJ/mol
# Density = 2.276372 g / cm^3
# Si number density = 22.815653 Si / 1000 Ang^3
#
#
#
# Elastic Constant Matrix: (Units=GPa)
#
#
# Indices 1 2 3 4 5 6 
#
# 1 161.0908 23.7147 60.0827 -11.0369 0.8872 9.5582
# 2 23.7147 48.9622 16.8756 -10.9588 -2.7161 1.8049
# 3 60.0827 16.8756 146.8439 -18.6441 -7.1271 -2.7583
# 4 -11.0369 -10.9588 -18.6441 40.4731 7.3573 4.1204
# 5 0.8872 -2.7161 -7.1271 7.3573 53.8338 5.9662
# 6 9.5582 1.8049 -2.7583 4.1204 5.9662 36.0009
#
#
#
# Elastic Compliance Matrix: (Units=1/GPa)
#
#
# Indices 1 2 3 4 5 6 
#
# 1 0.007842 -0.002655 -0.002918 0.000377 -0.000464 -0.002139
# 2 -0.002655 0.023261 -0.000927 0.005176 0.000522 -0.001211
# 3 -0.002918 -0.000927 0.008497 0.002642 0.000647 0.001063
# 4 0.000377 0.005176 0.002642 0.028258 -0.002935 -0.002905
# 5 -0.000464 0.000522 0.000647 -0.002935 0.019399 -0.002732
# 6 -0.002139 -0.001211 0.001063 -0.002905 -0.002732 0.029272
#
#
# Mechanical properties :
#
#
# Convention : Reuss Voigt Hill
#
# Bulk Modulus (GPa) = 37.59405 62.02697 49.81051
# Shear Modulus (GPa) = 36.12737 43.14317 39.63527
#
# Velocity S-wave (km/s) = 3.98357 4.35322 4.17249
# Velocity P-wave (km/s) = 6.13771 7.24655 6.71506
#
# Compressibility (1/GPa) = 0.02659995
#
# Stress axis : x y z
#
# Youngs Moduli (GPa) = 127.51275 42.98953 117.68305
#
# Poissons Ratio (x) = 0.11413 0.34345
# Poissons Ratio (y) = 0.33854 0.10912
# Poissons Ratio (z) = 0.37214 0.03986
#
# Static dielectric constant tensor:
#      x y z
#    x 0.870960 3.165460 0.455340 
#    y 3.165460 1.747420 -0.045700 
#    z 0.455340 -0.045700 4.208120 
# 
# 
# High freq. dielectric constant tensor:
#      x y z
#    x 1.922140 0.014080 0.003890 
#    y 0.014080 1.888270 0.008000 
#    z 0.003890 0.008000 1.912100 
# 
# From -- ./inp_files/188565.got.cif
#   From: 2010.06.25/outbox.cif.g09.slc.cpg/sg2_95_cif.got.tgz:188565.got - 2010.06.27 13:26:56.
