data_PCOD8035661
_publ_section_title
;
Structure prediction by ZEFSAII (Michael W. Deem and Ramdas Pophale) SiO2 
 PCOD8035661
Probable space group: P -1
;
_chemical_formula_sum "Si O2"
_cell_formula_units_Z 14
_cell_length_a 5.351578
_cell_length_b 15.755751
_cell_length_c 16.128007
_cell_angle_alpha 25.357806
_cell_angle_beta 90.551099
_cell_angle_gamma 97.375254
_cell_volume 559.168067
_symmetry_space_group_name_H-M "P -1"
_symmetry_group_IT_number 2
_symmetry_cell_setting 'triclinic'
loop_
_space_group_symop_operation_xyz
x,y,z
-x,-y,-z
loop_
_atom_site_type_symbol
_atom_site_label
_atom_site_fract_x
_atom_site_fract_y
_atom_site_fract_z
Si Si1 0.956330 0.841483 0.849580
Si Si2 0.827670 0.425183 0.307837
Si Si3 0.402211 0.068948 0.548011
Si Si4 0.336084 0.431151 0.408051
Si Si5 0.382079 0.259403 0.221875
Si Si6 0.026224 0.060231 0.814348
Si Si7 0.252248 0.814268 0.155488
O O1 0.817080 0.836916 0.765983
O O2 0.854313 0.952942 0.828268
O O3 0.942651 0.608308 0.080697
O O4 0.245017 0.993504 0.698898
O O5 0.688658 0.213088 0.446772
O O6 0.605974 0.482478 0.313412
O O7 0.076190 0.393993 0.383850
O O8 0.273111 0.203062 0.365323
O O9 0.395730 0.857877 0.685351
O O10 0.341590 0.614349 0.310311
O O11 0.300157 0.220572 0.646089
O O12 0.500000 0.500000 0.000000
O O13 0.886836 0.202943 0.740409
O O14 0.069495 0.867469 0.036244
O O15 0.500000 0.000000 0.000000
#
# Coordination Sequence:
#
# PCOD8035661 Si02
#       7
#     2   2   2   2   2   2   2
#     4  12  24  47  77 104 155 196 255 314 383 453
#     4  12  27  48  80 116 152 208 258 315 381 460
#     4  11  26  47  73 111 148 204 250 320 379 461
#     4  12  27  49  77 112 156 201 262 311 384 453
#     4  11  25  47  73 109 152 198 254 316 386 454
#     4  11  25  46  71 110 144 208 245 322 377 454
#     4  11  26  45  73 108 155 196 260 314 381 454
#
# _framework density 25.037194
#
# number of rings (size 3 to 8) (size 9 to 14) (size 15 to 20)
#    0.000    0.571    4.286    2.571    6.000    2.286 
#    0.000    0.000    0.000    0.000    0.000    0.000 
#    0.000    0.000    0.000    0.000    0.000    0.000 
#
# Total GULP energy -173484.500156 kJ/mol
# GULP energy per Si atom -12391.750011 kJ/mol
# Density = 2.498021 g / cm^3
# Si number density = 25.037194 Si / 1000 Ang^3
#
#
#
# Elastic Constant Matrix: (Units=GPa)
#
#
# Indices 1 2 3 4 5 6 
#
# 1 61.6653 11.4996 19.1686 13.5805 -8.9199 -0.2483
# 2 11.4996 126.0195 36.5356 -10.1927 -9.8993 -1.6149
# 3 19.1686 36.5356 159.8296 -3.4620 -21.3166 -12.6358
# 4 13.5805 -10.1927 -3.4620 39.4226 -9.7730 0.4539
# 5 -8.9199 -9.8993 -21.3166 -9.7730 32.0638 -7.6594
# 6 -0.2483 -1.6149 -12.6358 0.4539 -7.6594 40.0056
#
#
#
# Elastic Compliance Matrix: (Units=1/GPa)
#
#
# Indices 1 2 3 4 5 6 
#
# 1 0.018770 -0.001608 -0.001856 -0.006694 0.001406 -0.000190
# 2 -0.001608 0.008966 -0.001427 0.003357 0.002476 0.000337
# 3 -0.001856 -0.001427 0.007920 0.002383 0.005878 0.003531
# 4 -0.006694 0.003357 0.002383 0.031436 0.010958 0.002588
# 5 0.001406 0.002476 0.005878 0.010958 0.041949 0.009873
# 6 -0.000190 0.000337 0.003531 0.002588 0.009873 0.027985
#
#
# Mechanical properties :
#
#
# Convention : Reuss Voigt Hill
#
# Bulk Modulus (GPa) = 38.64916 53.54688 46.09802
# Shear Modulus (GPa) = 32.16790 40.98576 36.57683
#
# Velocity S-wave (km/s) = 3.58831 4.05037 3.82632
# Velocity P-wave (km/s) = 5.71298 6.58083 6.16220
#
# Compressibility (1/GPa) = 0.02587378
#
# Stress axis : x y z
#
# Youngs Moduli (GPa) = 53.27575 111.53152 126.25894
#
# Poissons Ratio (x) = 0.17936 0.23434
# Poissons Ratio (y) = 0.08568 0.18019
# Poissons Ratio (z) = 0.09888 0.15917
#
# Static dielectric constant tensor:
#      x y z
#    x 4.152840 0.224460 0.175340 
#    y 0.224460 4.550280 0.148190 
#    z 0.175340 0.148190 5.110080 
# 
# 
# High freq. dielectric constant tensor:
#      x y z
#    x 1.960480 0.000960 -0.004760 
#    y 0.000960 2.022360 -0.002480 
#    z -0.004760 -0.002480 2.022560 
# 
# From -- ./inp_files/98068.got.cif
#   From: 2010.06.25/outbox.cif.g09.slc.cpg/sg2_50_cif.got.tgz:98068.got - 2010.06.27 13:26:56.
