data_PCOD8035604
_publ_section_title
;
Structure prediction by ZEFSAII (Michael W. Deem and Ramdas Pophale) SiO2 
 PCOD8035604
Probable space group: P -1
;
_chemical_formula_sum "Si O2"
_cell_formula_units_Z 16
_cell_length_a 21.555996
_cell_length_b 5.223630
_cell_length_c 9.616344
_cell_angle_alpha 124.961592
_cell_angle_beta 45.494790
_cell_angle_gamma 117.434539
_cell_volume 629.641831
_symmetry_space_group_name_H-M "P -1"
_symmetry_group_IT_number 2
_symmetry_cell_setting 'triclinic'
loop_
_space_group_symop_operation_xyz
x,y,z
-x,-y,-z
loop_
_atom_site_type_symbol
_atom_site_label
_atom_site_fract_x
_atom_site_fract_y
_atom_site_fract_z
Si Si1 0.601381 0.080873 0.838236
Si Si2 0.012647 0.827121 0.781572
Si Si3 0.405361 0.244413 0.835780
Si Si4 0.405363 0.913058 0.461075
Si Si5 0.816916 0.669502 0.985659
Si Si6 0.729250 0.037254 0.847687
Si Si7 0.766926 0.351289 0.251017
Si Si8 0.878125 0.667349 0.417203
O O1 0.623889 0.997661 0.619198
O O2 0.667931 0.904013 0.772890
O O3 0.626120 0.438320 0.957997
O O4 0.500000 0.000000 0.000000
O O5 0.069209 0.537251 0.625972
O O6 0.921093 0.689824 0.816505
O O7 0.057830 0.063865 0.671870
O O8 0.000000 0.000000 0.000000
O O9 0.501356 0.218362 0.738785
O O10 0.410142 0.216907 0.651318
O O11 0.334073 0.970122 0.919704
O O12 0.334814 0.639159 0.544378
O O13 0.772206 0.393857 0.871764
O O14 0.806841 0.815612 0.670727
O O15 0.781197 0.986865 0.085029
O O16 0.789921 0.587199 0.161813
O O17 0.831840 0.444753 0.303920
#
# Coordination Sequence:
#
# PCOD8035604 Si02
#       8
#     2   2   2   2   2   2   2   2
#     4  12  27  46  73 110 157 208 259 330 393 461
#     4  12  24  49  76 115 149 195 267 325 403 468
#     4  11  25  51  70 113 157 203 265 328 385 475
#     4  11  25  45  79 108 150 210 265 320 391 464
#     4  12  27  47  79 106 159 200 250 340 389 471
#     4  12  29  49  71 113 160 203 262 322 403 465
#     4  12  24  45  75 116 144 202 264 311 393 467
#     4  12  27  44  80 111 150 202 259 326 392 486
#
# _framework density 25.411273000000001
#
# number of rings (size 3 to 8) (size 9 to 14) (size 15 to 20)
#    0.000    0.250    5.000    3.000    7.000    1.500 
#    0.000    0.000    0.000    0.000    0.000    0.000 
#    0.000    0.000    0.000    0.000    0.000    0.000 
#
# Total GULP energy -198443.997136 kJ/mol
# GULP energy per Si atom -12402.749821 kJ/mol
# Density = 2.535344 g / cm^3
# Si number density = 25.411273 Si / 1000 Ang^3
#
#
#
# Elastic Constant Matrix: (Units=GPa)
#
#
# Indices 1 2 3 4 5 6 
#
# 1 111.3654 32.9909 42.3988 -5.6696 -10.1107 31.3974
# 2 32.9909 112.5209 30.8244 -6.5914 -19.0969 15.1397
# 3 42.3988 30.8244 108.8277 -6.5142 -6.4035 10.2605
# 4 -5.6696 -6.5914 -6.5142 37.9922 11.9233 -8.3163
# 5 -10.1107 -19.0969 -6.4035 11.9233 53.1821 -10.0106
# 6 31.3974 15.1397 10.2605 -8.3163 -10.0106 35.0385
#
#
#
# Elastic Compliance Matrix: (Units=1/GPa)
#
#
# Indices 1 2 3 4 5 6 
#
# 1 0.014035 -0.001627 -0.004052 -0.001235 -0.000205 -0.011038
# 2 -0.001627 0.010656 -0.002052 -0.000049 0.002959 -0.001712
# 3 -0.004052 -0.002052 0.011279 0.001353 -0.000173 0.001487
# 4 -0.001235 -0.000049 0.001353 0.029441 -0.005535 0.006138
# 5 -0.000205 0.002959 -0.000173 -0.005535 0.021774 0.003863
# 6 -0.011038 -0.001712 0.001487 0.006138 0.003863 0.041296
#
#
# Mechanical properties :
#
#
# Convention : Reuss Voigt Hill
#
# Bulk Modulus (GPa) = 48.76082 60.57132 54.66607
# Shear Modulus (GPa) = 33.16109 40.34256 36.75183
#
# Velocity S-wave (km/s) = 3.61636 3.98877 3.80713
# Velocity P-wave (km/s) = 6.05539 6.71579 6.39412
#
# Compressibility (1/GPa) = 0.02050827
#
# Stress axis : x y z
#
# Youngs Moduli (GPa) = 71.25177 93.84452 88.65683
#
# Poissons Ratio (x) = 0.15266 0.35927
# Poissons Ratio (y) = 0.11591 0.18191
# Poissons Ratio (z) = 0.28874 0.19255
#
# Static dielectric constant tensor:
#      x y z
#    x 4.774950 0.252500 -0.141110 
#    y 0.252500 2.757700 0.483110 
#    z -0.141110 0.483110 4.518870 
# 
# 
# High freq. dielectric constant tensor:
#      x y z
#    x 2.034970 0.018670 -0.005480 
#    y 0.018670 2.013950 -0.004600 
#    z -0.005480 -0.004600 2.016790 
# 
# From -- ./inp_files/340634.got.cif
#   From: 2010.06.25/outbox.cif.g09.slc.cpg/sg2_171_cif.got.tgz:340634.got - 2010.06.27 13:26:56.
