data_PCOD8035882
_publ_section_title
;
Structure prediction by ZEFSAII (Michael W. Deem and Ramdas Pophale) SiO2 
 PCOD8035882
Probable space group: P -1
;
_chemical_formula_sum "Si O2"
_cell_formula_units_Z 10
_cell_length_a 8.533413
_cell_length_b 20.425952
_cell_length_c 5.525917
_cell_angle_alpha 51.112754
_cell_angle_beta 64.441187
_cell_angle_gamma 32.038464
_cell_volume 385.704489
_symmetry_space_group_name_H-M "P -1"
_symmetry_group_IT_number 2
_symmetry_cell_setting 'triclinic'
loop_
_space_group_symop_operation_xyz
x,y,z
-x,-y,-z
loop_
_atom_site_type_symbol
_atom_site_label
_atom_site_fract_x
_atom_site_fract_y
_atom_site_fract_z
Si Si1 0.227749 0.348979 0.062741
Si Si2 0.151806 0.659424 0.825267
Si Si3 0.288526 0.897827 0.307871
Si Si4 0.620543 0.911918 0.871097
Si Si5 0.232762 0.791348 0.207222
O O1 0.500019 0.199907 0.377954
O O2 0.027963 0.353650 0.081594
O O3 0.406520 0.339326 0.779383
O O4 0.000000 0.500000 0.000000
O O5 0.137804 0.731687 0.443726
O O6 0.990830 0.761064 0.941494
O O7 0.500000 0.500000 0.000000
O O8 0.171919 0.858800 0.352381
O O9 0.491764 0.868303 0.046280
O O10 0.989956 0.075671 0.155562
O O11 0.500000 0.000000 0.500000
O O12 0.500000 0.000000 0.000000
#
# Coordination Sequence:
#
# PCOD8035882 Si02
#       5
#     2   2   2   2   2
#     4  12  28  49  76 114 160 214 267 339 410 490
#     4  12  28  51  78 117 162 214 272 337 416 489
#     4  11  25  47  77 108 159 201 268 335 400 484
#     4  12  26  50  83 120 162 215 277 340 409 494
#     4  11  26  49  76 113 154 202 276 322 418 474
#
# _framework density 25.926587000000001
#
# number of rings (size 3 to 8) (size 9 to 14) (size 15 to 20)
#    0.000    0.400    4.000    3.000    2.800    5.600 
#    0.000    0.000    0.000    0.000    0.000    0.000 
#    0.000    0.000    0.000    0.000    0.000    0.000 
#
# Total GULP energy -123883.865664 kJ/mol
# GULP energy per Si atom -12388.386566 kJ/mol
# Density = 2.586758 g / cm^3
# Si number density = 25.926587 Si / 1000 Ang^3
#
#
#
# Elastic Constant Matrix: (Units=GPa)
#
#
# Indices 1 2 3 4 5 6 
#
# 1 103.3450 77.2159 43.1784 9.5162 -10.4688 -23.3527
# 2 77.2159 251.9877 63.4687 -3.4824 -2.7196 -25.5312
# 3 43.1784 63.4687 84.8232 -1.0210 -2.3863 0.6694
# 4 9.5162 -3.4824 -1.0210 36.9911 -12.5047 1.9576
# 5 -10.4688 -2.7196 -2.3863 -12.5047 54.1164 5.7498
# 6 -23.3527 -25.5312 0.6694 1.9576 5.7498 48.1416
#
#
#
# Elastic Compliance Matrix: (Units=1/GPa)
#
#
# Indices 1 2 3 4 5 6 
#
# 1 0.016482 -0.002830 -0.006354 -0.004706 0.000971 0.006658
# 2 -0.002830 0.005741 -0.002866 0.000984 -0.000340 0.001712
# 3 -0.006354 -0.002866 0.017247 0.002253 0.000438 -0.004986
# 4 -0.004706 0.000984 0.002253 0.030898 0.006788 -0.003859
# 5 0.000971 -0.000340 0.000438 0.006788 0.020496 -0.002439
# 6 0.006658 0.001712 -0.004986 -0.003859 -0.002439 0.025427
#
#
# Mechanical properties :
#
#
# Convention : Reuss Voigt Hill
#
# Bulk Modulus (GPa) = 65.06612 89.76465 77.41539
# Shear Modulus (GPa) = 34.36046 44.93601 39.64823
#
# Velocity S-wave (km/s) = 3.64441 4.16769 3.91480
# Velocity P-wave (km/s) = 6.54674 7.60640 7.09638
#
# Compressibility (1/GPa) = 0.01536898
#
# Stress axis : x y z
#
# Youngs Moduli (GPa) = 60.67273 174.18541 57.98015
#
# Poissons Ratio (x) = 0.49295 0.36842
# Poissons Ratio (y) = 0.17170 0.16619
# Poissons Ratio (z) = 0.38553 0.49927
#
# Static dielectric constant tensor:
#      x y z
#    x 5.002210 -0.645230 -0.510250 
#    y -0.645230 6.438790 0.116820 
#    z -0.510250 0.116820 4.799590 
# 
# 
# High freq. dielectric constant tensor:
#      x y z
#    x 2.041530 -0.023300 -0.024450 
#    y -0.023300 2.060410 0.004320 
#    z -0.024450 0.004320 2.033860 
# 
# From -- ./inp_files/49492.got.cif
#   From: 2010.06.25/outbox.cif.g09.slc.cpg/sg2_25_cif.got.tgz:49492.got - 2010.06.27 13:26:56.
