data_PCOD8035309
_publ_section_title
;
Structure prediction by ZEFSAII (Michael W. Deem and Ramdas Pophale) SiO2 
 PCOD8035309
Probable space group: P -1
;
_chemical_formula_sum "Si O2"
_cell_formula_units_Z 14
_cell_length_a 20.701683
_cell_length_b 11.516318
_cell_length_c 6.575973
_cell_angle_alpha 81.336213
_cell_angle_beta 68.391853
_cell_angle_gamma 139.656688
_cell_volume 658.119644
_symmetry_space_group_name_H-M "P -1"
_symmetry_group_IT_number 2
_symmetry_cell_setting 'triclinic'
loop_
_space_group_symop_operation_xyz
x,y,z
-x,-y,-z
loop_
_atom_site_type_symbol
_atom_site_label
_atom_site_fract_x
_atom_site_fract_y
_atom_site_fract_z
Si Si1 0.077954 0.825935 0.721247
Si Si2 0.603654 0.657778 0.642971
Si Si3 0.845668 0.262387 0.618717
Si Si4 0.904825 0.736640 0.662639
Si Si5 0.563181 0.770524 0.324663
Si Si6 0.825003 0.480620 0.432086
Si Si7 0.386271 0.737023 0.603335
O O1 0.123323 0.762082 0.619119
O O2 0.004932 0.782483 0.626363
O O3 0.226865 0.118948 0.543145
O O4 0.966425 0.655299 0.085128
O O5 0.592986 0.769470 0.519216
O O6 0.559608 0.494446 0.574168
O O7 0.500000 0.500000 0.000000
O O8 0.777307 0.289340 0.652079
O O9 0.000000 0.500000 0.500000
O O10 0.722383 0.005894 0.959571
O O11 0.871797 0.654382 0.488221
O O12 0.744983 0.505529 0.027886
O O13 0.000000 0.000000 0.500000
O O14 0.494647 0.795359 0.400368
O O15 0.685598 0.316137 0.502377
O O16 0.500000 0.000000 0.500000
#
# Coordination Sequence:
#
# PCOD8035309 Si02
#       7
#     2   2   2   2   2   2   2
#     4  11  25  43  71 101 132 178 232 280 347 406
#     4  11  25  44  67 101 135 177 222 282 347 402
#     4  12  23  44  73 101 137 177 224 286 343 408
#     4  11  27  45  71  99 136 186 237 284 339 415
#     4  11  27  43  68 102 138 174 227 283 338 410
#     4  11  26  46  71  98 140 182 228 286 343 405
#     4  11  28  46  68 101 141 184 234 279 344 416
#
# _framework density 21.272725999999999
#
# number of rings (size 3 to 8) (size 9 to 14) (size 15 to 20)
#    0.000    0.857    2.857    2.143   10.000    3.429 
#    0.000    0.000    0.000    0.000    0.000    0.000 
#    0.000    0.000    0.000    0.000    0.000    0.000 
#
# Total GULP energy -173667.929220 kJ/mol
# GULP energy per Si atom -12404.852087 kJ/mol
# Density = 2.122431 g / cm^3
# Si number density = 21.272726 Si / 1000 Ang^3
#
#
#
# Elastic Constant Matrix: (Units=GPa)
#
#
# Indices 1 2 3 4 5 6 
#
# 1 87.7338 40.9526 32.5445 6.3803 -2.0441 0.4971
# 2 40.9526 149.4667 42.0483 -2.1897 -0.0897 7.1974
# 3 32.5445 42.0483 101.2238 -1.6307 4.5377 9.0098
# 4 6.3803 -2.1897 -1.6307 41.9650 1.8869 -2.2742
# 5 -2.0441 -0.0897 4.5377 1.8869 35.8410 -0.9240
# 6 0.4971 7.1974 9.0098 -2.2742 -0.9240 42.9333
#
#
#
# Elastic Compliance Matrix: (Units=1/GPa)
#
#
# Indices 1 2 3 4 5 6 
#
# 1 0.014327 -0.003011 -0.003547 -0.002484 0.001415 0.000982
# 2 -0.003011 0.008232 -0.002372 0.000747 0.000089 -0.000806
# 3 -0.003547 -0.002372 0.012292 0.000861 -0.001865 -0.002135
# 4 -0.002484 0.000747 0.000861 0.024401 -0.001508 0.000983
# 5 0.001415 0.000089 -0.001865 -0.001508 0.028320 0.000890
# 6 0.000982 -0.000806 -0.002135 0.000983 0.000890 0.023935
#
#
# Mechanical properties :
#
#
# Convention : Reuss Voigt Hill
#
# Bulk Modulus (GPa) = 58.84638 63.27945 61.06291
# Shear Modulus (GPa) = 37.02875 39.00645 38.01760
#
# Velocity S-wave (km/s) = 4.17666 4.28674 4.23206
# Velocity P-wave (km/s) = 7.14018 7.36973 7.25586
#
# Compressibility (1/GPa) = 0.01699340
#
# Stress axis : x y z
#
# Youngs Moduli (GPa) = 69.79842 121.47057 81.35226
#
# Poissons Ratio (x) = 0.36570 0.28852
# Poissons Ratio (y) = 0.21013 0.19297
# Poissons Ratio (z) = 0.24754 0.28813
#
# Static dielectric constant tensor:
#      x y z
#    x 4.021410 0.237300 -0.037980 
#    y 0.237300 3.880540 -0.100950 
#    z -0.037980 -0.100950 4.118770 
# 
# 
# High freq. dielectric constant tensor:
#      x y z
#    x 1.837780 0.005850 -0.001100 
#    y 0.005850 1.852160 -0.001950 
#    z -0.001100 -0.001950 1.844330 
# 
# From -- ./inp_files/65947.got.cif
#   From: 2010.06.25/outbox.cif.g09.slc.cpg/sg2_33_cif.got.tgz:65947.got - 2010.06.27 13:26:56.
