data_PCOD8035393
_publ_section_title
;
Structure prediction by ZEFSAII (Michael W. Deem and Ramdas Pophale) SiO2 
 PCOD8035393
Probable space group: P -1
;
_chemical_formula_sum "Si O2"
_cell_formula_units_Z 16
_cell_length_a 24.789051
_cell_length_b 6.136901
_cell_length_c 21.972192
_cell_angle_alpha 48.694435
_cell_angle_beta 19.610564
_cell_angle_gamma 60.419255
_cell_volume 725.780241
_symmetry_space_group_name_H-M "P -1"
_symmetry_group_IT_number 2
_symmetry_cell_setting 'triclinic'
loop_
_space_group_symop_operation_xyz
x,y,z
-x,-y,-z
loop_
_atom_site_type_symbol
_atom_site_label
_atom_site_fract_x
_atom_site_fract_y
_atom_site_fract_z
Si Si1 0.661861 0.873048 0.010413
Si Si2 0.842473 0.226609 0.175356
Si Si3 0.470383 0.733589 0.443190
Si Si4 0.417372 0.731965 0.077809
Si Si5 0.006186 0.361240 0.180304
Si Si6 0.985610 0.721205 0.357489
Si Si7 0.302685 0.505038 0.538876
Si Si8 0.189823 0.587675 0.073148
O O1 0.583324 0.036689 0.017645
O O2 0.501669 0.654644 0.268936
O O3 0.709500 0.614140 0.974223
O O4 0.850120 0.151216 0.791286
O O5 0.630684 0.107988 0.440598
O O6 0.848265 0.886431 0.240629
O O7 0.870704 0.370723 0.050981
O O8 0.000000 0.500000 0.000000
O O9 0.500000 0.500000 0.500000
O O10 0.327961 0.511812 0.582949
O O11 0.660859 0.015371 0.157490
O O12 0.208713 0.459905 0.367956
O O13 0.500000 0.500000 0.000000
O O14 0.500000 0.000000 0.000000
O O15 0.795270 0.289474 0.417141
O O16 0.107775 0.499101 0.110157
O O17 0.992523 0.003828 0.252784
O O18 0.018616 0.482574 0.320984
#
# Coordination Sequence:
#
# PCOD8035393 Si02
#       8
#     2   2   2   2   2   2   2   2
#     4  11  26  48  75 107 147 191 244 304 373 446
#     4  12  26  41  63  98 138 195 239 300 363 428
#     4  12  25  41  67  99 143 189 246 299 362 434
#     4  12  31  52  82 118 151 195 247 309 380 453
#     4  11  26  42  70 101 143 186 247 299 368 436
#     4  11  26  49  77 105 146 189 241 300 377 441
#     4  12  25  44  67 101 140 187 243 301 360 437
#     4  11  25  44  72 106 140 193 238 306 368 437
#
# _framework density 22.04524
#
# number of rings (size 3 to 8) (size 9 to 14) (size 15 to 20)
#    0.000    0.500    3.750    3.000   12.250    2.500 
#    0.000    0.000    0.000    0.000    0.000    0.000 
#    0.000    0.000    0.000    0.000    0.000    0.000 
#
# Total GULP energy -198228.509815 kJ/mol
# GULP energy per Si atom -12389.281863 kJ/mol
# Density = 2.199506 g / cm^3
# Si number density = 22.045240 Si / 1000 Ang^3
#
#
#
# Elastic Constant Matrix: (Units=GPa)
#
#
# Indices 1 2 3 4 5 6 
#
# 1 95.7180 64.6892 22.8231 -4.6628 -3.9189 -15.4541
# 2 64.6892 131.9739 37.1591 13.8503 2.6639 -4.3191
# 3 22.8231 37.1591 119.7410 14.5135 9.7084 9.0206
# 4 -4.6628 13.8503 14.5135 39.7660 3.8429 2.3970
# 5 -3.9189 2.6639 9.7084 3.8429 36.8623 2.3981
# 6 -15.4541 -4.3191 9.0206 2.3970 2.3981 36.6470
#
#
#
# Elastic Compliance Matrix: (Units=1/GPa)
#
#
# Indices 1 2 3 4 5 6 
#
# 1 0.018304 -0.008767 -0.002096 0.005354 0.002137 0.006712
# 2 -0.008767 0.012776 -0.001540 -0.004746 -0.000861 -0.001446
# 3 -0.002096 -0.001540 0.010008 -0.002954 -0.002232 -0.003190
# 4 0.005354 -0.004746 -0.002954 0.028596 -0.001333 0.000642
# 5 0.002137 -0.000861 -0.002232 -0.001333 0.028171 -0.000407
# 6 0.006712 -0.001446 -0.003190 0.000642 -0.000407 0.030717
#
#
# Mechanical properties :
#
#
# Convention : Reuss Voigt Hill
#
# Bulk Modulus (GPa) = 61.41582 66.30842 63.86212
# Shear Modulus (GPa) = 31.48497 37.50584 34.49541
#
# Velocity S-wave (km/s) = 3.78325 4.12917 3.95999
# Velocity P-wave (km/s) = 6.85591 7.27166 7.06684
#
# Compressibility (1/GPa) = 0.01628245
#
# Stress axis : x y z
#
# Youngs Moduli (GPa) = 54.63209 78.26925 99.92005
#
# Poissons Ratio (x) = 0.68622 0.20942
# Poissons Ratio (y) = 0.47898 0.15386
# Poissons Ratio (z) = 0.11450 0.12052
#
# Static dielectric constant tensor:
#      x y z
#    x 4.132930 0.240720 -0.018210 
#    y 0.240720 4.920480 0.275060 
#    z -0.018210 0.275060 4.132280 
# 
# 
# High freq. dielectric constant tensor:
#      x y z
#    x 1.870110 -0.000940 -0.000210 
#    y -0.000940 1.882650 0.012780 
#    z -0.000210 0.012780 1.878000 
# 
# From -- ./inp_files/39236.got.cif
#   From: 2010.06.25/outbox.cif.g09.slc.cpg/sg2_20_cif.got.tgz:39236.got - 2010.06.27 13:26:56.
