data_PCOD8035758
_publ_section_title
;
Structure prediction by ZEFSAII (Michael W. Deem and Ramdas Pophale) SiO2 
 PCOD8035758
Probable space group: P -1
;
_chemical_formula_sum "Si O2"
_cell_formula_units_Z 16
_cell_length_a 10.817763
_cell_length_b 8.673347
_cell_length_c 15.334203
_cell_angle_alpha 61.080539
_cell_angle_beta 37.027827
_cell_angle_gamma 48.569502
_cell_volume 646.415414
_symmetry_space_group_name_H-M "P -1"
_symmetry_group_IT_number 2
_symmetry_cell_setting 'triclinic'
loop_
_space_group_symop_operation_xyz
x,y,z
-x,-y,-z
loop_
_atom_site_type_symbol
_atom_site_label
_atom_site_fract_x
_atom_site_fract_y
_atom_site_fract_z
Si Si1 0.019168 0.965428 0.321913
Si Si2 0.518943 0.684710 0.472610
Si Si3 0.541484 0.364169 0.928691
Si Si4 0.226851 0.633379 0.874469
Si Si5 0.715980 0.727886 0.175801
Si Si6 0.685609 0.867807 0.805605
Si Si7 0.876319 0.709509 0.565071
Si Si8 0.499930 0.171259 0.391779
O O1 0.174237 0.799733 0.203509
O O2 0.017082 0.831061 0.441792
O O3 0.132626 0.098918 0.249283
O O4 0.746813 0.122514 0.403540
O O5 0.500000 0.500000 0.500000
O O6 0.645811 0.749048 0.311351
O O7 0.650939 0.631467 0.508681
O O8 0.426077 0.510309 0.870326
O O9 0.500000 0.500000 0.000000
O O10 0.421138 0.226768 0.042805
O O11 0.255622 0.481340 0.820858
O O12 0.261708 0.819003 0.770456
O O13 0.958948 0.733139 0.035672
O O14 0.514465 0.917998 0.182181
O O15 0.833374 0.695521 0.695092
O O16 0.616096 0.835458 0.631098
O O17 0.000000 0.500000 0.500000
O O18 0.500000 0.000000 0.500000
#
# Coordination Sequence:
#
# PCOD8035758 Si02
#       8
#     2   2   2   2   2   2   2   2
#     4  12  26  46  76 107 150 198 259 314 367 452
#     4  12  27  45  76 112 151 199 259 307 375 444
#     4  12  28  50  74 111 154 197 249 311 390 454
#     4  11  26  47  76 109 151 194 249 311 373 448
#     4  11  25  46  76 112 146 193 255 311 366 443
#     4  12  26  46  75 108 147 198 255 305 375 450
#     4  12  27  45  73 109 151 198 247 311 383 440
#     4  12  25  49  72 106 153 194 250 305 376 453
#
# _framework density 24.751885000000001
#
# number of rings (size 3 to 8) (size 9 to 14) (size 15 to 20)
#    0.000    0.250    5.000    3.000    5.250    1.000 
#    2.250    3.125    0.000    0.000    0.000    0.000 
#    0.000    0.000    0.000    0.000    0.000    0.000 
#
# Total GULP energy -198247.077174 kJ/mol
# GULP energy per Si atom -12390.442323 kJ/mol
# Density = 2.469555 g / cm^3
# Si number density = 24.751885 Si / 1000 Ang^3
#
#
#
# Elastic Constant Matrix: (Units=GPa)
#
#
# Indices 1 2 3 4 5 6 
#
# 1 72.9479 -7.2130 32.1030 3.1983 11.4412 24.6801
# 2 -7.2130 77.7338 51.5130 -9.0151 -7.2112 16.6566
# 3 32.1030 51.5130 176.5744 -10.6533 -1.4592 7.4139
# 4 3.1983 -9.0151 -10.6533 65.0523 8.4505 2.2125
# 5 11.4412 -7.2112 -1.4592 8.4505 39.5280 -5.7631
# 6 24.6801 16.6566 7.4139 2.2125 -5.7631 33.1813
#
#
#
# Elastic Compliance Matrix: (Units=1/GPa)
#
#
# Indices 1 2 3 4 5 6 
#
# 1 0.030628 0.013947 -0.008379 0.001547 -0.011332 -0.029981
# 2 0.013947 0.024453 -0.008646 0.002481 -0.003560 -0.021500
# 3 -0.008379 -0.008646 0.009363 0.000124 0.002465 0.008900
# 4 0.001547 0.002481 0.000124 0.016336 -0.004099 -0.004225
# 5 -0.011332 -0.003560 0.002465 -0.004099 0.031134 0.015346
# 6 -0.029981 -0.021500 0.008900 -0.004225 0.015346 0.064189
#
#
# Mechanical properties :
#
#
# Convention : Reuss Voigt Hill
#
# Bulk Modulus (GPa) = 17.15645 53.34024 35.24835
# Shear Modulus (GPa) = 24.79073 44.27587 34.53330
#
# Velocity S-wave (km/s) = 3.16819 4.23399 3.73926
# Velocity P-wave (km/s) = 4.50884 6.74530 5.73710
#
# Compressibility (1/GPa) = 0.05828710
#
# Stress axis : x y z
#
# Youngs Moduli (GPa) = 32.65030 40.89488 106.79982
#
# Poissons Ratio (x) = -0.57035 0.89484
# Poissons Ratio (y) = -0.45537 0.92344
# Poissons Ratio (z) = 0.27357 0.35360
#
# Static dielectric constant tensor:
#      x y z
#    x 5.505070 0.136290 0.269720 
#    y 0.136290 4.684580 -0.117400 
#    z 0.269720 -0.117400 4.869820 
# 
# 
# High freq. dielectric constant tensor:
#      x y z
#    x 1.990000 0.017860 0.008540 
#    y 0.017860 1.988160 -0.015050 
#    z 0.008540 -0.015050 2.003000 
# 
# From -- ./inp_files/566616.got.cif
#   From: 2010.06.25/outbox.cif.g09.slc.cpg/sg2_284_cif.got.tgz:566616.got - 2010.06.27 13:26:56.
