data_PCOD8035198
_publ_section_title
;
Structure prediction by ZEFSAII (Michael W. Deem and Ramdas Pophale) SiO2 
 PCOD8035198
Probable space group: P -1
;
_chemical_formula_sum "Si O2"
_cell_formula_units_Z 14
_cell_length_a 11.954191
_cell_length_b 9.240757
_cell_length_c 5.271728
_cell_angle_alpha 97.554586
_cell_angle_beta 106.787035
_cell_angle_gamma 98.791304
_cell_volume 541.404682
_symmetry_space_group_name_H-M "P -1"
_symmetry_group_IT_number 2
_symmetry_cell_setting 'triclinic'
loop_
_space_group_symop_operation_xyz
x,y,z
-x,-y,-z
loop_
_atom_site_type_symbol
_atom_site_label
_atom_site_fract_x
_atom_site_fract_y
_atom_site_fract_z
Si Si1 0.268010 0.910169 0.618455
Si Si2 0.074542 0.043145 0.311593
Si Si3 0.630047 0.292218 0.697695
Si Si4 0.412199 0.226759 0.849832
Si Si5 0.119883 0.377761 0.353078
Si Si6 0.852279 0.355118 0.180680
Si Si7 0.362842 0.392913 0.349531
O O1 0.183399 0.954881 0.352520
O O2 0.368444 0.830508 0.544878
O O3 0.184613 0.803437 0.737579
O O4 0.336937 0.062996 0.824865
O O5 0.122579 0.216886 0.431428
O O6 0.000000 0.000000 0.500000
O O7 0.000000 0.000000 0.000000
O O8 0.549185 0.219267 0.865190
O O9 0.572800 0.428620 0.572206
O O10 0.765480 0.354829 0.886621
O O11 0.365013 0.309966 0.600406
O O12 0.412311 0.315242 0.129076
O O13 0.158702 0.508069 0.613644
O O14 0.222552 0.399539 0.209351
O O15 0.986589 0.377010 0.160737
#
# Coordination Sequence:
#
# PCOD8035198 Si02
#       7
#     2   2   2   2   2   2   2
#     4  12  27  48  75 115 154 201 258 312 391 444
#     4  12  27  46  75 108 155 201 248 309 373 456
#     4  12  28  50  76 110 158 198 265 313 381 458
#     4  12  30  50  81 111 150 206 259 321 379 445
#     4  11  24  49  77 111 159 195 259 301 392 454
#     4  11  26  48  76 118 153 209 243 323 380 462
#     4  12  27  50  80 111 149 204 257 314 383 452
#
# _framework density 25.858661000000001
#
# number of rings (size 3 to 8) (size 9 to 14) (size 15 to 20)
#    0.000    0.286    4.286    3.000    6.000    1.143 
#    2.571    0.000    0.000    0.000    0.000    0.000 
#    0.000    0.000    0.000    0.000    0.000    0.000 
#
# Total GULP energy -173577.974995 kJ/mol
# GULP energy per Si atom -12398.426785 kJ/mol
# Density = 2.579981 g / cm^3
# Si number density = 25.858661 Si / 1000 Ang^3
#
#
#
# Elastic Constant Matrix: (Units=GPa)
#
#
# Indices 1 2 3 4 5 6 
#
# 1 86.9792 5.9928 13.8486 22.4253 -14.2466 -6.2315
# 2 5.9928 185.5724 41.4269 18.0682 -3.0072 -1.5395
# 3 13.8486 41.4269 104.0104 11.1992 -4.3247 -3.2138
# 4 22.4253 18.0682 11.1992 32.8198 -0.7032 1.5369
# 5 -14.2466 -3.0072 -4.3247 -0.7032 34.9778 0.0575
# 6 -6.2315 -1.5395 -3.2138 1.5369 0.0575 48.2222
#
#
#
# Elastic Compliance Matrix: (Units=1/GPa)
#
#
# Indices 1 2 3 4 5 6 
#
# 1 0.015511 0.000870 -0.000933 -0.010738 0.006058 0.002305
# 2 0.000870 0.006178 -0.002196 -0.003247 0.000548 0.000266
# 3 -0.000933 -0.002196 0.010864 -0.001873 0.000736 0.000592
# 4 -0.010738 -0.003247 -0.001873 0.040281 -0.004070 -0.002895
# 5 0.006058 0.000548 0.000736 -0.004070 0.031112 0.000942
# 6 0.002305 0.000266 0.000592 -0.002895 0.000942 0.021174
#
#
# Mechanical properties :
#
#
# Convention : Reuss Voigt Hill
#
# Bulk Modulus (GPa) = 35.66804 55.45539 45.56172
# Shear Modulus (GPa) = 35.97570 44.22354 40.09962
#
# Velocity S-wave (km/s) = 3.73398 4.13995 3.94219
# Velocity P-wave (km/s) = 5.69329 6.65915 6.19508
#
# Compressibility (1/GPa) = 0.02803630
#
# Stress axis : x y z
#
# Youngs Moduli (GPa) = 64.46922 161.86226 92.04901
#
# Poissons Ratio (x) = -0.14082 0.08584
# Poissons Ratio (y) = -0.05609 0.20213
# Poissons Ratio (z) = 0.06012 0.35543
#
# Static dielectric constant tensor:
#      x y z
#    x 5.536880 0.304470 0.071950 
#    y 0.304470 5.879980 -0.169220 
#    z 0.071950 -0.169220 4.067600 
# 
# 
# High freq. dielectric constant tensor:
#      x y z
#    x 2.069080 -0.001970 0.009900 
#    y -0.001970 2.062430 0.002860 
#    z 0.009900 0.002860 2.008810 
# 
# From -- ./inp_files/26897.got.cif
#   From: 2010.06.25/outbox.cif.g09.slc.cpg/sg2_14_cif.got.tgz:26897.got - 2010.06.27 13:26:56.
