data_PCOD8035459
_publ_section_title
;
Structure prediction by ZEFSAII (Michael W. Deem and Ramdas Pophale) SiO2 
 PCOD8035459
Probable space group: P -1
;
_chemical_formula_sum "Si O2"
_cell_formula_units_Z 16
_cell_length_a 20.860661
_cell_length_b 9.754609
_cell_length_c 6.880883
_cell_angle_alpha 43.683917
_cell_angle_beta 55.950919
_cell_angle_gamma 55.538741
_cell_volume 768.931935
_symmetry_space_group_name_H-M "P -1"
_symmetry_group_IT_number 2
_symmetry_cell_setting 'triclinic'
loop_
_space_group_symop_operation_xyz
x,y,z
-x,-y,-z
loop_
_atom_site_type_symbol
_atom_site_label
_atom_site_fract_x
_atom_site_fract_y
_atom_site_fract_z
Si Si1 0.043269 0.945067 0.280563
Si Si2 0.051046 0.265895 0.631463
Si Si3 0.578256 0.992620 0.251232
Si Si4 0.217380 0.335060 0.231662
Si Si5 0.684521 0.561462 0.376684
Si Si6 0.786827 0.331574 0.789451
Si Si7 0.322791 0.935094 0.640996
Si Si8 0.577731 0.317972 0.602907
O O1 0.129674 0.781852 0.341090
O O2 0.987523 0.847292 0.345747
O O3 0.000000 0.000000 0.500000
O O4 0.054756 0.151397 0.949532
O O5 0.140499 0.250326 0.420457
O O6 0.000000 0.500000 0.500000
O O7 0.613372 0.768182 0.326726
O O8 0.500000 0.000000 0.500000
O O9 0.644760 0.048893 0.214964
O O10 0.552996 0.161363 0.951793
O O11 0.193334 0.529494 0.216077
O O12 0.293022 0.161874 0.367324
O O13 0.243685 0.395902 0.914683
O O14 0.722299 0.466850 0.612181
O O15 0.648155 0.400845 0.489413
O O16 0.751751 0.160532 0.123372
O O17 0.393178 0.795193 0.532691
O O18 0.500000 0.500000 0.500000
#
# Coordination Sequence:
#
# PCOD8035459 Si02
#       8
#     2   2   2   2   2   2   2   2
#     4  11  27  44  69 105 143 178 228 278 342 407
#     4  11  25  45  69 101 142 185 222 278 344 404
#     4  12  28  45  68 103 140 177 228 281 341 416
#     4  12  25  45  73 101 136 180 234 285 335 402
#     4  12  27  44  72 103 131 182 234 276 343 409
#     4  12  25  45  71 102 137 180 226 290 337 395
#     4  12  25  46  71  97 139 178 231 284 338 401
#     4  12  28  45  69 101 139 181 224 283 345 406
#
# _framework density 20.808084999999998
#
# number of rings (size 3 to 8) (size 9 to 14) (size 15 to 20)
#    0.000    0.250    7.500    0.750    5.250    5.500 
#    0.000    0.000    0.000    0.000    0.000    0.000 
#    0.000    0.000    0.000    0.000    0.000    0.000 
#
# Total GULP energy -198536.282841 kJ/mol
# GULP energy per Si atom -12408.517678 kJ/mol
# Density = 2.076072 g / cm^3
# Si number density = 20.808085 Si / 1000 Ang^3
#
#
#
# Elastic Constant Matrix: (Units=GPa)
#
#
# Indices 1 2 3 4 5 6 
#
# 1 63.1674 8.8438 18.1829 -2.3273 -6.3762 -9.7519
# 2 8.8438 123.1152 37.0612 5.3341 0.1813 -16.4705
# 3 18.1829 37.0612 115.6123 7.3082 -9.0906 -4.6458
# 4 -2.3273 5.3341 7.3082 38.8247 -5.5110 -3.2059
# 5 -6.3762 0.1813 -9.0906 -5.5110 37.9398 0.6349
# 6 -9.7519 -16.4705 -4.6458 -3.2059 0.6349 35.6270
#
#
#
# Elastic Compliance Matrix: (Units=1/GPa)
#
#
# Indices 1 2 3 4 5 6 
#
# 1 0.017624 0.000016 -0.002529 0.002286 0.002610 0.004661
# 2 0.000016 0.009570 -0.002944 -0.000556 -0.000896 0.004010
# 3 -0.002529 -0.002944 0.010193 -0.001479 0.001831 -0.000890
# 4 0.002286 -0.000556 -0.001479 0.027014 0.003914 0.002537
# 5 0.002610 -0.000896 0.001831 0.003914 0.027801 0.000395
# 6 0.004661 0.004010 -0.000890 0.002537 0.000395 0.031304
#
#
# Mechanical properties :
#
#
# Convention : Reuss Voigt Hill
#
# Bulk Modulus (GPa) = 37.77612 47.78563 42.78088
# Shear Modulus (GPa) = 34.90565 38.33210 36.61888
#
# Velocity S-wave (km/s) = 4.10018 4.29671 4.19959
# Velocity P-wave (km/s) = 6.37254 6.90148 6.64228
#
# Compressibility (1/GPa) = 0.02647175
#
# Stress axis : x y z
#
# Youngs Moduli (GPa) = 56.74126 104.49771 98.10715
#
# Poissons Ratio (x) = -0.00167 0.24810
# Poissons Ratio (y) = -0.00090 0.28886
# Poissons Ratio (z) = 0.14349 0.30768
#
# Static dielectric constant tensor:
#      x y z
#    x 3.759390 0.015430 -0.061080 
#    y 0.015430 3.880170 -0.120150 
#    z -0.061080 -0.120150 3.947030 
# 
# 
# High freq. dielectric constant tensor:
#      x y z
#    x 1.822360 -0.002190 -0.003960 
#    y -0.002190 1.828270 -0.005250 
#    z -0.003960 -0.005250 1.827750 
# 
# From -- ./inp_files/14500.got.cif
#   From: 2010.06.25/outbox.cif.g09.slc.cpg/sg2_8_cif.got.tgz:14500.got - 2010.06.27 13:26:56.
