data_PCOD8035082
_publ_section_title
;
Structure prediction by ZEFSAII (Michael W. Deem and Ramdas Pophale) SiO2 
 PCOD8035082
Probable space group: P -1
;
_chemical_formula_sum "Si O2"
_cell_formula_units_Z 10
_cell_length_a 5.762644
_cell_length_b 8.622424
_cell_length_c 12.334924
_cell_angle_alpha 138.505008
_cell_angle_beta 105.589172
_cell_angle_gamma 63.115430
_cell_volume 359.641477
_symmetry_space_group_name_H-M "P -1"
_symmetry_group_IT_number 2
_symmetry_cell_setting 'triclinic'
loop_
_space_group_symop_operation_xyz
x,y,z
-x,-y,-z
loop_
_atom_site_type_symbol
_atom_site_label
_atom_site_fract_x
_atom_site_fract_y
_atom_site_fract_z
Si Si1 0.712527 0.027242 0.621938
Si Si2 0.771630 0.295078 0.386523
Si Si3 0.004456 0.732433 0.820858
Si Si4 0.861817 0.485249 0.862944
Si Si5 0.510514 0.942401 0.162334
O O1 0.819999 0.230913 0.694186
O O2 0.567795 0.141432 0.776654
O O3 0.500000 0.000000 0.500000
O O4 0.963001 0.754849 0.534523
O O5 0.500000 0.500000 0.500000
O O6 0.791350 0.380726 0.310562
O O7 0.764011 0.013669 0.243308
O O8 0.043994 0.529833 0.815490
O O9 0.716309 0.796994 0.769702
O O10 0.000000 0.000000 0.000000
O O11 0.574275 0.717536 0.962564
O O12 0.000000 0.500000 0.000000
#
# Coordination Sequence:
#
# PCOD8035082 Si02
#       5
#     2   2   2   2   2
#     4  11  27  51  80 120 166 211 270 336 410 470
#     4  11  26  53  79 116 167 213 267 330 407 490
#     4  11  24  47  82 117 152 214 276 327 399 487
#     4  12  23  50  85 119 157 210 273 344 394 478
#     4  11  24  50  77 115 161 209 277 324 404 487
#
# _framework density 27.805468999999999
#
# number of rings (size 3 to 8) (size 9 to 14) (size 15 to 20)
#    0.000    0.800    4.000    2.400    0.000    5.600 
#   10.800    4.000    0.000    0.000    0.000    0.000 
#    0.000    0.000    0.000    0.000    0.000    0.000 
#
# Total GULP energy -123959.843562 kJ/mol
# GULP energy per Si atom -12395.984356 kJ/mol
# Density = 2.774218 g / cm^3
# Si number density = 27.805469 Si / 1000 Ang^3
#
#
#
# Elastic Constant Matrix: (Units=GPa)
#
#
# Indices 1 2 3 4 5 6 
#
# 1 163.5708 84.3803 78.5597 -9.8628 -15.2086 26.1798
# 2 84.3803 143.9196 65.0518 -16.2432 -8.3891 17.1334
# 3 78.5597 65.0518 121.2638 -7.5321 -4.7456 -0.7130
# 4 -9.8628 -16.2432 -7.5321 40.4467 0.3453 -1.6618
# 5 -15.2086 -8.3891 -4.7456 0.3453 71.5763 5.5420
# 6 26.1798 17.1334 -0.7130 -1.6618 5.5420 67.7663
#
#
#
# Elastic Compliance Matrix: (Units=1/GPa)
#
#
# Indices 1 2 3 4 5 6 
#
# 1 0.011332 -0.003686 -0.005303 0.000129 0.001906 -0.003654
# 2 -0.003686 0.011170 -0.003417 0.002890 0.000394 -0.001397
# 3 -0.005303 -0.003417 0.013498 -0.000016 -0.000874 0.003126
# 4 0.000129 0.002890 -0.000016 0.025904 0.000253 -0.000166
# 5 0.001906 0.000394 -0.000874 0.000253 0.014520 -0.002026
# 6 -0.003654 -0.001397 0.003126 -0.000166 -0.002026 0.016716
#
#
# Mechanical properties :
#
#
# Convention : Reuss Voigt Hill
#
# Bulk Modulus (GPa) = 89.38618 98.30420 93.84519
# Shear Modulus (GPa) = 41.09122 49.34201 45.21661
#
# Velocity S-wave (km/s) = 3.84840 4.21710 4.03696
# Velocity P-wave (km/s) = 7.20858 7.69045 7.45341
#
# Compressibility (1/GPa) = 0.01118741
#
# Stress axis : x y z
#
# Youngs Moduli (GPa) = 88.24667 89.52900 74.08541
#
# Poissons Ratio (x) = 0.33004 0.39284
# Poissons Ratio (y) = 0.32531 0.25315
# Poissons Ratio (z) = 0.46793 0.30592
#
# Static dielectric constant tensor:
#      x y z
#    x 5.692910 -0.315060 0.020470 
#    y -0.315060 5.443860 0.104980 
#    z 0.020470 0.104980 5.492380 
# 
# 
# High freq. dielectric constant tensor:
#      x y z
#    x 2.141370 -0.001970 0.004260 
#    y -0.001970 2.126160 0.003200 
#    z 0.004260 0.003200 2.124600 
# 
# From -- ./inp_files/15367.got.cif
#   From: 2010.06.25/outbox.cif.g09.slc.cpg/sg2_8_cif.got.tgz:15367.got - 2010.06.27 13:26:56.
