data_PCOD8035091
_publ_section_title
;
Structure prediction by ZEFSAII (Michael W. Deem and Ramdas Pophale) SiO2 
 PCOD8035091
Probable space group: P -1
;
_chemical_formula_sum "Si O2"
_cell_formula_units_Z 14
_cell_length_a 14.374569
_cell_length_b 8.722230
_cell_length_c 8.545567
_cell_angle_alpha 52.214559
_cell_angle_beta 91.879416
_cell_angle_gamma 56.001949
_cell_volume 575.366312
_symmetry_space_group_name_H-M "P -1"
_symmetry_group_IT_number 2
_symmetry_cell_setting 'triclinic'
loop_
_space_group_symop_operation_xyz
x,y,z
-x,-y,-z
loop_
_atom_site_type_symbol
_atom_site_label
_atom_site_fract_x
_atom_site_fract_y
_atom_site_fract_z
Si Si1 0.249085 0.883787 0.370054
Si Si2 0.398788 0.980435 0.197282
Si Si3 0.830360 0.039159 0.355279
Si Si4 0.212818 0.509705 0.083736
Si Si5 0.986029 0.569834 0.154482
Si Si6 0.774066 0.834919 0.225483
Si Si7 0.706034 0.553935 0.540682
O O1 0.225939 0.747548 0.330191
O O2 0.388711 0.789737 0.407041
O O3 0.262228 0.779220 0.610131
O O4 0.124259 0.235339 0.116005
O O5 0.305866 0.279256 0.096243
O O6 0.553970 0.813284 0.300317
O O7 0.347748 0.015671 0.996662
O O8 0.742057 0.037796 0.234476
O O9 0.963725 0.729109 0.630591
O O10 0.869366 0.183145 0.187446
O O11 0.307666 0.438198 0.276961
O O12 0.108588 0.528490 0.155263
O O13 0.906855 0.725779 0.216446
O O14 0.800539 0.588134 0.466387
#
# Coordination Sequence:
#
# PCOD8035091 Si02
#       7
#     2   2   2   2   2   2   2
#     4  11  25  44  72 103 141 183 228 289 348 407
#     4  11  24  48  69 102 142 181 237 287 335 414
#     4  12  25  45  68 109 140 180 226 283 353 414
#     4  12  26  44  76 103 138 186 228 285 353 406
#     4  11  25  47  70 104 145 173 235 287 348 411
#     4  11  25  43  71 101 142 182 228 289 343 411
#     4  12  25  46  71 103 140 187 232 284 344 410
#
# _framework density 24.332325000000001
#
# number of rings (size 3 to 8) (size 9 to 14) (size 15 to 20)
#    0.000    0.571    2.857    4.714    4.000    1.714 
#    0.000    2.143    0.000    0.000    0.000    0.000 
#    0.000    0.000    0.000    0.000    0.000    0.000 
#
# Total GULP energy -173502.794563 kJ/mol
# GULP energy per Si atom -12393.056755 kJ/mol
# Density = 2.427694 g / cm^3
# Si number density = 24.332325 Si / 1000 Ang^3
#
#
#
# Elastic Constant Matrix: (Units=GPa)
#
#
# Indices 1 2 3 4 5 6 
#
# 1 80.2263 37.0646 39.7994 -5.9306 -14.8199 -1.1478
# 2 37.0646 103.7890 52.2659 20.7338 9.9119 20.0143
# 3 39.7994 52.2659 120.8068 7.6860 -17.1696 -5.9604
# 4 -5.9306 20.7338 7.6860 43.9956 8.2008 1.2417
# 5 -14.8199 9.9119 -17.1696 8.2008 42.0428 -0.0836
# 6 -1.1478 20.0143 -5.9604 1.2417 -0.0836 33.8976
#
#
#
# Elastic Compliance Matrix: (Units=1/GPa)
#
#
# Indices 1 2 3 4 5 6 
#
# 1 0.019153 -0.008928 -0.001514 0.005564 0.007164 0.005467
# 2 -0.008928 0.022581 -0.008535 -0.007991 -0.010427 -0.014868
# 3 -0.001514 -0.008535 0.013868 -0.000154 0.007187 0.007450
# 4 0.005564 -0.007991 -0.000154 0.027455 -0.001565 0.003870
# 5 0.007164 -0.010427 0.007187 -0.001565 0.032025 0.007799
# 6 0.005467 -0.014868 0.007450 0.003870 0.007799 0.039652
#
#
# Mechanical properties :
#
#
# Convention : Reuss Voigt Hill
#
# Bulk Modulus (GPa) = 56.66172 62.56467 59.61320
# Shear Modulus (GPa) = 25.18022 35.70000 30.44011
#
# Velocity S-wave (km/s) = 3.22039 3.83454 3.54081
# Velocity P-wave (km/s) = 6.09632 6.73597 6.42411
#
# Compressibility (1/GPa) = 0.01764860
#
# Stress axis : x y z
#
# Youngs Moduli (GPa) = 52.21127 44.28596 72.10911
#
# Poissons Ratio (x) = 0.39536 0.10914
# Poissons Ratio (y) = 0.46612 0.61547
# Poissons Ratio (z) = 0.07903 0.37799
#
# Static dielectric constant tensor:
#      x y z
#    x 4.332050 0.031660 -0.242940 
#    y 0.031660 4.493920 0.299770 
#    z -0.242940 0.299770 4.422580 
# 
# 
# High freq. dielectric constant tensor:
#      x y z
#    x 1.959940 0.009770 -0.019740 
#    y 0.009770 1.973570 0.027550 
#    z -0.019740 0.027550 1.971330 
# 
# From -- ./inp_files/294096.got.cif
#   From: 2010.06.25/outbox.cif.g09.slc.cpg/sg2_148_cif.got.tgz:294096.got - 2010.06.27 13:26:56.
