data_PCOD8035631
_publ_section_title
;
Structure prediction by ZEFSAII (Michael W. Deem and Ramdas Pophale) SiO2 
 PCOD8035631
Probable space group: P -1
;
_chemical_formula_sum "Si O2"
_cell_formula_units_Z 14
_cell_length_a 14.047349
_cell_length_b 5.195613
_cell_length_c 8.813046
_cell_angle_alpha 98.757980
_cell_angle_beta 74.831698
_cell_angle_gamma 117.071915
_cell_volume 552.377467
_symmetry_space_group_name_H-M "P -1"
_symmetry_group_IT_number 2
_symmetry_cell_setting 'triclinic'
loop_
_space_group_symop_operation_xyz
x,y,z
-x,-y,-z
loop_
_atom_site_type_symbol
_atom_site_label
_atom_site_fract_x
_atom_site_fract_y
_atom_site_fract_z
Si Si1 0.115895 0.034106 0.169740
Si Si2 0.376770 0.397932 0.598365
Si Si3 0.001009 0.567374 0.682726
Si Si4 0.424743 0.724084 0.141494
Si Si5 0.354033 0.769274 0.874866
Si Si6 0.673914 0.839064 0.708286
Si Si7 0.801397 0.056181 0.170707
O O1 0.026709 0.716436 0.228736
O O2 0.223250 0.074184 0.219725
O O3 0.133827 0.060770 0.981652
O O4 0.081221 0.285942 0.249398
O O5 0.500000 0.500000 0.500000
O O6 0.381673 0.695844 0.687963
O O7 0.296331 0.238626 0.477971
O O8 0.318659 0.179931 0.743623
O O9 0.122872 0.787451 0.704261
O O10 0.000000 0.500000 0.500000
O O11 0.422252 0.464839 0.222552
O O12 0.554192 0.916265 0.079525
O O13 0.368712 0.913319 0.261520
O O14 0.358001 0.577828 0.000336
O O15 0.231289 0.740872 0.907984
#
# Coordination Sequence:
#
# PCOD8035631 Si02
#       7
#     2   2   2   2   2   2   2
#     4  12  27  51  79 111 150 201 255 312 377 452
#     4  12  27  45  73 112 159 200 252 314 377 449
#     4  12  29  52  79 114 152 192 255 320 383 447
#     4  11  25  46  70 105 147 198 248 305 366 457
#     4  11  26  43  74 103 153 193 259 298 379 447
#     4  12  25  46  73 105 148 195 248 304 383 432
#     4  12  28  47  78 111 151 206 254 311 381 452
#
# _framework density 25.344988000000001
#
# number of rings (size 3 to 8) (size 9 to 14) (size 15 to 20)
#    0.000    0.286    2.857    4.714    8.000    2.286 
#    0.000    0.000    0.000    0.000    0.000    0.000 
#    0.000    0.000    0.000    0.000    0.000    0.000 
#
# Total GULP energy -173451.405248 kJ/mol
# GULP energy per Si atom -12389.386089 kJ/mol
# Density = 2.528730 g / cm^3
# Si number density = 25.344988 Si / 1000 Ang^3
#
#
#
# Elastic Constant Matrix: (Units=GPa)
#
#
# Indices 1 2 3 4 5 6 
#
# 1 89.2800 13.6381 38.7051 17.6341 7.9580 5.0007
# 2 13.6381 91.5532 43.6259 -2.1293 -7.6045 -0.2489
# 3 38.7051 43.6259 195.7125 19.7990 6.7798 4.6668
# 4 17.6341 -2.1293 19.7990 46.8032 3.7359 -0.0588
# 5 7.9580 -7.6045 6.7798 3.7359 40.9084 11.6191
# 6 5.0007 -0.2489 4.6668 -0.0588 11.6191 38.4358
#
#
#
# Elastic Compliance Matrix: (Units=1/GPa)
#
#
# Indices 1 2 3 4 5 6 
#
# 1 0.013229 -0.001365 -0.001806 -0.004134 -0.001881 -0.000948
# 2 -0.001365 0.012802 -0.002891 0.002079 0.003019 -0.000298
# 3 -0.001806 -0.002891 0.006360 -0.002064 -0.000977 -0.000264
# 4 -0.004134 0.002079 -0.002064 0.023971 -0.000979 0.001134
# 5 -0.001881 0.003019 -0.000977 -0.000979 0.027912 -0.008056
# 6 -0.000948 -0.000298 -0.000264 0.001134 -0.008056 0.028608
#
#
# Mechanical properties :
#
#
# Convention : Reuss Voigt Hill
#
# Bulk Modulus (GPa) = 49.34261 63.16487 56.25374
# Shear Modulus (GPa) = 37.94698 43.93458 40.94078
#
# Velocity S-wave (km/s) = 3.87359 4.16800 4.02349
# Velocity P-wave (km/s) = 6.28625 6.93824 6.62027
#
# Compressibility (1/GPa) = 0.02026646
#
# Stress axis : x y z
#
# Youngs Moduli (GPa) = 75.58888 78.11217 157.22818
#
# Poissons Ratio (x) = 0.10663 0.28397
# Poissons Ratio (y) = 0.10318 0.45462
# Poissons Ratio (z) = 0.13652 0.22586
#
# Static dielectric constant tensor:
#      x y z
#    x 4.409050 -0.030560 0.042150 
#    y -0.030560 4.784710 0.130900 
#    z 0.042150 0.130900 5.197450 
# 
# 
# High freq. dielectric constant tensor:
#      x y z
#    x 2.006740 0.006160 0.010190 
#    y 0.006160 2.011520 0.010960 
#    z 0.010190 0.010960 2.033110 
# 
# From -- ./inp_files/289137.got.cif
#   From: 2010.06.25/outbox.cif.g09.slc.cpg/sg2_145_cif.got.tgz:289137.got - 2010.06.27 13:26:56.
