data_PCOD8035813
_publ_section_title
;
Structure prediction by ZEFSAII (Michael W. Deem and Ramdas Pophale) SiO2 
 PCOD8035813
Probable space group: P -1
;
_chemical_formula_sum "Si O2"
_cell_formula_units_Z 16
_cell_length_a 9.231741
_cell_length_b 9.821198
_cell_length_c 24.891443
_cell_angle_alpha 44.719337
_cell_angle_beta 29.078693
_cell_angle_gamma 46.182075
_cell_volume 754.780025
_symmetry_space_group_name_H-M "P -1"
_symmetry_group_IT_number 2
_symmetry_cell_setting 'triclinic'
loop_
_space_group_symop_operation_xyz
x,y,z
-x,-y,-z
loop_
_atom_site_type_symbol
_atom_site_label
_atom_site_fract_x
_atom_site_fract_y
_atom_site_fract_z
Si Si1 0.159107 0.688219 0.233482
Si Si2 0.128389 0.776896 0.008132
Si Si3 0.790115 0.830726 0.781170
Si Si4 0.714225 0.600493 0.635369
Si Si5 0.730645 0.273210 0.635650
Si Si6 0.092310 0.430090 0.762092
Si Si7 0.844469 0.717354 0.004261
Si Si8 0.918728 0.104220 0.223088
O O1 0.167764 0.488135 0.320391
O O2 0.482007 0.752980 0.110067
O O3 0.070066 0.644984 0.214513
O O4 0.919101 0.869199 0.288677
O O5 0.489189 0.744412 0.892857
O O6 0.053225 0.634427 0.118431
O O7 0.955284 0.741756 0.020859
O O8 0.000000 0.000000 0.000000
O O9 0.050136 0.669424 0.711689
O O10 0.855968 0.840276 0.820505
O O11 0.769684 0.045592 0.702590
O O12 0.649471 0.417106 0.672897
O O13 0.416400 0.770591 0.691928
O O14 0.960788 0.703385 0.499052
O O15 0.450207 0.332341 0.668830
O O16 0.000000 0.500000 0.000000
O O17 0.957968 0.862627 0.885220
#
# Coordination Sequence:
#
# PCOD8035813 Si02
#       8
#     2   2   2   2   2   2   2   2
#     4  12  25  44  68 102 139 177 220 277 340 399
#     4  12  23  41  69  98 140 179 215 272 339 399
#     4  12  24  42  70 100 133 178 224 273 339 402
#     4  11  25  47  71  98 133 177 231 285 331 396
#     4  11  25  47  71  98 133 177 231 285 331 396
#     4  12  25  44  68 102 139 177 220 277 340 399
#     4  12  23  41  69  98 140 179 215 272 339 399
#     4  12  24  42  70 100 133 178 224 273 339 402
#
# _framework density 21.198229999999999
#
# number of rings (size 3 to 8) (size 9 to 14) (size 15 to 20)
#    0.000    0.250    5.000    5.250    0.000    2.000 
#    0.000    1.250    0.000    0.000    0.000    0.000 
#    0.000    0.000    0.000    0.000    0.000    0.000 
#
# Total GULP energy -198452.016398 kJ/mol
# GULP energy per Si atom -12403.251025 kJ/mol
# Density = 2.114998 g / cm^3
# Si number density = 21.198230 Si / 1000 Ang^3
#
#
#
# Elastic Constant Matrix: (Units=GPa)
#
#
# Indices 1 2 3 4 5 6 
#
# 1 183.5330 56.7149 42.6199 8.1251 -8.6006 11.8231
# 2 56.7149 169.8104 44.7218 12.3668 -11.2652 -6.9938
# 3 42.6199 44.7218 79.4076 10.0481 -5.3369 -3.5931
# 4 8.1251 12.3668 10.0481 18.5244 10.8750 -3.3146
# 5 -8.6006 -11.2652 -5.3369 10.8750 11.9007 2.4953
# 6 11.8231 -6.9938 -3.5931 -3.3146 2.4953 39.8092
#
#
#
# Elastic Compliance Matrix: (Units=1/GPa)
#
#
# Indices 1 2 3 4 5 6 
#
# 1 0.007657 0.000018 -0.000939 -0.015914 0.020716 -0.004979
# 2 0.000018 0.010374 0.000370 -0.030034 0.038081 -0.003037
# 3 -0.000939 0.000370 0.020291 -0.036843 0.043193 -0.003600
# 4 -0.015914 -0.030034 -0.036843 0.318743 -0.357171 0.045052
# 5 0.020716 0.038081 0.043193 -0.357171 0.492586 -0.056179
# 6 -0.004979 -0.003037 -0.003600 0.045052 -0.056179 0.033013
#
#
# Mechanical properties :
#
#
# Convention : Reuss Voigt Hill
#
# Bulk Modulus (GPa) = 26.86714 80.09604 53.48159
# Shear Modulus (GPa) = 5.57929 33.29314 19.43621
#
# Velocity S-wave (km/s) = 1.62409 3.96733 3.03129
# Velocity P-wave (km/s) = 4.02724 7.67155 6.12663
#
# Compressibility (1/GPa) = 0.03722019
#
# Stress axis : x y z
#
# Youngs Moduli (GPa) = 130.59584 96.39583 49.28285
#
# Poissons Ratio (x) = -0.00175 0.04629
# Poissons Ratio (y) = -0.00237 -0.01824
# Poissons Ratio (z) = 0.12267 -0.03568
#
# Static dielectric constant tensor:
#      x y z
#    x 3.898800 -0.230260 -0.045770 
#    y -0.230260 4.104760 0.117610 
#    z -0.045770 0.117610 3.404930 
# 
# 
# High freq. dielectric constant tensor:
#      x y z
#    x 1.845300 -0.010060 -0.002190 
#    y -0.010060 1.857100 0.002780 
#    z -0.002190 0.002780 1.814650 
# 
# From -- ./inp_files/226091.got.cif
#   From: 2010.06.25/outbox.cif.g09.slc.cpg/sg2_114_cif.got.tgz:226091.got - 2010.06.27 13:26:56.
