data_PCOD8035961
_publ_section_title
;
Structure prediction by ZEFSAII (Michael W. Deem and Ramdas Pophale) SiO2 
 PCOD8035961
Probable space group: P -1
;
_chemical_formula_sum "Si O2"
_cell_formula_units_Z 10
_cell_length_a 9.812597
_cell_length_b 8.795620
_cell_length_c 5.687861
_cell_angle_alpha 82.964720
_cell_angle_beta 71.264255
_cell_angle_gamma 113.167394
_cell_volume 409.574652
_symmetry_space_group_name_H-M "P -1"
_symmetry_group_IT_number 2
_symmetry_cell_setting 'triclinic'
loop_
_space_group_symop_operation_xyz
x,y,z
-x,-y,-z
loop_
_atom_site_type_symbol
_atom_site_label
_atom_site_fract_x
_atom_site_fract_y
_atom_site_fract_z
Si Si1 0.083155 0.197011 0.351205
Si Si2 0.411179 0.987532 0.800397
Si Si3 0.274529 0.493965 0.494042
Si Si4 0.867042 0.316211 0.189675
Si Si5 0.618948 0.687733 0.142854
O O1 0.111686 0.332881 0.518759
O O2 0.960438 0.209816 0.233539
O O3 0.266661 0.253076 0.157735
O O4 0.000000 0.000000 0.500000
O O5 0.254489 0.798299 0.927083
O O6 0.500000 0.000000 0.500000
O O7 0.356677 0.136962 0.777520
O O8 0.500000 0.000000 0.000000
O O9 0.234799 0.650685 0.552523
O O10 0.426599 0.573739 0.210427
O O11 0.327316 0.428329 0.707614
O O12 0.000000 0.500000 0.000000
#
# Coordination Sequence:
#
# PCOD8035961 Si02
#       5
#     2   2   2   2   2
#     4  12  28  45  77 114 157 199 259 331 400 459
#     4  12  30  51  80 115 158 210 263 324 397 479
#     4  11  25  48  77 107 154 206 268 313 393 474
#     4  12  27  49  75 115 154 204 260 329 396 464
#     4  11  26  47  75 108 156 202 268 311 397 466
#
# _framework density 24.415575
#
# number of rings (size 3 to 8) (size 9 to 14) (size 15 to 20)
#    0.000    0.400    4.000    2.400   11.200    1.600 
#    0.000    0.000    0.000    0.000    0.000    0.000 
#    0.000    0.000    0.000    0.000    0.000    0.000 
#
# Total GULP energy -123930.441720 kJ/mol
# GULP energy per Si atom -12393.044172 kJ/mol
# Density = 2.436000 g / cm^3
# Si number density = 24.415575 Si / 1000 Ang^3
#
#
#
# Elastic Constant Matrix: (Units=GPa)
#
#
# Indices 1 2 3 4 5 6 
#
# 1 120.1752 68.1134 50.7417 -5.0513 -7.6891 15.3852
# 2 68.1134 187.4224 34.0639 -16.7137 -1.5935 24.3326
# 3 50.7417 34.0639 100.2952 -18.0725 -6.4871 7.1833
# 4 -5.0513 -16.7137 -18.0725 43.7898 3.8954 -3.0007
# 5 -7.6891 -1.5935 -6.4871 3.8954 34.2197 4.5848
# 6 15.3852 24.3326 7.1833 -3.0007 4.5848 62.7863
#
#
#
# Elastic Compliance Matrix: (Units=1/GPa)
#
#
# Indices 1 2 3 4 5 6 
#
# 1 0.012975 -0.003740 -0.005504 -0.002489 0.002166 -0.001377
# 2 -0.003740 0.007113 -0.000042 0.002199 -0.000541 -0.001691
# 3 -0.005504 -0.000042 0.013712 0.004935 0.000803 -0.000027
# 4 -0.002489 0.002199 0.004935 0.025692 -0.002527 0.000606
# 5 0.002166 -0.000541 0.000803 -0.002527 0.030494 -0.002761
# 6 -0.001377 -0.001691 -0.000027 0.000606 -0.002761 0.017153
#
#
# Mechanical properties :
#
#
# Convention : Reuss Voigt Hill
#
# Bulk Modulus (GPa) = 65.65997 79.30342 72.48169
# Shear Modulus (GPa) = 38.22998 45.15741 41.69370
#
# Velocity S-wave (km/s) = 3.96132 4.30529 4.13688
# Velocity P-wave (km/s) = 6.91908 7.56737 7.25048
#
# Compressibility (1/GPa) = 0.01522998
#
# Stress axis : x y z
#
# Youngs Moduli (GPa) = 77.07055 140.58307 72.92660
#
# Poissons Ratio (x) = 0.52576 0.40139
# Poissons Ratio (y) = 0.28823 0.00303
# Poissons Ratio (z) = 0.42420 0.00584
#
# Static dielectric constant tensor:
#      x y z
#    x 4.408830 0.155980 -0.621570 
#    y 0.155980 4.876510 -0.072440 
#    z -0.621570 -0.072440 4.400010 
# 
# 
# High freq. dielectric constant tensor:
#      x y z
#    x 1.975110 -0.001030 -0.021240 
#    y -0.001030 2.002020 -0.007580 
#    z -0.021240 -0.007580 1.956790 
# 
# From -- ./inp_files/15787.got.cif
#   From: 2010.06.25/outbox.cif.g09.slc.cpg/sg2_8_cif.got.tgz:15787.got - 2010.06.27 13:26:56.
