data_PCOD8035538
_publ_section_title
;
Structure prediction by ZEFSAII (Michael W. Deem and Ramdas Pophale) SiO2 
 PCOD8035538
Probable space group: P -1
;
_chemical_formula_sum "Si O2"
_cell_formula_units_Z 14
_cell_length_a 9.306525
_cell_length_b 9.857379
_cell_length_c 11.095718
_cell_angle_alpha 120.361058
_cell_angle_beta 58.486641
_cell_angle_gamma 131.155839
_cell_volume 632.361708
_symmetry_space_group_name_H-M "P -1"
_symmetry_group_IT_number 2
_symmetry_cell_setting 'triclinic'
loop_
_space_group_symop_operation_xyz
x,y,z
-x,-y,-z
loop_
_atom_site_type_symbol
_atom_site_label
_atom_site_fract_x
_atom_site_fract_y
_atom_site_fract_z
Si Si1 0.448711 0.984473 0.152813
Si Si2 0.650494 0.501415 0.528582
Si Si3 0.840671 0.288293 0.243907
Si Si4 0.457304 0.384280 0.805772
Si Si5 0.260727 0.557657 0.089183
Si Si6 0.122196 0.078753 0.357735
Si Si7 0.908451 0.002293 0.170578
O O1 0.662012 0.109148 0.176542
O O2 0.316185 0.068183 0.280971
O O3 0.326878 0.770596 0.150866
O O4 0.500000 0.000000 0.000000
O O5 0.500000 0.500000 0.500000
O O6 0.771413 0.412538 0.390840
O O7 0.514940 0.377710 0.641869
O O8 0.813220 0.709352 0.590167
O O9 0.914101 0.194961 0.267057
O O10 0.020501 0.422466 0.133770
O O11 0.655812 0.482581 0.844358
O O12 0.315566 0.173661 0.816746
O O13 0.349156 0.501419 0.913273
O O14 0.008944 0.978252 0.236831
O O15 0.000000 0.000000 0.500000
O O16 0.000000 0.000000 0.000000
#
# Coordination Sequence:
#
# PCOD8035538 Si02
#       7
#     2   2   2   2   2   2   2
#     4  12  26  46  72 107 148 190 244 310 366 436
#     4  12  26  47  69 105 151 191 238 302 374 437
#     4  12  26  47  75 106 146 195 246 298 369 445
#     4  11  25  45  74 104 149 186 242 312 359 431
#     4  11  25  45  73 108 138 192 250 296 364 433
#     4  12  27  48  74 106 152 193 243 309 374 437
#     4  12  25  48  78 109 146 194 252 306 368 442
#
# _framework density 22.139230000000001
#
# number of rings (size 3 to 8) (size 9 to 14) (size 15 to 20)
#    0.000    0.286    4.286    4.286    2.000    4.571 
#    0.000    0.000    0.000    0.000    0.000    0.000 
#    0.000    0.000    0.000    0.000    0.000    0.000 
#
# Total GULP energy -173604.219620 kJ/mol
# GULP energy per Si atom -12400.301401 kJ/mol
# Density = 2.208884 g / cm^3
# Si number density = 22.139230 Si / 1000 Ang^3
#
#
#
# Elastic Constant Matrix: (Units=GPa)
#
#
# Indices 1 2 3 4 5 6 
#
# 1 92.6110 34.5671 43.2612 -8.1665 -8.7129 0.8518
# 2 34.5671 150.4191 41.3335 2.0641 -15.6688 5.5122
# 3 43.2612 41.3335 126.1227 -14.6568 -16.7677 -14.3133
# 4 -8.1665 2.0641 -14.6568 48.7927 -8.1393 -5.0784
# 5 -8.7129 -15.6688 -16.7677 -8.1393 43.5302 4.8913
# 6 0.8518 5.5122 -14.3133 -5.0784 4.8913 36.1144
#
#
#
# Elastic Compliance Matrix: (Units=1/GPa)
#
#
# Indices 1 2 3 4 5 6 
#
# 1 0.013550 -0.001893 -0.003951 0.001149 0.000898 -0.001557
# 2 -0.001893 0.007959 -0.002158 -0.001273 0.001690 -0.002434
# 3 -0.003951 -0.002158 0.011418 0.003888 0.002985 0.005090
# 4 0.001149 -0.001273 0.003888 0.023209 0.005128 0.004277
# 5 0.000898 0.001690 0.002985 0.005128 0.026084 -0.001908
# 6 -0.001557 -0.002434 0.005090 0.004277 -0.001908 0.030975
#
#
# Mechanical properties :
#
#
# Convention : Reuss Voigt Hill
#
# Bulk Modulus (GPa) = 59.09674 67.49737 63.29705
# Shear Modulus (GPa) = 37.08057 42.35355 39.71706
#
# Velocity S-wave (km/s) = 4.09697 4.37859 4.24012
# Velocity P-wave (km/s) = 7.00938 7.49110 7.25424
#
# Compressibility (1/GPa) = 0.01692141
#
# Stress axis : x y z
#
# Youngs Moduli (GPa) = 73.79867 125.64432 87.58313
#
# Poissons Ratio (x) = 0.23789 0.34605
# Poissons Ratio (y) = 0.13973 0.18904
# Poissons Ratio (z) = 0.29158 0.27119
#
# Static dielectric constant tensor:
#      x y z
#    x 3.958260 0.071580 -0.115780 
#    y 0.071580 4.205720 -0.052090 
#    z -0.115780 -0.052090 4.018340 
# 
# 
# High freq. dielectric constant tensor:
#      x y z
#    x 1.877290 0.004690 -0.007400 
#    y 0.004690 1.891090 0.003240 
#    z -0.007400 0.003240 1.874930 
# 
# From -- ./inp_files/156084.got.cif
#   From: 2010.06.25/outbox.cif.g09.slc.cpg/sg2_79_cif.got.tgz:156084.got - 2010.06.27 13:26:56.
