data_PCOD8035657
_publ_section_title
;
Structure prediction by ZEFSAII (Michael W. Deem and Ramdas Pophale) SiO2 
 PCOD8035657
Probable space group: P -1
;
_chemical_formula_sum "Si O2"
_cell_formula_units_Z 12
_cell_length_a 14.585800
_cell_length_b 8.980327
_cell_length_c 6.213466
_cell_angle_alpha 75.726877
_cell_angle_beta 64.530372
_cell_angle_gamma 118.919824
_cell_volume 526.124068
_symmetry_space_group_name_H-M "P -1"
_symmetry_group_IT_number 2
_symmetry_cell_setting 'triclinic'
loop_
_space_group_symop_operation_xyz
x,y,z
-x,-y,-z
loop_
_atom_site_type_symbol
_atom_site_label
_atom_site_fract_x
_atom_site_fract_y
_atom_site_fract_z
Si Si1 0.940895 0.106917 0.546386
Si Si2 0.881359 0.438891 0.787568
Si Si3 0.310565 0.155952 0.794800
Si Si4 0.352621 0.779617 0.206625
Si Si5 0.550641 0.451034 0.761905
Si Si6 0.211541 0.844256 0.659472
O O1 0.852968 0.085426 0.443736
O O2 0.084561 0.346154 0.317227
O O3 0.000000 0.000000 0.500000
O O4 0.844562 0.009301 0.892357
O O5 0.730158 0.249933 0.910960
O O6 0.000000 0.500000 0.500000
O O7 0.900383 0.362957 0.014244
O O8 0.417958 0.242606 0.849963
O O9 0.350765 0.357060 0.569106
O O10 0.321759 0.037639 0.639901
O O11 0.357459 0.600225 0.245260
O O12 0.276162 0.768216 0.494308
O O13 0.500000 0.000000 0.000000
O O14 0.500000 0.500000 0.000000
#
# Coordination Sequence:
#
# PCOD8035657 Si02
#       6
#     2   2   2   2   2   2
#     4  12  28  45  72 106 147 193 241 298 363 433
#     4  12  26  47  73 108 146 189 247 295 366 432
#     4  11  25  46  71 106 146 190 242 302 364 426
#     4  12  27  46  75 107 143 193 246 301 364 433
#     4  11  26  46  73 106 148 191 242 302 362 432
#     4  12  25  48  74 102 149 188 244 306 357 432
#
# _framework density 22.808306999999999
#
# number of rings (size 3 to 8) (size 9 to 14) (size 15 to 20)
#    0.000    0.333    3.333    4.500    7.000    4.667 
#    0.000    0.000    0.000    0.000    0.000    0.000 
#    0.000    0.000    0.000    0.000    0.000    0.000 
#
# Total GULP energy -148659.781924 kJ/mol
# GULP energy per Si atom -12388.315160 kJ/mol
# Density = 2.275639 g / cm^3
# Si number density = 22.808307 Si / 1000 Ang^3
#
#
#
# Elastic Constant Matrix: (Units=GPa)
#
#
# Indices 1 2 3 4 5 6 
#
# 1 135.3083 61.1762 56.2462 12.6567 0.9284 -13.5830
# 2 61.1762 146.8822 33.4301 10.8026 -0.3921 2.0048
# 3 56.2462 33.4301 124.2810 -5.7738 13.6736 -4.5753
# 4 12.6567 10.8026 -5.7738 50.3464 -3.7851 -7.7357
# 5 0.9284 -0.3921 13.6736 -3.7851 26.7298 -3.0899
# 6 -13.5830 2.0048 -4.5753 -7.7357 -3.0899 55.2093
#
#
#
# Elastic Compliance Matrix: (Units=1/GPa)
#
#
# Indices 1 2 3 4 5 6 
#
# 1 0.011211 -0.003563 -0.004317 -0.002058 0.001746 0.002339
# 2 -0.003563 0.008596 -0.000847 -0.001237 0.000345 -0.001413
# 3 -0.004317 -0.000847 0.010888 0.002110 -0.005147 -0.000122
# 4 -0.002058 -0.001237 0.002110 0.021503 0.002349 0.002858
# 5 0.001746 0.000345 -0.005147 0.002349 0.040622 0.002593
# 6 0.002339 -0.001413 -0.000122 0.002858 0.002593 0.019275
#
#
# Mechanical properties :
#
#
# Convention : Reuss Voigt Hill
#
# Bulk Modulus (GPa) = 75.52354 78.68629 77.10491
# Shear Modulus (GPa) = 37.32370 43.49835 40.41102
#
# Velocity S-wave (km/s) = 4.04964 4.37180 4.21380
# Velocity P-wave (km/s) = 7.41959 7.74967 7.58643
#
# Compressibility (1/GPa) = 0.01324090
#
# Stress axis : x y z
#
# Youngs Moduli (GPa) = 89.19522 116.33178 91.84501
#
# Poissons Ratio (x) = 0.41447 0.39651
# Poissons Ratio (y) = 0.31779 0.07781
# Poissons Ratio (z) = 0.38507 0.09856
#
# Static dielectric constant tensor:
#      x y z
#    x 4.392090 -0.421370 0.364610 
#    y -0.421370 4.710970 -0.203600 
#    z 0.364610 -0.203600 4.168420 
# 
# 
# High freq. dielectric constant tensor:
#      x y z
#    x 1.894320 -0.003380 0.014370 
#    y -0.003380 1.924540 -0.010670 
#    z 0.014370 -0.010670 1.911330 
# 
# From -- ./inp_files/28992.got.cif
#   From: 2010.06.25/outbox.cif.g09.slc.cpg/sg2_15_cif.got.tgz:28992.got - 2010.06.27 13:26:56.
