data_PCOD8035335
_publ_section_title
;
Structure prediction by ZEFSAII (Michael W. Deem and Ramdas Pophale) SiO2 
 PCOD8035335
Probable space group: P -1
;
_chemical_formula_sum "Si O2"
_cell_formula_units_Z 14
_cell_length_a 11.461780
_cell_length_b 12.128347
_cell_length_c 13.822968
_cell_angle_alpha 40.343918
_cell_angle_beta 150.969246
_cell_angle_gamma 130.165880
_cell_volume 602.269678
_symmetry_space_group_name_H-M "P -1"
_symmetry_group_IT_number 2
_symmetry_cell_setting 'triclinic'
loop_
_space_group_symop_operation_xyz
x,y,z
-x,-y,-z
loop_
_atom_site_type_symbol
_atom_site_label
_atom_site_fract_x
_atom_site_fract_y
_atom_site_fract_z
Si Si1 0.248895 0.441479 0.604303
Si Si2 0.361140 0.996274 0.500648
Si Si3 0.584441 0.879433 0.343430
Si Si4 0.281974 0.783022 0.875358
Si Si5 0.886434 0.557945 0.703726
Si Si6 0.305086 0.614994 0.720524
Si Si7 0.116541 0.797729 0.959592
O O1 0.436637 0.275485 0.863696
O O2 0.253242 0.498349 0.457012
O O3 0.336625 0.582056 0.649355
O O4 0.973582 0.406216 0.446541
O O5 0.361976 0.802993 0.665477
O O6 0.500000 0.000000 0.500000
O O7 0.481721 0.099841 0.605001
O O8 0.095974 0.078216 0.235422
O O9 0.723265 0.697342 0.550770
O O10 0.345747 0.884625 0.105774
O O11 0.738707 0.035657 0.315403
O O12 0.127743 0.801897 0.849407
O O13 0.143268 0.639085 0.810872
O O14 0.922006 0.393264 0.906593
O O15 0.500000 0.500000 0.000000
#
# Coordination Sequence:
#
# PCOD8035335 Si02
#       7
#     2   2   2   2   2   2   2
#     4  11  25  43  79 104 143 187 246 295 361 424
#     4  12  30  47  71 102 150 193 238 292 365 432
#     4  12  26  47  75 110 142 188 244 301 364 429
#     4  12  25  46  77 109 148 183 243 303 366 424
#     4  12  26  43  76 109 146 187 237 301 368 426
#     4  11  26  50  72 105 144 196 246 290 355 434
#     4  12  28  46  72 109 150 188 237 300 369 428
#
# _framework density 23.245401000000001
#
# number of rings (size 3 to 8) (size 9 to 14) (size 15 to 20)
#    0.000    0.286    2.857    5.143    8.000    1.714 
#    0.000    0.000    0.000    0.000    0.000    0.000 
#    0.000    0.000    0.000    0.000    0.000    0.000 
#
# Total GULP energy -173584.080941 kJ/mol
# GULP energy per Si atom -12398.862924 kJ/mol
# Density = 2.319249 g / cm^3
# Si number density = 23.245401 Si / 1000 Ang^3
#
#
#
# Elastic Constant Matrix: (Units=GPa)
#
#
# Indices 1 2 3 4 5 6 
#
# 1 104.2607 42.0533 52.6405 -11.9741 1.1252 -26.6463
# 2 42.0533 111.4269 42.5954 -4.4392 -10.1626 -13.1603
# 3 52.6405 42.5954 139.3211 -12.1348 9.9095 -8.0405
# 4 -11.9741 -4.4392 -12.1348 50.1788 -2.2295 -6.5795
# 5 1.1252 -10.1626 9.9095 -2.2295 44.6067 2.0777
# 6 -26.6463 -13.1603 -8.0405 -6.5795 2.0777 39.1897
#
#
#
# Elastic Compliance Matrix: (Units=1/GPa)
#
#
# Indices 1 2 3 4 5 6 
#
# 1 0.015793 -0.003170 -0.004093 0.003721 -0.000467 0.009483
# 2 -0.003170 0.011540 -0.002506 -0.000064 0.003215 0.001025
# 3 -0.004093 -0.002506 0.009664 0.000848 -0.002508 -0.001367
# 4 0.003721 -0.000064 0.000848 0.021868 0.000501 0.006327
# 5 -0.000467 0.003215 -0.002508 0.000501 0.023788 -0.000929
# 6 0.009483 0.001025 -0.001367 0.006327 -0.000929 0.033140
#
#
# Mechanical properties :
#
#
# Convention : Reuss Voigt Hill
#
# Bulk Modulus (GPa) = 57.27704 69.95411 63.61558
# Shear Modulus (GPa) = 35.42333 41.30968 38.36651
#
# Velocity S-wave (km/s) = 3.90793 4.22015 4.06704
# Velocity P-wave (km/s) = 6.71239 7.34203 7.03426
#
# Compressibility (1/GPa) = 0.01745900
#
# Stress axis : x y z
#
# Youngs Moduli (GPa) = 63.32107 86.65232 103.47963
#
# Poissons Ratio (x) = 0.27467 0.42357
# Poissons Ratio (y) = 0.20072 0.25929
# Poissons Ratio (z) = 0.25919 0.21713
#
# Static dielectric constant tensor:
#      x y z
#    x 4.241580 -0.456270 0.147220 
#    y -0.456270 4.133340 0.358000 
#    z 0.147220 0.358000 4.231360 
# 
# 
# High freq. dielectric constant tensor:
#      x y z
#    x 1.924990 -0.018110 0.001790 
#    y -0.018110 1.922780 0.008480 
#    z 0.001790 0.008480 1.937300 
# 
# From -- ./inp_files/518701.got.cif
#   From: 2010.06.25/outbox.cif.g09.slc.cpg/sg2_260_cif.got.tgz:518701.got - 2010.06.27 13:26:56.
