data_PCOD8035958
_publ_section_title
;
Structure prediction by ZEFSAII (Michael W. Deem and Ramdas Pophale) SiO2 
 PCOD8035958
Probable space group: P -1
;
_chemical_formula_sum "Si O2"
_cell_formula_units_Z 16
_cell_length_a 11.023268
_cell_length_b 11.861915
_cell_length_c 12.740059
_cell_angle_alpha 38.080763
_cell_angle_beta 77.907840
_cell_angle_gamma 105.627454
_cell_volume 697.111535
_symmetry_space_group_name_H-M "P -1"
_symmetry_group_IT_number 2
_symmetry_cell_setting 'triclinic'
loop_
_space_group_symop_operation_xyz
x,y,z
-x,-y,-z
loop_
_atom_site_type_symbol
_atom_site_label
_atom_site_fract_x
_atom_site_fract_y
_atom_site_fract_z
Si Si1 0.734043 0.370753 0.692735
Si Si2 0.621492 0.876584 0.999596
Si Si3 0.379381 0.247050 0.135775
Si Si4 0.735266 0.285274 0.999891
Si Si5 0.592510 0.096154 0.526155
Si Si6 0.032043 0.966984 0.134350
Si Si7 0.962671 0.665595 0.017220
Si Si8 0.877041 0.740470 0.777676
O O1 0.742107 0.307547 0.857404
O O2 0.718002 0.177470 0.761798
O O3 0.554330 0.303885 0.761829
O O4 0.908299 0.664949 0.410586
O O5 0.544956 0.750442 0.989479
O O6 0.760650 0.871666 0.015072
O O7 0.322866 0.014129 0.387560
O O8 0.218167 0.213863 0.160967
O O9 0.500000 0.500000 0.000000
O O10 0.744178 0.493386 0.903077
O O11 0.907617 0.352881 0.952273
O O12 0.552578 0.001382 0.286106
O O13 0.500000 0.000000 0.500000
O O14 0.756338 0.410195 0.272384
O O15 0.978942 0.078412 0.135395
O O16 0.000000 0.000000 0.000000
O O17 0.978653 0.700689 0.861673
O O18 0.000000 0.000000 0.500000
#
# Coordination Sequence:
#
# PCOD8035958 Si02
#       8
#     2   2   2   2   2   2   2   2
#     4  11  26  48  75 107 138 194 244 296 370 436
#     4  11  25  48  77 103 145 187 247 301 359 430
#     4  12  23  45  73 106 142 190 242 295 362 432
#     4  12  25  45  70 103 145 188 240 299 363 439
#     4  12  26  44  70 106 146 189 238 296 365 431
#     4  12  28  47  72 107 145 188 245 300 363 442
#     4  12  27  44  68 105 146 188 236 301 370 422
#     4  12  24  43  68 101 142 190 242 293 360 431
#
# _framework density 22.951851999999999
#
# number of rings (size 3 to 8) (size 9 to 14) (size 15 to 20)
#    0.000    0.250    5.000    3.000    5.250    1.500 
#    0.000    0.000    0.000    0.000    0.000    0.000 
#    0.000    0.000    0.000    0.000    0.000    0.000 
#
# Total GULP energy -198361.189842 kJ/mol
# GULP energy per Si atom -12397.574365 kJ/mol
# Density = 2.289961 g / cm^3
# Si number density = 22.951852 Si / 1000 Ang^3
#
#
#
# Elastic Constant Matrix: (Units=GPa)
#
#
# Indices 1 2 3 4 5 6 
#
# 1 112.8279 31.2514 27.1331 8.3412 -0.4937 5.7767
# 2 31.2514 131.8626 34.9367 0.5378 7.3303 -2.1215
# 3 27.1331 34.9367 125.0900 7.0745 -2.3393 15.4956
# 4 8.3412 0.5378 7.0745 35.6407 2.0212 7.6152
# 5 -0.4937 7.3303 -2.3393 2.0212 31.4678 2.3692
# 6 5.7767 -2.1215 15.4956 7.6152 2.3692 39.8720
#
#
#
# Elastic Compliance Matrix: (Units=1/GPa)
#
#
# Indices 1 2 3 4 5 6 
#
# 1 0.009938 -0.002031 -0.001382 -0.001914 0.000701 -0.000687
# 2 -0.002031 0.008839 -0.002316 0.000577 -0.002428 0.001699
# 3 -0.001382 -0.002316 0.009455 -0.000852 0.001541 -0.003526
# 4 -0.001914 0.000577 -0.000852 0.029825 -0.001770 -0.004952
# 5 0.000701 -0.002428 0.001541 -0.001770 0.032767 -0.002439
# 6 -0.000687 0.001699 -0.003526 -0.004952 -0.002439 0.027731
#
#
# Mechanical properties :
#
#
# Convention : Reuss Voigt Hill
#
# Bulk Modulus (GPa) = 59.62289 61.82474 60.72382
# Shear Modulus (GPa) = 36.87206 39.82673 38.34939
#
# Velocity S-wave (km/s) = 4.01246 4.17013 4.09205
# Velocity P-wave (km/s) = 6.89204 7.08391 6.98863
#
# Compressibility (1/GPa) = 0.01677208
#
# Stress axis : x y z
#
# Youngs Moduli (GPa) = 100.62657 113.13776 105.76666
#
# Poissons Ratio (x) = 0.22982 0.14615
# Poissons Ratio (y) = 0.20441 0.24500
# Poissons Ratio (z) = 0.13904 0.26208
#
# Static dielectric constant tensor:
#      x y z
#    x 4.366180 0.180610 -0.123080 
#    y 0.180610 4.214730 -0.128440 
#    z -0.123080 -0.128440 4.130330 
# 
# 
# High freq. dielectric constant tensor:
#      x y z
#    x 1.928530 0.002990 -0.000570 
#    y 0.002990 1.917500 -0.003330 
#    z -0.000570 -0.003330 1.893010 
# 
# From -- ./inp_files/427398.got.cif
#   From: 2010.06.25/outbox.cif.g09.slc.cpg/sg2_214_cif.got.tgz:427398.got - 2010.06.27 13:26:56.
