data_PCOD8035260
_publ_section_title
;
Structure prediction by ZEFSAII (Michael W. Deem and Ramdas Pophale) SiO2 
 PCOD8035260
Probable space group: P -1
;
_chemical_formula_sum "Si O2"
_cell_formula_units_Z 10
_cell_length_a 9.365021
_cell_length_b 19.982181
_cell_length_c 6.642649
_cell_angle_alpha 59.490174
_cell_angle_beta 49.961224
_cell_angle_gamma 30.208298
_cell_volume 475.070554
_symmetry_space_group_name_H-M "P -1"
_symmetry_group_IT_number 2
_symmetry_cell_setting 'triclinic'
loop_
_space_group_symop_operation_xyz
x,y,z
-x,-y,-z
loop_
_atom_site_type_symbol
_atom_site_label
_atom_site_fract_x
_atom_site_fract_y
_atom_site_fract_z
Si Si1 0.795972 0.958375 0.292272
Si Si2 0.701406 0.447571 0.095974
Si Si3 0.610436 0.337763 0.632940
Si Si4 0.155757 0.911847 0.691121
Si Si5 0.758977 0.631976 0.385867
O O1 0.099294 0.817348 0.341545
O O2 0.500000 0.000000 0.500000
O O3 0.699896 0.068707 0.331095
O O4 0.888492 0.951802 0.991079
O O5 0.737586 0.359343 0.331784
O O6 0.527296 0.576975 0.171533
O O7 0.500000 0.500000 0.000000
O O8 0.065292 0.347762 0.864084
O O9 0.329253 0.383873 0.712958
O O10 0.444211 0.756321 0.611947
O O11 0.000000 0.000000 0.500000
O O12 0.000000 0.500000 0.500000
#
# Coordination Sequence:
#
# PCOD8035260 Si02
#       5
#     2   2   2   2   2
#     4  11  27  44  71  98 139 184 227 284 340 406
#     4  11  25  42  68 103 134 175 233 279 339 414
#     4  11  25  44  65 102 137 179 230 280 345 403
#     4  11  26  47  67 104 137 179 237 274 341 415
#     4  12  24  44  73  96 140 181 222 288 341 399
#
# _framework density 21.049505
#
# number of rings (size 3 to 8) (size 9 to 14) (size 15 to 20)
#    0.000    0.800    4.000    1.800    5.600    0.800 
#    0.000    0.000    0.000    0.000    0.000    0.000 
#    0.000    0.000    0.000    0.000    0.000    0.000 
#
# Total GULP energy -124063.739393 kJ/mol
# GULP energy per Si atom -12406.373939 kJ/mol
# Density = 2.100160 g / cm^3
# Si number density = 21.049505 Si / 1000 Ang^3
#
#
#
# Elastic Constant Matrix: (Units=GPa)
#
#
# Indices 1 2 3 4 5 6 
#
# 1 158.0996 39.6621 71.5587 9.5941 -0.0277 -9.0381
# 2 39.6621 115.7326 39.3364 -8.2595 15.3912 -6.3337
# 3 71.5587 39.3364 156.3688 2.1084 -6.9834 -9.3159
# 4 9.5941 -8.2595 2.1084 31.5879 -0.8029 4.7356
# 5 -0.0277 15.3912 -6.9834 -0.8029 47.1760 4.6169
# 6 -9.0381 -6.3337 -9.3159 4.7356 4.6169 38.0864
#
#
#
# Elastic Compliance Matrix: (Units=1/GPa)
#
#
# Indices 1 2 3 4 5 6 
#
# 1 0.008579 -0.001960 -0.003316 -0.003090 -0.000025 0.001286
# 2 -0.001960 0.010781 -0.001978 0.003314 -0.003843 0.000898
# 3 -0.003316 -0.001978 0.008540 -0.000149 0.001830 0.000770
# 4 -0.003090 0.003314 -0.000149 0.034138 -0.000088 -0.004453
# 5 -0.000025 -0.003843 0.001830 -0.000088 0.023011 -0.002976
# 6 0.001286 0.000898 0.000770 -0.004453 -0.002976 0.027813
#
#
# Mechanical properties :
#
#
# Convention : Reuss Voigt Hill
#
# Bulk Modulus (GPa) = 74.66904 81.25726 77.96315
# Shear Modulus (GPa) = 37.92668 42.01298 39.96983
#
# Velocity S-wave (km/s) = 4.24935 4.47241 4.36231
# Velocity P-wave (km/s) = 7.72179 8.08435 7.90515
#
# Compressibility (1/GPa) = 0.01339243
#
# Stress axis : x y z
#
# Youngs Moduli (GPa) = 116.57045 92.75334 117.10101
#
# Poissons Ratio (x) = 0.18178 0.38826
# Poissons Ratio (y) = 0.22846 0.23164
# Poissons Ratio (z) = 0.38650 0.18348
#
# Static dielectric constant tensor:
#      x y z
#    x 4.004530 0.030580 -0.147880 
#    y 0.030580 3.976480 0.461640 
#    z -0.147880 0.461640 5.294420 
# 
# 
# High freq. dielectric constant tensor:
#      x y z
#    x 1.838040 0.006220 0.002210 
#    y 0.006220 1.826640 -0.007330 
#    z 0.002210 -0.007330 1.842920 
# 
# From -- ./inp_files/1945.got.cif
#   From: 2010.06.25/outbox.cif.g09.slc.cpg/sg2_1_cif.got.tgz:1945.got - 2010.06.27 13:26:56.
