data_PCOD8035539
_publ_section_title
;
Structure prediction by ZEFSAII (Michael W. Deem and Ramdas Pophale) SiO2 
 PCOD8035539
Probable space group: P -1
;
_chemical_formula_sum "Si O2"
_cell_formula_units_Z 12
_cell_length_a 17.982047
_cell_length_b 10.117168
_cell_length_c 5.130213
_cell_angle_alpha 107.976748
_cell_angle_beta 68.625861
_cell_angle_gamma 145.263102
_cell_volume 495.166081
_symmetry_space_group_name_H-M "P -1"
_symmetry_group_IT_number 2
_symmetry_cell_setting 'triclinic'
loop_
_space_group_symop_operation_xyz
x,y,z
-x,-y,-z
loop_
_atom_site_type_symbol
_atom_site_label
_atom_site_fract_x
_atom_site_fract_y
_atom_site_fract_z
Si Si1 0.451381 0.814703 0.138150
Si Si2 0.760559 0.669279 0.089394
Si Si3 0.877909 0.230711 0.442824
Si Si4 0.847908 0.947024 0.656290
Si Si5 0.069786 0.325192 0.923669
Si Si6 0.705950 0.196033 0.337388
O O1 0.342007 0.726985 0.421624
O O2 0.583067 0.947271 0.201968
O O3 0.387292 0.601150 0.920954
O O4 0.500000 0.000000 0.000000
O O5 0.783742 0.762259 0.403155
O O6 0.867844 0.692657 0.953946
O O7 0.773178 0.801208 0.928934
O O8 0.755152 0.150478 0.450822
O O9 0.000000 0.500000 0.500000
O O10 0.826532 0.078538 0.675083
O O11 0.934017 0.196578 0.144762
O O12 0.009260 0.161023 0.643462
O O13 0.175452 0.593250 0.882057
#
# Coordination Sequence:
#
# PCOD8035539 Si02
#       6
#     2   2   2   2   2   2
#     4  11  25  47  75  99 136 195 243 302 338 417
#     4  12  26  45  71 108 146 183 246 288 357 426
#     4  12  26  43  71 109 150 187 231 291 366 434
#     4  12  27  43  71 110 147 189 227 300 364 420
#     4  12  24  44  76 108 148 183 230 304 361 421
#     4  11  25  45  73 108 139 184 251 290 353 422
#
# _framework density 24.234293000000001
#
# number of rings (size 3 to 8) (size 9 to 14) (size 15 to 20)
#    0.000    0.333    5.000    3.500    4.667    0.000 
#    0.000    1.667    0.000    0.000    0.000    0.000 
#    0.000    0.000    0.000    0.000    0.000    0.000 
#
# Total GULP energy -148717.997689 kJ/mol
# GULP energy per Si atom -12393.166474 kJ/mol
# Density = 2.417913 g / cm^3
# Si number density = 24.234293 Si / 1000 Ang^3
#
#
#
# Elastic Constant Matrix: (Units=GPa)
#
#
# Indices 1 2 3 4 5 6 
#
# 1 147.2320 66.0366 20.1435 7.4872 45.3220 4.9941
# 2 66.0366 166.4790 33.5039 31.1680 30.9842 2.7973
# 3 20.1435 33.5039 67.0426 17.3064 29.5673 8.7903
# 4 7.4872 31.1680 17.3064 51.9375 4.4770 21.7598
# 5 45.3220 30.9842 29.5673 4.4770 37.6936 -1.3239
# 6 4.9941 2.7973 8.7903 21.7598 -1.3239 50.4217
#
#
#
# Elastic Compliance Matrix: (Units=1/GPa)
#
#
# Indices 1 2 3 4 5 6 
#
# 1 0.012842 -0.003072 0.005534 0.000868 -0.017462 -0.002899
# 2 -0.003072 0.008757 -0.001843 -0.005032 -0.001382 0.002275
# 3 0.005534 -0.001843 0.027564 -0.005030 -0.026295 -0.003771
# 4 0.000868 -0.005032 -0.005030 0.028143 0.003310 -0.010988
# 5 -0.017462 -0.001382 -0.026295 0.003310 0.069132 0.006777
# 6 -0.002899 0.002275 -0.003771 -0.010988 0.006777 0.025571
#
#
# Mechanical properties :
#
#
# Convention : Reuss Voigt Hill
#
# Bulk Modulus (GPa) = 19.84120 68.90240 44.37180
# Shear Modulus (GPa) = 26.65653 45.41521 36.03587
#
# Velocity S-wave (km/s) = 3.32015 4.33368 3.86032
# Velocity P-wave (km/s) = 4.78569 7.31673 6.18213
#
# Compressibility (1/GPa) = 0.05040017
#
# Stress axis : x y z
#
# Youngs Moduli (GPa) = 77.86992 114.19204 36.27957
#
# Poissons Ratio (x) = 0.35074 -0.20075
# Poissons Ratio (y) = 0.23918 0.06688
# Poissons Ratio (z) = -0.43089 0.21050
#
# Static dielectric constant tensor:
#      x y z
#    x 3.729560 -0.278640 0.899150 
#    y -0.278640 4.544760 0.640820 
#    z 0.899150 0.640820 4.589090 
# 
# 
# High freq. dielectric constant tensor:
#      x y z
#    x 1.952170 -0.004380 0.039150 
#    y -0.004380 1.978560 0.018410 
#    z 0.039150 0.018410 1.951760 
# 
# From -- ./inp_files/105573.got.cif
#   From: 2010.06.25/outbox.cif.g09.slc.cpg/sg2_53_cif.got.tgz:105573.got - 2010.06.27 13:26:56.
