data_PCOD8035903
_publ_section_title
;
Structure prediction by ZEFSAII (Michael W. Deem and Ramdas Pophale) SiO2 
 PCOD8035903
Probable space group: P -1
;
_chemical_formula_sum "Si O2"
_cell_formula_units_Z 14
_cell_length_a 9.550020
_cell_length_b 8.307839
_cell_length_c 10.743491
_cell_angle_alpha 43.340173
_cell_angle_beta 95.870607
_cell_angle_gamma 103.773771
_cell_volume 564.974509
_symmetry_space_group_name_H-M "P -1"
_symmetry_group_IT_number 2
_symmetry_cell_setting 'triclinic'
loop_
_space_group_symop_operation_xyz
x,y,z
-x,-y,-z
loop_
_atom_site_type_symbol
_atom_site_label
_atom_site_fract_x
_atom_site_fract_y
_atom_site_fract_z
Si Si1 0.432611 0.049238 0.095959
Si Si2 0.835764 0.572879 0.389884
Si Si3 0.348443 0.842520 0.743454
Si Si4 0.125781 0.889935 0.251447
Si Si5 0.244040 0.284678 0.431955
Si Si6 0.558574 0.467335 0.266671
Si Si7 0.138251 0.396721 0.095780
O O1 0.525344 0.986982 0.255984
O O2 0.265190 0.900503 0.169670
O O3 0.444685 0.334398 0.950387
O O4 0.500000 0.000000 0.000000
O O5 0.864301 0.304561 0.528860
O O6 0.824875 0.621345 0.508181
O O7 0.692126 0.592844 0.295962
O O8 0.972055 0.776780 0.231147
O O9 0.421575 0.774638 0.661922
O O10 0.232707 0.997160 0.608755
O O11 0.274658 0.600770 0.947050
O O12 0.128093 0.151579 0.157154
O O13 0.413463 0.415969 0.363181
O O14 0.154791 0.338614 0.274525
O O15 0.000000 0.500000 0.000000
#
# Coordination Sequence:
#
# PCOD8035903 Si02
#       7
#     2   2   2   2   2   2   2
#     4  12  24  44  75 111 147 194 251 310 370 444
#     4  11  26  46  72 109 149 201 247 302 379 440
#     4  12  25  47  74 111 147 192 250 306 379 438
#     4  11  25  48  69 104 153 192 249 304 369 442
#     4  12  25  47  77 107 152 190 253 312 365 447
#     4  12  23  45  75 107 150 196 246 309 371 441
#     4  12  27  48  76 109 150 199 248 306 376 444
#
# _framework density 24.779879000000001
#
# number of rings (size 3 to 8) (size 9 to 14) (size 15 to 20)
#    0.000    0.286    2.857    6.429    0.000    5.143 
#    0.000    0.000    0.000    0.000    0.000    0.000 
#    0.000    0.000    0.000    0.000    0.000    0.000 
#
# Total GULP energy -173604.857775 kJ/mol
# GULP energy per Si atom -12400.346984 kJ/mol
# Density = 2.472348 g / cm^3
# Si number density = 24.779879 Si / 1000 Ang^3
#
#
#
# Elastic Constant Matrix: (Units=GPa)
#
#
# Indices 1 2 3 4 5 6 
#
# 1 169.4950 78.4195 46.0347 12.7866 -3.5854 6.6417
# 2 78.4195 97.9718 42.5695 6.1840 3.6019 10.5412
# 3 46.0347 42.5695 122.0625 -12.2619 10.7188 6.8825
# 4 12.7866 6.1840 -12.2619 43.4099 4.6194 2.1359
# 5 -3.5854 3.6019 10.7188 4.6194 50.3046 -2.7281
# 6 6.6417 10.5412 6.8825 2.1359 -2.7281 33.8229
#
#
#
# Elastic Compliance Matrix: (Units=1/GPa)
#
#
# Indices 1 2 3 4 5 6 
#
# 1 0.009883 -0.007176 -0.001706 -0.002617 0.001874 0.000959
# 2 -0.007176 0.017892 -0.003341 -0.001081 -0.001172 -0.003513
# 3 -0.001706 -0.003341 0.010744 0.004359 -0.002642 -0.001298
# 4 -0.002617 -0.001081 0.004359 0.025660 -0.003499 -0.001939
# 5 0.001874 -0.001172 -0.002642 -0.003499 0.021114 0.002459
# 6 0.000959 -0.003513 -0.001298 -0.001939 0.002459 0.031057
#
#
# Mechanical properties :
#
#
# Convention : Reuss Voigt Hill
#
# Bulk Modulus (GPa) = 71.06053 80.39742 75.72898
# Shear Modulus (GPa) = 34.36697 40.34118 37.35407
#
# Velocity S-wave (km/s) = 3.72814 4.03920 3.88678
# Velocity P-wave (km/s) = 6.87539 7.36672 7.12529
#
# Compressibility (1/GPa) = 0.01407251
#
# Stress axis : x y z
#
# Youngs Moduli (GPa) = 101.18453 55.89047 93.07271
#
# Poissons Ratio (x) = 0.40108 0.15880
# Poissons Ratio (y) = 0.72612 0.31096
# Poissons Ratio (z) = 0.17264 0.18674
#
# Static dielectric constant tensor:
#      x y z
#    x 4.705220 0.092980 0.020530 
#    y 0.092980 4.228790 -0.342770 
#    z 0.020530 -0.342770 4.784490 
# 
# 
# High freq. dielectric constant tensor:
#      x y z
#    x 2.003470 0.000330 0.002820 
#    y 0.000330 1.975150 -0.018790 
#    z 0.002820 -0.018790 1.999230 
# 
# From -- ./inp_files/380883.got.cif
#   From: 2010.06.25/outbox.cif.g09.slc.cpg/sg2_191_cif.got.tgz:380883.got - 2010.06.27 13:26:56.
