data_PCOD8035762
_publ_section_title
;
Structure prediction by ZEFSAII (Michael W. Deem and Ramdas Pophale) SiO2 
 PCOD8035762
Probable space group: P -1
;
_chemical_formula_sum "Si O2"
_cell_formula_units_Z 10
_cell_length_a 9.291138
_cell_length_b 17.560908
_cell_length_c 6.347136
_cell_angle_alpha 71.427391
_cell_angle_beta 119.029644
_cell_angle_gamma 152.361013
_cell_volume 403.912978
_symmetry_space_group_name_H-M "P -1"
_symmetry_group_IT_number 2
_symmetry_cell_setting 'triclinic'
loop_
_space_group_symop_operation_xyz
x,y,z
-x,-y,-z
loop_
_atom_site_type_symbol
_atom_site_label
_atom_site_fract_x
_atom_site_fract_y
_atom_site_fract_z
Si Si1 0.323265 0.586679 0.723646
Si Si2 0.597953 0.839535 0.986688
Si Si3 0.251369 0.323619 0.390632
Si Si4 0.837117 0.022197 0.606187
Si Si5 0.158011 0.729699 0.092338
O O1 0.559484 0.742728 0.904198
O O2 0.535125 0.650062 0.613552
O O3 0.000000 0.500000 0.500000
O O4 0.179264 0.447277 0.867465
O O5 0.692013 0.956777 0.801795
O O6 0.245623 0.708151 0.978058
O O7 0.922974 0.955671 0.269643
O O8 0.500000 0.500000 0.500000
O O9 0.069726 0.201382 0.567984
O O10 0.948549 0.229296 0.108483
O O11 0.506393 0.882330 0.342023
#
# Coordination Sequence:
#
# PCOD8035762 Si02
#       5
#     2   2   2   2   2
#     4  12  24  47  75 102 142 187 238 285 351 422
#     4  11  25  46  77 106 138 187 237 293 347 416
#     4  12  28  48  70 105 147 190 230 293 358 419
#     4  11  26  46  74 105 144 183 241 287 351 419
#     4  12  25  47  73 108 144 182 236 291 355 417
#
# _framework density 24.757809999999999
#
# number of rings (size 3 to 8) (size 9 to 14) (size 15 to 20)
#    0.000    0.400    2.000    6.000    5.600    0.800 
#    0.000    0.000    0.000    0.000    0.000    0.000 
#    0.000    0.000    0.000    0.000    0.000    0.000 
#
# Total GULP energy -123984.997849 kJ/mol
# GULP energy per Si atom -12398.499785 kJ/mol
# Density = 2.470146 g / cm^3
# Si number density = 24.757810 Si / 1000 Ang^3
#
#
#
# Elastic Constant Matrix: (Units=GPa)
#
#
# Indices 1 2 3 4 5 6 
#
# 1 91.4698 17.4224 38.1376 18.3085 4.6410 0.8088
# 2 17.4224 155.6473 57.1261 -21.1486 -5.8903 -14.9644
# 3 38.1376 57.1261 163.6486 -4.6787 30.8567 -5.6954
# 4 18.3085 -21.1486 -4.6787 47.1699 -0.9808 9.9543
# 5 4.6410 -5.8903 30.8567 -0.9808 41.3790 4.9010
# 6 0.8088 -14.9644 -5.6954 9.9543 4.9010 28.1162
#
#
#
# Elastic Compliance Matrix: (Units=1/GPa)
#
#
# Indices 1 2 3 4 5 6 
#
# 1 0.013631 -0.001224 -0.002967 -0.006235 0.000301 0.000511
# 2 -0.001224 0.008565 -0.003208 0.003644 0.003595 0.002027
# 3 -0.002967 -0.003208 0.009348 0.000178 -0.007265 0.001475
# 4 -0.006235 0.003644 0.000178 0.026986 0.002656 -0.007862
# 5 0.000301 0.003595 -0.007265 0.002656 0.030822 -0.005880
# 6 0.000511 0.002027 0.001475 -0.007862 -0.005880 0.040738
#
#
# Mechanical properties :
#
#
# Convention : Reuss Voigt Hill
#
# Bulk Modulus (GPa) = 59.70931 70.68197 65.19564
# Shear Modulus (GPa) = 33.22938 43.20499 38.21718
#
# Velocity S-wave (km/s) = 3.66755 4.18198 3.93318
# Velocity P-wave (km/s) = 6.48878 7.20624 6.85690
#
# Compressibility (1/GPa) = 0.01674781
#
# Stress axis : x y z
#
# Youngs Moduli (GPa) = 73.36337 116.75193 106.97284
#
# Poissons Ratio (x) = 0.14286 0.31736
# Poissons Ratio (y) = 0.08977 0.34315
# Poissons Ratio (z) = 0.21765 0.37452
#
# Static dielectric constant tensor:
#      x y z
#    x 4.227990 0.199030 0.121160 
#    y 0.199030 5.035960 -0.088880 
#    z 0.121160 -0.088880 4.930360 
# 
# 
# High freq. dielectric constant tensor:
#      x y z
#    x 1.963070 0.017370 0.014550 
#    y 0.017370 2.000430 -0.005970 
#    z 0.014550 -0.005970 2.009980 
# 
# From -- ./inp_files/15235.got.cif
#   From: 2010.06.25/outbox.cif.g09.slc.cpg/sg2_8_cif.got.tgz:15235.got - 2010.06.27 13:26:56.
