data_PCOD8035963
_publ_section_title
;
Structure prediction by ZEFSAII (Michael W. Deem and Ramdas Pophale) SiO2 
 PCOD8035963
Probable space group: P -1
;
_chemical_formula_sum "Si O2"
_cell_formula_units_Z 10
_cell_length_a 9.009574
_cell_length_b 5.276822
_cell_length_c 14.125300
_cell_angle_alpha 89.770088
_cell_angle_beta 139.303050
_cell_angle_gamma 100.646745
_cell_volume 420.535539
_symmetry_space_group_name_H-M "P -1"
_symmetry_group_IT_number 2
_symmetry_cell_setting 'triclinic'
loop_
_space_group_symop_operation_xyz
x,y,z
-x,-y,-z
loop_
_atom_site_type_symbol
_atom_site_label
_atom_site_fract_x
_atom_site_fract_y
_atom_site_fract_z
Si Si1 0.817812 0.485859 0.995710
Si Si2 0.004835 0.704025 0.584597
Si Si3 0.466505 0.092173 0.179433
Si Si4 0.190483 0.634478 0.333260
Si Si5 0.384530 0.087121 0.563851
O O1 0.354164 0.331555 0.107246
O O2 0.953652 0.590600 0.157709
O O3 0.675066 0.179602 0.938389
O O4 0.000000 0.500000 0.000000
O O5 0.000000 0.500000 0.500000
O O6 0.858669 0.582205 0.608635
O O7 0.830161 0.881112 0.470877
O O8 0.273425 0.844237 0.742311
O O9 0.478106 0.064001 0.299421
O O10 0.420421 0.643426 0.377911
O O11 0.256826 0.923724 0.411996
#
# Coordination Sequence:
#
# PCOD8035963 Si02
#       5
#     2   2   2   2   2
#     4  12  28  49  77 110 154 198 250 310 379 450
#     4  12  26  46  77 112 152 194 252 317 375 439
#     4  12  27  48  79 107 151 200 246 309 382 439
#     4  11  27  45  78 108 151 197 257 305 372 446
#     4  11  25  48  77 109 147 202 257 305 367 453
#
# _framework density 23.779199999999999
#
# number of rings (size 3 to 8) (size 9 to 14) (size 15 to 20)
#    0.000    0.400    4.000    3.000    5.600    3.200 
#    0.000    0.000    0.000    0.000    0.000    0.000 
#    0.000    0.000    0.000    0.000    0.000    0.000 
#
# Total GULP energy -123957.704549 kJ/mol
# GULP energy per Si atom -12395.770455 kJ/mol
# Density = 2.372508 g / cm^3
# Si number density = 23.779200 Si / 1000 Ang^3
#
#
#
# Elastic Constant Matrix: (Units=GPa)
#
#
# Indices 1 2 3 4 5 6 
#
# 1 104.5372 12.5045 44.4215 5.0549 28.3639 -0.9836
# 2 12.5045 62.9761 28.3039 16.8745 13.5401 -21.0463
# 3 44.4215 28.3039 157.2301 14.6721 3.3987 -9.3800
# 4 5.0549 16.8745 14.6721 39.8750 6.5718 10.2853
# 5 28.3639 13.5401 3.3987 6.5718 52.4778 1.9260
# 6 -0.9836 -21.0463 -9.3800 10.2853 1.9260 42.4303
#
#
#
# Elastic Compliance Matrix: (Units=1/GPa)
#
#
# Indices 1 2 3 4 5 6 
#
# 1 0.012911 0.000253 -0.003634 0.000797 -0.006898 -0.000259
# 2 0.000253 0.027726 -0.002603 -0.014182 -0.005966 0.016892
# 3 -0.003634 -0.002603 0.008036 -0.001979 0.002335 0.000775
# 4 0.000797 -0.014182 -0.001979 0.035963 -0.000555 -0.016146
# 5 -0.006898 -0.005966 0.002335 -0.000555 0.024373 -0.003575
# 6 -0.000259 0.016892 0.000775 -0.016146 -0.003575 0.036188
#
#
# Mechanical properties :
#
#
# Convention : Reuss Voigt Hill
#
# Bulk Modulus (GPa) = 27.24383 55.02258 41.13320
# Shear Modulus (GPa) = 29.51603 42.92418 36.22010
#
# Velocity S-wave (km/s) = 3.52697 4.25327 3.90703
# Velocity P-wave (km/s) = 5.29791 6.87820 6.13912
#
# Compressibility (1/GPa) = 0.03670556
#
# Stress axis : x y z
#
# Youngs Moduli (GPa) = 77.45587 36.06675 124.44420
#
# Poissons Ratio (x) = -0.00911 0.45220
# Poissons Ratio (y) = -0.01957 0.32387
# Poissons Ratio (z) = 0.28146 0.09386
#
# Static dielectric constant tensor:
#      x y z
#    x 4.603500 0.357400 0.310610 
#    y 0.357400 4.309160 0.158300 
#    z 0.310610 0.158300 4.861970 
# 
# 
# High freq. dielectric constant tensor:
#      x y z
#    x 1.951970 0.013970 0.015620 
#    y 0.013970 1.941450 0.001210 
#    z 0.015620 0.001210 1.958650 
# 
# From -- ./inp_files/16465.got.cif
#   From: 2010.06.25/outbox.cif.g09.slc.cpg/sg2_9_cif.got.tgz:16465.got - 2010.06.27 13:26:56.
