data_PCOD8035983
_publ_section_title
;
Structure prediction by ZEFSAII (Michael W. Deem and Ramdas Pophale) SiO2 
 PCOD8035983
Probable space group: P -1
;
_chemical_formula_sum "Si O2"
_cell_formula_units_Z 16
_cell_length_a 8.508417
_cell_length_b 8.799917
_cell_length_c 11.428770
_cell_angle_alpha 55.100154
_cell_angle_beta 91.500040
_cell_angle_gamma 82.285370
_cell_volume 689.856061
_symmetry_space_group_name_H-M "P -1"
_symmetry_group_IT_number 2
_symmetry_cell_setting 'triclinic'
loop_
_space_group_symop_operation_xyz
x,y,z
-x,-y,-z
loop_
_atom_site_type_symbol
_atom_site_label
_atom_site_fract_x
_atom_site_fract_y
_atom_site_fract_z
Si Si1 0.064446 0.616462 0.127017
Si Si2 0.539797 0.929518 0.855210
Si Si3 0.820679 0.998170 0.533717
Si Si4 0.142765 0.240759 0.147248
Si Si5 0.607862 0.263338 0.865566
Si Si6 0.867902 0.582855 0.369155
Si Si7 0.649193 0.821643 0.422365
Si Si8 0.397658 0.623332 0.610120
O O1 0.107431 0.408932 0.165237
O O2 0.215199 0.688698 0.152858
O O3 0.934718 0.616255 0.227398
O O4 0.992595 0.752274 0.958144
O O5 0.691825 0.762121 0.917116
O O6 0.587459 0.122469 0.821495
O O7 0.463410 0.981321 0.702667
O O8 0.414313 0.845933 0.967949
O O9 0.692123 0.184281 0.414643
O O10 0.832159 0.953283 0.692434
O O11 0.754563 0.834205 0.534251
O O12 0.000000 0.000000 0.500000
O O13 0.475659 0.455745 0.772996
O O14 0.766490 0.775791 0.332983
O O15 0.747958 0.436199 0.435502
O O16 0.000000 0.500000 0.500000
O O17 0.540063 0.663503 0.511180
#
# Coordination Sequence:
#
# PCOD8035983 Si02
#       8
#     2   2   2   2   2   2   2   2
#     4  11  27  47  75 105 147 194 241 294 368 430
#     4  11  26  46  71 105 146 184 245 299 359 431
#     4  12  27  45  72 109 149 189 241 300 364 427
#     4  11  25  49  69 104 148 190 238 300 357 433
#     4  11  26  47  72 107 142 195 242 297 361 430
#     4  12  25  45  74 107 146 188 243 300 360 429
#     4  12  26  45  74 108 144 190 241 300 360 428
#     4  12  24  46  74 104 146 193 245 292 355 438
#
# _framework density 23.193242999999999
#
# number of rings (size 3 to 8) (size 9 to 14) (size 15 to 20)
#    0.000    0.500    2.500    5.250    7.000    3.000 
#    0.000    0.000    0.000    0.000    0.000    0.000 
#    0.000    0.000    0.000    0.000    0.000    0.000 
#
# Total GULP energy -198345.442108 kJ/mol
# GULP energy per Si atom -12396.590132 kJ/mol
# Density = 2.314045 g / cm^3
# Si number density = 23.193243 Si / 1000 Ang^3
#
#
#
# Elastic Constant Matrix: (Units=GPa)
#
#
# Indices 1 2 3 4 5 6 
#
# 1 162.3250 56.2124 54.6706 3.3594 2.7815 7.4294
# 2 56.2124 84.0101 42.8338 3.9584 -0.1327 -9.3654
# 3 54.6706 42.8338 135.0138 5.6005 10.0338 11.6266
# 4 3.3594 3.9584 5.6005 30.5421 -1.9689 4.8362
# 5 2.7815 -0.1327 10.0338 -1.9689 30.7068 3.4962
# 6 7.4294 -9.3654 11.6266 4.8362 3.4962 44.6904
#
#
#
# Elastic Compliance Matrix: (Units=1/GPa)
#
#
# Indices 1 2 3 4 5 6 
#
# 1 0.008599 -0.005148 -0.001683 0.000365 0.000013 -0.002111
# 2 -0.005148 0.018246 -0.004217 -0.001885 0.001131 0.005892
# 3 -0.001683 -0.004217 0.009918 -0.000814 -0.002831 -0.002875
# 4 0.000365 -0.001885 -0.000814 0.033936 0.002872 -0.004141
# 5 0.000013 0.001131 -0.002831 0.002872 0.033906 -0.001992
# 6 -0.002111 0.005892 -0.002875 -0.004141 -0.001992 0.025314
#
#
# Mechanical properties :
#
#
# Convention : Reuss Voigt Hill
#
# Bulk Modulus (GPa) = 68.18558 76.53139 72.35849
# Shear Modulus (GPa) = 31.86681 36.36334 34.11508
#
# Velocity S-wave (km/s) = 3.71073 3.96389 3.83940
# Velocity P-wave (km/s) = 6.91535 7.34975 7.13586
#
# Compressibility (1/GPa) = 0.01466586
#
# Stress axis : x y z
#
# Youngs Moduli (GPa) = 116.29405 54.80765 100.82887
#
# Poissons Ratio (x) = 0.28215 0.16969
# Poissons Ratio (y) = 0.59869 0.42522
# Poissons Ratio (z) = 0.19572 0.23113
#
# Static dielectric constant tensor:
#      x y z
#    x 4.510660 -0.131610 0.136620 
#    y -0.131610 4.200690 0.027110 
#    z 0.136620 0.027110 4.159820 
# 
# 
# High freq. dielectric constant tensor:
#      x y z
#    x 1.935380 -0.008030 0.011400 
#    y -0.008030 1.908450 0.002050 
#    z 0.011400 0.002050 1.923180 
# 
# From -- ./inp_files/381066.got.cif
#   From: 2010.06.25/outbox.cif.g09.slc.cpg/sg2_191_cif.got.tgz:381066.got - 2010.06.27 13:26:56.
