data_PCOD8035281
_publ_section_title
;
Structure prediction by ZEFSAII (Michael W. Deem and Ramdas Pophale) SiO2 
 PCOD8035281
Probable space group: P -1
;
_chemical_formula_sum "Si O2"
_cell_formula_units_Z 16
_cell_length_a 11.751611
_cell_length_b 20.611947
_cell_length_c 11.698639
_cell_angle_alpha 149.867151
_cell_angle_beta 61.702698
_cell_angle_gamma 138.847511
_cell_volume 790.120541
_symmetry_space_group_name_H-M "P -1"
_symmetry_group_IT_number 2
_symmetry_cell_setting 'triclinic'
loop_
_space_group_symop_operation_xyz
x,y,z
-x,-y,-z
loop_
_atom_site_type_symbol
_atom_site_label
_atom_site_fract_x
_atom_site_fract_y
_atom_site_fract_z
Si Si1 0.563282 0.717696 0.400568
Si Si2 0.717695 0.563280 0.091738
Si Si3 0.808927 0.191078 0.382152
Si Si4 0.877525 0.122475 0.744950
Si Si5 0.588910 0.085124 0.709784
Si Si6 0.124004 0.484354 0.852258
Si Si7 0.085125 0.588911 0.717357
Si Si8 0.515649 0.875999 0.868443
O O1 0.580760 0.580760 0.219024
O O2 0.503908 0.751378 0.593149
O O3 0.778236 0.927784 0.564089
O O4 0.393749 0.606251 0.212502
O O5 0.751375 0.503905 0.098207
O O6 0.927783 0.778235 0.264994
O O7 0.966086 0.267123 0.524354
O O8 0.932964 0.407870 0.604536
O O9 0.592132 0.067037 0.345277
O O10 0.732882 0.033919 0.077724
O O11 0.732988 0.074649 0.645814
O O12 0.925351 0.267011 0.037508
O O13 0.500000 0.000000 0.500000
O O14 0.717250 0.319937 0.011408
O O15 0.000000 0.500000 0.000000
O O16 0.319940 0.717254 0.806039
O O17 0.000000 0.500000 0.500000
O O18 0.500000 0.000000 0.000000
#
# Coordination Sequence:
#
# PCOD8035281 Si02
#       8
#     2   2   2   2   2   2   2   2
#     4  11  25  43  64  91 130 172 213 264 323 385
#     4  11  25  43  64  91 130 172 213 264 323 385
#     4  12  22  38  57  98 129 164 212 264 326 370
#     4  12  21  36  60  94 129 156 206 264 315 380
#     4  12  22  34  61  95 129 164 205 269 318 373
#     4  12  22  38  62  94 128 166 214 263 318 378
#     4  12  22  34  61  95 129 164 205 269 318 373
#     4  12  22  38  62  94 128 166 214 263 318 378
#
# _framework density 20.250074999999999
#
# number of rings (size 3 to 8) (size 9 to 14) (size 15 to 20)
#    0.000    0.250    7.500    1.875    3.500    0.000 
#    0.000    0.625    0.000    3.000    0.000    0.000 
#    0.000    0.000    0.000    0.000    0.000    0.000 
#
# Total GULP energy -198272.321018 kJ/mol
# GULP energy per Si atom -12392.020064 kJ/mol
# Density = 2.020398 g / cm^3
# Si number density = 20.250075 Si / 1000 Ang^3
#
#
#
# Elastic Constant Matrix: (Units=GPa)
#
#
# Indices 1 2 3 4 5 6 
#
# 1 94.9493 23.6728 52.7768 -12.0905 15.1982 -4.8525
# 2 23.6728 111.1914 34.1938 19.5464 0.0031 -0.8498
# 3 52.7768 34.1938 124.2653 -6.7923 29.7587 -2.2515
# 4 -12.0905 19.5464 -6.7923 42.0832 -2.6041 4.4384
# 5 15.1982 0.0031 29.7587 -2.6041 40.7666 -2.1782
# 6 -4.8525 -0.8498 -2.2515 4.4384 -2.1782 22.9918
#
#
#
# Elastic Compliance Matrix: (Units=1/GPa)
#
#
# Indices 1 2 3 4 5 6 
#
# 1 0.014760 -0.002340 -0.005006 0.004261 -0.001492 0.001575
# 2 -0.002340 0.011647 -0.003237 -0.006548 0.002878 0.001156
# 3 -0.005006 -0.003237 0.012946 0.001791 -0.007521 -0.000967
# 4 0.004261 -0.006548 0.001791 0.028746 -0.001318 -0.004841
# 5 -0.001492 0.002878 -0.007521 -0.001318 0.030610 0.002209
# 6 0.001575 0.001156 -0.000967 -0.004841 0.002209 0.044918
#
#
# Mechanical properties :
#
#
# Convention : Reuss Voigt Hill
#
# Bulk Modulus (GPa) = 54.98760 61.29920 58.14340
# Shear Modulus (GPa) = 29.26455 35.81915 32.54185
#
# Velocity S-wave (km/s) = 3.80565 4.21032 4.01309
# Velocity P-wave (km/s) = 6.82084 7.34660 7.08860
#
# Compressibility (1/GPa) = 0.01818592
#
# Stress axis : x y z
#
# Youngs Moduli (GPa) = 67.75195 85.85814 77.24564
#
# Poissons Ratio (x) = 0.20089 0.38670
# Poissons Ratio (y) = 0.15853 0.25007
# Poissons Ratio (z) = 0.33917 0.27796
#
# Static dielectric constant tensor:
#      x y z
#    x 2.771500 0.362720 1.048560 
#    y 0.362720 0.207230 -0.352140 
#    z 1.048560 -0.352140 3.691840 
# 
# 
# High freq. dielectric constant tensor:
#      x y z
#    x 1.762600 -0.012930 0.040120 
#    y -0.012930 1.802890 0.011650 
#    z 0.040120 0.011650 1.801510 
# 
# From -- ./inp_files/438725.got.cif
#   From: 2010.06.25/outbox.cif.g09.slc.cpg/sg2_220_cif.got.tgz:438725.got - 2010.06.27 13:26:56.
