data_PCOD8035216
_publ_section_title
;
Structure prediction by ZEFSAII (Michael W. Deem and Ramdas Pophale) SiO2 
 PCOD8035216
Probable space group: P -1
;
_chemical_formula_sum "Si O2"
_cell_formula_units_Z 16
_cell_length_a 20.552919
_cell_length_b 6.818823
_cell_length_c 8.884114
_cell_angle_alpha 123.169081
_cell_angle_beta 136.503232
_cell_angle_gamma 56.699406
_cell_volume 691.899511
_symmetry_space_group_name_H-M "P -1"
_symmetry_group_IT_number 2
_symmetry_cell_setting 'triclinic'
loop_
_space_group_symop_operation_xyz
x,y,z
-x,-y,-z
loop_
_atom_site_type_symbol
_atom_site_label
_atom_site_fract_x
_atom_site_fract_y
_atom_site_fract_z
Si Si1 0.222176 0.344421 0.352000
Si Si2 0.413924 0.965517 0.449736
Si Si3 0.875792 0.848369 0.145286
Si Si4 0.720382 0.217075 0.374880
Si Si5 0.197270 0.327102 0.771704
Si Si6 0.471697 0.778023 0.782612
Si Si7 0.342960 0.610383 0.997179
Si Si8 0.903880 0.356434 0.484667
O O1 0.216623 0.607714 0.377434
O O2 0.172154 0.422387 0.462821
O O3 0.338865 0.204795 0.498575
O O4 0.157258 0.189741 0.094745
O O5 0.472124 0.798288 0.610909
O O6 0.336250 0.857671 0.181318
O O7 0.500000 0.000000 0.500000
O O8 0.816504 0.698356 0.083348
O O9 0.992493 0.735875 0.301942
O O10 0.853032 0.132167 0.276825
O O11 0.634651 0.229418 0.351091
O O12 0.787758 0.944870 0.378052
O O13 0.683425 0.322327 0.191543
O O14 0.094590 0.507625 0.614992
O O15 0.284229 0.444159 0.917331
O O16 0.543415 0.530824 0.858025
O O17 0.500000 0.000000 0.000000
#
# Coordination Sequence:
#
# PCOD8035216 Si02
#       8
#     2   2   2   2   2   2   2   2
#     4  12  24  46  72 102 143 188 233 288 362 419
#     4  12  27  44  70 107 145 187 241 297 348 426
#     4  11  26  45  76 104 142 183 237 300 358 430
#     4  12  24  44  68 102 140 189 235 293 348 425
#     4  12  22  44  71 101 141 183 232 291 367 417
#     4  12  24  42  67 100 139 190 239 288 347 419
#     4  12  25  44  69  97 146 189 239 293 356 414
#     4  11  24  50  71 105 141 186 236 297 362 426
#
# _framework density 23.124745999999998
#
# number of rings (size 3 to 8) (size 9 to 14) (size 15 to 20)
#    0.000    0.250    3.750    6.000    3.500    0.000 
#    2.250    0.625    0.000    0.000    0.000    0.000 
#    0.000    0.000    0.000    0.000    0.000    0.000 
#
# Total GULP energy -198240.869675 kJ/mol
# GULP energy per Si atom -12390.054355 kJ/mol
# Density = 2.307211 g / cm^3
# Si number density = 23.124746 Si / 1000 Ang^3
#
#
#
# Elastic Constant Matrix: (Units=GPa)
#
#
# Indices 1 2 3 4 5 6 
#
# 1 85.8998 30.1966 13.7327 5.2300 -10.3490 6.6603
# 2 30.1966 122.8471 30.8448 -1.7045 -8.6181 2.7819
# 3 13.7327 30.8448 111.9486 11.4226 -5.5230 4.0427
# 4 5.2300 -1.7045 11.4226 35.4036 6.1216 -1.4009
# 5 -10.3490 -8.6181 -5.5230 6.1216 29.0146 3.0769
# 6 6.6603 2.7819 4.0427 -1.4009 3.0769 43.1773
#
#
#
# Elastic Compliance Matrix: (Units=1/GPa)
#
#
# Indices 1 2 3 4 5 6 
#
# 1 0.013663 -0.002950 -0.000233 -0.003014 0.004837 -0.002338
# 2 -0.002950 0.009552 -0.002373 0.001487 0.001016 0.000038
# 3 -0.000233 -0.002373 0.010135 -0.003743 0.002040 -0.001027
# 4 -0.003014 0.001487 -0.003743 0.031486 -0.008236 0.002328
# 5 0.004837 0.001016 0.002040 -0.008236 0.039048 -0.004052
# 6 -0.002338 0.000038 -0.001027 0.002328 -0.004052 0.023979
#
#
# Mechanical properties :
#
#
# Convention : Reuss Voigt Hill
#
# Bulk Modulus (GPa) = 44.96565 52.24929 48.60747
# Shear Modulus (GPa) = 34.15601 37.91386 36.03493
#
# Velocity S-wave (km/s) = 3.84739 4.05351 3.95179
# Velocity P-wave (km/s) = 6.26287 6.67469 6.47206
#
# Compressibility (1/GPa) = 0.02223920
#
# Stress axis : x y z
#
# Youngs Moduli (GPa) = 73.18985 104.68919 98.67095
#
# Poissons Ratio (x) = 0.30879 0.02297
# Poissons Ratio (y) = 0.21588 0.23415
# Poissons Ratio (z) = 0.01704 0.24843
#
# Static dielectric constant tensor:
#      x y z
#    x 4.184770 -0.102500 0.012850 
#    y -0.102500 4.592550 0.170700 
#    z 0.012850 0.170700 4.135260 
# 
# 
# High freq. dielectric constant tensor:
#      x y z
#    x 1.920280 -0.006880 0.002670 
#    y -0.006880 1.933300 0.005310 
#    z 0.002670 0.005310 1.907280 
# 
# From -- ./inp_files/340701.got.cif
#   From: 2010.06.25/outbox.cif.g09.slc.cpg/sg2_171_cif.got.tgz:340701.got - 2010.06.27 13:26:56.
