data_PCOD8035456
_publ_section_title
;
Structure prediction by ZEFSAII (Michael W. Deem and Ramdas Pophale) SiO2 
 PCOD8035456
Probable space group: P -1
;
_chemical_formula_sum "Si O2"
_cell_formula_units_Z 12
_cell_length_a 12.143662
_cell_length_b 14.496486
_cell_length_c 8.662173
_cell_angle_alpha 33.694136
_cell_angle_beta 58.009442
_cell_angle_gamma 44.493751
_cell_volume 584.851589
_symmetry_space_group_name_H-M "P -1"
_symmetry_group_IT_number 2
_symmetry_cell_setting 'triclinic'
loop_
_space_group_symop_operation_xyz
x,y,z
-x,-y,-z
loop_
_atom_site_type_symbol
_atom_site_label
_atom_site_fract_x
_atom_site_fract_y
_atom_site_fract_z
Si Si1 0.841012 0.706564 0.881188
Si Si2 0.041280 0.128395 0.190597
Si Si3 0.341282 0.425950 0.620428
Si Si4 0.835961 0.531125 0.621284
Si Si5 0.311449 0.814582 0.203277
Si Si6 0.330598 0.081406 0.578358
O O1 0.866345 0.807035 0.866047
O O2 0.785749 0.854136 0.570263
O O3 0.709754 0.668217 0.080534
O O4 0.000000 0.500000 0.000000
O O5 0.156063 0.995956 0.150521
O O6 0.000000 0.000000 0.500000
O O7 0.879792 0.329579 0.961579
O O8 0.266597 0.436601 0.497027
O O9 0.277570 0.651315 0.407888
O O10 0.533474 0.285007 0.662886
O O11 0.727911 0.728346 0.531808
O O12 0.000000 0.500000 0.500000
O O13 0.337323 0.900698 0.909767
O O14 0.500000 0.000000 0.500000
#
# Coordination Sequence:
#
# PCOD8035456 Si02
#       6
#     2   2   2   2   2   2
#     4  12  23  43  67  97 138 174 222 278 334 404
#     4  12  27  44  69 101 133 180 230 278 339 403
#     4  11  25  45  68  97 139 179 221 284 335 399
#     4  12  24  46  68  99 136 177 228 278 335 399
#     4  11  26  46  67 100 138 178 227 279 339 401
#     4  12  25  42  69 102 133 176 223 273 340 402
#
# _framework density 20.518025000000002
#
# number of rings (size 3 to 8) (size 9 to 14) (size 15 to 20)
#    0.000    0.333    6.667    1.000    4.667    2.000 
#    0.000    1.667    0.000    0.000    0.000    0.000 
#    0.000    0.000    0.000    0.000    0.000    0.000 
#
# Total GULP energy -148865.991039 kJ/mol
# GULP energy per Si atom -12405.499253 kJ/mol
# Density = 2.047132 g / cm^3
# Si number density = 20.518025 Si / 1000 Ang^3
#
#
#
# Elastic Constant Matrix: (Units=GPa)
#
#
# Indices 1 2 3 4 5 6 
#
# 1 105.5842 30.4440 45.6585 -1.5017 21.2504 12.0017
# 2 30.4440 106.3457 20.7479 -2.1963 -10.4558 6.4579
# 3 45.6585 20.7479 142.2433 5.0613 -1.3882 7.8021
# 4 -1.5017 -2.1963 5.0613 36.2258 -1.6337 -0.9679
# 5 21.2504 -10.4558 -1.3882 -1.6337 42.9169 2.4537
# 6 12.0017 6.4579 7.8021 -0.9679 2.4537 29.3077
#
#
#
# Elastic Compliance Matrix: (Units=1/GPa)
#
#
# Indices 1 2 3 4 5 6 
#
# 1 0.014265 -0.003890 -0.003926 0.000459 -0.007934 -0.003260
# 2 -0.003890 0.011123 -0.000291 0.000736 0.004721 -0.001151
# 3 -0.003926 -0.000291 0.008443 -0.001285 0.002143 -0.000798
# 4 0.000459 0.000736 -0.001285 0.027912 0.000925 0.000836
# 5 -0.007934 0.004721 0.002143 0.000925 0.028525 -0.000719
# 6 -0.003260 -0.001151 -0.000798 0.000836 -0.000719 0.036010
#
#
# Mechanical properties :
#
#
# Convention : Reuss Voigt Hill
#
# Bulk Modulus (GPa) = 56.76522 60.87488 58.82005
# Shear Modulus (GPa) = 33.70095 38.84492 36.27294
#
# Velocity S-wave (km/s) = 4.05718 4.35582 4.20915
# Velocity P-wave (km/s) = 7.04796 7.41829 7.23549
#
# Compressibility (1/GPa) = 0.01761642
#
# Stress axis : x y z
#
# Youngs Moduli (GPa) = 70.10366 89.90456 118.43731
#
# Poissons Ratio (x) = 0.34975 0.46502
# Poissons Ratio (y) = 0.27272 0.03442
# Poissons Ratio (z) = 0.27525 0.02613
#
# Static dielectric constant tensor:
#      x y z
#    x 3.525160 -0.083050 0.227170 
#    y -0.083050 3.807280 -0.035240 
#    z 0.227170 -0.035240 4.022250 
# 
# 
# High freq. dielectric constant tensor:
#      x y z
#    x 1.806490 0.001870 0.008710 
#    y 0.001870 1.811960 -0.004100 
#    z 0.008710 -0.004100 1.822490 
# 
# From -- ./inp_files/144494.got.cif
#   From: 2010.06.25/outbox.cif.g09.slc.cpg/sg2_73_cif.got.tgz:144494.got - 2010.06.27 13:26:56.
