data_PCOD8035413
_publ_section_title
;
Structure prediction by ZEFSAII (Michael W. Deem and Ramdas Pophale) SiO2 
 PCOD8035413
Probable space group: P -1
;
_chemical_formula_sum "Si O2"
_cell_formula_units_Z 14
_cell_length_a 17.231150
_cell_length_b 11.472882
_cell_length_c 8.924763
_cell_angle_alpha 55.065686
_cell_angle_beta 31.832641
_cell_angle_gamma 41.261357
_cell_volume 602.564798
_symmetry_space_group_name_H-M "P -1"
_symmetry_group_IT_number 2
_symmetry_cell_setting 'triclinic'
loop_
_space_group_symop_operation_xyz
x,y,z
-x,-y,-z
loop_
_atom_site_type_symbol
_atom_site_label
_atom_site_fract_x
_atom_site_fract_y
_atom_site_fract_z
Si Si1 0.926534 0.031101 0.760276
Si Si2 0.119777 0.258435 0.903801
Si Si3 0.427266 0.585915 0.893104
Si Si4 0.729545 0.593526 0.266415
Si Si5 0.845632 0.686936 0.531316
Si Si6 0.840753 0.016479 0.344949
Si Si7 0.430459 0.327776 0.843708
O O1 0.786633 0.241344 0.873859
O O2 0.000000 0.000000 0.500000
O O3 0.123477 0.942593 0.580891
O O4 0.830450 0.938285 0.034211
O O5 0.236695 0.262600 0.843687
O O6 0.155531 0.319752 0.642958
O O7 0.899996 0.399740 0.194928
O O8 0.541961 0.655381 0.606470
O O9 0.445361 0.459258 0.824223
O O10 0.500000 0.500000 0.000000
O O11 0.720494 0.574178 0.115794
O O12 0.000000 0.500000 0.500000
O O13 0.879104 0.827737 0.418800
O O14 0.640235 0.756808 0.869608
O O15 0.624776 0.180318 0.546644
O O16 0.000000 0.000000 0.000000
#
# Coordination Sequence:
#
# PCOD8035413 Si02
#       7
#     2   2   2   2   2   2   2
#     4  12  27  46  76 105 147 199 251 313 377 449
#     4  11  25  47  70 106 151 196 250 309 377 454
#     4  12  26  48  74 107 148 194 251 314 378 454
#     4  11  25  44  73 106 147 193 249 308 376 446
#     4  12  25  46  74 111 152 199 249 312 380 446
#     4  12  26  48  76 110 151 198 258 311 376 445
#     4  12  26  47  76 110 150 196 255 310 377 449
#
# _framework density 23.234013999999998
#
# number of rings (size 3 to 8) (size 9 to 14) (size 15 to 20)
#    0.000    0.286    2.857    6.000    2.000    1.714 
#    2.571    0.000    0.000    0.000    0.000    0.000 
#    0.000    0.000    0.000    0.000    0.000    0.000 
#
# Total GULP energy -173527.518690 kJ/mol
# GULP energy per Si atom -12394.822764 kJ/mol
# Density = 2.318113 g / cm^3
# Si number density = 23.234014 Si / 1000 Ang^3
#
#
#
# Elastic Constant Matrix: (Units=GPa)
#
#
# Indices 1 2 3 4 5 6 
#
# 1 173.0593 44.1764 27.4366 -7.7245 -1.8723 12.1462
# 2 44.1764 122.0695 42.4116 -7.9262 -7.4430 17.1949
# 3 27.4366 42.4116 136.7321 5.9530 -5.4337 0.1114
# 4 -7.7245 -7.9262 5.9530 32.4390 3.8781 -0.1441
# 5 -1.8723 -7.4430 -5.4337 3.8781 42.6756 -6.7991
# 6 12.1462 17.1949 0.1114 -0.1441 -6.7991 35.7045
#
#
#
# Elastic Compliance Matrix: (Units=1/GPa)
#
#
# Indices 1 2 3 4 5 6 
#
# 1 0.006527 -0.001820 -0.000820 0.001311 -0.000482 -0.001428
# 2 -0.001820 0.010743 -0.003062 0.002680 0.000452 -0.004448
# 3 -0.000820 -0.003062 0.008584 -0.002638 0.001068 0.001920
# 4 0.001311 0.002680 -0.002638 0.032642 -0.003127 -0.002192
# 5 -0.000482 0.000452 0.001068 -0.003127 0.024647 0.004624
# 6 -0.001428 -0.004448 0.001920 -0.002192 0.004624 0.031501
#
#
# Mechanical properties :
#
#
# Convention : Reuss Voigt Hill
#
# Bulk Modulus (GPa) = 69.21229 73.32335 71.26782
# Shear Modulus (GPa) = 38.20759 43.35289 40.78024
#
# Velocity S-wave (km/s) = 4.05960 4.32432 4.19405
# Velocity P-wave (km/s) = 7.19915 7.52065 7.36165
#
# Compressibility (1/GPa) = 0.01444830
#
# Stress axis : x y z
#
# Youngs Moduli (GPa) = 153.22104 93.08637 116.50041
#
# Poissons Ratio (x) = 0.16943 0.09554
# Poissons Ratio (y) = 0.27888 0.35673
# Poissons Ratio (z) = 0.12566 0.28503
#
# Static dielectric constant tensor:
#      x y z
#    x 4.357870 0.161630 0.109750 
#    y 0.161630 3.789610 -0.186450 
#    z 0.109750 -0.186450 4.308510 
# 
# 
# High freq. dielectric constant tensor:
#      x y z
#    x 1.939600 0.005760 -0.000420 
#    y 0.005760 1.907730 0.001220 
#    z -0.000420 0.001220 1.934760 
# 
# From -- ./inp_files/242407.got.cif
#   From: 2010.06.25/outbox.cif.g09.slc.cpg/sg2_122_cif.got.tgz:242407.got - 2010.06.27 13:26:56.
