data_PCOD8035869
_publ_section_title
;
Structure prediction by ZEFSAII (Michael W. Deem and Ramdas Pophale) SiO2 
 PCOD8035869
Probable space group: P -1
;
_chemical_formula_sum "Si O2"
_cell_formula_units_Z 14
_cell_length_a 11.566140
_cell_length_b 9.018881
_cell_length_c 8.363621
_cell_angle_alpha 128.057122
_cell_angle_beta 120.066593
_cell_angle_gamma 70.935265
_cell_volume 594.319104
_symmetry_space_group_name_H-M "P -1"
_symmetry_group_IT_number 2
_symmetry_cell_setting 'triclinic'
loop_
_space_group_symop_operation_xyz
x,y,z
-x,-y,-z
loop_
_atom_site_type_symbol
_atom_site_label
_atom_site_fract_x
_atom_site_fract_y
_atom_site_fract_z
Si Si1 0.766842 0.585212 0.435590
Si Si2 0.877683 0.238741 0.817572
Si Si3 0.054783 0.541286 0.264577
Si Si4 0.362331 0.692156 0.084465
Si Si5 0.156628 0.152152 0.594208
Si Si6 0.550901 0.959269 0.187180
Si Si7 0.488909 0.354199 0.536950
O O1 0.879780 0.454774 0.512865
O O2 0.826413 0.766679 0.517313
O O3 0.668537 0.665049 0.557748
O O4 0.697324 0.463319 0.172417
O O5 0.840125 0.396453 0.758915
O O6 0.757709 0.200340 0.832061
O O7 0.915354 0.045482 0.620233
O O8 0.002554 0.329613 0.058121
O O9 0.934842 0.698711 0.271991
O O10 0.449044 0.834108 0.134226
O O11 0.450862 0.580643 0.206615
O O12 0.299174 0.129243 0.769633
O O13 0.561446 0.157664 0.415243
O O14 0.500000 0.000000 0.000000
O O15 0.500000 0.500000 0.500000
#
# Coordination Sequence:
#
# PCOD8035869 Si02
#       7
#     2   2   2   2   2   2   2
#     4  12  26  44  75 107 148 192 247 301 370 440
#     4  11  25  47  76 100 150 193 250 303 364 435
#     4  11  27  50  71 110 144 202 249 299 371 438
#     4  12  24  47  73 109 149 191 242 310 371 439
#     4  12  25  48  74 105 149 190 246 306 361 445
#     4  12  28  46  75 113 145 194 247 305 383 441
#     4  12  25  45  73 107 149 192 246 305 375 438
#
# _framework density 23.556370000000001
#
# number of rings (size 3 to 8) (size 9 to 14) (size 15 to 20)
#    0.000    0.286    4.286    4.286    4.000    2.857 
#    2.571    0.000    0.000    0.000    0.000    0.000 
#    0.000    0.000    0.000    0.000    0.000    0.000 
#
# Total GULP energy -173531.197000 kJ/mol
# GULP energy per Si atom -12395.085500 kJ/mol
# Density = 2.350276 g / cm^3
# Si number density = 23.556370 Si / 1000 Ang^3
#
#
#
# Elastic Constant Matrix: (Units=GPa)
#
#
# Indices 1 2 3 4 5 6 
#
# 1 69.1055 40.4667 28.3698 -15.8739 -0.2017 14.4843
# 2 40.4667 134.9612 63.3156 -30.5423 5.9901 12.7994
# 3 28.3698 63.3156 138.5884 -10.4772 7.7033 4.8906
# 4 -15.8739 -30.5423 -10.4772 47.1673 7.9535 -4.2551
# 5 -0.2017 5.9901 7.7033 7.9535 26.8619 3.9242
# 6 14.4843 12.7994 4.8906 -4.2551 3.9242 52.6255
#
#
#
# Elastic Compliance Matrix: (Units=1/GPa)
#
#
# Indices 1 2 3 4 5 6 
#
# 1 0.018986 -0.003848 -0.001836 0.002922 0.001243 -0.003975
# 2 -0.003848 0.012061 -0.004054 0.006093 -0.003248 -0.000763
# 3 -0.001836 -0.004054 0.009453 -0.000799 -0.001682 0.000674
# 4 0.002922 0.006093 -0.000799 0.027600 -0.009385 0.000720
# 5 0.001243 -0.003248 -0.001682 -0.009385 0.041699 -0.003264
# 6 -0.003975 -0.000763 0.000674 0.000720 -0.003264 0.020521
#
#
# Mechanical properties :
#
#
# Convention : Reuss Voigt Hill
#
# Bulk Modulus (GPa) = 47.56879 67.43992 57.50436
# Shear Modulus (GPa) = 31.88685 39.36447 35.62566
#
# Velocity S-wave (km/s) = 3.68318 4.09231 3.89312
# Velocity P-wave (km/s) = 6.19073 7.14288 6.68378
#
# Compressibility (1/GPa) = 0.02102219
#
# Stress axis : x y z
#
# Youngs Moduli (GPa) = 52.67064 82.91349 105.78551
#
# Poissons Ratio (x) = 0.31907 0.19426
# Poissons Ratio (y) = 0.20269 0.42888
# Poissons Ratio (z) = 0.09672 0.33615
#
# Static dielectric constant tensor:
#      x y z
#    x 4.695970 0.255790 -0.009300 
#    y 0.255790 4.537940 0.059960 
#    z -0.009300 0.059960 4.218260 
# 
# 
# High freq. dielectric constant tensor:
#      x y z
#    x 1.951230 0.015180 -0.004590 
#    y 0.015180 1.931020 -0.002140 
#    z -0.004590 -0.002140 1.935560 
# 
# From -- ./inp_files/246180.got.cif
#   From: 2010.06.25/outbox.cif.g09.slc.cpg/sg2_124_cif.got.tgz:246180.got - 2010.06.27 13:26:56.
