data_PCOD8035855
_publ_section_title
;
Structure prediction by ZEFSAII (Michael W. Deem and Ramdas Pophale) SiO2 
 PCOD8035855
Probable space group: P -1
;
_chemical_formula_sum "Si O2"
_cell_formula_units_Z 10
_cell_length_a 6.715682
_cell_length_b 12.983977
_cell_length_c 13.378789
_cell_angle_alpha 159.419633
_cell_angle_beta 75.713529
_cell_angle_gamma 101.325195
_cell_volume 395.334875
_symmetry_space_group_name_H-M "P -1"
_symmetry_group_IT_number 2
_symmetry_cell_setting 'triclinic'
loop_
_space_group_symop_operation_xyz
x,y,z
-x,-y,-z
loop_
_atom_site_type_symbol
_atom_site_label
_atom_site_fract_x
_atom_site_fract_y
_atom_site_fract_z
Si Si1 0.559335 0.688279 0.570938
Si Si2 0.226600 0.956624 0.388771
Si Si3 0.803293 0.186957 0.968940
Si Si4 0.441005 0.628381 0.235839
Si Si5 0.268043 0.054786 0.799628
O O1 0.500000 0.500000 0.500000
O O2 0.670805 0.489805 0.289278
O O3 0.353382 0.865691 0.712761
O O4 0.715596 0.919763 0.798110
O O5 0.364959 0.677406 0.172672
O O6 0.335534 0.255666 0.664175
O O7 0.214857 0.871361 0.198423
O O8 0.000000 0.000000 0.500000
O O9 0.039958 0.205093 0.987998
O O10 0.266871 0.844994 0.512533
O O11 0.425239 0.299306 0.979881
#
# Coordination Sequence:
#
# PCOD8035855 Si02
#       5
#     2   2   2   2   2
#     4  12  29  52  78 110 150 196 255 327 381 432
#     4  11  25  47  74 115 157 202 244 299 371 458
#     4  12  27  49  79 114 149 199 255 307 376 453
#     4  11  26  45  72 111 157 202 241 300 372 449
#     4  12  26  49  77 110 150 201 251 312 370 450
#
# _framework density 25.295010999999999
#
# number of rings (size 3 to 8) (size 9 to 14) (size 15 to 20)
#    0.000    0.400    4.000    3.000    0.000    7.200 
#    0.000    0.000    0.000    0.000    0.000    0.000 
#    0.000    0.000    0.000    0.000    0.000    0.000 
#
# Total GULP energy -124069.490833 kJ/mol
# GULP energy per Si atom -12406.949083 kJ/mol
# Density = 2.523744 g / cm^3
# Si number density = 25.295011 Si / 1000 Ang^3
#
#
#
# Elastic Constant Matrix: (Units=GPa)
#
#
# Indices 1 2 3 4 5 6 
#
# 1 182.3667 79.7881 42.6637 9.7428 -11.2475 -6.0515
# 2 79.7881 131.3538 30.7587 31.3456 -6.5246 -14.8498
# 3 42.6637 30.7587 117.8492 22.0833 -4.2009 -12.6909
# 4 9.7428 31.3456 22.0833 45.0258 2.9519 -2.7553
# 5 -11.2475 -6.5246 -4.2009 2.9519 37.0184 1.3663
# 6 -6.0515 -14.8498 -12.6909 -2.7553 1.3663 30.1929
#
#
#
# Elastic Compliance Matrix: (Units=1/GPa)
#
#
# Indices 1 2 3 4 5 6 
#
# 1 0.008167 -0.005235 -0.002256 0.002807 0.001141 -0.001682
# 2 -0.005235 0.013219 0.000537 -0.008118 0.001267 0.004880
# 3 -0.002256 0.000537 0.010508 -0.004866 0.000851 0.003746
# 4 0.002807 -0.008118 -0.004866 0.029703 -0.003402 -0.002611
# 5 0.001141 0.001267 0.000851 -0.003402 0.027965 -0.000366
# 6 -0.001682 0.004880 0.003746 -0.002611 -0.000366 0.036536
#
#
# Mechanical properties :
#
#
# Convention : Reuss Voigt Hill
#
# Bulk Modulus (GPa) = 55.60614 81.99898 68.80256
# Shear Modulus (GPa) = 34.24605 41.00470 37.62538
#
# Velocity S-wave (km/s) = 3.68348 4.03061 3.86095
# Velocity P-wave (km/s) = 6.33415 7.35856 6.86549
#
# Compressibility (1/GPa) = 0.01798363
#
# Stress axis : x y z
#
# Youngs Moduli (GPa) = 122.45121 75.64699 95.16895
#
# Poissons Ratio (x) = 0.39605 0.21474
# Poissons Ratio (y) = 0.64109 -0.05110
# Poissons Ratio (z) = 0.27630 -0.04062
#
# Static dielectric constant tensor:
#      x y z
#    x 4.908620 0.177610 -0.215040 
#    y 0.177610 4.471400 0.077920 
#    z -0.215040 0.077920 5.092200 
# 
# 
# High freq. dielectric constant tensor:
#      x y z
#    x 2.020840 0.003030 -0.013920 
#    y 0.003030 2.007860 0.006830 
#    z -0.013920 0.006830 2.036650 
# 
# From -- ./inp_files/484034.got.cif
#   From: 2010.06.25/outbox.cif.g09.slc.cpg/sg2_243_cif.got.tgz:484034.got - 2010.06.27 13:26:56.
