data_PCOD8035331
_publ_section_title
;
Structure prediction by ZEFSAII (Michael W. Deem and Ramdas Pophale) SiO2 
 PCOD8035331
Probable space group: P -1
;
_chemical_formula_sum "Si O2"
_cell_formula_units_Z 16
_cell_length_a 8.585100
_cell_length_b 9.617628
_cell_length_c 14.180433
_cell_angle_alpha 131.293537
_cell_angle_beta 89.912111
_cell_angle_gamma 117.776842
_cell_volume 690.970386
_symmetry_space_group_name_H-M "P -1"
_symmetry_group_IT_number 2
_symmetry_cell_setting 'triclinic'
loop_
_space_group_symop_operation_xyz
x,y,z
-x,-y,-z
loop_
_atom_site_type_symbol
_atom_site_label
_atom_site_fract_x
_atom_site_fract_y
_atom_site_fract_z
Si Si1 0.460269 0.962145 0.092269
Si Si2 0.107176 0.286384 0.381894
Si Si3 0.694845 0.541630 0.061379
Si Si4 0.035659 0.945730 0.372541
Si Si5 0.361856 0.873264 0.354921
Si Si6 0.795428 0.897130 0.872196
Si Si7 0.816234 0.639149 0.899712
Si Si8 0.706837 0.194446 0.359171
O O1 0.344698 0.065534 0.167186
O O2 0.669887 0.140953 0.224062
O O3 0.348132 0.693064 0.003007
O O4 0.500000 0.000000 0.000000
O O5 0.110633 0.185012 0.236387
O O6 0.259029 0.568995 0.503687
O O7 0.894387 0.203651 0.382068
O O8 0.164291 0.186427 0.419731
O O9 0.823094 0.745286 0.231725
O O10 0.500000 0.500000 0.000000
O O11 0.829503 0.634753 0.010439
O O12 0.178600 0.876041 0.348286
O O13 0.000000 0.000000 0.500000
O O14 0.257754 0.603170 0.252398
O O15 0.500000 0.000000 0.500000
O O16 0.504586 0.972592 0.308475
O O17 0.689244 0.709381 0.877051
O O18 0.959471 0.148237 0.034818
#
# Coordination Sequence:
#
# PCOD8035331 Si02
#       8
#     2   2   2   2   2   2   2   2
#     4  12  27  44  71 106 145 185 241 298 369 434
#     4  11  25  48  71 101 143 189 245 298 379 432
#     4  12  26  48  78 107 150 192 246 305 366 438
#     4  12  28  45  73 108 146 194 246 305 368 442
#     4  12  26  47  72 105 147 192 247 302 373 438
#     4  11  25  45  72 107 142 189 242 304 365 440
#     4  11  25  43  75 102 143 189 245 295 371 432
#     4  11  26  46  71 100 142 191 236 305 366 445
#
# _framework density 23.155842
#
# number of rings (size 3 to 8) (size 9 to 14) (size 15 to 20)
#    0.000    0.500    2.500    4.500    7.000    5.000 
#    0.000    0.000    0.000    0.000    0.000    0.000 
#    0.000    0.000    0.000    0.000    0.000    0.000 
#
# Total GULP energy -198259.633753 kJ/mol
# GULP energy per Si atom -12391.227110 kJ/mol
# Density = 2.310314 g / cm^3
# Si number density = 23.155842 Si / 1000 Ang^3
#
#
#
# Elastic Constant Matrix: (Units=GPa)
#
#
# Indices 1 2 3 4 5 6 
#
# 1 85.4050 46.4602 39.0377 12.3223 -0.4148 -12.0712
# 2 46.4602 169.4696 63.4040 6.7513 -12.9752 -24.5398
# 3 39.0377 63.4040 158.8186 -0.8864 -4.0330 -9.3249
# 4 12.3223 6.7513 -0.8864 48.3968 -6.8674 -6.3014
# 5 -0.4148 -12.9752 -4.0330 -6.8674 31.8483 -2.9590
# 6 -12.0712 -24.5398 -9.3249 -6.3014 -2.9590 37.7922
#
#
#
# Elastic Compliance Matrix: (Units=1/GPa)
#
#
# Indices 1 2 3 4 5 6 
#
# 1 0.015226 -0.003020 -0.002517 -0.003584 -0.001982 0.001529
# 2 -0.003020 0.008472 -0.002287 0.000634 0.003665 0.004365
# 3 -0.002517 -0.002287 0.007832 0.001120 0.000255 -0.000150
# 4 -0.003584 0.000634 0.001120 0.022797 0.005621 0.003784
# 5 -0.001982 0.003665 0.000255 0.005621 0.034617 0.005457
# 6 0.001529 0.004365 -0.000150 0.003784 0.005457 0.030804
#
#
# Mechanical properties :
#
#
# Convention : Reuss Voigt Hill
#
# Bulk Modulus (GPa) = 62.96791 79.05522 71.01156
# Shear Modulus (GPa) = 35.53890 41.26022 38.39956
#
# Velocity S-wave (km/s) = 3.92186 4.22577 4.07665
# Velocity P-wave (km/s) = 6.91087 7.61736 7.27270
#
# Compressibility (1/GPa) = 0.01588110
#
# Stress axis : x y z
#
# Youngs Moduli (GPa) = 65.67730 118.04100 127.67793
#
# Poissons Ratio (x) = 0.35648 0.32143
# Poissons Ratio (y) = 0.19834 0.29199
# Poissons Ratio (z) = 0.16534 0.26995
#
# Static dielectric constant tensor:
#      x y z
#    x 4.270140 -0.271890 0.048300 
#    y -0.271890 5.033220 -0.007010 
#    z 0.048300 -0.007010 4.306520 
# 
# 
# High freq. dielectric constant tensor:
#      x y z
#    x 1.908020 -0.017840 -0.002320 
#    y -0.017840 1.939330 -0.000110 
#    z -0.002320 -0.000110 1.928690 
# 
# From -- ./inp_files/495746.got.cif
#   From: 2010.06.25/outbox.cif.g09.slc.cpg/sg2_248_cif.got.tgz:495746.got - 2010.06.27 13:26:56.
