data_PCOD8035620
_publ_section_title
;
Structure prediction by ZEFSAII (Michael W. Deem and Ramdas Pophale) SiO2 
 PCOD8035620
Probable space group: P -1
;
_chemical_formula_sum "Si O2"
_cell_formula_units_Z 12
_cell_length_a 16.120208
_cell_length_b 7.370489
_cell_length_c 7.543847
_cell_angle_alpha 78.365324
_cell_angle_beta 125.709481
_cell_angle_gamma 68.657419
_cell_volume 567.244521
_symmetry_space_group_name_H-M "P -1"
_symmetry_group_IT_number 2
_symmetry_cell_setting 'triclinic'
loop_
_space_group_symop_operation_xyz
x,y,z
-x,-y,-z
loop_
_atom_site_type_symbol
_atom_site_label
_atom_site_fract_x
_atom_site_fract_y
_atom_site_fract_z
Si Si1 0.257905 0.165693 0.694291
Si Si2 0.973319 0.505432 0.170801
Si Si3 0.764386 0.010335 0.946101
Si Si4 0.872008 0.232913 0.221954
Si Si5 0.653536 0.542835 0.164577
Si Si6 0.615433 0.212759 0.371307
O O1 0.105115 0.362905 0.473013
O O2 0.297907 0.015507 0.953106
O O3 0.332790 0.277047 0.753246
O O4 0.293537 0.003879 0.602182
O O5 0.890179 0.766629 0.084851
O O6 0.897710 0.397992 0.125841
O O7 0.000000 0.500000 0.000000
O O8 0.805286 0.175164 0.005603
O O9 0.654360 0.130166 0.637237
O O10 0.780868 0.362381 0.249830
O O11 0.000000 0.000000 0.500000
O O12 0.632500 0.411321 0.313750
O O13 0.532112 0.684359 0.853760
#
# Coordination Sequence:
#
# PCOD8035620 Si02
#       6
#     2   2   2   2   2   2
#     4  12  23  47  68  98 137 176 221 282 330 391
#     4  12  25  43  68 103 135 171 227 274 333 399
#     4  12  25  42  71  99 135 177 222 276 332 397
#     4  12  24  45  70  99 137 178 217 279 340 389
#     4  11  25  46  69  96 139 176 222 281 328 395
#     4  11  26  46  66 103 132 178 231 266 334 402
#
# _framework density 21.154896000000001
#
# number of rings (size 3 to 8) (size 9 to 14) (size 15 to 20)
#    0.000    0.333    6.667    2.000    2.333    2.000 
#    0.000    0.000    0.000    0.000    0.000    0.000 
#    0.000    0.000    0.000    0.000    0.000    0.000 
#
# Total GULP energy -148902.783000 kJ/mol
# GULP energy per Si atom -12408.565250 kJ/mol
# Density = 2.110675 g / cm^3
# Si number density = 21.154896 Si / 1000 Ang^3
#
#
#
# Elastic Constant Matrix: (Units=GPa)
#
#
# Indices 1 2 3 4 5 6 
#
# 1 84.3041 17.0541 18.7963 2.5187 9.0361 24.0897
# 2 17.0541 61.6720 19.6793 6.4164 5.5923 21.0699
# 3 18.7963 19.6793 127.3304 0.2113 0.2478 10.1871
# 4 2.5187 6.4164 0.2113 34.5055 -6.7821 9.0536
# 5 9.0361 5.5923 0.2478 -6.7821 31.7170 3.8237
# 6 24.0897 21.0699 10.1871 9.0536 3.8237 44.7152
#
#
#
# Elastic Compliance Matrix: (Units=1/GPa)
#
#
# Indices 1 2 3 4 5 6 
#
# 1 0.014684 -0.000987 -0.001456 0.000327 -0.003094 -0.006916
# 2 -0.000987 0.020415 -0.002372 -0.002202 -0.002823 -0.007860
# 3 -0.001456 -0.002372 0.008453 0.000752 0.000959 -0.000258
# 4 0.000327 -0.002202 0.000752 0.032686 0.008076 -0.006618
# 5 -0.003094 -0.002823 0.000959 0.008076 0.034849 -0.001836
# 6 -0.006916 -0.007860 -0.000258 -0.006618 -0.001836 0.031349
#
#
# Mechanical properties :
#
#
# Convention : Reuss Voigt Hill
#
# Bulk Modulus (GPa) = 29.47865 42.70731 36.09298
# Shear Modulus (GPa) = 30.60489 36.70599 33.65544
#
# Velocity S-wave (km/s) = 3.80768 4.16998 3.99294
# Velocity P-wave (km/s) = 5.77029 6.58914 6.19326
#
# Compressibility (1/GPa) = 0.03392286
#
# Stress axis : x y z
#
# Youngs Moduli (GPa) = 68.10039 48.98364 118.30658
#
# Poissons Ratio (x) = 0.04832 0.17230
# Poissons Ratio (y) = 0.06718 0.28057
# Poissons Ratio (z) = 0.09918 0.11617
#
# Static dielectric constant tensor:
#      x y z
#    x 3.985540 0.226720 0.126750 
#    y 0.226720 4.132320 0.008790 
#    z 0.126750 0.008790 3.926020 
# 
# 
# High freq. dielectric constant tensor:
#      x y z
#    x 1.834890 0.006360 0.004560 
#    y 0.006360 1.846480 -0.001360 
#    z 0.004560 -0.001360 1.831200 
# 
# From -- ./inp_files/88817.got.cif
#   From: 2010.06.25/outbox.cif.g09.slc.cpg/sg2_45_cif.got.tgz:88817.got - 2010.06.27 13:26:56.
