data_PCOD8035748
_publ_section_title
;
Structure prediction by ZEFSAII (Michael W. Deem and Ramdas Pophale) SiO2 
 PCOD8035748
Probable space group: P -1
;
_chemical_formula_sum "Si O2"
_cell_formula_units_Z 10
_cell_length_a 12.355236
_cell_length_b 19.661619
_cell_length_c 8.726902
_cell_angle_alpha 32.801272
_cell_angle_beta 35.083071
_cell_angle_gamma 22.408691
_cell_volume 428.983047
_symmetry_space_group_name_H-M "P -1"
_symmetry_group_IT_number 2
_symmetry_cell_setting 'triclinic'
loop_
_space_group_symop_operation_xyz
x,y,z
-x,-y,-z
loop_
_atom_site_type_symbol
_atom_site_label
_atom_site_fract_x
_atom_site_fract_y
_atom_site_fract_z
Si Si1 0.667619 0.782211 0.208500
Si Si2 0.715565 0.285523 0.704841
Si Si3 0.795942 0.067596 0.747725
Si Si4 0.824904 0.834190 0.379206
Si Si5 0.261219 0.378565 0.251708
O O1 0.530270 0.775769 0.237221
O O2 0.621603 0.723961 0.525038
O O3 0.017943 0.613403 0.096440
O O4 0.500000 0.000000 0.000000
O O5 0.500000 0.500000 0.500000
O O6 0.829240 0.156271 0.669503
O O7 0.984040 0.214201 0.610844
O O8 0.551259 0.272091 0.030985
O O9 0.000000 0.000000 0.500000
O O10 0.879069 0.891128 0.058157
O O11 0.901026 0.653704 0.585444
O O12 0.500000 0.000000 0.500000
#
# Coordination Sequence:
#
# PCOD8035748 Si02
#       5
#     2   2   2   2   2
#     4  11  25  46  75 110 149 198 247 317 381 445
#     4  12  29  47  75 111 154 201 255 312 378 451
#     4  12  27  44  75 111 153 195 253 310 379 444
#     4  12  26  48  78 108 152 201 256 310 375 455
#     4  11  26  49  76 111 152 198 259 309 377 460
#
# _framework density 23.310943999999999
#
# number of rings (size 3 to 8) (size 9 to 14) (size 15 to 20)
#    0.000    0.400    4.000    3.000    8.400    1.600 
#    0.000    5.000    0.000    0.000    0.000    0.000 
#    0.000    0.000    0.000    0.000    0.000    0.000 
#
# Total GULP energy -124009.878438 kJ/mol
# GULP energy per Si atom -12400.987844 kJ/mol
# Density = 2.325789 g / cm^3
# Si number density = 23.310944 Si / 1000 Ang^3
#
#
#
# Elastic Constant Matrix: (Units=GPa)
#
#
# Indices 1 2 3 4 5 6 
#
# 1 169.6697 55.3543 37.3218 3.6255 -5.9985 -24.5458
# 2 55.3543 131.2974 49.3005 -12.7504 1.5535 -8.2081
# 3 37.3218 49.3005 98.6604 0.6516 0.7372 -2.9057
# 4 3.6255 -12.7504 0.6516 43.9190 4.9983 2.8017
# 5 -5.9985 1.5535 0.7372 4.9983 41.1037 2.3671
# 6 -24.5458 -8.2081 -2.9057 2.8017 2.3671 48.6839
#
#
#
# Elastic Compliance Matrix: (Units=1/GPa)
#
#
# Indices 1 2 3 4 5 6 
#
# 1 0.007648 -0.002646 -0.001470 -0.001735 0.001260 0.003361
# 2 -0.002646 0.010735 -0.004376 0.003526 -0.001146 0.000068
# 3 -0.001470 -0.004376 0.012869 -0.001290 -0.000087 -0.000632
# 4 -0.001735 0.003526 -0.001290 0.024427 -0.003241 -0.001606
# 5 0.001260 -0.001146 -0.000087 -0.003241 0.024986 -0.000591
# 6 0.003361 0.000068 -0.000632 -0.001606 -0.000591 0.022330
#
#
# Mechanical properties :
#
#
# Convention : Reuss Voigt Hill
#
# Bulk Modulus (GPa) = 70.08483 75.95340 73.01912
# Shear Modulus (GPa) = 40.08495 43.91805 42.00150
#
# Velocity S-wave (km/s) = 4.15128 4.34523 4.24936
# Velocity P-wave (km/s) = 7.28752 7.60448 7.44769
#
# Compressibility (1/GPa) = 0.01426842
#
# Stress axis : x y z
#
# Youngs Moduli (GPa) = 130.74977 93.15193 77.70478
#
# Poissons Ratio (x) = 0.24646 0.11423
# Poissons Ratio (y) = 0.34593 0.34005
# Poissons Ratio (z) = 0.19221 0.40765
#
# Static dielectric constant tensor:
#      x y z
#    x 4.828260 0.172020 0.002990 
#    y 0.172020 4.678150 0.038770 
#    z 0.002990 0.038770 4.472960 
# 
# 
# High freq. dielectric constant tensor:
#      x y z
#    x 1.941410 -0.005250 0.007240 
#    y -0.005250 1.926350 -0.003800 
#    z 0.007240 -0.003800 1.929120 
# 
# From -- ./inp_files/29269.got.cif
#   From: 2010.06.25/outbox.cif.g09.slc.cpg/sg2_15_cif.got.tgz:29269.got - 2010.06.27 13:26:56.
