data_PCOD8035649
_publ_section_title
;
Structure prediction by ZEFSAII (Michael W. Deem and Ramdas Pophale) SiO2 
 PCOD8035649
Probable space group: P -1
;
_chemical_formula_sum "Si O2"
_cell_formula_units_Z 14
_cell_length_a 20.004737
_cell_length_b 19.977887
_cell_length_c 11.739706
_cell_angle_alpha 156.190068
_cell_angle_beta 143.435195
_cell_angle_gamma 21.600830
_cell_volume 660.788309
_symmetry_space_group_name_H-M "P -1"
_symmetry_group_IT_number 2
_symmetry_cell_setting 'triclinic'
loop_
_space_group_symop_operation_xyz
x,y,z
-x,-y,-z
loop_
_atom_site_type_symbol
_atom_site_label
_atom_site_fract_x
_atom_site_fract_y
_atom_site_fract_z
Si Si1 0.447792 0.118634 0.485642
Si Si2 0.999966 0.804429 0.690114
Si Si3 0.498283 0.734960 0.803287
Si Si4 0.018709 0.669472 0.753586
Si Si5 0.405835 0.283114 0.332330
Si Si6 0.386951 0.805646 0.323730
Si Si7 0.175073 0.883014 0.623546
O O1 0.240041 0.449983 0.721871
O O2 0.575117 0.116828 0.610285
O O3 0.500000 0.000000 0.500000
O O4 0.456753 0.956866 0.156486
O O5 0.944300 0.786883 0.706521
O O6 0.204505 0.495822 0.449026
O O7 0.840688 0.947328 0.602287
O O8 0.000000 0.000000 0.000000
O O9 0.615313 0.604662 0.643125
O O10 0.291468 0.896012 0.743615
O O11 0.651508 0.453921 0.651487
O O12 0.000000 0.500000 0.500000
O O13 0.904651 0.938217 0.092487
O O14 0.558814 0.190400 0.474651
O O15 0.500000 0.000000 0.000000
O O16 0.500000 0.500000 0.000000
O O17 0.000000 0.000000 0.500000
#
# Coordination Sequence:
#
# PCOD8035649 Si02
#       7
#     2   2   2   2   2   2   2
#     4  12  24  46  73 107 143 185 241 294 355 425
#     4  12  25  46  72 104 140 187 239 292 355 421
#     4  11  25  46  71 103 147 186 226 300 356 414
#     4  12  23  44  73 102 142 183 235 298 350 417
#     4  12  25  48  70 103 148 182 238 293 356 423
#     4  12  26  45  75 106 137 192 241 292 356 426
#     4  11  26  45  70 106 142 186 236 287 358 423
#
# _framework density 21.186814999999999
#
# number of rings (size 3 to 8) (size 9 to 14) (size 15 to 20)
#    0.000    0.286    5.714    2.571    0.000    5.143 
#    0.000    0.000    0.000    0.000    0.000    0.000 
#    0.000    0.000    0.000    0.000    0.000    0.000 
#
# Total GULP energy -173476.280778 kJ/mol
# GULP energy per Si atom -12391.162913 kJ/mol
# Density = 2.113859 g / cm^3
# Si number density = 21.186815 Si / 1000 Ang^3
#
#
#
# Elastic Constant Matrix: (Units=GPa)
#
#
# Indices 1 2 3 4 5 6 
#
# 1 119.3045 24.7712 46.8349 -11.5185 0.0072 6.1496
# 2 24.7712 146.4700 50.9156 -14.0275 -3.5212 -12.3766
# 3 46.8349 50.9156 138.3342 0.1889 -1.0380 -8.1042
# 4 -11.5185 -14.0275 0.1889 41.1150 -2.9325 -3.1352
# 5 0.0072 -3.5212 -1.0380 -2.9325 42.3063 1.5458
# 6 6.1496 -12.3766 -8.1042 -3.1352 1.5458 39.9392
#
#
#
# Elastic Compliance Matrix: (Units=1/GPa)
#
#
# Indices 1 2 3 4 5 6 
#
# 1 0.010176 -0.000479 -0.003401 0.002544 0.000132 -0.002211
# 2 -0.000479 0.008373 -0.002783 0.002965 0.000750 0.002307
# 3 -0.003401 -0.002783 0.009491 -0.001848 -0.000179 0.001449
# 4 0.002544 0.002965 -0.001848 0.026357 0.001950 0.002146
# 5 0.000132 0.000750 -0.000179 0.001950 0.023852 -0.000594
# 6 -0.002211 0.002307 0.001449 0.002146 -0.000594 0.026579
#
#
# Mechanical properties :
#
#
# Convention : Reuss Voigt Hill
#
# Bulk Modulus (GPa) = 67.96190 72.12802 70.04496
# Shear Modulus (GPa) = 40.63149 43.44455 42.03802
#
# Velocity S-wave (km/s) = 4.38399 4.53321 4.45922
# Velocity P-wave (km/s) = 7.60085 7.84332 7.72304
#
# Compressibility (1/GPa) = 0.01471413
#
# Stress axis : x y z
#
# Youngs Moduli (GPa) = 98.27048 119.43779 105.36685
#
# Poissons Ratio (x) = 0.05718 0.35836
# Poissons Ratio (y) = 0.04704 0.29322
# Poissons Ratio (z) = 0.33422 0.33237
#
# Static dielectric constant tensor:
#      x y z
#    x 3.935490 -0.151760 0.236150 
#    y -0.151760 4.011870 0.094830 
#    z 0.236150 0.094830 3.817750 
# 
# 
# High freq. dielectric constant tensor:
#      x y z
#    x 1.839550 -0.004820 0.005340 
#    y -0.004820 1.842370 0.006140 
#    z 0.005340 0.006140 1.845090 
# 
# From -- ./inp_files/188815.got.cif
#   From: 2010.06.25/outbox.cif.g09.slc.cpg/sg2_95_cif.got.tgz:188815.got - 2010.06.27 13:26:56.
