data_PCOD8035460
_publ_section_title
;
Structure prediction by ZEFSAII (Michael W. Deem and Ramdas Pophale) SiO2 
 PCOD8035460
Probable space group: P -1
;
_chemical_formula_sum "Si O2"
_cell_formula_units_Z 16
_cell_length_a 28.067058
_cell_length_b 9.085751
_cell_length_c 15.948772
_cell_angle_alpha 134.528107
_cell_angle_beta 161.106291
_cell_angle_gamma 36.086972
_cell_volume 731.718056
_symmetry_space_group_name_H-M "P -1"
_symmetry_group_IT_number 2
_symmetry_cell_setting 'triclinic'
loop_
_space_group_symop_operation_xyz
x,y,z
-x,-y,-z
loop_
_atom_site_type_symbol
_atom_site_label
_atom_site_fract_x
_atom_site_fract_y
_atom_site_fract_z
Si Si1 0.298930 0.711027 0.791145
Si Si2 0.059834 0.043788 0.820435
Si Si3 0.711683 0.781382 0.793756
Si Si4 0.040324 0.784704 0.092550
Si Si5 0.219132 0.406722 0.657645
Si Si6 0.754105 0.028007 0.569273
Si Si7 0.339453 0.416512 0.038502
Si Si8 0.220444 0.229232 0.913368
O O1 0.259768 0.579853 0.744988
O O2 0.304596 0.925918 0.931797
O O3 0.500000 0.500000 0.000000
O O4 0.136083 0.849909 0.505403
O O5 0.190957 0.730382 0.924746
O O6 0.018503 0.182400 0.896303
O O7 0.165112 0.119427 0.969455
O O8 0.797183 0.523408 0.777761
O O9 0.500000 0.000000 0.500000
O O10 0.718155 0.713041 0.875011
O O11 0.116279 0.947418 0.265445
O O12 0.856706 0.898443 0.776577
O O13 0.002387 0.579489 0.389786
O O14 0.285666 0.156225 0.613212
O O15 0.332033 0.311049 0.894204
O O16 0.552648 0.314920 0.364725
O O17 0.305025 0.279335 0.997403
#
# Coordination Sequence:
#
# PCOD8035460 Si02
#       8
#     2   2   2   2   2   2   2   2
#     4  12  27  44  72 104 139 178 223 284 344 405
#     4  12  26  46  71 102 137 178 229 282 339 404
#     4  12  27  47  72 100 137 184 227 279 337 404
#     4  11  26  45  70  96 142 177 227 279 334 401
#     4  12  23  48  70  99 139 176 224 282 342 398
#     4  11  25  45  69 102 135 180 224 282 336 399
#     4  12  27  42  75 102 134 178 228 282 339 403
#     4  12  25  46  71 100 141 175 225 282 341 399
#
# _framework density 21.866346
#
# number of rings (size 3 to 8) (size 9 to 14) (size 15 to 20)
#    0.000    0.250    3.750    4.500    8.750    0.500 
#    0.000    0.000    0.000    0.000    0.000    0.000 
#    0.000    0.000    0.000    0.000    0.000    0.000 
#
# Total GULP energy -198542.672281 kJ/mol
# GULP energy per Si atom -12408.917018 kJ/mol
# Density = 2.181658 g / cm^3
# Si number density = 21.866346 Si / 1000 Ang^3
#
#
#
# Elastic Constant Matrix: (Units=GPa)
#
#
# Indices 1 2 3 4 5 6 
#
# 1 127.7555 34.3950 54.3295 0.8916 -23.9617 -4.5687
# 2 34.3950 116.3877 32.8789 -1.4658 -8.8096 -5.1444
# 3 54.3295 32.8789 109.6329 -32.7261 1.4097 -8.7006
# 4 0.8916 -1.4658 -32.7261 37.6086 -5.1275 4.5301
# 5 -23.9617 -8.8096 1.4097 -5.1275 28.7017 -1.5265
# 6 -4.5687 -5.1444 -8.7006 4.5301 -1.5265 35.5969
#
#
#
# Elastic Compliance Matrix: (Units=1/GPa)
#
#
# Indices 1 2 3 4 5 6 
#
# 1 0.013747 -0.000899 -0.008541 -0.006459 0.010510 0.000820
# 2 -0.000899 0.009912 -0.003116 -0.002126 0.002113 0.000917
# 3 -0.008541 -0.003116 0.019154 0.015805 -0.006158 0.000860
# 4 -0.006459 -0.002126 0.015805 0.040752 0.000329 -0.002445
# 5 0.010510 0.002113 -0.006158 0.000329 0.044733 0.002026
# 6 0.000820 0.000917 0.000860 -0.002445 0.002026 0.028938
#
#
# Mechanical properties :
#
#
# Convention : Reuss Voigt Hill
#
# Bulk Modulus (GPa) = 56.49683 66.33143 61.41413
# Shear Modulus (GPa) = 26.56052 35.85962 31.21007
#
# Velocity S-wave (km/s) = 3.48900 4.05402 3.78208
# Velocity P-wave (km/s) = 6.49032 7.23286 6.87163
#
# Compressibility (1/GPa) = 0.01770011
#
# Stress axis : x y z
#
# Youngs Moduli (GPa) = 72.74070 100.89102 52.20942
#
# Poissons Ratio (x) = 0.09075 0.44592
# Poissons Ratio (y) = 0.06543 0.16268
# Poissons Ratio (z) = 0.62128 0.31436
#
# Static dielectric constant tensor:
#      x y z
#    x 4.078210 -0.051750 -0.037180 
#    y -0.051750 4.054780 -0.078030 
#    z -0.037180 -0.078030 4.024920 
# 
# 
# High freq. dielectric constant tensor:
#      x y z
#    x 1.870800 -0.001790 -0.001070 
#    y -0.001790 1.872600 -0.006070 
#    z -0.001070 -0.006070 1.871250 
# 
# From -- ./inp_files/242697.got.cif
#   From: 2010.06.25/outbox.cif.g09.slc.cpg/sg2_122_cif.got.tgz:242697.got - 2010.06.27 13:26:56.
