data_PCOD8035128
_publ_section_title
;
Structure prediction by ZEFSAII (Michael W. Deem and Ramdas Pophale) SiO2 
 PCOD8035128
Probable space group: P -1
;
_chemical_formula_sum "Si O2"
_cell_formula_units_Z 16
_cell_length_a 9.450174
_cell_length_b 6.589341
_cell_length_c 16.393613
_cell_angle_alpha 84.727027
_cell_angle_beta 72.912842
_cell_angle_gamma 47.108732
_cell_volume 706.334007
_symmetry_space_group_name_H-M "P -1"
_symmetry_group_IT_number 2
_symmetry_cell_setting 'triclinic'
loop_
_space_group_symop_operation_xyz
x,y,z
-x,-y,-z
loop_
_atom_site_type_symbol
_atom_site_label
_atom_site_fract_x
_atom_site_fract_y
_atom_site_fract_z
Si Si1 0.839536 0.047704 0.086474
Si Si2 0.089852 0.892528 0.354723
Si Si3 0.486521 0.632312 0.082217
Si Si4 0.486736 0.972046 0.875480
Si Si5 0.344530 0.503643 0.572143
Si Si6 0.153100 0.679596 0.182604
Si Si7 0.791906 0.583444 0.545985
Si Si8 0.418047 0.921371 0.313574
O O1 0.716305 0.968885 0.074176
O O2 0.950037 0.867816 0.155846
O O3 0.665880 0.381314 0.121499
O O4 0.000000 0.000000 0.000000
O O5 0.093364 0.726920 0.285364
O O6 0.164531 0.692412 0.426658
O O7 0.230667 0.957131 0.316444
O O8 0.861539 0.178766 0.393215
O O9 0.507068 0.856746 0.062544
O O10 0.265374 0.791556 0.149859
O O11 0.500000 0.500000 0.000000
O O12 0.474232 0.088344 0.784280
O O13 0.693254 0.644814 0.858206
O O14 0.500000 0.500000 0.500000
O O15 0.317247 0.328405 0.526773
O O16 0.419262 0.366530 0.653882
O O17 0.000000 0.500000 0.500000
O O18 0.654100 0.825832 0.626503
#
# Coordination Sequence:
#
# PCOD8035128 Si02
#       8
#     2   2   2   2   2   2   2   2
#     4  11  26  47  71 111 143 181 235 292 356 433
#     4  12  25  45  71 100 148 185 235 300 359 414
#     4  11  24  48  73 105 142 184 234 296 352 423
#     4  11  27  45  75 105 143 190 240 291 359 427
#     4  12  26  43  73 107 142 189 236 299 357 418
#     4  11  25  46  71 103 144 185 236 296 357 420
#     4  12  24  45  70  99 141 187 240 289 357 421
#     4  12  25  46  70 105 141 189 241 293 355 422
#
# _framework density 22.652173000000001
#
# number of rings (size 3 to 8) (size 9 to 14) (size 15 to 20)
#    0.000    0.500    6.250    1.500    1.750    6.500 
#    0.000    0.000    0.000    0.000    0.000    0.000 
#    0.000    0.000    0.000    0.000    0.000    0.000 
#
# Total GULP energy -198381.511529 kJ/mol
# GULP energy per Si atom -12398.844471 kJ/mol
# Density = 2.260062 g / cm^3
# Si number density = 22.652173 Si / 1000 Ang^3
#
#
#
# Elastic Constant Matrix: (Units=GPa)
#
#
# Indices 1 2 3 4 5 6 
#
# 1 140.1328 50.7988 36.2231 10.6414 4.3808 9.4242
# 2 50.7988 121.8351 25.9364 0.6908 17.5961 1.2012
# 3 36.2231 25.9364 79.1679 4.8806 5.8298 5.1751
# 4 10.6414 0.6908 4.8806 43.4877 6.6156 4.9314
# 5 4.3808 17.5961 5.8298 6.6156 38.6482 -8.1959
# 6 9.4242 1.2012 5.1751 4.9314 -8.1959 41.7905
#
#
#
# Elastic Compliance Matrix: (Units=1/GPa)
#
#
# Indices 1 2 3 4 5 6 
#
# 1 0.009339 -0.003367 -0.003047 -0.001905 0.001004 -0.001210
# 2 -0.003367 0.010622 -0.001673 0.001585 -0.004563 -0.000421
# 3 -0.003047 -0.001673 0.014787 -0.000543 -0.001303 -0.001287
# 4 -0.001905 0.001585 -0.000543 0.024719 -0.005402 -0.003525
# 5 0.001004 -0.004563 -0.001303 -0.005402 0.030372 0.006660
# 6 -0.001210 -0.000421 -0.001287 -0.003525 0.006660 0.026095
#
#
# Mechanical properties :
#
#
# Convention : Reuss Voigt Hill
#
# Bulk Modulus (GPa) = 53.84270 63.00579 58.42424
# Shear Modulus (GPa) = 36.15282 39.99712 38.07497
#
# Velocity S-wave (km/s) = 3.99933 4.20659 4.10427
# Velocity P-wave (km/s) = 6.71916 7.17417 6.95039
#
# Compressibility (1/GPa) = 0.01857262
#
# Stress axis : x y z
#
# Youngs Moduli (GPa) = 107.07559 94.14228 67.62471
#
# Poissons Ratio (x) = 0.31702 0.20607
# Poissons Ratio (y) = 0.36057 0.11317
# Poissons Ratio (z) = 0.32628 0.15754
#
# Static dielectric constant tensor:
#      x y z
#    x 4.444160 0.214720 -0.026230 
#    y 0.214720 4.518950 -0.204240 
#    z -0.026230 -0.204240 4.376880 
# 
# 
# High freq. dielectric constant tensor:
#      x y z
#    x 1.900570 0.000660 0.003050 
#    y 0.000660 1.898590 -0.006920 
#    z 0.003050 -0.006920 1.900250 
# 
# From -- ./inp_files/47279.got.cif
#   From: 2010.06.25/outbox.cif.g09.slc.cpg/sg2_24_cif.got.tgz:47279.got - 2010.06.27 13:26:56.
