data_PCOD8035521
_publ_section_title
;
Structure prediction by ZEFSAII (Michael W. Deem and Ramdas Pophale) SiO2 
 PCOD8035521
Probable space group: P -1
;
_chemical_formula_sum "Si O2"
_cell_formula_units_Z 12
_cell_length_a 9.076691
_cell_length_b 11.883893
_cell_length_c 9.818944
_cell_angle_alpha 142.095637
_cell_angle_beta 47.449283
_cell_angle_gamma 127.846930
_cell_volume 471.794905
_symmetry_space_group_name_H-M "P -1"
_symmetry_group_IT_number 2
_symmetry_cell_setting 'triclinic'
loop_
_space_group_symop_operation_xyz
x,y,z
-x,-y,-z
loop_
_atom_site_type_symbol
_atom_site_label
_atom_site_fract_x
_atom_site_fract_y
_atom_site_fract_z
Si Si1 0.099535 0.750095 0.191862
Si Si2 0.031838 0.677166 0.476568
Si Si3 0.675340 0.990920 0.275545
Si Si4 0.315631 0.426064 0.762876
Si Si5 0.707994 0.582843 0.806483
Si Si6 0.432951 0.078483 0.255395
O O1 0.010506 0.702534 0.353701
O O2 0.900801 0.697153 0.168345
O O3 0.207502 0.963654 0.320973
O O4 0.265223 0.620788 0.921234
O O5 0.185606 0.534580 0.266410
O O6 0.814763 0.596573 0.603499
O O7 0.118975 0.872360 0.681808
O O8 0.500000 0.000000 0.500000
O O9 0.601365 0.047430 0.229148
O O10 0.720990 0.784981 0.053730
O O11 0.474805 0.477152 0.835578
O O12 0.413128 0.296312 0.470165
O O13 0.500000 0.000000 0.000000
#
# Coordination Sequence:
#
# PCOD8035521 Si02
#       6
#     2   2   2   2   2   2
#     4  11  26  46  73 105 138 192 233 294 356 417
#     4  11  25  45  73 107 140 185 241 289 356 415
#     4  12  24  47  75 103 142 191 237 291 354 421
#     4  11  25  47  70 101 144 184 234 290 351 423
#     4  11  25  45  72 108 140 188 236 294 348 423
#     4  12  27  46  72 106 142 190 238 288 359 422
#
# _framework density 25.43478
#
# number of rings (size 3 to 8) (size 9 to 14) (size 15 to 20)
#    0.000    0.667    5.000    1.000    4.667    5.333 
#    0.000    0.000    0.000    0.000    0.000    0.000 
#    0.000    0.000    0.000    0.000    0.000    0.000 
#
# Total GULP energy -148794.421804 kJ/mol
# GULP energy per Si atom -12399.535150 kJ/mol
# Density = 2.537689 g / cm^3
# Si number density = 25.434780 Si / 1000 Ang^3
#
#
#
# Elastic Constant Matrix: (Units=GPa)
#
#
# Indices 1 2 3 4 5 6 
#
# 1 107.5172 22.6158 17.1865 19.0672 5.0294 16.0977
# 2 22.6158 76.3783 14.7562 12.3505 8.6953 2.9222
# 3 17.1865 14.7562 129.4375 37.4187 -4.2297 -20.6440
# 4 19.0672 12.3505 37.4187 51.5798 -2.3359 11.4371
# 5 5.0294 8.6953 -4.2297 -2.3359 33.6693 2.3571
# 6 16.0977 2.9222 -20.6440 11.4371 2.3571 35.2691
#
#
#
# Elastic Compliance Matrix: (Units=1/GPa)
#
#
# Indices 1 2 3 4 5 6 
#
# 1 0.011171 -0.002470 -0.001825 -0.001022 -0.000941 -0.005568
# 2 -0.002470 0.014752 -0.000700 -0.002396 -0.003731 0.000522
# 3 -0.001825 -0.000700 0.013421 -0.011643 0.000457 0.012492
# 4 -0.001022 -0.002396 -0.011643 0.032664 0.002760 -0.016927
# 5 -0.000941 -0.003731 0.000457 0.002760 0.031192 -0.001973
# 6 -0.005568 0.000522 0.012492 -0.016927 -0.001973 0.043784
#
#
# Mechanical properties :
#
#
# Convention : Reuss Voigt Hill
#
# Bulk Modulus (GPa) = 34.06613 46.93888 40.50251
# Shear Modulus (GPa) = 29.98365 41.35528 35.66946
#
# Velocity S-wave (km/s) = 3.43716 4.03666 3.74891
# Velocity P-wave (km/s) = 5.40136 6.34199 5.89048
#
# Compressibility (1/GPa) = 0.02935467
#
# Stress axis : x y z
#
# Youngs Moduli (GPa) = 89.51744 67.78959 74.51006
#
# Poissons Ratio (x) = 0.16742 0.13598
# Poissons Ratio (y) = 0.22108 0.05214
# Poissons Ratio (z) = 0.16337 0.04744
#
# Static dielectric constant tensor:
#      x y z
#    x 4.390790 0.198810 -0.196400 
#    y 0.198810 4.575500 0.316070 
#    z -0.196400 0.316070 4.804990 
# 
# 
# High freq. dielectric constant tensor:
#      x y z
#    x 2.020190 0.018820 -0.007470 
#    y 0.018820 1.999580 0.021740 
#    z -0.007470 0.021740 2.036930 
# 
# From -- ./inp_files/191035.got.cif
#   From: 2010.06.25/outbox.cif.g09.slc.cpg/sg2_96_cif.got.tgz:191035.got - 2010.06.27 13:26:56.
