data_PCOD8035273
_publ_section_title
;
Structure prediction by ZEFSAII (Michael W. Deem and Ramdas Pophale) SiO2 
 PCOD8035273
Probable space group: P -1
;
_chemical_formula_sum "Si O2"
_cell_formula_units_Z 14
_cell_length_a 6.403491
_cell_length_b 14.759086
_cell_length_c 11.583907
_cell_angle_alpha 39.136401
_cell_angle_beta 63.100976
_cell_angle_gamma 62.067219
_cell_volume 602.655386
_symmetry_space_group_name_H-M "P -1"
_symmetry_group_IT_number 2
_symmetry_cell_setting 'triclinic'
loop_
_space_group_symop_operation_xyz
x,y,z
-x,-y,-z
loop_
_atom_site_type_symbol
_atom_site_label
_atom_site_fract_x
_atom_site_fract_y
_atom_site_fract_z
Si Si1 0.363861 0.364023 0.291385
Si Si2 0.383656 0.720365 0.268415
Si Si3 0.895430 0.868659 0.357117
Si Si4 0.553157 0.009663 0.115813
Si Si5 0.723443 0.567456 0.500458
Si Si6 0.062146 0.065121 0.298361
Si Si7 0.876225 0.397507 0.048852
O O1 0.252586 0.220981 0.432484
O O2 0.365903 0.362702 0.427449
O O3 0.636150 0.352226 0.198938
O O4 0.189690 0.509478 0.142573
O O5 0.628177 0.702657 0.302190
O O6 0.409148 0.563173 0.360675
O O7 0.156763 0.769401 0.362313
O O8 0.388187 0.828589 0.053133
O O9 0.780507 0.904004 0.222945
O O10 0.903995 0.015483 0.283613
O O11 0.334103 0.994138 0.267513
O O12 0.500000 0.000000 0.000000
O O13 0.000000 0.500000 0.500000
O O14 0.045341 0.240786 0.133390
O O15 0.000000 0.000000 0.500000
O O16 0.000000 0.500000 0.000000
#
# Coordination Sequence:
#
# PCOD8035273 Si02
#       7
#     2   2   2   2   2   2   2
#     4  11  26  45  73 102 141 192 240 301 367 431
#     4  11  26  42  70 110 142 189 236 302 368 437
#     4  12  26  47  77 105 155 189 249 308 372 443
#     4  12  27  44  75 110 148 193 247 305 374 437
#     4  11  25  42  74 104 145 184 237 297 368 435
#     4  12  29  47  74 107 148 199 248 305 377 439
#     4  11  28  47  72 101 143 190 250 301 359 441
#
# _framework density 23.230526000000001
#
# number of rings (size 3 to 8) (size 9 to 14) (size 15 to 20)
#    0.000    0.571    2.857    3.000   10.000    3.429 
#    0.000    0.000    0.000    0.000    0.000    0.000 
#    0.000    0.000    0.000    0.000    0.000    0.000 
#
# Total GULP energy -173457.754262 kJ/mol
# GULP energy per Si atom -12389.839590 kJ/mol
# Density = 2.317765 g / cm^3
# Si number density = 23.230526 Si / 1000 Ang^3
#
#
#
# Elastic Constant Matrix: (Units=GPa)
#
#
# Indices 1 2 3 4 5 6 
#
# 1 121.9206 26.9619 35.6771 -4.1458 3.5495 -10.2044
# 2 26.9619 80.9854 7.4722 -10.6369 -7.9889 5.1200
# 3 35.6771 7.4722 112.2389 -2.5691 -10.4709 -12.9037
# 4 -4.1458 -10.6369 -2.5691 38.8011 -2.8203 -6.5866
# 5 3.5495 -7.9889 -10.4709 -2.8203 39.7101 -9.7770
# 6 -10.2044 5.1200 -12.9037 -6.5866 -9.7770 41.0795
#
#
#
# Elastic Compliance Matrix: (Units=1/GPa)
#
#
# Indices 1 2 3 4 5 6 
#
# 1 0.009992 -0.003334 -0.002963 0.000071 -0.001968 0.001510
# 2 -0.003334 0.014293 0.000363 0.003628 0.003246 -0.001141
# 3 -0.002963 0.000363 0.010689 0.001442 0.004196 0.003806
# 4 0.000071 0.003628 0.001442 0.028146 0.004481 0.005598
# 5 -0.001968 0.003246 0.004196 0.004481 0.029443 0.008150
# 6 0.001510 -0.001141 0.003806 0.005598 0.008150 0.028893
#
#
# Mechanical properties :
#
#
# Convention : Reuss Voigt Hill
#
# Bulk Modulus (GPa) = 43.27599 50.59635 46.93617
# Shear Modulus (GPa) = 35.45432 40.25371 37.85402
#
# Velocity S-wave (km/s) = 3.91089 4.16720 4.04108
# Velocity P-wave (km/s) = 6.25003 6.70682 6.48245
#
# Compressibility (1/GPa) = 0.02310750
#
# Stress axis : x y z
#
# Youngs Moduli (GPa) = 100.07685 69.96349 93.55231
#
# Poissons Ratio (x) = 0.23323 0.27717
# Poissons Ratio (y) = 0.33362 -0.03393
# Poissons Ratio (z) = 0.29650 -0.02538
#
# Static dielectric constant tensor:
#      x y z
#    x 4.818280 0.404690 -0.069240 
#    y 0.404690 4.109260 -0.430170 
#    z -0.069240 -0.430170 4.678050 
# 
# 
# High freq. dielectric constant tensor:
#      x y z
#    x 1.933290 0.006990 -0.000820 
#    y 0.006990 1.910560 -0.017270 
#    z -0.000820 -0.017270 1.937780 
# 
# From -- ./inp_files/89254.got.cif
#   From: 2010.06.25/outbox.cif.g09.slc.cpg/sg2_45_cif.got.tgz:89254.got - 2010.06.27 13:26:56.
