data_PCOD8035865
_publ_section_title
;
Structure prediction by ZEFSAII (Michael W. Deem and Ramdas Pophale) SiO2 
 PCOD8035865
Probable space group: P -1
;
_chemical_formula_sum "Si O2"
_cell_formula_units_Z 12
_cell_length_a 11.020454
_cell_length_b 8.886713
_cell_length_c 7.775162
_cell_angle_alpha 133.184568
_cell_angle_beta 73.688752
_cell_angle_gamma 126.933255
_cell_volume 432.567606
_symmetry_space_group_name_H-M "P -1"
_symmetry_group_IT_number 2
_symmetry_cell_setting 'triclinic'
loop_
_space_group_symop_operation_xyz
x,y,z
-x,-y,-z
loop_
_atom_site_type_symbol
_atom_site_label
_atom_site_fract_x
_atom_site_fract_y
_atom_site_fract_z
Si Si1 0.062409 0.271414 0.611755
Si Si2 0.622360 0.482861 0.811336
Si Si3 0.168723 0.081543 0.160415
Si Si4 0.922254 0.514030 0.711650
Si Si5 0.615282 0.347880 0.076369
Si Si6 0.568042 0.835053 0.669130
O O1 0.121731 0.267046 0.391051
O O2 0.199056 0.481955 0.847134
O O3 0.939125 0.340732 0.705682
O O4 0.000000 0.000000 0.500000
O O5 0.716719 0.777055 0.938828
O O6 0.739710 0.396549 0.687011
O O7 0.474620 0.298699 0.603358
O O8 0.567712 0.446990 0.007248
O O9 0.254971 0.047585 0.257181
O O10 0.016039 0.808140 0.960523
O O11 0.000000 0.500000 0.500000
O O12 0.545688 0.373499 0.301868
O O13 0.541556 0.054427 0.844292
#
# Coordination Sequence:
#
# PCOD8035865 Si02
#       6
#     2   2   2   2   2   2
#     4  12  27  48  76 111 147 198 251 304 377 437
#     4  12  26  46  77 114 146 199 255 299 372 446
#     4  12  26  49  76 107 157 196 245 311 371 441
#     4  12  26  48  75 109 153 195 246 313 366 440
#     4  11  25  47  75 109 148 200 249 303 376 435
#     4  11  25  51  73 107 159 194 244 313 368 442
#
# _framework density 27.741330000000001
#
# number of rings (size 3 to 8) (size 9 to 14) (size 15 to 20)
#    0.000    0.333    5.000    2.500    7.000    2.000 
#    0.000    0.000    0.000    0.000    0.000    0.000 
#    0.000    0.000    0.000    0.000    0.000    0.000 
#
# Total GULP energy -148866.473450 kJ/mol
# GULP energy per Si atom -12405.539454 kJ/mol
# Density = 2.767819 g / cm^3
# Si number density = 27.741330 Si / 1000 Ang^3
#
#
#
# Elastic Constant Matrix: (Units=GPa)
#
#
# Indices 1 2 3 4 5 6 
#
# 1 102.6407 18.2663 34.6752 -6.5080 7.9332 -31.3356
# 2 18.2663 136.9788 50.8652 -11.7893 -5.7839 -13.7044
# 3 34.6752 50.8652 134.2417 -18.4418 11.7855 -6.1426
# 4 -6.5080 -11.7893 -18.4418 46.7916 -0.9421 -4.0816
# 5 7.9332 -5.7839 11.7855 -0.9421 44.4241 2.0630
# 6 -31.3356 -13.7044 -6.1426 -4.0816 2.0630 44.2812
#
#
#
# Elastic Compliance Matrix: (Units=1/GPa)
#
#
# Indices 1 2 3 4 5 6 
#
# 1 0.013909 0.000223 -0.002811 0.001693 -0.002127 0.009777
# 2 0.000223 0.008944 -0.003333 0.001226 0.001919 0.002487
# 3 -0.002811 -0.003333 0.009941 0.002525 -0.002456 -0.001294
# 4 0.001693 0.001226 0.002525 0.023258 -0.000510 0.004095
# 5 -0.002127 0.001919 -0.002456 -0.000510 0.023893 -0.002412
# 6 0.009777 0.002487 -0.001294 0.004095 -0.002412 0.030582
#
#
# Mechanical properties :
#
#
# Convention : Reuss Voigt Hill
#
# Bulk Modulus (GPa) = 47.72435 64.60827 56.16631
# Shear Modulus (GPa) = 38.65429 45.10302 41.87865
#
# Velocity S-wave (km/s) = 3.73685 4.03655 3.88959
# Velocity P-wave (km/s) = 5.98828 6.71305 6.36099
#
# Compressibility (1/GPa) = 0.02095367
#
# Stress axis : x y z
#
# Youngs Moduli (GPa) = 71.89468 111.81183 100.59098
#
# Poissons Ratio (x) = -0.02492 0.28271
# Poissons Ratio (y) = -0.01603 0.33523
# Poissons Ratio (z) = 0.20206 0.37262
#
# Static dielectric constant tensor:
#      x y z
#    x 5.519370 -0.189750 -0.187110 
#    y -0.189750 5.353450 -0.393760 
#    z -0.187110 -0.393760 5.014000 
# 
# 
# High freq. dielectric constant tensor:
#      x y z
#    x 2.151550 -0.018530 -0.010250 
#    y -0.018530 2.130630 -0.011840 
#    z -0.010250 -0.011840 2.116330 
# 
# From -- ./inp_files/241457.got.cif
#   From: 2010.06.25/outbox.cif.g09.slc.cpg/sg2_121_cif.got.tgz:241457.got - 2010.06.27 13:26:56.
