data_PCOD8035378
_publ_section_title
;
Structure prediction by ZEFSAII (Michael W. Deem and Ramdas Pophale) SiO2 
 PCOD8035378
Probable space group: P -1
;
_chemical_formula_sum "Si O2"
_cell_formula_units_Z 16
_cell_length_a 12.640689
_cell_length_b 8.767423
_cell_length_c 15.857533
_cell_angle_alpha 77.628426
_cell_angle_beta 152.479632
_cell_angle_gamma 113.952652
_cell_volume 696.479018
_symmetry_space_group_name_H-M "P -1"
_symmetry_group_IT_number 2
_symmetry_cell_setting 'triclinic'
loop_
_space_group_symop_operation_xyz
x,y,z
-x,-y,-z
loop_
_atom_site_type_symbol
_atom_site_label
_atom_site_fract_x
_atom_site_fract_y
_atom_site_fract_z
Si Si1 0.675987 0.354404 0.984499
Si Si2 0.597122 0.759018 0.579145
Si Si3 0.658357 0.251362 0.431764
Si Si4 0.196378 0.992168 0.704239
Si Si5 0.143044 0.608034 0.712219
Si Si6 0.447080 0.348772 0.127628
Si Si7 0.005188 0.082589 0.725778
Si Si8 0.152135 0.482349 0.190964
O O1 0.476016 0.147971 0.854025
O O2 0.585160 0.493308 0.867737
O O3 0.702563 0.398794 0.096307
O O4 0.945390 0.387372 0.130187
O O5 0.470781 0.813324 0.560383
O O6 0.376985 0.672262 0.360825
O O7 0.699872 0.631410 0.708058
O O8 0.839740 0.927073 0.691951
O O9 0.439051 0.209871 0.210068
O O10 0.824810 0.150568 0.542657
O O11 0.841188 0.464959 0.528104
O O12 0.135439 0.016237 0.755112
O O13 0.185744 0.805072 0.708677
O O14 0.000000 0.000000 0.500000
O O15 0.268913 0.560713 0.726969
O O16 0.222612 0.243328 0.913738
O O17 0.000000 0.500000 0.000000
#
# Coordination Sequence:
#
# PCOD8035378 Si02
#       8
#     2   2   2   2   2   2   2   2
#     4  12  23  45  71  97 138 177 224 278 338 397
#     4  11  26  44  69  99 137 178 227 279 330 396
#     4  12  25  46  70  97 135 182 224 274 336 401
#     4  12  27  42  68 105 136 175 224 282 339 400
#     4  12  23  44  69  98 137 174 224 278 339 396
#     4  12  25  43  71  99 134 179 220 276 339 401
#     4  12  26  45  68 101 139 174 225 278 334 400
#     4  11  25  44  71 101 135 180 224 276 336 398
#
# _framework density 22.972694000000001
#
# number of rings (size 3 to 8) (size 9 to 14) (size 15 to 20)
#    0.000    0.250    3.750    5.250    5.250    1.500 
#    0.000    0.000    0.000    0.000    0.000    0.000 
#    0.000    0.000    0.000    0.000    0.000    0.000 
#
# Total GULP energy -198452.824504 kJ/mol
# GULP energy per Si atom -12403.301531 kJ/mol
# Density = 2.292041 g / cm^3
# Si number density = 22.972694 Si / 1000 Ang^3
#
#
#
# Elastic Constant Matrix: (Units=GPa)
#
#
# Indices 1 2 3 4 5 6 
#
# 1 62.4158 6.4232 8.1896 9.6558 13.7356 10.9672
# 2 6.4232 65.5858 7.2364 3.3841 9.6664 10.7319
# 3 8.1896 7.2364 79.5103 -15.5530 -1.5306 9.7300
# 4 9.6558 3.3841 -15.5530 42.5342 12.6462 5.9197
# 5 13.7356 9.6664 -1.5306 12.6462 40.3174 -3.6337
# 6 10.9672 10.7319 9.7300 5.9197 -3.6337 34.8049
#
#
#
# Elastic Compliance Matrix: (Units=1/GPa)
#
#
# Indices 1 2 3 4 5 6 
#
# 1 0.019034 0.000372 -0.001846 -0.002288 -0.006456 -0.005881
# 2 0.000372 0.016933 -0.000882 0.000490 -0.004886 -0.005685
# 3 -0.001846 -0.000882 0.014722 0.006850 -0.001159 -0.004548
# 4 -0.002288 0.000490 0.006850 0.030284 -0.009250 -0.007462
# 5 -0.006456 -0.004886 -0.001159 -0.009250 0.031821 0.008760
# 6 -0.005881 -0.005685 -0.004548 -0.007462 0.008760 0.035793
#
#
# Mechanical properties :
#
#
# Convention : Reuss Voigt Hill
#
# Bulk Modulus (GPa) = 21.75094 27.91225 24.83159
# Shear Modulus (GPa) = 29.65160 35.90881 32.78021
#
# Velocity S-wave (km/s) = 3.59657 3.95791 3.78156
# Velocity P-wave (km/s) = 5.17067 5.75007 5.46805
#
# Compressibility (1/GPa) = 0.04597503
#
# Stress axis : x y z
#
# Youngs Moduli (GPa) = 52.53858 59.05538 67.92752
#
# Poissons Ratio (x) = -0.02194 0.12542
# Poissons Ratio (y) = -0.01952 0.05991
# Poissons Ratio (z) = 0.09700 0.05208
#
# Static dielectric constant tensor:
#      x y z
#    x 4.155200 0.014680 0.054760 
#    y 0.014680 3.919160 -0.164180 
#    z 0.054760 -0.164180 4.407920 
# 
# 
# High freq. dielectric constant tensor:
#      x y z
#    x 1.910450 0.003320 0.003840 
#    y 0.003320 1.908560 -0.010080 
#    z 0.003840 -0.010080 1.919610 
# 
# From -- ./inp_files/400001.got.cif
#   From: 2010.06.25/outbox.cif.g09.slc.cpg/sg2_201_cif.got.tgz:400001.got - 2010.06.27 13:26:56.
