data_PCOD8035332
_publ_section_title
;
Structure prediction by ZEFSAII (Michael W. Deem and Ramdas Pophale) SiO2 
 PCOD8035332
Probable space group: P -1
;
_chemical_formula_sum "Si O2"
_cell_formula_units_Z 16
_cell_length_a 16.916333
_cell_length_b 13.961588
_cell_length_c 7.794001
_cell_angle_alpha 137.969164
_cell_angle_beta 130.076376
_cell_angle_gamma 33.644714
_cell_volume 681.223581
_symmetry_space_group_name_H-M "P -1"
_symmetry_group_IT_number 2
_symmetry_cell_setting 'triclinic'
loop_
_space_group_symop_operation_xyz
x,y,z
-x,-y,-z
loop_
_atom_site_type_symbol
_atom_site_label
_atom_site_fract_x
_atom_site_fract_y
_atom_site_fract_z
Si Si1 0.334688 0.626929 0.452252
Si Si2 0.762745 0.597732 0.609141
Si Si3 0.814884 0.947488 0.697474
Si Si4 0.248091 0.391881 0.999973
Si Si5 0.057039 0.319186 0.158112
Si Si6 0.114515 0.053626 0.571031
Si Si7 0.454182 0.970880 0.571695
Si Si8 0.168615 0.773888 0.746442
O O1 0.500000 0.500000 0.500000
O O2 0.298234 0.679373 0.671709
O O3 0.249103 0.820937 0.473784
O O4 0.300754 0.499910 0.170073
O O5 0.845035 0.634777 0.661145
O O6 0.808238 0.395534 0.340767
O O7 0.592589 0.778684 0.604513
O O8 0.807453 0.565951 0.827351
O O9 0.916860 0.768227 0.733413
O O10 0.858086 0.872367 0.460277
O O11 0.650948 0.061078 0.654522
O O12 0.837889 0.095227 0.948579
O O13 0.376316 0.160328 0.835824
O O14 0.110496 0.480116 0.811689
O O15 0.097797 0.166902 0.865962
O O16 0.972331 0.096155 0.398374
O O17 0.500000 0.000000 0.500000
#
# Coordination Sequence:
#
# PCOD8035332 Si02
#       8
#     2   2   2   2   2   2   2   2
#     4  11  25  43  76 109 145 195 242 299 366 437
#     4  11  25  46  77 106 143 195 245 299 368 437
#     4  12  28  45  78 109 145 196 242 303 368 435
#     4  11  26  46  76 106 143 197 249 297 368 435
#     4  12  24  50  80 106 148 190 248 308 357 436
#     4  12  25  48  78 108 147 193 246 302 369 430
#     4  12  28  47  66 108 154 194 237 304 369 437
#     4  11  25  49  73 108 146 188 250 301 364 433
#
# _framework density 23.487148999999999
#
# number of rings (size 3 to 8) (size 9 to 14) (size 15 to 20)
#    0.000    0.500    5.000    3.000    8.750    3.000 
#    0.000    0.000    0.000    0.000    0.000    0.000 
#    0.000    0.000    0.000    0.000    0.000    0.000 
#
# Total GULP energy -198512.732181 kJ/mol
# GULP energy per Si atom -12407.045761 kJ/mol
# Density = 2.343369 g / cm^3
# Si number density = 23.487149 Si / 1000 Ang^3
#
#
#
# Elastic Constant Matrix: (Units=GPa)
#
#
# Indices 1 2 3 4 5 6 
#
# 1 101.7388 14.4270 23.6920 -6.6230 8.1591 6.9705
# 2 14.4270 140.6820 16.9073 -11.8656 12.2141 5.0326
# 3 23.6920 16.9073 74.8091 -2.3094 8.0789 13.3693
# 4 -6.6230 -11.8656 -2.3094 31.5015 -2.4724 11.8670
# 5 8.1591 12.2141 8.0789 -2.4724 31.5399 -6.6951
# 6 6.9705 5.0326 13.3693 11.8670 -6.6951 42.9903
#
#
#
# Elastic Compliance Matrix: (Units=1/GPa)
#
#
# Indices 1 2 3 4 5 6 
#
# 1 0.010991 -0.000320 -0.002742 0.002546 -0.002230 -0.001942
# 2 -0.000320 0.007851 -0.000911 0.003333 -0.002878 -0.001952
# 3 -0.002742 -0.000911 0.015943 0.002041 -0.004051 -0.005601
# 4 0.002546 0.003333 0.002041 0.038152 -0.002091 -0.012295
# 5 -0.002230 -0.002878 -0.004051 -0.002091 0.035999 0.008142
# 6 -0.001942 -0.001952 -0.005601 -0.012295 0.008142 0.030208
#
#
# Mechanical properties :
#
#
# Convention : Reuss Voigt Hill
#
# Bulk Modulus (GPa) = 37.25788 47.47581 42.36684
# Shear Modulus (GPa) = 32.04393 38.68657 35.36525
#
# Velocity S-wave (km/s) = 3.69767 4.06290 3.88458
# Velocity P-wave (km/s) = 5.84191 6.50130 6.18041
#
# Compressibility (1/GPa) = 0.02683996
#
# Stress axis : x y z
#
# Youngs Moduli (GPa) = 90.98732 127.36829 62.72334
#
# Poissons Ratio (x) = 0.04073 0.17199
# Poissons Ratio (y) = 0.02910 0.05712
# Poissons Ratio (z) = 0.24949 0.11598
#
# Static dielectric constant tensor:
#      x y z
#    x 4.222050 -0.024730 0.138700 
#    y -0.024730 4.659270 0.084110 
#    z 0.138700 0.084110 4.286970 
# 
# 
# High freq. dielectric constant tensor:
#      x y z
#    x 1.940900 0.000170 0.005520 
#    y 0.000170 1.940190 0.003360 
#    z 0.005520 0.003360 1.932210 
# 
# From -- ./inp_files/335827.got.cif
#   From: 2010.06.25/outbox.cif.g09.slc.cpg/sg2_168_cif.got.tgz:335827.got - 2010.06.27 13:26:56.
