data_PCOD8035968
_publ_section_title
;
Structure prediction by ZEFSAII (Michael W. Deem and Ramdas Pophale) SiO2 
 PCOD8035968
Probable space group: P -1
;
_chemical_formula_sum "Si O2"
_cell_formula_units_Z 14
_cell_length_a 5.059400
_cell_length_b 15.183272
_cell_length_c 9.000049
_cell_angle_alpha 125.922972
_cell_angle_beta 101.412502
_cell_angle_gamma 78.143311
_cell_volume 545.314845
_symmetry_space_group_name_H-M "P -1"
_symmetry_group_IT_number 2
_symmetry_cell_setting 'triclinic'
loop_
_space_group_symop_operation_xyz
x,y,z
-x,-y,-z
loop_
_atom_site_type_symbol
_atom_site_label
_atom_site_fract_x
_atom_site_fract_y
_atom_site_fract_z
Si Si1 0.198200 0.126998 0.812814
Si Si2 0.363962 0.597868 0.841607
Si Si3 0.619214 0.212093 0.745190
Si Si4 0.073207 0.526777 0.201435
Si Si5 0.131221 0.929749 0.810083
Si Si6 0.570795 0.749550 0.791166
Si Si7 0.787753 0.741875 0.503531
O O1 0.458589 0.127851 0.737471
O O2 0.930169 0.160361 0.718271
O O3 0.206284 0.006237 0.759635
O O4 0.204601 0.219220 0.034224
O O5 0.369257 0.669638 0.762577
O O6 0.606199 0.498769 0.763381
O O7 0.410851 0.670044 0.062629
O O8 0.918801 0.453329 0.226464
O O9 0.497548 0.229497 0.584872
O O10 0.991116 0.654846 0.349534
O O11 0.000000 0.500000 0.000000
O O12 0.403670 0.863019 0.835647
O O13 0.923938 0.852102 0.645693
O O14 0.000000 0.000000 0.000000
O O15 0.721833 0.692882 0.609027
#
# Coordination Sequence:
#
# PCOD8035968 Si02
#       7
#     2   2   2   2   2   2   2
#     4  11  25  48  78 107 150 209 249 312 386 452
#     4  11  25  48  80 104 155 203 249 311 389 453
#     4  11  26  47  77 114 151 198 259 312 379 455
#     4  12  27  49  78 113 153 203 249 315 391 448
#     4  12  26  49  78 108 159 203 254 318 388 446
#     4  11  27  48  79 113 153 204 261 311 385 460
#     4  12  30  45  78 118 154 197 265 320 373 464
#
# _framework density 25.673245000000001
#
# number of rings (size 3 to 8) (size 9 to 14) (size 15 to 20)
#    0.000    0.571    2.857    4.286    8.000    2.286 
#    0.000    0.000    0.000    0.000    0.000    0.000 
#    0.000    0.000    0.000    0.000    0.000    0.000 
#
# Total GULP energy -173729.729630 kJ/mol
# GULP energy per Si atom -12409.266402 kJ/mol
# Density = 2.561481 g / cm^3
# Si number density = 25.673245 Si / 1000 Ang^3
#
#
#
# Elastic Constant Matrix: (Units=GPa)
#
#
# Indices 1 2 3 4 5 6 
#
# 1 77.1319 3.3067 4.4587 7.5421 9.8792 1.1471
# 2 3.3067 97.5054 13.4737 8.0727 4.7567 6.0597
# 3 4.4587 13.4737 99.2696 4.6588 -2.3036 5.2722
# 4 7.5421 8.0727 4.6588 37.6580 -3.6271 -4.8388
# 5 9.8792 4.7567 -2.3036 -3.6271 32.2888 0.0822
# 6 1.1471 6.0597 5.2722 -4.8388 0.0822 51.8356
#
#
#
# Elastic Compliance Matrix: (Units=1/GPa)
#
#
# Indices 1 2 3 4 5 6 
#
# 1 0.013920 0.000141 -0.000570 -0.003272 -0.004687 -0.000565
# 2 0.000141 0.010830 -0.001330 -0.002556 -0.002017 -0.001369
# 3 -0.000570 -0.001330 0.010398 -0.000915 0.001012 -0.000976
# 4 -0.003272 -0.002556 -0.000915 0.028710 0.004529 0.003137
# 5 -0.004687 -0.002017 0.001012 0.004529 0.033281 0.000607
# 6 -0.000565 -0.001369 -0.000976 0.003137 0.000607 0.019856
#
#
# Mechanical properties :
#
#
# Convention : Reuss Voigt Hill
#
# Bulk Modulus (GPa) = 31.61499 35.15391 33.38445
# Shear Modulus (GPa) = 38.15147 41.20097 39.67622
#
# Velocity S-wave (km/s) = 3.85910 4.01037 3.93546
# Velocity P-wave (km/s) = 5.67433 5.93014 5.80365
#
# Compressibility (1/GPa) = 0.03163056
#
# Stress axis : x y z
#
# Youngs Moduli (GPa) = 71.83775 92.33635 96.17205
#
# Poissons Ratio (x) = -0.01304 0.05478
# Poissons Ratio (y) = -0.01014 0.12795
# Poissons Ratio (z) = 0.04092 0.12285
#
# Static dielectric constant tensor:
#      x y z
#    x 4.750930 0.147990 -0.058380 
#    y 0.147990 4.700340 -0.030590 
#    z -0.058380 -0.030590 4.653830 
# 
# 
# High freq. dielectric constant tensor:
#      x y z
#    x 2.035590 0.007200 -0.001640 
#    y 0.007200 2.031870 -0.003670 
#    z -0.001640 -0.003670 2.023080 
# 
# From -- ./inp_files/135871.got.cif
#   From: 2010.06.25/outbox.cif.g09.slc.cpg/sg2_68_cif.got.tgz:135871.got - 2010.06.27 13:26:56.
