data_PCOD8035476
_publ_section_title
;
Structure prediction by ZEFSAII (Michael W. Deem and Ramdas Pophale) SiO2 
 PCOD8035476
Probable space group: P -1
;
_chemical_formula_sum "Si O2"
_cell_formula_units_Z 16
_cell_length_a 11.980501
_cell_length_b 8.862258
_cell_length_c 19.762892
_cell_angle_alpha 148.938942
_cell_angle_beta 139.875048
_cell_angle_gamma 50.073856
_cell_volume 697.155231
_symmetry_space_group_name_H-M "P -1"
_symmetry_group_IT_number 2
_symmetry_cell_setting 'triclinic'
loop_
_space_group_symop_operation_xyz
x,y,z
-x,-y,-z
loop_
_atom_site_type_symbol
_atom_site_label
_atom_site_fract_x
_atom_site_fract_y
_atom_site_fract_z
Si Si1 0.595028 0.643704 0.161193
Si Si2 0.470511 0.662961 0.843640
Si Si3 0.833553 0.446776 0.446164
Si Si4 0.271440 0.573348 0.350709
Si Si5 0.414743 0.108369 0.331026
Si Si6 0.118394 0.951089 0.221539
Si Si7 0.066997 0.119279 0.645889
Si Si8 0.197272 0.385312 0.103419
O O1 0.584117 0.479966 0.165193
O O2 0.787625 0.647369 0.221984
O O3 0.512547 0.958632 0.256269
O O4 0.500000 0.500000 0.000000
O O5 0.331448 0.572199 0.686756
O O6 0.655225 0.572771 0.867982
O O7 0.500000 0.000000 0.000000
O O8 0.835371 0.722948 0.604240
O O9 0.000000 0.500000 0.500000
O O10 0.846189 0.136461 0.369774
O O11 0.309056 0.384646 0.362403
O O12 0.435049 0.805583 0.510999
O O13 0.271028 0.360539 0.203811
O O14 0.087948 0.728787 0.328283
O O15 0.272608 0.890184 0.216384
O O16 0.105711 0.700050 0.177256
O O17 0.931061 0.901226 0.078513
O O18 0.000000 0.000000 0.500000
#
# Coordination Sequence:
#
# PCOD8035476 Si02
#       8
#     2   2   2   2   2   2   2   2
#     4  12  28  47  75 106 149 188 244 302 368 436
#     4  12  27  48  73 107 145 196 244 302 367 437
#     4  12  26  44  75 108 147 192 248 298 366 435
#     4  11  26  45  76 103 145 187 242 297 363 436
#     4  11  25  48  71 107 139 192 240 294 366 436
#     4  11  25  45  70 105 144 189 240 299 357 437
#     4  12  25  47  73 109 148 195 243 301 359 436
#     4  11  26  45  72 104 147 188 243 300 364 426
#
# _framework density 22.950413000000001
#
# number of rings (size 3 to 8) (size 9 to 14) (size 15 to 20)
#    0.000    0.500    2.500    4.500    8.750    3.500 
#    0.000    0.000    0.000    0.000    0.000    0.000 
#    0.000    0.000    0.000    0.000    0.000    0.000 
#
# Total GULP energy -198265.359191 kJ/mol
# GULP energy per Si atom -12391.584949 kJ/mol
# Density = 2.289818 g / cm^3
# Si number density = 22.950413 Si / 1000 Ang^3
#
#
#
# Elastic Constant Matrix: (Units=GPa)
#
#
# Indices 1 2 3 4 5 6 
#
# 1 122.3196 49.4900 59.2995 -16.6063 21.3763 7.3700
# 2 49.4900 108.2451 64.0936 -7.8185 1.6373 3.4287
# 3 59.2995 64.0936 182.5648 -31.4451 5.3121 2.8003
# 4 -16.6063 -7.8185 -31.4451 44.2775 -3.3930 -2.4155
# 5 21.3763 1.6373 5.3121 -3.3930 50.3285 -4.5241
# 6 7.3700 3.4287 2.8003 -2.4155 -4.5241 33.6899
#
#
#
# Elastic Compliance Matrix: (Units=1/GPa)
#
#
# Indices 1 2 3 4 5 6 
#
# 1 0.012033 -0.004033 -0.001988 0.001875 -0.004875 -0.002577
# 2 -0.004033 0.013079 -0.003610 -0.001652 0.001552 -0.000059
# 3 -0.001988 -0.003610 0.008138 0.004458 0.000449 0.000506
# 4 0.001875 -0.001652 0.004458 0.026289 0.000682 0.001364
# 5 -0.004875 0.001552 0.000449 0.000682 0.022239 0.003906
# 6 -0.002577 -0.000059 0.000506 0.001364 0.003906 0.030833
#
#
# Mechanical properties :
#
#
# Convention : Reuss Voigt Hill
#
# Bulk Modulus (GPa) = 71.50032 84.32176 77.91104
# Shear Modulus (GPa) = 36.62024 41.67559 39.14792
#
# Velocity S-wave (km/s) = 3.99886 4.26596 4.13457
# Velocity P-wave (km/s) = 7.24866 7.81570 7.53751
#
# Compressibility (1/GPa) = 0.01398595
#
# Stress axis : x y z
#
# Youngs Moduli (GPa) = 83.10675 76.45692 122.88279
#
# Poissons Ratio (x) = 0.30839 0.24430
# Poissons Ratio (y) = 0.33521 0.44365
# Poissons Ratio (z) = 0.16522 0.27604
#
# Static dielectric constant tensor:
#      x y z
#    x 3.255940 0.271950 0.704190 
#    y 0.271950 4.012640 -0.114090 
#    z 0.704190 -0.114090 3.635240 
# 
# 
# High freq. dielectric constant tensor:
#      x y z
#    x 1.918870 -0.002390 0.005760 
#    y -0.002390 1.908240 -0.006750 
#    z 0.005760 -0.006750 1.919480 
# 
# From -- ./inp_files/594318.got.cif
#   From: 2010.06.25/outbox.cif.g09.slc.cpg/sg2_298_cif.got.tgz:594318.got - 2010.06.27 13:26:56.
