data_PCOD8035453
_publ_section_title
;
Structure prediction by ZEFSAII (Michael W. Deem and Ramdas Pophale) SiO2 
 PCOD8035453
Probable space group: P -1
;
_chemical_formula_sum "Si O2"
_cell_formula_units_Z 16
_cell_length_a 14.992007
_cell_length_b 9.328254
_cell_length_c 8.421762
_cell_angle_alpha 89.937688
_cell_angle_beta 96.352541
_cell_angle_gamma 39.333085
_cell_volume 734.868385
_symmetry_space_group_name_H-M "P -1"
_symmetry_group_IT_number 2
_symmetry_cell_setting 'triclinic'
loop_
_space_group_symop_operation_xyz
x,y,z
-x,-y,-z
loop_
_atom_site_type_symbol
_atom_site_label
_atom_site_fract_x
_atom_site_fract_y
_atom_site_fract_z
Si Si1 0.635484 0.272373 0.823066
Si Si2 0.635306 0.206803 0.192148
Si Si3 0.369497 0.034180 0.309040
Si Si4 0.064541 0.600044 0.673152
Si Si5 0.936247 0.516708 0.828113
Si Si6 0.946083 0.996167 0.828925
Si Si7 0.633290 0.898179 0.322948
Si Si8 0.051239 0.122440 0.670346
O O1 0.500550 0.542347 0.761387
O O2 0.776399 0.181764 0.795616
O O3 0.615186 0.153474 0.718790
O O4 0.649022 0.217227 0.009143
O O5 0.618593 0.057783 0.212973
O O6 0.776787 0.092114 0.305976
O O7 0.234315 0.271489 0.192885
O O8 0.354752 0.070722 0.493286
O O9 0.501498 0.957356 0.264318
O O10 0.231852 0.362738 0.702504
O O11 0.980089 0.556990 0.683224
O O12 0.011848 0.738474 0.503100
O O13 0.029698 0.743415 0.817994
O O14 0.999786 0.280493 0.811253
O O15 0.000000 0.500000 0.000000
O O16 0.987063 0.044989 0.686907
O O17 0.000000 0.000000 0.000000
#
# Coordination Sequence:
#
# PCOD8035453 Si02
#       8
#     2   2   2   2   2   2   2   2
#     4  11  26  47  67  98 142 180 227 275 346 410
#     4  11  25  45  68 101 137 183 222 284 337 405
#     4  11  25  46  68 102 139 178 228 281 341 407
#     4  12  25  45  70 102 134 181 230 286 339 403
#     4  12  23  43  71 102 137 181 227 286 340 401
#     4  12  26  46  69 101 136 180 228 280 343 407
#     4  11  26  46  71 101 139 177 231 283 339 405
#     4  12  24  44  70 101 139 176 230 282 341 405
#
# _framework density 21.772606
#
# number of rings (size 3 to 8) (size 9 to 14) (size 15 to 20)
#    0.000    0.500    5.000    3.000    3.500    1.000 
#    0.000    0.000    0.000    0.000    0.000    0.000 
#    0.000    0.000    0.000    0.000    0.000    0.000 
#
# Total GULP energy -198510.932586 kJ/mol
# GULP energy per Si atom -12406.933287 kJ/mol
# Density = 2.172305 g / cm^3
# Si number density = 21.772606 Si / 1000 Ang^3
#
#
#
# Elastic Constant Matrix: (Units=GPa)
#
#
# Indices 1 2 3 4 5 6 
#
# 1 170.4291 72.4556 25.1899 -15.2690 6.1498 -24.6004
# 2 72.4556 179.6547 29.4850 -9.0435 15.9065 -29.7863
# 3 25.1899 29.4850 48.8947 -9.3415 6.7974 -7.8453
# 4 -15.2690 -9.0435 -9.3415 38.3748 4.3441 3.8866
# 5 6.1498 15.9065 6.7974 4.3441 36.8287 -2.9555
# 6 -24.6004 -29.7863 -7.8453 3.8866 -2.9555 37.8911
#
#
#
# Elastic Compliance Matrix: (Units=1/GPa)
#
#
# Indices 1 2 3 4 5 6 
#
# 1 0.007634 -0.002259 -0.001811 0.001795 0.000034 0.002624
# 2 -0.002259 0.007746 -0.002543 0.000161 -0.002204 0.003907
# 3 -0.001811 -0.002543 0.024548 0.004953 -0.003625 0.001117
# 4 0.001795 0.000161 0.004953 0.028654 -0.004743 -0.000992
# 5 0.000034 -0.002204 -0.003625 -0.004743 0.029353 0.000315
# 6 0.002624 0.003907 0.001117 -0.000992 0.000315 0.031524
#
#
# Mechanical properties :
#
#
# Convention : Reuss Voigt Hill
#
# Bulk Modulus (GPa) = 37.45192 72.58216 55.01704
# Shear Modulus (GPa) = 32.98458 40.74213 36.86335
#
# Velocity S-wave (km/s) = 3.89647 4.33049 4.11920
# Velocity P-wave (km/s) = 6.12226 7.64284 6.92442
#
# Compressibility (1/GPa) = 0.02670090
#
# Stress axis : x y z
#
# Youngs Moduli (GPa) = 130.99234 129.10191 40.73629
#
# Poissons Ratio (x) = 0.29167 0.07379
# Poissons Ratio (y) = 0.29594 0.10359
# Poissons Ratio (z) = 0.23729 0.32829
#
# Static dielectric constant tensor:
#      x y z
#    x -25.638800 -42.137230 1.732460 
#    y -42.137230 -54.659570 2.463430 
#    z 1.732460 2.463430 3.714830 
# 
# 
# High freq. dielectric constant tensor:
#      x y z
#    x 1.868550 -0.000110 -0.003860 
#    y -0.000110 1.871200 0.003140 
#    z -0.003860 0.003140 1.858140 
# 
# From -- ./inp_files/207312.got.cif
#   From: 2010.06.25/outbox.cif.g09.slc.cpg/sg2_104_cif.got.tgz:207312.got - 2010.06.27 13:26:56.
