data_PCOD8035543
_publ_section_title
;
Structure prediction by ZEFSAII (Michael W. Deem and Ramdas Pophale) SiO2 
 PCOD8035543
Probable space group: P -1
;
_chemical_formula_sum "Si O2"
_cell_formula_units_Z 16
_cell_length_a 8.222056
_cell_length_b 14.381835
_cell_length_c 13.192135
_cell_angle_alpha 48.977638
_cell_angle_beta 112.120049
_cell_angle_gamma 74.209487
_cell_volume 729.769658
_symmetry_space_group_name_H-M "P -1"
_symmetry_group_IT_number 2
_symmetry_cell_setting 'triclinic'
loop_
_space_group_symop_operation_xyz
x,y,z
-x,-y,-z
loop_
_atom_site_type_symbol
_atom_site_label
_atom_site_fract_x
_atom_site_fract_y
_atom_site_fract_z
Si Si1 0.106114 0.258127 0.807915
Si Si2 0.240406 0.785031 0.192705
Si Si3 0.635784 0.809273 0.718370
Si Si4 0.220613 0.496846 0.147067
Si Si5 0.515798 0.588753 0.190859
Si Si6 0.889341 0.786437 0.381331
Si Si7 0.270393 0.376746 0.465473
Si Si8 0.524470 0.147115 0.125045
O O1 0.225410 0.158085 0.799634
O O2 0.868428 0.294586 0.762767
O O3 0.952724 0.468702 0.615031
O O4 0.337104 0.146007 0.024507
O O5 0.374147 0.725401 0.156518
O O6 0.446701 0.713228 0.379743
O O7 0.000000 0.000000 0.000000
O O8 0.602249 0.702709 0.719901
O O9 0.495638 0.856427 0.757653
O O10 0.500000 0.000000 0.500000
O O11 0.946838 0.666339 0.905420
O O12 0.365147 0.551464 0.136682
O O13 0.166052 0.481027 0.259396
O O14 0.801531 0.391263 0.427801
O O15 0.535750 0.681150 0.042158
O O16 0.733887 0.768547 0.427420
O O17 0.818032 0.955178 0.294825
#
# Coordination Sequence:
#
# PCOD8035543 Si02
#       8
#     2   2   2   2   2   2   2   2
#     4  12  21  41  63  96 135 174 221 263 319 395
#     4  12  24  38  64 100 139 180 221 266 321 392
#     4  11  25  48  73  97 124 165 229 283 333 390
#     4  11  25  45  73  96 127 177 218 277 337 382
#     4  12  24  44  65  98 139 171 216 265 328 404
#     4  12  24  39  66  99 138 178 212 263 329 392
#     4  12  21  42  67  94 137 176 220 267 322 389
#     4  12  25  43  66  97 133 174 221 275 327 392
#
# _framework density 21.924728000000002
#
# number of rings (size 3 to 8) (size 9 to 14) (size 15 to 20)
#    0.000    0.250    5.000    4.875    0.000    3.500 
#    0.000    1.250    0.000    0.000    0.000    0.000 
#    0.000    0.000    0.000    0.000    0.000    0.000 
#
# Total GULP energy -198407.063898 kJ/mol
# GULP energy per Si atom -12400.441494 kJ/mol
# Density = 2.187483 g / cm^3
# Si number density = 21.924728 Si / 1000 Ang^3
#
#
#
# Elastic Constant Matrix: (Units=GPa)
#
#
# Indices 1 2 3 4 5 6 
#
# 1 80.1430 19.5821 24.8449 10.3223 1.6957 2.3938
# 2 19.5821 130.7205 50.7284 -15.3998 6.3724 -7.4315
# 3 24.8449 50.7284 111.7271 -8.9896 -2.6525 -7.9560
# 4 10.3223 -15.3998 -8.9896 38.9542 -6.4774 2.9841
# 5 1.6957 6.3724 -2.6525 -6.4774 30.0518 3.0091
# 6 2.3938 -7.4315 -7.9560 2.9841 3.0091 33.2034
#
#
#
# Elastic Compliance Matrix: (Units=1/GPa)
#
#
# Indices 1 2 3 4 5 6 
#
# 1 0.014614 -0.001624 -0.003097 -0.005407 -0.001767 -0.001513
# 2 -0.001624 0.009907 -0.003841 0.003058 -0.001820 0.001304
# 3 -0.003097 -0.003841 0.011747 0.002267 0.002338 0.001763
# 4 -0.005407 0.003058 0.002267 0.030045 0.006500 -0.001672
# 5 -0.001767 -0.001820 0.002338 0.006500 0.035723 -0.003541
# 6 -0.001513 0.001304 0.001763 -0.001672 -0.003541 0.031412
#
#
# Mechanical properties :
#
#
# Convention : Reuss Voigt Hill
#
# Bulk Modulus (GPa) = 52.24025 56.98903 54.61464
# Shear Modulus (GPa) = 31.85667 35.60424 33.73045
#
# Velocity S-wave (km/s) = 3.81596 4.03417 3.92658
# Velocity P-wave (km/s) = 6.57984 6.91006 6.74697
#
# Compressibility (1/GPa) = 0.01914233
#
# Stress axis : x y z
#
# Youngs Moduli (GPa) = 68.42912 100.93896 85.13144
#
# Poissons Ratio (x) = 0.16394 0.26365
# Poissons Ratio (y) = 0.11114 0.32701
# Poissons Ratio (z) = 0.21193 0.38773
#
# Static dielectric constant tensor:
#      x y z
#    x 4.160960 0.245350 -0.027450 
#    y 0.245350 4.198020 -0.199280 
#    z -0.027450 -0.199280 4.016220 
# 
# 
# High freq. dielectric constant tensor:
#      x y z
#    x 1.859980 -0.001470 -0.001170 
#    y -0.001470 1.869490 -0.017410 
#    z -0.001170 -0.017410 1.868510 
# 
# From -- ./inp_files/398622.got.cif
#   From: 2010.06.25/outbox.cif.g09.slc.cpg/sg2_200_cif.got.tgz:398622.got - 2010.06.27 13:26:56.
