data_PCOD8035015
_publ_section_title
;
Structure prediction by ZEFSAII (Michael W. Deem and Ramdas Pophale) SiO2 
 PCOD8035015
Probable space group: P -1
;
_chemical_formula_sum "Si O2"
_cell_formula_units_Z 14
_cell_length_a 11.452206
_cell_length_b 13.043678
_cell_length_c 5.140238
_cell_angle_alpha 87.208269
_cell_angle_beta 78.093075
_cell_angle_gamma 45.857511
_cell_volume 534.200383
_symmetry_space_group_name_H-M "P -1"
_symmetry_group_IT_number 2
_symmetry_cell_setting 'triclinic'
loop_
_space_group_symop_operation_xyz
x,y,z
-x,-y,-z
loop_
_atom_site_type_symbol
_atom_site_label
_atom_site_fract_x
_atom_site_fract_y
_atom_site_fract_z
Si Si1 0.662568 0.016446 0.643175
Si Si2 0.298587 0.197979 0.689459
Si Si3 0.769569 0.574281 0.634723
Si Si4 0.949292 0.872981 0.884867
Si Si5 0.483348 0.580551 0.747832
Si Si6 0.952765 0.400954 0.073208
Si Si7 0.187150 0.889126 0.678451
O O1 0.467676 0.117581 0.789973
O O2 0.699522 0.116911 0.578792
O O3 0.708649 0.916245 0.388111
O O4 0.785228 0.914569 0.837803
O O5 0.302270 0.269704 0.424087
O O6 0.142353 0.318825 0.928105
O O7 0.626171 0.578460 0.662969
O O8 0.832551 0.531132 0.907650
O O9 0.919683 0.456974 0.377157
O O10 0.046317 0.892345 0.634714
O O11 0.074077 0.705287 0.928210
O O12 0.907677 0.964455 0.142132
O O13 0.500000 0.500000 0.500000
O O14 0.306995 0.747423 0.822091
O O15 0.500000 0.500000 0.000000
#
# Coordination Sequence:
#
# PCOD8035015 Si02
#       7
#     2   2   2   2   2   2   2
#     4  11  24  48  73 106 149 193 248 307 368 436
#     4  11  25  47  72 109 150 195 253 299 367 446
#     4  12  26  48  74 107 151 198 248 302 374 437
#     4  11  25  44  75 107 143 193 246 305 375 435
#     4  12  27  48  75 110 148 192 245 307 372 444
#     4  12  26  48  73 110 149 198 247 306 363 443
#     4  11  24  47  72 107 144 189 247 307 369 441
#
# _framework density 26.207395000000002
#
# number of rings (size 3 to 8) (size 9 to 14) (size 15 to 20)
#    0.000    0.571    2.857    4.714    2.000    2.857 
#    2.571    0.000    0.000    0.000    0.000    0.000 
#    0.000    0.000    0.000    0.000    0.000    0.000 
#
# Total GULP energy -173572.968720 kJ/mol
# GULP energy per Si atom -12398.069194 kJ/mol
# Density = 2.614775 g / cm^3
# Si number density = 26.207395 Si / 1000 Ang^3
#
#
#
# Elastic Constant Matrix: (Units=GPa)
#
#
# Indices 1 2 3 4 5 6 
#
# 1 162.4695 16.5389 10.3081 -0.9755 -15.4410 6.9230
# 2 16.5389 99.4075 -2.1613 -11.8747 4.0924 23.9073
# 3 10.3081 -2.1613 65.8446 -8.6712 10.3895 13.3900
# 4 -0.9755 -11.8747 -8.6712 36.5499 4.0959 -9.8907
# 5 -15.4410 4.0924 10.3895 4.0959 36.5839 -8.7060
# 6 6.9230 23.9073 13.3900 -9.8907 -8.7060 45.1498
#
#
#
# Elastic Compliance Matrix: (Units=1/GPa)
#
#
# Indices 1 2 3 4 5 6 
#
# 1 0.006795 -0.001716 -0.002103 -0.001045 0.004021 0.001037
# 2 -0.001716 0.012991 0.003650 0.003495 -0.005508 -0.007995
# 3 -0.002103 0.003650 0.019347 0.004554 -0.009235 -0.008131
# 4 -0.001045 0.003495 0.004554 0.030848 -0.004920 0.002768
# 5 0.004021 -0.005508 -0.009235 -0.004920 0.035388 0.010785
# 6 0.001037 -0.007995 -0.008131 0.002768 0.010785 0.031320
#
#
# Mechanical properties :
#
#
# Convention : Reuss Voigt Hill
#
# Bulk Modulus (GPa) = 25.77599 41.89923 33.83761
# Shear Modulus (GPa) = 33.34259 43.85912 38.60085
#
# Velocity S-wave (km/s) = 3.57074 4.09533 3.84200
# Velocity P-wave (km/s) = 5.18238 6.19553 5.71146
#
# Compressibility (1/GPa) = 0.03879580
#
# Stress axis : x y z
#
# Youngs Moduli (GPa) = 147.17192 76.97367 51.68825
#
# Poissons Ratio (x) = 0.13208 0.10870
# Poissons Ratio (y) = 0.25253 -0.18867
# Poissons Ratio (z) = 0.30949 -0.28097
#
# Static dielectric constant tensor:
#      x y z
#    x 5.222090 0.174840 -0.447190 
#    y 0.174840 5.165400 -0.300000 
#    z -0.447190 -0.300000 4.495790 
# 
# 
# High freq. dielectric constant tensor:
#      x y z
#    x 2.075920 0.015120 -0.021110 
#    y 0.015120 2.069450 -0.015360 
#    z -0.021110 -0.015360 2.028640 
# 
# From -- ./inp_files/69674.got.cif
#   From: 2010.06.25/outbox.cif.g09.slc.cpg/sg2_35_cif.got.tgz:69674.got - 2010.06.27 13:26:56.
