data_PCOD8035339
_publ_section_title
;
Structure prediction by ZEFSAII (Michael W. Deem and Ramdas Pophale) SiO2 
 PCOD8035339
Probable space group: P -1
;
_chemical_formula_sum "Si O2"
_cell_formula_units_Z 12
_cell_length_a 12.872049
_cell_length_b 14.357519
_cell_length_c 9.995744
_cell_angle_alpha 116.477768
_cell_angle_beta 134.517728
_cell_angle_gamma 30.209809
_cell_volume 593.163483
_symmetry_space_group_name_H-M "P -1"
_symmetry_group_IT_number 2
_symmetry_cell_setting 'triclinic'
loop_
_space_group_symop_operation_xyz
x,y,z
-x,-y,-z
loop_
_atom_site_type_symbol
_atom_site_label
_atom_site_fract_x
_atom_site_fract_y
_atom_site_fract_z
Si Si1 0.502637 0.826456 0.176526
Si Si2 0.392926 0.270768 0.332182
Si Si3 0.072113 0.751003 0.959665
Si Si4 0.158543 0.174569 0.482839
Si Si5 0.435598 0.387932 0.690040
Si Si6 0.770376 0.564167 0.999530
O O1 0.691028 0.807062 0.382826
O O2 0.587469 0.678537 0.252427
O O3 0.574165 0.754071 0.042164
O O4 0.161709 0.062523 0.025622
O O5 0.492314 0.297595 0.542480
O O6 0.098219 0.401179 0.201269
O O7 0.634662 0.032787 0.385504
O O8 0.357436 0.346710 0.206247
O O9 0.243692 0.547635 0.044535
O O10 0.897390 0.831078 0.720069
O O11 0.300640 0.698575 0.097108
O O12 0.864489 0.363171 0.424191
#
# Coordination Sequence:
#
# PCOD8035339 Si02
#       6
#     2   2   2   2   2   2
#     4  12  23  41  70  97 124 174 221 260 315 386
#     4  11  25  44  66  97 132 169 217 270 319 382
#     4  12  25  41  68 100 133 166 215 271 323 377
#     4  12  23  41  70  97 124 174 221 260 315 386
#     4  12  25  41  68 100 133 166 215 271 323 377
#     4  11  25  44  66  97 132 169 217 270 319 382
#
# _framework density 20.230511
#
# number of rings (size 3 to 8) (size 9 to 14) (size 15 to 20)
#    0.000    0.333    6.667    3.000    0.000    2.667 
#    0.000    1.667    0.000    0.000    0.000    0.000 
#    0.000    0.000    0.000    0.000    0.000    0.000 
#
# Total GULP energy -148907.021512 kJ/mol
# GULP energy per Si atom -12408.918459 kJ/mol
# Density = 2.018447 g / cm^3
# Si number density = 20.230511 Si / 1000 Ang^3
#
#
#
# Elastic Constant Matrix: (Units=GPa)
#
#
# Indices 1 2 3 4 5 6 
#
# 1 54.6780 37.3780 58.2634 -0.7699 -4.4362 3.5265
# 2 37.3780 130.3195 34.9653 -9.2052 12.5604 -5.1470
# 3 58.2634 34.9653 48.1059 -0.8956 0.0572 -3.6768
# 4 -0.7699 -9.2052 -0.8956 32.0357 -9.3539 -0.3542
# 5 -4.4362 12.5604 0.0572 -9.3539 27.5235 -8.0712
# 6 3.5265 -5.1470 -3.6768 -0.3542 -8.0712 29.8932
#
#
#
# Elastic Compliance Matrix: (Units=1/GPa)
#
#
# Indices 1 2 3 4 5 6 
#
# 1 -0.054442 -0.001811 0.068251 -0.001112 -0.004581 0.013255
# 2 -0.001811 0.010087 -0.005094 0.001446 -0.004344 0.000168
# 3 0.068251 -0.005094 -0.059193 0.001267 0.009915 -0.013517
# 4 -0.001112 0.001446 0.001267 0.035315 0.012424 0.004309
# 5 -0.004581 -0.004344 0.009915 0.012424 0.045740 0.013509
# 6 0.013255 0.000168 -0.013517 0.004309 0.013509 0.033954
#
#
# Mechanical properties :
#
#
# Convention : Reuss Voigt Hill
#
# Bulk Modulus (GPa) = 52.23335 54.92408 53.57871
# Shear Modulus (GPa) = -47.68676 24.72359 -11.48158
#
# Velocity S-wave (km/s) = -4.86034 3.49964 -2.38489
# Velocity P-wave (km/s) = 2.37108 6.59834 4.35408
#
# Compressibility (1/GPa) = 0.01914486
#
# Stress axis : x y z
#
# Youngs Moduli (GPa) = -18.36834 99.13901 -16.89388
#
# Poissons Ratio (x) = 0.17950 1.15302
# Poissons Ratio (y) = -0.03326 -0.08605
# Poissons Ratio (z) = 1.25365 0.50499
#
# Static dielectric constant tensor:
#      x y z
#    x 3.573750 0.027030 0.086940 
#    y 0.027030 4.082480 -0.027160 
#    z 0.086940 -0.027160 3.561310 
# 
# 
# High freq. dielectric constant tensor:
#      x y z
#    x 1.786210 0.001570 0.006860 
#    y 0.001570 1.814250 -0.001070 
#    z 0.006860 -0.001070 1.784990 
# 
# From -- ./inp_files/90844.got.cif
#   From: 2010.06.25/outbox.cif.g09.slc.cpg/sg2_46_cif.got.tgz:90844.got - 2010.06.27 13:26:56.
