data_PCOD8035125
_publ_section_title
;
Structure prediction by ZEFSAII (Michael W. Deem and Ramdas Pophale) SiO2 
 PCOD8035125
Probable space group: P -1
;
_chemical_formula_sum "Si O2"
_cell_formula_units_Z 16
_cell_length_a 11.324245
_cell_length_b 5.823394
_cell_length_c 11.689888
_cell_angle_alpha 84.266727
_cell_angle_beta 103.006691
_cell_angle_gamma 62.678376
_cell_volume 648.680474
_symmetry_space_group_name_H-M "P -1"
_symmetry_group_IT_number 2
_symmetry_cell_setting 'triclinic'
loop_
_space_group_symop_operation_xyz
x,y,z
-x,-y,-z
loop_
_atom_site_type_symbol
_atom_site_label
_atom_site_fract_x
_atom_site_fract_y
_atom_site_fract_z
Si Si1 0.253039 0.552267 0.170679
Si Si2 0.631179 0.261925 0.602333
Si Si3 0.763839 0.596975 0.255242
Si Si4 0.811187 0.198707 0.098538
Si Si5 0.023758 0.673042 0.269007
Si Si6 0.853754 0.225186 0.500560
Si Si7 0.563073 0.196347 0.988728
Si Si8 0.533667 0.029597 0.767627
O O1 0.305866 0.661828 0.279884
O O2 0.130285 0.502144 0.198872
O O3 0.382597 0.280139 0.165632
O O4 0.181193 0.743677 0.036672
O O5 0.500000 0.500000 0.500000
O O6 0.755703 0.119196 0.542701
O O7 0.574116 0.068680 0.645607
O O8 0.738618 0.478885 0.137898
O O9 0.907966 0.594254 0.274091
O O10 0.770008 0.406342 0.367791
O O11 0.629356 0.877975 0.248009
O O12 0.956448 0.985122 0.199369
O O13 0.716013 0.054291 0.088522
O O14 0.114006 0.611156 0.406454
O O15 0.000000 0.000000 0.500000
O O16 0.575820 0.202992 0.852924
O O17 0.500000 0.500000 0.000000
O O18 0.500000 0.000000 0.000000
#
# Coordination Sequence:
#
# PCOD8035125 Si02
#       8
#     2   2   2   2   2   2   2   2
#     4  11  28  47  72 110 151 198 251 315 397 462
#     4  11  25  48  72 103 145 196 250 315 387 463
#     4  12  26  45  75 110 142 197 254 311 384 455
#     4  12  25  46  74 108 149 196 254 314 381 466
#     4  11  27  47  73 104 150 200 254 314 386 464
#     4  11  24  48  73 101 145 195 252 318 377 461
#     4  12  25  44  75 114 160 206 254 316 394 468
#     4  12  26  45  74 108 151 190 249 324 379 469
#
# _framework density 24.665459999999999
#
# number of rings (size 3 to 8) (size 9 to 14) (size 15 to 20)
#    0.000    0.500    5.000    2.250    3.500    3.000 
#    0.000    0.000    0.000    0.000    0.000    0.000 
#    0.000    0.000    0.000    0.000    0.000    0.000 
#
# Total GULP energy -198214.244964 kJ/mol
# GULP energy per Si atom -12388.390310 kJ/mol
# Density = 2.460932 g / cm^3
# Si number density = 24.665460 Si / 1000 Ang^3
#
#
#
# Elastic Constant Matrix: (Units=GPa)
#
#
# Indices 1 2 3 4 5 6 
#
# 1 151.2160 8.1194 32.2330 12.9299 -27.3882 -8.0355
# 2 8.1194 72.9942 4.3077 7.6675 -15.9642 -16.0510
# 3 32.2330 4.3077 128.1360 0.5234 -15.5988 2.2581
# 4 12.9299 7.6675 0.5234 31.2280 -4.1429 -1.3712
# 5 -27.3882 -15.9642 -15.5988 -4.1429 39.1498 -0.6770
# 6 -8.0355 -16.0510 2.2581 -1.3712 -0.6770 41.1750
#
#
#
# Elastic Compliance Matrix: (Units=1/GPa)
#
#
# Indices 1 2 3 4 5 6 
#
# 1 0.008187 0.001101 -0.001474 -0.002837 0.005325 0.002101
# 2 0.001101 0.017083 -0.000048 -0.003355 0.007481 0.006888
# 3 -0.001474 -0.000048 0.008478 0.000767 0.002396 -0.000706
# 4 -0.002837 -0.003355 0.000767 0.034046 0.000543 -0.000761
# 5 0.005325 0.007481 0.002396 0.000543 0.033407 0.004391
# 6 0.002101 0.006888 -0.000706 -0.000761 0.004391 0.027467
#
#
# Mechanical properties :
#
#
# Convention : Reuss Voigt Hill
#
# Bulk Modulus (GPa) = 30.38982 49.07403 39.73192
# Shear Modulus (GPa) = 35.59257 42.82297 39.20777
#
# Velocity S-wave (km/s) = 3.80282 4.17124 3.99128
# Velocity P-wave (km/s) = 5.62401 6.56795 6.11422
#
# Compressibility (1/GPa) = 0.03290576
#
# Stress axis : x y z
#
# Youngs Moduli (GPa) = 122.14910 58.53658 117.95898
#
# Poissons Ratio (x) = -0.06444 0.17382
# Poissons Ratio (y) = -0.13447 0.00568
# Poissons Ratio (z) = 0.18000 0.00282
#
# Static dielectric constant tensor:
#      x y z
#    x 4.987710 -0.520010 0.558340 
#    y -0.520010 4.808780 -2.164900 
#    z 0.558340 -2.164900 11.669650 
# 
# 
# High freq. dielectric constant tensor:
#      x y z
#    x 2.000360 -0.015380 -0.011880 
#    y -0.015380 1.954420 -0.011150 
#    z -0.011880 -0.011150 2.010330 
# 
# From -- ./inp_files/410575.got.cif
#   From: 2010.06.25/outbox.cif.g09.slc.cpg/sg2_206_cif.got.tgz:410575.got - 2010.06.27 13:26:56.
