data_PCOD8035551
_publ_section_title
;
Structure prediction by ZEFSAII (Michael W. Deem and Ramdas Pophale) SiO2 
 PCOD8035551
Probable space group: P -1
;
_chemical_formula_sum "Si O2"
_cell_formula_units_Z 10
_cell_length_a 9.208288
_cell_length_b 10.700875
_cell_length_c 8.095122
_cell_angle_alpha 85.430902
_cell_angle_beta 128.388996
_cell_angle_gamma 56.195514
_cell_volume 393.560780
_symmetry_space_group_name_H-M "P -1"
_symmetry_group_IT_number 2
_symmetry_cell_setting 'triclinic'
loop_
_space_group_symop_operation_xyz
x,y,z
-x,-y,-z
loop_
_atom_site_type_symbol
_atom_site_label
_atom_site_fract_x
_atom_site_fract_y
_atom_site_fract_z
Si Si1 0.255337 0.904131 0.932054
Si Si2 0.808813 0.723847 0.818953
Si Si3 0.676002 0.365411 0.796917
Si Si4 0.212334 0.739163 0.630763
Si Si5 0.358223 0.095041 0.655699
O O1 0.284749 0.804338 0.128623
O O2 0.480988 0.903489 0.092121
O O3 0.317740 0.792720 0.821990
O O4 0.922612 0.132061 0.649699
O O5 0.672143 0.795121 0.532970
O O6 0.554773 0.871174 0.762852
O O7 0.000000 0.500000 0.000000
O O8 0.002193 0.747051 0.973425
O O9 0.500000 0.500000 0.500000
O O10 0.500927 0.507860 0.818902
O O11 0.959385 0.784216 0.524954
#
# Coordination Sequence:
#
# PCOD8035551 Si02
#       5
#     2   2   2   2   2
#     4  11  25  45  74 102 142 184 235 288 348 416
#     4  11  26  44  70 104 146 179 234 294 347 416
#     4  12  26  46  71 107 141 186 234 290 352 412
#     4  11  26  46  73 104 142 185 234 288 348 419
#     4  11  25  47  70 105 139 187 233 286 352 415
#
# _framework density 25.409034999999999
#
# number of rings (size 3 to 8) (size 9 to 14) (size 15 to 20)
#    0.000    0.800    2.000    3.600    5.600    4.000 
#    0.000    0.000    0.000    0.000    0.000    0.000 
#    0.000    0.000    0.000    0.000    0.000    0.000 
#
# Total GULP energy -123996.439305 kJ/mol
# GULP energy per Si atom -12399.643931 kJ/mol
# Density = 2.535120 g / cm^3
# Si number density = 25.409035 Si / 1000 Ang^3
#
#
#
# Elastic Constant Matrix: (Units=GPa)
#
#
# Indices 1 2 3 4 5 6 
#
# 1 97.7506 19.6885 18.7372 -6.4564 -3.1577 13.9033
# 2 19.6885 73.9844 29.7014 -6.1078 4.9580 11.8135
# 3 18.7372 29.7014 95.9049 7.3031 -3.9344 4.5285
# 4 -6.4564 -6.1078 7.3031 57.1122 6.9986 1.1215
# 5 -3.1577 4.9580 -3.9344 6.9986 49.1862 -12.7317
# 6 13.9033 11.8135 4.5285 1.1215 -12.7317 40.6412
#
#
#
# Elastic Compliance Matrix: (Units=1/GPa)
#
#
# Indices 1 2 3 4 5 6 
#
# 1 0.011458 -0.001700 -0.001674 0.001431 -0.000304 -0.003374
# 2 -0.001700 0.017410 -0.005202 0.002935 -0.004057 -0.005251
# 3 -0.001674 -0.005202 0.012588 -0.002650 0.002172 0.001436
# 4 0.001431 0.002935 -0.002650 0.018845 -0.003812 -0.002762
# 5 -0.000304 -0.004057 0.002172 -0.003812 0.023651 0.008556
# 6 -0.003374 -0.005251 0.001436 -0.002762 0.008556 0.029883
#
#
# Mechanical properties :
#
#
# Convention : Reuss Voigt Hill
#
# Bulk Modulus (GPa) = 41.14484 44.87711 43.01098
# Shear Modulus (GPa) = 35.94857 42.68877 39.31867
#
# Velocity S-wave (km/s) = 3.76546 4.10330 3.93800
# Velocity P-wave (km/s) = 5.92731 6.33638 6.13526
#
# Compressibility (1/GPa) = 0.02430438
#
# Stress axis : x y z
#
# Youngs Moduli (GPa) = 87.27538 57.43951 79.43999
#
# Poissons Ratio (x) = 0.09764 0.13301
# Poissons Ratio (y) = 0.14835 0.41321
# Poissons Ratio (z) = 0.14612 0.29878
#
# Static dielectric constant tensor:
#      x y z
#    x 4.587100 0.010630 -0.380680 
#    y 0.010630 4.592940 0.004830 
#    z -0.380680 0.004830 5.471160 
# 
# 
# High freq. dielectric constant tensor:
#      x y z
#    x 2.015480 0.003940 -0.014270 
#    y 0.003940 2.011470 -0.001410 
#    z -0.014270 -0.001410 2.037530 
# 
# From -- ./inp_files/144282.got.cif
#   From: 2010.06.25/outbox.cif.g09.slc.cpg/sg2_73_cif.got.tgz:144282.got - 2010.06.27 13:26:56.
