data_PCOD8035550
_publ_section_title
;
Structure prediction by ZEFSAII (Michael W. Deem and Ramdas Pophale) SiO2 
 PCOD8035550
Probable space group: P -1
;
_chemical_formula_sum "Si O2"
_cell_formula_units_Z 14
_cell_length_a 14.807154
_cell_length_b 6.739786
_cell_length_c 24.068155
_cell_angle_alpha 124.177619
_cell_angle_beta 161.029589
_cell_angle_gamma 55.772118
_cell_volume 641.599838
_symmetry_space_group_name_H-M "P -1"
_symmetry_group_IT_number 2
_symmetry_cell_setting 'triclinic'
loop_
_space_group_symop_operation_xyz
x,y,z
-x,-y,-z
loop_
_atom_site_type_symbol
_atom_site_label
_atom_site_fract_x
_atom_site_fract_y
_atom_site_fract_z
Si Si1 0.180696 0.552743 0.339443
Si Si2 0.042911 0.468266 0.676609
Si Si3 0.211975 0.605775 0.598517
Si Si4 0.506830 0.945375 0.135519
Si Si5 0.060285 0.827596 0.932497
Si Si6 0.815471 0.333418 0.901213
Si Si7 0.207239 0.993208 0.859156
O O1 0.500000 0.500000 0.500000
O O2 0.168969 0.554790 0.399617
O O3 0.024166 0.332496 0.192514
O O4 0.033343 0.802162 0.268198
O O5 0.923026 0.353871 0.534083
O O6 0.093949 0.742238 0.739278
O O7 0.334486 0.305829 0.834318
O O8 0.277229 0.858991 0.701649
O O9 0.491557 0.425647 0.725453
O O10 0.000000 0.500000 0.500000
O O11 0.261981 0.030628 0.962308
O O12 0.362323 0.910109 0.105530
O O13 0.077618 0.670549 0.973829
O O14 0.838849 0.063952 0.847892
O O15 0.000000 0.500000 0.000000
O O16 0.500000 0.000000 0.000000
#
# Coordination Sequence:
#
# PCOD8035550 Si02
#       7
#     2   2   2   2   2   2   2
#     4  12  29  44  71 108 148 190 238 303 369 424
#     4  12  27  45  72 108 146 182 241 306 360 428
#     4  12  27  45  74 107 147 187 240 305 376 420
#     4  12  23  48  75 104 141 191 247 298 359 437
#     4  11  25  45  74 102 140 191 248 294 354 441
#     4  11  25  47  72 103 141 193 243 296 359 442
#     4  12  24  47  74  99 141 190 240 288 356 432
#
# _framework density 21.820454000000002
#
# number of rings (size 3 to 8) (size 9 to 14) (size 15 to 20)
#    0.000    0.286    4.286    4.286    4.000    0.571 
#    0.000    0.000    0.000    0.000    0.000    0.000 
#    0.000    0.000    0.000    0.000    0.000    0.000 
#
# Total GULP energy -173694.516690 kJ/mol
# GULP energy per Si atom -12406.751192 kJ/mol
# Density = 2.177079 g / cm^3
# Si number density = 21.820454 Si / 1000 Ang^3
#
#
#
# Elastic Constant Matrix: (Units=GPa)
#
#
# Indices 1 2 3 4 5 6 
#
# 1 152.8053 42.8270 44.5566 -8.0098 15.7269 15.0244
# 2 42.8270 130.7589 51.5880 -7.8715 10.8223 3.0220
# 3 44.5566 51.5880 96.6565 -5.0306 14.4906 5.8379
# 4 -8.0098 -7.8715 -5.0306 43.2325 -10.5644 2.3149
# 5 15.7269 10.8223 14.4906 -10.5644 54.6664 0.6783
# 6 15.0244 3.0220 5.8379 2.3149 0.6783 38.3599
#
#
#
# Elastic Compliance Matrix: (Units=1/GPa)
#
#
# Indices 1 2 3 4 5 6 
#
# 1 0.008133 -0.001428 -0.002606 0.000801 -0.001178 -0.002704
# 2 -0.001428 0.010004 -0.004633 0.000956 -0.000162 0.000421
# 3 -0.002606 -0.004633 0.014382 -0.000141 -0.002163 -0.000757
# 4 0.000801 0.000956 -0.000141 0.024615 0.004399 -0.001931
# 5 -0.001178 -0.000162 -0.002163 0.004399 0.020085 0.000183
# 6 -0.002704 0.000421 -0.000757 -0.001931 0.000183 0.027323
#
#
# Mechanical properties :
#
#
# Convention : Reuss Voigt Hill
#
# Bulk Modulus (GPa) = 65.84248 73.12932 69.48590
# Shear Modulus (GPa) = 39.38934 43.33506 41.36220
#
# Velocity S-wave (km/s) = 4.25332 4.46127 4.35854
# Velocity P-wave (km/s) = 7.37300 7.75398 7.56589
#
# Compressibility (1/GPa) = 0.01518776
#
# Stress axis : x y z
#
# Youngs Moduli (GPa) = 122.95141 99.95760 69.52939
#
# Poissons Ratio (x) = 0.14270 0.18117
# Poissons Ratio (y) = 0.17553 0.32211
# Poissons Ratio (z) = 0.32037 0.46308
#
# Static dielectric constant tensor:
#      x y z
#    x 4.124600 0.019210 -0.014880 
#    y 0.019210 4.188890 -0.123430 
#    z -0.014880 -0.123430 3.869270 
# 
# 
# High freq. dielectric constant tensor:
#      x y z
#    x 1.878370 -0.000220 0.002000 
#    y -0.000220 1.876610 -0.001570 
#    z 0.002000 -0.001570 1.849530 
# 
# From -- ./inp_files/101312.got.cif
#   From: 2010.06.25/outbox.cif.g09.slc.cpg/sg2_51_cif.got.tgz:101312.got - 2010.06.27 13:26:56.
