data_PCOD8035656
_publ_section_title
;
Structure prediction by ZEFSAII (Michael W. Deem and Ramdas Pophale) SiO2 
 PCOD8035656
Probable space group: P -1
;
_chemical_formula_sum "Si O2"
_cell_formula_units_Z 16
_cell_length_a 11.877529
_cell_length_b 11.835052
_cell_length_c 14.406020
_cell_angle_alpha 97.988220
_cell_angle_beta 159.833820
_cell_angle_gamma 83.027494
_cell_volume 691.113933
_symmetry_space_group_name_H-M "P -1"
_symmetry_group_IT_number 2
_symmetry_cell_setting 'triclinic'
loop_
_space_group_symop_operation_xyz
x,y,z
-x,-y,-z
loop_
_atom_site_type_symbol
_atom_site_label
_atom_site_fract_x
_atom_site_fract_y
_atom_site_fract_z
Si Si1 0.274708 0.188539 0.933746
Si Si2 0.310435 0.742728 0.907197
Si Si3 0.910881 0.528167 0.539348
Si Si4 0.972173 0.956423 0.705239
Si Si5 0.774918 0.575024 0.770710
Si Si6 0.337910 0.696970 0.584190
Si Si7 0.754483 0.063462 0.882566
Si Si8 0.334713 0.696124 0.122732
O O1 0.238312 0.051591 0.887496
O O2 0.910506 0.235174 0.664956
O O3 0.400373 0.234345 0.937603
O O4 0.510193 0.230566 0.204205
O O5 0.209503 0.609133 0.812083
O O6 0.428088 0.757867 0.105040
O O7 0.029764 0.835996 0.681696
O O8 0.869814 0.412274 0.551208
O O9 0.594013 0.599477 0.328015
O O10 0.000000 0.500000 0.500000
O O11 0.605076 0.998639 0.404559
O O12 0.046420 0.938281 0.868176
O O13 0.500000 0.500000 0.500000
O O14 0.627410 0.668026 0.735551
O O15 0.000000 0.500000 0.000000
O O16 0.979832 0.634227 0.852281
O O17 0.676935 0.194166 0.804311
O O18 0.000000 0.000000 0.000000
#
# Coordination Sequence:
#
# PCOD8035656 Si02
#       8
#     2   2   2   2   2   2   2   2
#     4  12  27  46  72 104 146 186 238 298 355 429
#     4  11  25  46  71 106 139 192 240 295 361 418
#     4  12  23  43  71 100 147 185 238 293 347 431
#     4  11  25  47  72 104 143 181 245 292 362 421
#     4  12  26  46  70  99 145 186 233 293 352 425
#     4  12  27  45  69 108 140 190 240 288 364 423
#     4  11  25  47  72 106 139 190 236 296 357 420
#     4  11  26  44  72 104 143 188 238 298 355 427
#
# _framework density 23.151031
#
# number of rings (size 3 to 8) (size 9 to 14) (size 15 to 20)
#    0.000    0.500    3.750    3.750    5.250    1.000 
#    0.000    3.125    0.000    0.000    0.000    0.000 
#    0.000    0.000    0.000    0.000    0.000    0.000 
#
# Total GULP energy -198280.555514 kJ/mol
# GULP energy per Si atom -12392.534720 kJ/mol
# Density = 2.309834 g / cm^3
# Si number density = 23.151031 Si / 1000 Ang^3
#
#
#
# Elastic Constant Matrix: (Units=GPa)
#
#
# Indices 1 2 3 4 5 6 
#
# 1 77.5534 8.6361 13.3164 4.9173 7.5766 -8.5640
# 2 8.6361 104.5975 22.4652 15.6178 1.0329 -10.9362
# 3 13.3164 22.4652 99.9989 4.4786 -3.9095 -8.1563
# 4 4.9173 15.6178 4.4786 44.1504 0.3336 7.6640
# 5 7.5766 1.0329 -3.9095 0.3336 34.6599 0.0691
# 6 -8.5640 -10.9362 -8.1563 7.6640 0.0691 33.6302
#
#
#
# Elastic Compliance Matrix: (Units=1/GPa)
#
#
# Indices 1 2 3 4 5 6 
#
# 1 0.014017 -0.000116 -0.001585 -0.001960 -0.003228 0.003600
# 2 -0.000116 0.011085 -0.001961 -0.004419 -0.000492 0.004108
# 3 -0.001585 -0.001961 0.010880 -0.000544 0.001634 0.001718
# 4 -0.001960 -0.004419 -0.000544 0.025867 0.000266 -0.007963
# 5 -0.003228 -0.000492 0.001634 0.000266 0.029755 -0.000707
# 6 0.003600 0.004108 0.001718 -0.007963 -0.000707 0.034221
#
#
# Mechanical properties :
#
#
# Convention : Reuss Voigt Hill
#
# Bulk Modulus (GPa) = 34.89486 41.22059 38.05773
# Shear Modulus (GPa) = 35.03805 38.33690 36.68748
#
# Velocity S-wave (km/s) = 3.89454 4.07375 3.98515
# Velocity P-wave (km/s) = 5.94379 6.32226 6.13594
#
# Compressibility (1/GPa) = 0.02865751
#
# Stress axis : x y z
#
# Youngs Moduli (GPa) = 71.34383 90.20894 91.91032
#
# Poissons Ratio (x) = 0.01045 0.14570
# Poissons Ratio (y) = 0.00827 0.18026
# Poissons Ratio (z) = 0.11310 0.17692
#
# Static dielectric constant tensor:
#      x y z
#    x 4.460530 -0.107270 0.250990 
#    y -0.107270 4.904900 0.025780 
#    z 0.250990 0.025780 4.122210 
# 
# 
# High freq. dielectric constant tensor:
#      x y z
#    x 1.912670 -0.006700 0.012760 
#    y -0.006700 1.936300 0.001330 
#    z 0.012760 0.001330 1.915160 
# 
# From -- ./inp_files/68473.got.cif
#   From: 2010.06.25/outbox.cif.g09.slc.cpg/sg2_35_cif.got.tgz:68473.got - 2010.06.27 13:26:56.
