data_PCOD8035040
_publ_section_title
;
Structure prediction by ZEFSAII (Michael W. Deem and Ramdas Pophale) SiO2 
 PCOD8035040
Probable space group: P -1
;
_chemical_formula_sum "Si O2"
_cell_formula_units_Z 16
_cell_length_a 11.775564
_cell_length_b 14.829717
_cell_length_c 8.810482
_cell_angle_alpha 89.157370
_cell_angle_beta 82.406840
_cell_angle_gamma 150.692309
_cell_volume 719.256340
_symmetry_space_group_name_H-M "P -1"
_symmetry_group_IT_number 2
_symmetry_cell_setting 'triclinic'
loop_
_space_group_symop_operation_xyz
x,y,z
-x,-y,-z
loop_
_atom_site_type_symbol
_atom_site_label
_atom_site_fract_x
_atom_site_fract_y
_atom_site_fract_z
Si Si1 0.104952 0.489651 0.076281
Si Si2 0.483687 0.461852 0.777864
Si Si3 0.061530 0.279248 0.477720
Si Si4 0.202525 0.574398 0.411584
Si Si5 0.686944 0.074920 0.065249
Si Si6 0.551776 0.689527 0.943542
Si Si7 0.587962 0.969166 0.402417
Si Si8 0.067851 0.899054 0.195101
O O1 0.200942 0.574967 0.226977
O O2 0.885105 0.268103 0.119114
O O3 0.333534 0.606012 0.941263
O O4 0.000000 0.500000 0.000000
O O5 0.692497 0.603175 0.609725
O O6 0.550611 0.596561 0.855345
O O7 0.219081 0.288958 0.760558
O O8 0.481394 0.365937 0.874407
O O9 0.144768 0.437713 0.498278
O O10 0.901948 0.123492 0.643842
O O11 0.872425 0.149251 0.375140
O O12 0.435370 0.771828 0.463495
O O13 0.000000 0.500000 0.500000
O O14 0.525808 0.927385 0.234828
O O15 0.818827 0.088256 0.949443
O O16 0.500000 0.000000 0.000000
O O17 0.804077 0.915269 0.855126
O O18 0.500000 0.000000 0.500000
#
# Coordination Sequence:
#
# PCOD8035040 Si02
#       8
#     2   2   2   2   2   2   2   2
#     4  12  24  45  71 107 144 185 241 302 361 430
#     4  11  25  48  75 102 148 191 246 296 360 434
#     4  12  27  47  71 108 148 192 241 300 366 436
#     4  12  25  44  70 100 146 194 234 294 369 430
#     4  12  24  43  71 107 145 187 243 298 357 433
#     4  11  24  47  74 106 141 192 243 300 357 429
#     4  12  24  45  70 101 144 192 241 296 363 435
#     4  12  27  45  73 108 145 187 246 301 360 430
#
# _framework density 22.245199
#
# number of rings (size 3 to 8) (size 9 to 14) (size 15 to 20)
#    0.000    0.250    5.000    3.750    3.500    3.500 
#    0.000    0.000    0.000    0.000    0.000    0.000 
#    0.000    0.000    0.000    0.000    0.000    0.000 
#
# Total GULP energy -198260.005660 kJ/mol
# GULP energy per Si atom -12391.250354 kJ/mol
# Density = 2.219457 g / cm^3
# Si number density = 22.245199 Si / 1000 Ang^3
#
#
#
# Elastic Constant Matrix: (Units=GPa)
#
#
# Indices 1 2 3 4 5 6 
#
# 1 118.9388 38.6070 45.7449 -0.9058 -12.0007 0.6063
# 2 38.6070 161.7835 25.5676 -2.2895 -5.0512 -8.6508
# 3 45.7449 25.5676 119.5785 -7.2352 -5.1751 -8.9808
# 4 -0.9058 -2.2895 -7.2352 29.1925 3.2419 1.9035
# 5 -12.0007 -5.0512 -5.1751 3.2419 37.0356 -11.5497
# 6 0.6063 -8.6508 -8.9808 1.9035 -11.5497 44.4787
#
#
#
# Elastic Compliance Matrix: (Units=1/GPa)
#
#
# Indices 1 2 3 4 5 6 
#
# 1 0.010706 -0.001937 -0.003669 -0.000983 0.002609 -0.000544
# 2 -0.001937 0.006832 -0.000577 0.000170 0.000645 0.001399
# 3 -0.003669 -0.000577 0.010202 0.002167 0.000612 0.002064
# 4 -0.000983 0.000170 0.002167 0.035316 -0.003704 -0.001989
# 5 0.002609 0.000645 0.000612 -0.003704 0.030968 0.008413
# 6 -0.000544 0.001399 0.002064 -0.001989 0.008413 0.025449
#
#
# Mechanical properties :
#
#
# Convention : Reuss Voigt Hill
#
# Bulk Modulus (GPa) = 65.03818 68.90440 66.97129
# Shear Modulus (GPa) = 36.50648 41.50011 39.00330
#
# Velocity S-wave (km/s) = 4.05544 4.32392 4.19183
# Velocity P-wave (km/s) = 7.15746 7.48135 7.32119
#
# Compressibility (1/GPa) = 0.01537558
#
# Stress axis : x y z
#
# Youngs Moduli (GPa) = 93.40676 146.37659 98.01832
#
# Poissons Ratio (x) = 0.28346 0.35962
# Poissons Ratio (y) = 0.18088 0.05652
# Poissons Ratio (z) = 0.34270 0.08441
#
# Static dielectric constant tensor:
#      x y z
#    x 4.164860 -0.146890 -0.064810 
#    y -0.146890 4.406700 -0.056100 
#    z -0.064810 -0.056100 4.022420 
# 
# 
# High freq. dielectric constant tensor:
#      x y z
#    x 1.881180 -0.001750 -0.004970 
#    y -0.001750 1.897220 -0.008530 
#    z -0.004970 -0.008530 1.875170 
# 
# From -- ./inp_files/273162.got.cif
#   From: 2010.06.25/outbox.cif.g09.slc.cpg/sg2_137_cif.got.tgz:273162.got - 2010.06.27 13:26:56.
