data_PCOD8035705
_publ_section_title
;
Structure prediction by ZEFSAII (Michael W. Deem and Ramdas Pophale) SiO2 
 PCOD8035705
Probable space group: P -1
;
_chemical_formula_sum "Si O2"
_cell_formula_units_Z 12
_cell_length_a 19.579248
_cell_length_b 8.475741
_cell_length_c 6.671463
_cell_angle_alpha 79.738726
_cell_angle_beta 66.645103
_cell_angle_gamma 33.690166
_cell_volume 538.205580
_symmetry_space_group_name_H-M "P -1"
_symmetry_group_IT_number 2
_symmetry_cell_setting 'triclinic'
loop_
_space_group_symop_operation_xyz
x,y,z
-x,-y,-z
loop_
_atom_site_type_symbol
_atom_site_label
_atom_site_fract_x
_atom_site_fract_y
_atom_site_fract_z
Si Si1 0.969239 0.967854 0.837962
Si Si2 0.319901 0.010951 0.105154
Si Si3 0.552883 0.777546 0.652641
Si Si4 0.148077 0.152818 0.929406
Si Si5 0.627673 0.306109 0.535530
Si Si6 0.801393 0.495498 0.621300
O O1 0.864807 0.011290 0.974645
O O2 0.114782 0.638897 0.653853
O O3 0.895152 0.225948 0.722421
O O4 0.000000 0.000000 0.000000
O O5 0.227429 0.091179 0.031828
O O6 0.221071 0.290814 0.303267
O O7 0.396240 0.738260 0.213653
O O8 0.425960 0.936425 0.889357
O O9 0.636160 0.482183 0.515815
O O10 0.653791 0.682166 0.711535
O O11 0.500000 0.000000 0.500000
O O12 0.000000 0.500000 0.000000
O O13 0.233255 0.013618 0.655530
O O14 0.500000 0.500000 0.500000
#
# Coordination Sequence:
#
# PCOD8035705 Si02
#       6
#     2   2   2   2   2   2
#     4  11  25  46  73 103 146 189 241 298 362 432
#     4  12  27  47  73 107 149 186 246 301 364 430
#     4  12  27  46  76 105 146 194 242 301 364 430
#     4  12  27  45  76 105 147 193 242 300 366 431
#     4  12  26  47  74 106 146 189 244 297 366 430
#     4  11  26  44  71 106 143 189 241 297 365 426
#
# _framework density 22.296312
#
# number of rings (size 3 to 8) (size 9 to 14) (size 15 to 20)
#    0.000    0.333    1.667    6.000    9.333    5.333 
#    0.000    0.000    0.000    0.000    0.000    0.000 
#    0.000    0.000    0.000    0.000    0.000    0.000 
#
# Total GULP energy -148871.703028 kJ/mol
# GULP energy per Si atom -12405.975252 kJ/mol
# Density = 2.224556 g / cm^3
# Si number density = 22.296312 Si / 1000 Ang^3
#
#
#
# Elastic Constant Matrix: (Units=GPa)
#
#
# Indices 1 2 3 4 5 6 
#
# 1 155.0814 34.8317 69.1549 -2.0174 11.2382 -3.1453
# 2 34.8317 115.7251 65.0289 -3.2924 3.3880 1.5697
# 3 69.1549 65.0289 158.0175 5.3926 5.3745 -0.7777
# 4 -2.0174 -3.2924 5.3926 44.7107 5.3698 2.0512
# 5 11.2382 3.3880 5.3745 5.3698 43.4221 3.4341
# 6 -3.1453 1.5697 -0.7777 2.0512 3.4341 45.9436
#
#
#
# Elastic Compliance Matrix: (Units=1/GPa)
#
#
# Indices 1 2 3 4 5 6 
#
# 1 0.008215 -0.000520 -0.003348 0.000928 -0.001835 0.000619
# 2 -0.000520 0.011382 -0.004496 0.001421 -0.000330 -0.000539
# 3 -0.003348 -0.004496 0.009695 -0.001684 0.000214 0.000148
# 4 0.000928 0.001421 -0.001684 0.023106 -0.002935 -0.000826
# 5 -0.001835 -0.000330 0.000214 -0.002935 0.024007 -0.001774
# 6 0.000619 -0.000539 0.000148 -0.000826 -0.001774 0.021999
#
#
# Mechanical properties :
#
#
# Convention : Reuss Voigt Hill
#
# Bulk Modulus (GPa) = 79.59147 85.20612 82.39879
# Shear Modulus (GPa) = 41.90432 44.13584 43.02008
#
# Velocity S-wave (km/s) = 4.33994 4.45400 4.39734
# Velocity P-wave (km/s) = 7.80308 8.04668 7.92582
#
# Compressibility (1/GPa) = 0.01256416
#
# Stress axis : x y z
#
# Youngs Moduli (GPa) = 121.72228 87.86077 103.14831
#
# Poissons Ratio (x) = 0.04567 0.34531
# Poissons Ratio (y) = 0.06328 0.46379
# Poissons Ratio (z) = 0.40749 0.39505
#
# Static dielectric constant tensor:
#      x y z
#    x 4.223360 0.143190 0.013720 
#    y 0.143190 4.075950 0.115150 
#    z 0.013720 0.115150 4.505410 
# 
# 
# High freq. dielectric constant tensor:
#      x y z
#    x 1.893860 0.005990 0.005330 
#    y 0.005990 1.891120 0.003240 
#    z 0.005330 0.003240 1.894120 
# 
# From -- ./inp_files/17170.got.cif
#   From: 2010.06.25/outbox.cif.g09.slc.cpg/sg2_9_cif.got.tgz:17170.got - 2010.06.27 13:26:56.
