data_PCOD8035277
_publ_section_title
;
Structure prediction by ZEFSAII (Michael W. Deem and Ramdas Pophale) SiO2 
 PCOD8035277
Probable space group: P -1
;
_chemical_formula_sum "Si O2"
_cell_formula_units_Z 14
_cell_length_a 12.340751
_cell_length_b 11.864380
_cell_length_c 5.385400
_cell_angle_alpha 92.737160
_cell_angle_beta 107.585163
_cell_angle_gamma 125.888610
_cell_volume 582.577965
_symmetry_space_group_name_H-M "P -1"
_symmetry_group_IT_number 2
_symmetry_cell_setting 'triclinic'
loop_
_space_group_symop_operation_xyz
x,y,z
-x,-y,-z
loop_
_atom_site_type_symbol
_atom_site_label
_atom_site_fract_x
_atom_site_fract_y
_atom_site_fract_z
Si Si1 0.254181 0.371721 0.827714
Si Si2 0.467255 0.128978 0.555373
Si Si3 0.794060 0.278117 0.886530
Si Si4 0.530725 0.612789 0.336515
Si Si5 0.041810 0.431616 0.715500
Si Si6 0.700917 0.020470 0.069294
Si Si7 0.907288 0.935844 0.176071
O O1 0.310371 0.321634 0.650236
O O2 0.133735 0.386780 0.650369
O O3 0.175056 0.235290 0.944123
O O4 0.396313 0.528079 0.040489
O O5 0.632819 0.192401 0.658834
O O6 0.454075 0.254560 0.525928
O O7 0.395380 0.030176 0.252889
O O8 0.394774 0.039829 0.752946
O O9 0.899776 0.292942 0.746064
O O10 0.798088 0.196553 0.124004
O O11 0.850727 0.439195 0.002071
O O12 0.500000 0.500000 0.500000
O O13 0.000000 0.500000 0.500000
O O14 0.795334 0.968073 0.117585
O O15 0.000000 0.000000 0.500000
O O16 0.000000 0.000000 0.000000
#
# Coordination Sequence:
#
# PCOD8035277 Si02
#       7
#     2   2   2   2   2   2   2
#     4  11  25  47  69 108 139 193 243 301 364 429
#     4  12  26  48  76 112 144 190 249 303 365 431
#     4  11  27  46  70 110 141 198 242 302 363 438
#     4  11  25  42  77 103 145 188 244 308 360 429
#     4  11  27  45  73 100 150 194 246 297 363 440
#     4  12  27  48  76 108 148 191 244 302 369 429
#     4  12  27  46  73 105 148 190 237 295 363 440
#
# _framework density 24.031120999999999
#
# number of rings (size 3 to 8) (size 9 to 14) (size 15 to 20)
#    0.000    0.571    2.857    3.429   12.000    0.000 
#    0.000    0.000    0.000    0.000    0.000    0.000 
#    0.000    0.000    0.000    0.000    0.000    0.000 
#
# Total GULP energy -173549.091710 kJ/mol
# GULP energy per Si atom -12396.363694 kJ/mol
# Density = 2.397643 g / cm^3
# Si number density = 24.031121 Si / 1000 Ang^3
#
#
#
# Elastic Constant Matrix: (Units=GPa)
#
#
# Indices 1 2 3 4 5 6 
#
# 1 176.9486 56.8633 39.8038 -9.7950 28.2981 6.3934
# 2 56.8633 135.9734 23.3693 -32.0265 -0.6998 6.6723
# 3 39.8038 23.3693 101.5494 -22.8448 -0.1387 23.1973
# 4 -9.7950 -32.0265 -22.8448 38.1513 -2.9003 0.6161
# 5 28.2981 -0.6998 -0.1387 -2.9003 36.3127 -2.1376
# 6 6.3934 6.6723 23.1973 0.6161 -2.1376 48.9202
#
#
#
# Elastic Compliance Matrix: (Units=1/GPa)
#
#
# Indices 1 2 3 4 5 6 
#
# 1 0.008599 -0.003956 -0.003502 -0.003758 -0.007043 0.000816
# 2 -0.003956 0.011096 0.001531 0.009544 0.003966 -0.001669
# 3 -0.003502 0.001531 0.014499 0.009416 0.003177 -0.006606
# 4 -0.003758 0.009544 0.009416 0.039440 0.005974 -0.005511
# 5 -0.007043 0.003966 0.003177 0.005974 0.033608 0.000266
# 6 0.000816 -0.001669 -0.006606 -0.005511 0.000266 0.023776
#
#
# Mechanical properties :
#
#
# Convention : Reuss Voigt Hill
#
# Bulk Modulus (GPa) = 44.76034 72.72712 58.74373
# Shear Modulus (GPa) = 33.26258 44.30586 38.78422
#
# Velocity S-wave (km/s) = 3.72445 4.29848 4.02172
# Velocity P-wave (km/s) = 6.09605 7.41386 6.78701
#
# Compressibility (1/GPa) = 0.02234120
#
# Stress axis : x y z
#
# Youngs Moduli (GPa) = 116.29219 90.12404 68.96810
#
# Poissons Ratio (x) = 0.35651 0.24150
# Poissons Ratio (y) = 0.46002 -0.10558
# Poissons Ratio (z) = 0.40721 -0.13796
#
# Static dielectric constant tensor:
#      x y z
#    x 4.497790 -0.264610 -0.006350 
#    y -0.264610 3.648780 -0.305270 
#    z -0.006350 -0.305270 4.054160 
# 
# 
# High freq. dielectric constant tensor:
#      x y z
#    x 1.973080 -0.001400 0.008240 
#    y -0.001400 1.979680 -0.002460 
#    z 0.008240 -0.002460 1.940520 
# 
# From -- ./inp_files/69819.got.cif
#   From: 2010.06.25/outbox.cif.g09.slc.cpg/sg2_35_cif.got.tgz:69819.got - 2010.06.27 13:26:56.
