data_PCOD8035432
_publ_section_title
;
Structure prediction by ZEFSAII (Michael W. Deem and Ramdas Pophale) SiO2 
 PCOD8035432
Probable space group: P -1
;
_chemical_formula_sum "Si O2"
_cell_formula_units_Z 16
_cell_length_a 5.025195
_cell_length_b 17.520212
_cell_length_c 11.529606
_cell_angle_alpha 132.900448
_cell_angle_beta 114.871891
_cell_angle_gamma 53.580814
_cell_volume 598.134391
_symmetry_space_group_name_H-M "P -1"
_symmetry_group_IT_number 2
_symmetry_cell_setting 'triclinic'
loop_
_space_group_symop_operation_xyz
x,y,z
-x,-y,-z
loop_
_atom_site_type_symbol
_atom_site_label
_atom_site_fract_x
_atom_site_fract_y
_atom_site_fract_z
Si Si1 0.808238 0.472577 0.338672
Si Si2 0.318308 0.291891 0.957605
Si Si3 0.922438 0.461600 0.756319
Si Si4 0.957557 0.093328 0.445384
Si Si5 0.091155 0.063853 0.186252
Si Si6 0.164783 0.106617 0.819248
Si Si7 0.063666 0.776531 0.871940
Si Si8 0.584441 0.792420 0.348846
O O1 0.422754 0.518224 0.344276
O O2 0.000345 0.331449 0.214588
O O3 0.000000 0.500000 0.500000
O O4 0.828981 0.533884 0.288527
O O5 0.078203 0.231043 0.869056
O O6 0.557669 0.227133 0.822220
O O7 0.132486 0.433134 0.053604
O O8 0.545009 0.262697 0.084054
O O9 0.088732 0.333993 0.712018
O O10 0.652116 0.185121 0.561192
O O11 0.855247 0.105579 0.301204
O O12 0.280518 0.111583 0.541070
O O13 0.032613 0.957115 0.349967
O O14 0.056956 0.182148 0.238932
O O15 0.450749 0.984740 0.223000
O O16 0.000000 0.000000 0.000000
O O17 0.114796 0.116754 0.959084
#
# Coordination Sequence:
#
# PCOD8035432 Si02
#       8
#     2   2   2   2   2   2   2   2
#     4  11  25  46  75 112 153 190 235 315 373 436
#     4  11  26  49  77 107 145 202 249 312 359 442
#     4  11  25  51  74 110 145 197 256 291 374 443
#     4  12  28  48  73 114 145 200 241 311 371 437
#     4  12  24  45  74 106 147 196 240 303 364 455
#     4  12  23  47  73 112 150 190 255 293 381 435
#     4  11  25  44  75 112 148 192 253 300 374 448
#     4  12  29  50  76 108 154 194 254 307 367 436
#
# _framework density 26.749839000000001
#
# number of rings (size 3 to 8) (size 9 to 14) (size 15 to 20)
#    0.000    0.500    5.000    1.875    3.500    2.000 
#    4.500    3.125    0.000    0.000    0.000    0.000 
#    0.000    0.000    0.000    0.000    0.000    0.000 
#
# Total GULP energy -198337.403385 kJ/mol
# GULP energy per Si atom -12396.087712 kJ/mol
# Density = 2.668896 g / cm^3
# Si number density = 26.749839 Si / 1000 Ang^3
#
#
#
# Elastic Constant Matrix: (Units=GPa)
#
#
# Indices 1 2 3 4 5 6 
#
# 1 119.9652 9.7279 41.3676 6.0789 2.7762 14.5520
# 2 9.7279 83.6350 29.2774 21.9983 9.6154 6.8569
# 3 41.3676 29.2774 148.1782 -4.0502 -1.7165 7.1747
# 4 6.0789 21.9983 -4.0502 33.6781 4.5132 3.4018
# 5 2.7762 9.6154 -1.7165 4.5132 52.5968 6.3245
# 6 14.5520 6.8569 7.1747 3.4018 6.3245 29.7300
#
#
#
# Elastic Compliance Matrix: (Units=1/GPa)
#
#
# Indices 1 2 3 4 5 6 
#
# 1 0.009828 0.000729 -0.002752 -0.002162 -0.000069 -0.004053
# 2 0.000729 0.016375 -0.003683 -0.010839 -0.002033 -0.001572
# 3 -0.002752 -0.003683 0.008380 0.003845 0.000815 -0.000440
# 4 -0.002162 -0.010839 0.003845 0.037893 -0.000847 -0.001525
# 5 -0.000069 -0.002033 0.000815 -0.000847 0.019949 -0.003841
# 6 -0.004053 -0.001572 -0.000440 -0.001525 -0.003841 0.037080
#
#
# Mechanical properties :
#
#
# Convention : Reuss Voigt Hill
#
# Bulk Modulus (GPa) = 43.15375 56.94711 50.05043
# Shear Modulus (GPa) = 33.63845 41.29470 37.46658
#
# Velocity S-wave (km/s) = 3.55000 3.93330 3.74656
# Velocity P-wave (km/s) = 5.74201 6.47787 6.12101
#
# Compressibility (1/GPa) = 0.02317296
#
# Stress axis : x y z
#
# Youngs Moduli (GPa) = 101.74808 61.07012 119.32871
#
# Poissons Ratio (x) = -0.04452 0.32833
# Poissons Ratio (y) = -0.07418 0.43943
# Poissons Ratio (z) = 0.27996 0.22489
#
# Static dielectric constant tensor:
#      x y z
#    x 4.407530 0.404860 -0.357700 
#    y 0.404860 4.984520 0.237150 
#    z -0.357700 0.237150 5.096140 
# 
# 
# High freq. dielectric constant tensor:
#      x y z
#    x 2.079260 0.012650 -0.001790 
#    y 0.012650 2.071310 0.011140 
#    z -0.001790 0.011140 2.088750 
# 
# From -- ./inp_files/369524.got.cif
#   From: 2010.06.25/outbox.cif.g09.slc.cpg/sg2_185_cif.got.tgz:369524.got - 2010.06.27 13:26:56.
