data_PCOD8035647
_publ_section_title
;
Structure prediction by ZEFSAII (Michael W. Deem and Ramdas Pophale) SiO2 
 PCOD8035647
Probable space group: P -1
;
_chemical_formula_sum "Si O2"
_cell_formula_units_Z 16
_cell_length_a 8.602275
_cell_length_b 9.362036
_cell_length_c 14.882090
_cell_angle_alpha 39.775232
_cell_angle_beta 81.712913
_cell_angle_gamma 91.877301
_cell_volume 739.025262
_symmetry_space_group_name_H-M "P -1"
_symmetry_group_IT_number 2
_symmetry_cell_setting 'triclinic'
loop_
_space_group_symop_operation_xyz
x,y,z
-x,-y,-z
loop_
_atom_site_type_symbol
_atom_site_label
_atom_site_fract_x
_atom_site_fract_y
_atom_site_fract_z
Si Si1 0.656466 0.768603 0.048159
Si Si2 0.067713 0.666528 0.632533
Si Si3 0.344936 0.185821 0.634209
Si Si4 0.634635 0.217965 0.063202
Si Si5 0.157003 0.395241 0.035643
Si Si6 0.372799 0.511075 0.635826
Si Si7 0.967348 0.032866 0.342304
Si Si8 0.875353 0.162352 0.924413
O O1 0.604450 0.648442 0.205703
O O2 0.499968 0.741488 0.013464
O O3 0.792121 0.653888 0.046289
O O4 0.733365 0.038013 0.928483
O O5 0.251691 0.670013 0.593685
O O6 0.063710 0.779890 0.674813
O O7 0.959764 0.410019 0.760158
O O8 0.000494 0.808723 0.493749
O O9 0.304506 0.359883 0.627665
O O10 0.455711 0.322131 0.480686
O O11 0.434345 0.006590 0.762002
O O12 0.184129 0.038602 0.675361
O O13 0.686265 0.440527 0.013434
O O14 0.796920 0.186384 0.015643
O O15 0.119560 0.156624 0.209397
O O16 0.000000 0.500000 0.000000
O O17 0.000000 0.000000 0.000000
#
# Coordination Sequence:
#
# PCOD8035647 Si02
#       8
#     2   2   2   2   2   2   2   2
#     4  12  27  42  73 104 138 189 231 287 356 411
#     4  11  25  46  71 103 138 182 235 287 347 421
#     4  11  26  44  69 100 142 182 226 289 353 411
#     4  12  25  45  69 104 143 181 235 290 346 418
#     4  12  24  46  72 100 139 182 240 291 340 415
#     4  11  26  46  66 101 143 181 229 284 354 417
#     4  11  26  45  71 102 138 185 231 290 350 409
#     4  12  23  44  74 101 134 185 240 285 342 413
#
# _framework density 21.650138999999999
#
# number of rings (size 3 to 8) (size 9 to 14) (size 15 to 20)
#    0.000    0.500    5.000    2.250    5.250    2.000 
#    0.000    0.000    0.000    0.000    0.000    0.000 
#    0.000    0.000    0.000    0.000    0.000    0.000 
#
# Total GULP energy -198483.514713 kJ/mol
# GULP energy per Si atom -12405.219670 kJ/mol
# Density = 2.160086 g / cm^3
# Si number density = 21.650139 Si / 1000 Ang^3
#
#
#
# Elastic Constant Matrix: (Units=GPa)
#
#
# Indices 1 2 3 4 5 6 
#
# 1 58.4491 18.4363 26.0689 -4.5561 8.6463 1.9132
# 2 18.4363 89.3947 51.6629 -3.4855 -7.3454 7.9039
# 3 26.0689 51.6629 125.1275 -11.2969 -4.8658 -5.9158
# 4 -4.5561 -3.4855 -11.2969 36.2371 2.3823 -3.1938
# 5 8.6463 -7.3454 -4.8658 2.3823 30.8285 -0.8683
# 6 1.9132 7.9039 -5.9158 -3.1938 -0.8683 34.0597
#
#
#
# Elastic Compliance Matrix: (Units=1/GPa)
#
#
# Indices 1 2 3 4 5 6 
#
# 1 0.020699 -0.002750 -0.003359 0.001661 -0.007151 -0.001134
# 2 -0.002750 0.016020 -0.006250 -0.001402 0.003578 -0.004689
# 3 -0.003359 -0.006250 0.011771 0.002919 0.001197 0.003988
# 4 0.001661 -0.001402 0.002919 0.029043 -0.002488 0.003399
# 5 -0.007151 0.003578 0.001197 -0.002488 0.035690 0.000456
# 6 -0.001134 -0.004689 0.003988 0.003399 0.000456 0.031535
#
#
# Mechanical properties :
#
#
# Convention : Reuss Voigt Hill
#
# Bulk Modulus (GPa) = 42.06840 51.70084 46.88462
# Shear Modulus (GPa) = 28.18501 32.01195 30.09848
#
# Velocity S-wave (km/s) = 3.61202 3.84943 3.73261
# Velocity P-wave (km/s) = 6.07196 6.60980 6.34658
#
# Compressibility (1/GPa) = 0.02377081
#
# Stress axis : x y z
#
# Youngs Moduli (GPa) = 48.31190 62.42325 84.95588
#
# Poissons Ratio (x) = 0.17169 0.28532
# Poissons Ratio (y) = 0.13288 0.53100
# Poissons Ratio (z) = 0.16226 0.39017
#
# Static dielectric constant tensor:
#      x y z
#    x 3.727800 -0.011750 -0.179920 
#    y -0.011750 4.199210 -0.038630 
#    z -0.179920 -0.038630 4.148000 
# 
# 
# High freq. dielectric constant tensor:
#      x y z
#    x 1.843470 0.003630 -0.007040 
#    y 0.003630 1.869260 -0.002120 
#    z -0.007040 -0.002120 1.861590 
# 
# From -- ./inp_files/205237.got.cif
#   From: 2010.06.25/outbox.cif.g09.slc.cpg/sg2_103_cif.got.tgz:205237.got - 2010.06.27 13:26:56.
