data_PCOD8035110
_publ_section_title
;
Structure prediction by ZEFSAII (Michael W. Deem and Ramdas Pophale) SiO2 
 PCOD8035110
Probable space group: P -1
;
_chemical_formula_sum "Si O2"
_cell_formula_units_Z 12
_cell_length_a 16.353934
_cell_length_b 6.835233
_cell_length_c 25.686861
_cell_angle_alpha 46.095799
_cell_angle_beta 161.445214
_cell_angle_gamma 123.002841
_cell_volume 573.248270
_symmetry_space_group_name_H-M "P -1"
_symmetry_group_IT_number 2
_symmetry_cell_setting 'triclinic'
loop_
_space_group_symop_operation_xyz
x,y,z
-x,-y,-z
loop_
_atom_site_type_symbol
_atom_site_label
_atom_site_fract_x
_atom_site_fract_y
_atom_site_fract_z
Si Si1 0.175538 0.210178 0.514895
Si Si2 0.558621 0.162018 0.582763
Si Si3 0.244970 0.095027 0.141599
Si Si4 0.155191 0.162057 0.631039
Si Si5 0.032853 0.210206 0.193492
Si Si6 0.668473 0.904820 0.065158
O O1 0.249417 0.180445 0.625893
O O2 0.928243 0.554359 0.287642
O O3 0.468057 0.142448 0.673492
O O4 0.075044 0.964247 0.482222
O O5 0.500000 0.500000 0.500000
O O6 0.255493 0.180305 0.378892
O O7 0.681844 0.930009 0.748618
O O8 0.796680 0.035457 0.703818
O O9 0.134491 0.445480 0.993775
O O10 0.000000 0.000000 0.000000
O O11 0.000000 0.500000 0.500000
O O12 0.448733 0.929826 0.882112
O O13 0.789866 0.142239 0.084421
O O14 0.500000 0.000000 0.000000
#
# Coordination Sequence:
#
# PCOD8035110 Si02
#       6
#     2   2   2   2   2   2
#     4  11  27  45  71 104 142 188 237 292 355 418
#     4  11  24  48  72 102 143 185 236 294 355 418
#     4  12  26  45  74 104 141 187 237 291 356 418
#     4  11  24  48  72 102 143 185 236 294 355 418
#     4  11  27  45  71 104 142 188 237 292 355 418
#     4  12  26  45  74 104 141 187 237 291 356 418
#
# _framework density 20.933337999999999
#
# number of rings (size 3 to 8) (size 9 to 14) (size 15 to 20)
#    0.000    0.667    3.333    3.000    9.333    2.667 
#    0.000    0.000    0.000    0.000    0.000    0.000 
#    0.000    0.000    0.000    0.000    0.000    0.000 
#
# Total GULP energy -148912.694797 kJ/mol
# GULP energy per Si atom -12409.391233 kJ/mol
# Density = 2.088569 g / cm^3
# Si number density = 20.933338 Si / 1000 Ang^3
#
#
#
# Elastic Constant Matrix: (Units=GPa)
#
#
# Indices 1 2 3 4 5 6 
#
# 1 141.3602 77.5180 78.5421 23.6909 -11.9241 -0.2596
# 2 77.5180 135.9229 57.5267 -7.3584 3.8574 -3.5114
# 3 78.5421 57.5267 147.2042 1.4492 -10.8309 -9.6298
# 4 23.6909 -7.3584 1.4492 42.9683 1.5777 -3.2181
# 5 -11.9241 3.8574 -10.8309 1.5777 52.7983 2.8248
# 6 -0.2596 -3.5114 -9.6298 -3.2181 2.8248 36.4910
#
#
#
# Elastic Compliance Matrix: (Units=1/GPa)
#
#
# Indices 1 2 3 4 5 6 
#
# 1 0.016612 -0.007858 -0.005636 -0.010701 0.003669 -0.003353
# 2 -0.007858 0.012758 -0.000981 0.006800 -0.003205 0.001761
# 3 -0.005636 -0.000981 0.010391 0.002773 0.000698 0.002798
# 4 -0.010701 0.006800 0.002773 0.030693 -0.003491 0.004287
# 5 0.003669 -0.003205 0.000698 -0.003491 0.020356 -0.001982
# 6 -0.003353 0.001761 0.002798 0.004287 -0.001982 0.028819
#
#
# Mechanical properties :
#
#
# Convention : Reuss Voigt Hill
#
# Bulk Modulus (GPa) = 92.50420 94.62899 93.56659
# Shear Modulus (GPa) = 32.85493 40.51155 36.68324
#
# Velocity S-wave (km/s) = 3.96599 4.40394 4.19069
# Velocity P-wave (km/s) = 8.07824 8.43579 8.25895
#
# Compressibility (1/GPa) = 0.01081032
#
# Stress axis : x y z
#
# Youngs Moduli (GPa) = 60.19847 78.37955 96.23746
#
# Poissons Ratio (x) = 0.61593 0.54243
# Poissons Ratio (y) = 0.47306 0.09438
# Poissons Ratio (z) = 0.33930 0.07686
#
# Static dielectric constant tensor:
#      x y z
#    x 4.060320 -0.026910 -0.079030 
#    y -0.026910 3.810090 0.176880 
#    z -0.079030 0.176880 3.894920 
# 
# 
# High freq. dielectric constant tensor:
#      x y z
#    x 1.835050 0.000450 -0.006920 
#    y 0.000450 1.831560 -0.001960 
#    z -0.006920 -0.001960 1.839970 
# 
# From -- ./inp_files/26600.got.cif
#   From: 2010.06.25/outbox.cif.g09.slc.cpg/sg2_14_cif.got.tgz:26600.got - 2010.06.27 13:26:56.
