data_PCOD8035614
_publ_section_title
;
Structure prediction by ZEFSAII (Michael W. Deem and Ramdas Pophale) SiO2 
 PCOD8035614
Probable space group: P -1
;
_chemical_formula_sum "Si O2"
_cell_formula_units_Z 16
_cell_length_a 6.559750
_cell_length_b 26.320303
_cell_length_c 11.923549
_cell_angle_alpha 151.230804
_cell_angle_beta 47.769475
_cell_angle_gamma 129.260546
_cell_volume 728.095172
_symmetry_space_group_name_H-M "P -1"
_symmetry_group_IT_number 2
_symmetry_cell_setting 'triclinic'
loop_
_space_group_symop_operation_xyz
x,y,z
-x,-y,-z
loop_
_atom_site_type_symbol
_atom_site_label
_atom_site_fract_x
_atom_site_fract_y
_atom_site_fract_z
Si Si1 0.438692 0.385433 0.248121
Si Si2 0.709140 0.127310 0.346475
Si Si3 0.799605 0.351516 0.417756
Si Si4 0.895305 0.969923 0.145187
Si Si5 0.383839 0.788559 0.987056
Si Si6 0.863356 0.358449 0.664781
Si Si7 0.610215 0.497009 0.194350
Si Si8 0.057644 0.072491 0.511957
O O1 0.500000 0.500000 0.500000
O O2 0.588900 0.396764 0.093344
O O3 0.119495 0.358071 0.285346
O O4 0.547984 0.298456 0.117367
O O5 0.811246 0.252619 0.553469
O O6 0.377684 0.110217 0.440910
O O7 0.839437 0.076430 0.307498
O O8 0.828225 0.074445 0.089427
O O9 0.749402 0.330156 0.527362
O O10 0.684876 0.461253 0.637929
O O11 0.655135 0.255040 0.209424
O O12 0.631019 0.882361 0.064182
O O13 0.932522 0.998339 0.315005
O O14 0.104119 0.825919 0.212962
O O15 0.190355 0.402137 0.631491
O O16 0.714689 0.454973 0.956907
O O17 0.000000 0.000000 0.500000
#
# Coordination Sequence:
#
# PCOD8035614 Si02
#       8
#     2   2   2   2   2   2   2   2
#     4  12  25  44  72 104 143 185 234 287 349 422
#     4  11  26  46  73 105 135 192 233 294 351 428
#     4  12  24  45  72 103 141 187 236 284 352 420
#     4  11  26  50  73  99 147 183 236 293 360 419
#     4  12  28  44  78 104 143 189 232 297 360 413
#     4  11  26  44  71  99 148 180 236 291 346 418
#     4  11  25  46  68 104 142 189 234 286 350 412
#     4  12  28  46  74 109 139 183 241 297 354 424
#
# _framework density 21.975147
#
# number of rings (size 3 to 8) (size 9 to 14) (size 15 to 20)
#    0.000    0.500    3.750    3.000    7.000    3.000 
#    2.250    0.000    0.000    0.000    0.000    0.000 
#    0.000    0.000    0.000    0.000    0.000    0.000 
#
# Total GULP energy -198428.180833 kJ/mol
# GULP energy per Si atom -12401.761302 kJ/mol
# Density = 2.192513 g / cm^3
# Si number density = 21.975147 Si / 1000 Ang^3
#
#
#
# Elastic Constant Matrix: (Units=GPa)
#
#
# Indices 1 2 3 4 5 6 
#
# 1 136.4703 67.0183 79.3283 -1.6917 2.6464 -5.1612
# 2 67.0183 130.0667 58.0257 4.8270 -0.6600 -9.7325
# 3 79.3283 58.0257 125.8433 -9.2326 -3.9355 -4.1358
# 4 -1.6917 4.8270 -9.2326 41.9292 -3.9864 -8.3516
# 5 2.6464 -0.6600 -3.9355 -3.9864 47.8791 -7.3329
# 6 -5.1612 -9.7325 -4.1358 -8.3516 -7.3329 33.0595
#
#
#
# Elastic Compliance Matrix: (Units=1/GPa)
#
#
# Indices 1 2 3 4 5 6 
#
# 1 0.013004 -0.003784 -0.006562 -0.000700 -0.001430 -0.000399
# 2 -0.003784 0.011083 -0.002769 -0.001614 0.000304 0.001985
# 3 -0.006562 -0.002769 0.013715 0.003493 0.001924 0.001186
# 4 -0.000700 -0.001614 0.003493 0.026593 0.003648 0.007380
# 5 -0.001430 0.000304 0.001924 0.003648 0.022348 0.005986
# 6 -0.000399 0.001985 0.001186 0.007380 0.005986 0.034111
#
#
# Mechanical properties :
#
#
# Convention : Reuss Voigt Hill
#
# Bulk Modulus (GPa) = 86.40790 89.01388 87.71089
# Shear Modulus (GPa) = 33.12542 37.10743 35.11642
#
# Velocity S-wave (km/s) = 3.88674 4.11373 4.00184
# Velocity P-wave (km/s) = 7.71676 7.94721 7.83284
#
# Compressibility (1/GPa) = 0.01157302
#
# Stress axis : x y z
#
# Youngs Moduli (GPa) = 76.89780 90.22475 72.91420
#
# Poissons Ratio (x) = 0.34144 0.47845
# Poissons Ratio (y) = 0.29101 0.20187
# Poissons Ratio (z) = 0.50459 0.24980
#
# Static dielectric constant tensor:
#      x y z
#    x 4.171050 -0.238460 -0.214650 
#    y -0.238460 4.617930 0.100950 
#    z -0.214650 0.100950 4.381420 
# 
# 
# High freq. dielectric constant tensor:
#      x y z
#    x 1.870990 -0.003770 -0.002490 
#    y -0.003770 1.873800 -0.007880 
#    z -0.002490 -0.007880 1.877470 
# 
# From -- ./inp_files/371451.got.cif
#   From: 2010.06.25/outbox.cif.g09.slc.cpg/sg2_186_cif.got.tgz:371451.got - 2010.06.27 13:26:56.
