data_PCOD8035931
_publ_section_title
;
Structure prediction by ZEFSAII (Michael W. Deem and Ramdas Pophale) SiO2 
 PCOD8035931
Probable space group: P -1
;
_chemical_formula_sum "Si O2"
_cell_formula_units_Z 12
_cell_length_a 21.838643
_cell_length_b 24.313488
_cell_length_c 12.314949
_cell_angle_alpha 155.524132
_cell_angle_beta 155.823203
_cell_angle_gamma 10.618578
_cell_volume 485.555187
_symmetry_space_group_name_H-M "P -1"
_symmetry_group_IT_number 2
_symmetry_cell_setting 'triclinic'
loop_
_space_group_symop_operation_xyz
x,y,z
-x,-y,-z
loop_
_atom_site_type_symbol
_atom_site_label
_atom_site_fract_x
_atom_site_fract_y
_atom_site_fract_z
Si Si1 0.511883 0.200250 0.568914
Si Si2 0.278974 0.584933 0.719075
Si Si3 0.110980 0.563386 0.784645
Si Si4 0.392140 0.151230 0.988239
Si Si5 0.667582 0.167388 0.150493
Si Si6 0.663574 0.205868 0.457991
O O1 0.334474 0.391937 0.513305
O O2 0.300233 0.431210 0.739650
O O3 0.542368 0.016240 0.296193
O O4 0.896909 0.945615 0.747759
O O5 0.399444 0.494408 0.626303
O O6 0.500000 0.500000 0.000000
O O7 0.000000 0.500000 0.500000
O O8 0.786067 0.919508 0.898975
O O9 0.345309 0.430413 0.022513
O O10 0.644923 0.066512 0.210005
O O11 0.000000 0.500000 0.000000
O O12 0.500000 0.000000 0.000000
O O13 0.961258 0.033383 0.344063
O O14 0.550109 0.310810 0.337411
#
# Coordination Sequence:
#
# PCOD8035931 Si02
#       6
#     2   2   2   2   2   2
#     4  12  24  44  69 104 138 183 239 290 359 420
#     4  12  25  43  71 103 142 183 230 299 360 422
#     4  12  26  49  73 104 146 189 250 291 358 433
#     4  12  24  43  68 104 141 184 232 292 357 419
#     4  11  28  46  74 107 142 201 235 298 359 435
#     4  11  25  48  73 106 152 184 248 294 365 431
#
# _framework density 24.713978000000001
#
# number of rings (size 3 to 8) (size 9 to 14) (size 15 to 20)
#    0.000    0.333    3.333    5.000    0.000   10.667 
#    0.000    0.000    0.000    0.000    0.000    0.000 
#    0.000    0.000    0.000    0.000    0.000    0.000 
#
# Total GULP energy -148798.250552 kJ/mol
# GULP energy per Si atom -12399.854213 kJ/mol
# Density = 2.465773 g / cm^3
# Si number density = 24.713978 Si / 1000 Ang^3
#
#
#
# Elastic Constant Matrix: (Units=GPa)
#
#
# Indices 1 2 3 4 5 6 
#
# 1 115.2006 30.7158 15.1759 -7.4608 -13.4837 -20.4391
# 2 30.7158 79.7685 -5.3668 3.4638 -14.8884 1.7992
# 3 15.1759 -5.3668 108.1090 -5.7456 3.8842 -15.5420
# 4 -7.4608 3.4638 -5.7456 46.7266 -8.2644 -2.4242
# 5 -13.4837 -14.8884 3.8842 -8.2644 60.9536 3.3299
# 6 -20.4391 1.7992 -15.5420 -2.4242 3.3299 38.9384
#
#
#
# Elastic Compliance Matrix: (Units=1/GPa)
#
#
# Indices 1 2 3 4 5 6 
#
# 1 0.011351 -0.004390 -0.000889 0.002602 0.001529 0.005838
# 2 -0.004390 0.014890 0.000756 -0.001409 0.002590 -0.003000
# 3 -0.000889 0.000756 0.010017 0.001098 -0.000699 0.003625
# 4 0.002602 -0.001409 0.001098 0.022758 0.003082 0.003022
# 5 0.001529 0.002590 -0.000699 0.003082 0.017890 -0.000934
# 6 0.005838 -0.003000 0.003625 0.003022 -0.000934 0.030599
#
#
# Mechanical properties :
#
#
# Convention : Reuss Voigt Hill
#
# Bulk Modulus (GPa) = 36.74727 42.68089 39.71408
# Shear Modulus (GPa) = 39.80194 46.82727 43.31461
#
# Velocity S-wave (km/s) = 4.01746 4.35762 4.19099
# Velocity P-wave (km/s) = 6.03501 6.52885 6.28678
#
# Compressibility (1/GPa) = 0.02721291
#
# Stress axis : x y z
#
# Youngs Moduli (GPa) = 88.09528 67.15946 99.83201
#
# Poissons Ratio (x) = 0.29483 0.08873
# Poissons Ratio (y) = 0.38674 -0.07549
# Poissons Ratio (z) = 0.07830 -0.05079
#
# Static dielectric constant tensor:
#      x y z
#    x 4.374280 -0.316010 -0.333810 
#    y -0.316010 4.090170 -0.287690 
#    z -0.333810 -0.287690 4.518240 
# 
# 
# High freq. dielectric constant tensor:
#      x y z
#    x 1.988960 -0.003480 -0.002520 
#    y -0.003480 1.977410 0.006940 
#    z -0.002520 0.006940 2.014030 
# 
# From -- ./inp_files/472960.got.cif
#   From: 2010.06.25/outbox.cif.g09.slc.cpg/sg2_237_cif.got.tgz:472960.got - 2010.06.27 13:26:56.
