data_PCOD8035433
_publ_section_title
;
Structure prediction by ZEFSAII (Michael W. Deem and Ramdas Pophale) SiO2 
 PCOD8035433
Probable space group: P -1
;
_chemical_formula_sum "Si O2"
_cell_formula_units_Z 16
_cell_length_a 7.585098
_cell_length_b 9.268510
_cell_length_c 19.112500
_cell_angle_alpha 68.775545
_cell_angle_beta 117.793217
_cell_angle_gamma 147.972190
_cell_volume 628.788037
_symmetry_space_group_name_H-M "P -1"
_symmetry_group_IT_number 2
_symmetry_cell_setting 'triclinic'
loop_
_space_group_symop_operation_xyz
x,y,z
-x,-y,-z
loop_
_atom_site_type_symbol
_atom_site_label
_atom_site_fract_x
_atom_site_fract_y
_atom_site_fract_z
Si Si1 0.225983 0.388781 0.729584
Si Si2 0.116419 0.732656 0.447901
Si Si3 0.185739 0.070494 0.865809
Si Si4 0.348432 0.881221 0.122765
Si Si5 0.774990 0.621097 0.680331
Si Si6 0.743747 0.594600 0.966393
Si Si7 0.859988 0.881563 0.419035
Si Si8 0.222514 0.635133 0.798308
O O1 0.057242 0.138117 0.785768
O O2 0.559548 0.527448 0.726916
O O3 0.360991 0.610740 0.767151
O O4 0.934237 0.281439 0.643090
O O5 0.000000 0.500000 0.500000
O O6 0.875383 0.709056 0.439718
O O7 0.500000 0.000000 0.500000
O O8 0.316570 0.012799 0.851233
O O9 0.521149 0.326737 0.930258
O O10 0.852321 0.802997 0.897337
O O11 0.122672 0.661601 0.181024
O O12 0.479434 0.135625 0.128444
O O13 0.102742 0.747909 0.033205
O O14 0.554597 0.366777 0.630516
O O15 0.124508 0.745162 0.734923
O O16 0.895120 0.863453 0.631039
O O17 0.500000 0.500000 0.000000
O O18 0.000000 0.000000 0.500000
#
# Coordination Sequence:
#
# PCOD8035433 Si02
#       8
#     2   2   2   2   2   2   2   2
#     4  11  28  48  78 110 151 200 256 313 390 449
#     4  11  26  46  70 108 146 191 247 313 375 450
#     4  12  26  49  80 110 158 205 251 322 380 453
#     4  12  26  51  74 117 152 201 260 308 383 460
#     4  11  25  48  71 110 149 195 251 323 370 466
#     4  12  27  48  78 118 156 201 258 310 384 459
#     4  11  25  44  76 102 147 193 252 309 397 450
#     4  12  27  46  79 107 155 200 257 312 380 454
#
# _framework density 25.445777
#
# number of rings (size 3 to 8) (size 9 to 14) (size 15 to 20)
#    0.000    0.500    1.250    6.000    5.250    7.000 
#    0.000    0.000    0.000    0.000    0.000    0.000 
#    0.000    0.000    0.000    0.000    0.000    0.000 
#
# Total GULP energy -198358.409868 kJ/mol
# GULP energy per Si atom -12397.400617 kJ/mol
# Density = 2.538786 g / cm^3
# Si number density = 25.445777 Si / 1000 Ang^3
#
#
#
# Elastic Constant Matrix: (Units=GPa)
#
#
# Indices 1 2 3 4 5 6 
#
# 1 82.4803 37.8638 44.7337 -9.3458 -4.1241 -24.9941
# 2 37.8638 138.8850 22.6049 -0.7301 -12.8353 -14.1374
# 3 44.7337 22.6049 110.0444 -2.5274 -2.7634 -16.5817
# 4 -9.3458 -0.7301 -2.5274 56.0180 -2.2671 -2.2275
# 5 -4.1241 -12.8353 -2.7634 -2.2671 26.7250 6.8334
# 6 -24.9941 -14.1374 -16.5817 -2.2275 6.8334 42.2720
#
#
#
# Elastic Compliance Matrix: (Units=1/GPa)
#
#
# Indices 1 2 3 4 5 6 
#
# 1 0.020015 -0.003695 -0.006035 0.003311 -0.001229 0.008604
# 2 -0.003695 0.008558 -0.000173 -0.000371 0.003484 0.000027
# 3 -0.006035 -0.000173 0.011708 -0.000446 -0.000086 0.000957
# 4 0.003311 -0.000371 -0.000446 0.018526 0.001236 0.002435
# 5 -0.001229 0.003484 -0.000086 0.001236 0.040554 -0.006086
# 6 0.008604 0.000027 0.000957 0.002435 -0.006086 0.030240
#
#
# Mechanical properties :
#
#
# Convention : Reuss Voigt Hill
#
# Bulk Modulus (GPa) = 48.84074 60.20160 54.52117
# Shear Modulus (GPa) = 32.00378 40.08348 36.04363
#
# Velocity S-wave (km/s) = 3.55029 3.97325 3.76771
# Velocity P-wave (km/s) = 6.00348 6.69022 6.35613
#
# Compressibility (1/GPa) = 0.02047471
#
# Stress axis : x y z
#
# Youngs Moduli (GPa) = 49.96372 116.84426 85.41195
#
# Poissons Ratio (x) = 0.43168 0.51550
# Poissons Ratio (y) = 0.18459 0.01479
# Poissons Ratio (z) = 0.30155 0.02023
#
# Static dielectric constant tensor:
#      x y z
#    x 4.529380 -0.153200 -0.013720 
#    y -0.153200 4.572100 -0.149630 
#    z -0.013720 -0.149630 4.786780 
# 
# 
# High freq. dielectric constant tensor:
#      x y z
#    x 2.007210 -0.006930 0.008660 
#    y -0.006930 2.038480 0.009230 
#    z 0.008660 0.009230 2.031380 
# 
# From -- ./inp_files/587324.got.cif
#   From: 2010.06.25/outbox.cif.g09.slc.cpg/sg2_294_cif.got.tgz:587324.got - 2010.06.27 13:26:56.
