data_PCOD8035021
_publ_section_title
;
Structure prediction by ZEFSAII (Michael W. Deem and Ramdas Pophale) SiO2 
 PCOD8035021
Probable space group: P -1
;
_chemical_formula_sum "Si O2"
_cell_formula_units_Z 12
_cell_length_a 9.164810
_cell_length_b 8.509384
_cell_length_c 12.297058
_cell_angle_alpha 54.770648
_cell_angle_beta 121.449946
_cell_angle_gamma 81.638036
_cell_volume 513.162766
_symmetry_space_group_name_H-M "P -1"
_symmetry_group_IT_number 2
_symmetry_cell_setting 'triclinic'
loop_
_space_group_symop_operation_xyz
x,y,z
-x,-y,-z
loop_
_atom_site_type_symbol
_atom_site_label
_atom_site_fract_x
_atom_site_fract_y
_atom_site_fract_z
Si Si1 0.824196 0.615609 0.559556
Si Si2 0.947673 0.946548 0.158000
Si Si3 0.374212 0.748324 0.276800
Si Si4 0.017323 0.863294 0.453304
Si Si5 0.418109 0.739534 0.561884
Si Si6 0.199252 0.289932 0.234945
O O1 0.564536 0.771008 0.363982
O O2 0.921045 0.722160 0.486116
O O3 0.851934 0.647690 0.683326
O O4 0.985359 0.324596 0.710123
O O5 0.901279 0.038903 0.229550
O O6 0.723805 0.147215 0.924092
O O7 0.162366 0.911243 0.210900
O O8 0.474109 0.452299 0.425296
O O9 0.281913 0.677123 0.600959
O O10 0.000000 0.000000 0.500000
O O11 0.603837 0.703202 0.724171
O O12 0.265401 0.023308 0.342682
O O13 0.000000 0.500000 0.000000
#
# Coordination Sequence:
#
# PCOD8035021 Si02
#       6
#     2   2   2   2   2   2
#     4  12  24  47  69 104 144 182 234 293 349 414
#     4  11  25  46  74 107 141 179 244 286 347 419
#     4  11  25  46  78 106 133 187 239 297 343 398
#     4  12  26  47  69 101 151 189 221 288 361 418
#     4  11  24  47  73 100 145 179 234 293 342 414
#     4  11  26  45  74 106 137 185 238 289 348 416
#
# _framework density 23.384391000000001
#
# number of rings (size 3 to 8) (size 9 to 14) (size 15 to 20)
#    0.000    0.667    5.000    2.000    2.333    3.333 
#    0.000    1.667    0.000    0.000    0.000    0.000 
#    0.000    0.000    0.000    0.000    0.000    0.000 
#
# Total GULP energy -148726.928513 kJ/mol
# GULP energy per Si atom -12393.910709 kJ/mol
# Density = 2.333117 g / cm^3
# Si number density = 23.384391 Si / 1000 Ang^3
#
#
#
# Elastic Constant Matrix: (Units=GPa)
#
#
# Indices 1 2 3 4 5 6 
#
# 1 178.1221 51.5501 62.2874 23.7934 6.9640 21.6683
# 2 51.5501 148.5502 57.1429 26.7791 -4.2855 -9.9453
# 3 62.2874 57.1429 167.0509 34.3866 10.6310 3.9743
# 4 23.7934 26.7791 34.3866 35.2240 -7.1788 -3.7826
# 5 6.9640 -4.2855 10.6310 -7.1788 26.2232 11.7185
# 6 21.6683 -9.9453 3.9743 -3.7826 11.7185 49.8212
#
#
#
# Elastic Compliance Matrix: (Units=1/GPa)
#
#
# Indices 1 2 3 4 5 6 
#
# 1 0.007478 -0.001785 -0.001454 -0.002834 -0.000902 -0.003496
# 2 -0.001785 0.008806 -0.001742 -0.003408 0.000679 0.002255
# 3 -0.001454 -0.001742 0.009074 -0.007705 -0.005843 0.000350
# 4 -0.002834 -0.003408 -0.007705 0.043539 0.014795 0.000993
# 5 -0.000902 0.000679 -0.005843 0.014795 0.049120 -0.009436
# 6 -0.003496 0.002255 0.000350 0.000993 -0.009436 0.024309
#
#
# Mechanical properties :
#
#
# Convention : Reuss Voigt Hill
#
# Bulk Modulus (GPa) = 64.95006 92.85378 78.90192
# Shear Modulus (GPa) = 31.76210 43.76987 37.76599
#
# Velocity S-wave (km/s) = 3.68946 4.33107 4.02308
# Velocity P-wave (km/s) = 6.78120 8.05014 7.44276
#
# Compressibility (1/GPa) = 0.01539645
#
# Stress axis : x y z
#
# Youngs Moduli (GPa) = 133.72140 113.55640 110.20936
#
# Poissons Ratio (x) = 0.20270 0.16022
# Poissons Ratio (y) = 0.23869 0.19199
# Poissons Ratio (z) = 0.19440 0.19782
#
# Static dielectric constant tensor:
#      x y z
#    x 4.572370 0.024370 0.129350 
#    y 0.024370 4.611900 0.307020 
#    z 0.129350 0.307020 4.423030 
# 
# 
# High freq. dielectric constant tensor:
#      x y z
#    x 1.925860 0.006710 0.005240 
#    y 0.006710 1.958440 0.026450 
#    z 0.005240 0.026450 1.916660 
# 
# From -- ./inp_files/514122.got.cif
#   From: 2010.06.25/outbox.cif.g09.slc.cpg/sg2_258_cif.got.tgz:514122.got - 2010.06.27 13:26:56.
