data_PCOD8035787
_publ_section_title
;
Structure prediction by ZEFSAII (Michael W. Deem and Ramdas Pophale) SiO2 
 PCOD8035787
Probable space group: P -1
;
_chemical_formula_sum "Si O2"
_cell_formula_units_Z 12
_cell_length_a 14.985105
_cell_length_b 18.083499
_cell_length_c 8.747301
_cell_angle_alpha 46.900634
_cell_angle_beta 141.831338
_cell_angle_gamma 158.467502
_cell_volume 525.429918
_symmetry_space_group_name_H-M "P -1"
_symmetry_group_IT_number 2
_symmetry_cell_setting 'triclinic'
loop_
_space_group_symop_operation_xyz
x,y,z
-x,-y,-z
loop_
_atom_site_type_symbol
_atom_site_label
_atom_site_fract_x
_atom_site_fract_y
_atom_site_fract_z
Si Si1 0.771246 0.146166 0.547886
Si Si2 0.381992 0.272954 0.788657
Si Si3 0.915558 0.454629 0.273640
Si Si4 0.458901 0.875842 0.227518
Si Si5 0.339337 0.398159 0.083403
Si Si6 0.738071 0.848610 0.537713
O O1 0.890318 0.321698 0.378074
O O2 0.500000 0.000000 0.500000
O O3 0.678100 0.016344 0.467496
O O4 0.008716 0.236648 0.847136
O O5 0.522260 0.458361 0.789259
O O6 0.291166 0.228598 0.552652
O O7 0.594748 0.307600 0.044862
O O8 0.068861 0.064974 0.740038
O O9 0.000000 0.500000 0.500000
O O10 0.133618 0.652986 0.175623
O O11 0.553025 0.839003 0.301648
O O12 0.500000 0.000000 0.000000
O O13 0.388632 0.309318 0.293924
O O14 0.500000 0.500000 0.000000
#
# Coordination Sequence:
#
# PCOD8035787 Si02
#       6
#     2   2   2   2   2   2
#     4  12  24  43  72 107 141 186 236 292 357 420
#     4  11  25  47  70 101 144 187 235 285 359 419
#     4  12  24  46  76 105 142 189 236 294 357 423
#     4  12  28  48  71 108 145 187 243 298 354 426
#     4  12  25  41  70 104 139 181 234 291 347 422
#     4  11  27  46  71 100 145 189 232 291 358 422
#
# _framework density 22.838441
#
# number of rings (size 3 to 8) (size 9 to 14) (size 15 to 20)
#    0.000    0.333    3.333    4.500    0.000   10.667 
#    0.000    0.000    0.000    0.000    0.000    0.000 
#    0.000    0.000    0.000    0.000    0.000    0.000 
#
# Total GULP energy -148692.817153 kJ/mol
# GULP energy per Si atom -12391.068096 kJ/mol
# Density = 2.278646 g / cm^3
# Si number density = 22.838441 Si / 1000 Ang^3
#
#
#
# Elastic Constant Matrix: (Units=GPa)
#
#
# Indices 1 2 3 4 5 6 
#
# 1 112.1897 54.5940 30.7525 3.7788 7.1612 -5.0582
# 2 54.5940 118.9856 60.2593 -19.9651 -2.6344 -2.6540
# 3 30.7525 60.2593 113.6227 3.5580 14.2272 -2.6998
# 4 3.7788 -19.9651 3.5580 51.7801 -5.8605 3.1916
# 5 7.1612 -2.6344 14.2272 -5.8605 36.2322 -6.2609
# 6 -5.0582 -2.6540 -2.6998 3.1916 -6.2609 35.5264
#
#
#
# Elastic Compliance Matrix: (Units=1/GPa)
#
#
# Indices 1 2 3 4 5 6 
#
# 1 0.012474 -0.006967 0.000955 -0.004160 -0.003843 0.001025
# 2 -0.006967 0.017632 -0.008675 0.008741 0.007515 0.000205
# 3 0.000955 -0.008675 0.014213 -0.005200 -0.007284 -0.000249
# 4 -0.004160 0.008741 -0.005200 0.024236 0.007205 -0.001242
# 5 -0.003843 0.007515 -0.007284 0.007205 0.033754 0.004762
# 6 0.001025 0.000205 -0.000249 -0.001242 0.004762 0.029241
#
#
# Mechanical properties :
#
#
# Convention : Reuss Voigt Hill
#
# Bulk Modulus (GPa) = 66.92020 70.66770 68.79395
# Shear Modulus (GPa) = 30.13742 37.98721 34.06232
#
# Velocity S-wave (km/s) = 3.63656 4.08278 3.86611
# Velocity P-wave (km/s) = 6.85550 7.29624 7.07930
#
# Compressibility (1/GPa) = 0.01494317
#
# Stress axis : x y z
#
# Youngs Moduli (GPa) = 80.16834 56.71405 70.35981
#
# Poissons Ratio (x) = 0.39513 -0.06717
# Poissons Ratio (y) = 0.55854 0.61040
# Poissons Ratio (z) = -0.07654 0.49201
#
# Static dielectric constant tensor:
#      x y z
#    x 4.233550 -0.123450 -0.173830 
#    y -0.123450 4.809920 -0.013490 
#    z -0.173830 -0.013490 3.996790 
# 
# 
# High freq. dielectric constant tensor:
#      x y z
#    x 1.909390 -0.006280 -0.004230 
#    y -0.006280 1.915690 0.004740 
#    z -0.004230 0.004740 1.908340 
# 
# From -- ./inp_files/28694.got.cif
#   From: 2010.06.25/outbox.cif.g09.slc.cpg/sg2_15_cif.got.tgz:28694.got - 2010.06.27 13:26:56.
