data_PCOD8035609
_publ_section_title
;
Structure prediction by ZEFSAII (Michael W. Deem and Ramdas Pophale) SiO2 
 PCOD8035609
Probable space group: P -1
;
_chemical_formula_sum "Si O2"
_cell_formula_units_Z 16
_cell_length_a 11.775886
_cell_length_b 9.310979
_cell_length_c 8.440359
_cell_angle_alpha 90.092459
_cell_angle_beta 54.707302
_cell_angle_gamma 101.150918
_cell_volume 734.056634
_symmetry_space_group_name_H-M "P -1"
_symmetry_group_IT_number 2
_symmetry_cell_setting 'triclinic'
loop_
_space_group_symop_operation_xyz
x,y,z
-x,-y,-z
loop_
_atom_site_type_symbol
_atom_site_label
_atom_site_fract_x
_atom_site_fract_y
_atom_site_fract_z
Si Si1 0.134491 0.659522 0.226030
Si Si2 0.446246 0.673459 0.881499
Si Si3 0.448841 0.559407 0.381028
Si Si4 0.133069 0.969529 0.096651
Si Si5 0.561575 0.953123 0.611262
Si Si6 0.137293 0.593464 0.591033
Si Si7 0.432791 0.164254 0.897696
Si Si8 0.864801 0.096475 0.270042
O O1 0.112833 0.823788 0.219217
O O2 0.153202 0.639718 0.396351
O O3 0.997629 0.542010 0.268183
O O4 0.273824 0.632951 0.023068
O O5 0.508493 0.530109 0.803097
O O6 0.501085 0.779280 0.687126
O O7 0.507775 0.748651 0.994037
O O8 0.500000 0.500000 0.500000
O O9 0.278979 0.542772 0.528964
O O10 0.532045 0.728901 0.284145
O O11 0.160167 0.926670 0.895989
O O12 0.998688 0.040055 0.224608
O O13 0.264698 0.097056 0.051693
O O14 0.500000 0.000000 0.500000
O O15 0.511632 0.032506 0.804299
O O16 0.732413 0.996163 0.470633
O O17 0.116087 0.730516 0.712509
#
# Coordination Sequence:
#
# PCOD8035609 Si02
#       8
#     2   2   2   2   2   2   2   2
#     4  11  25  48  68 104 137 182 227 280 344 408
#     4  12  26  43  72 101 138 180 227 288 337 409
#     4  12  28  45  69 103 138 184 232 281 346 410
#     4  11  27  43  72 101 139 178 230 280 344 407
#     4  12  22  43  72  99 136 178 225 285 339 399
#     4  11  27  46  71  97 145 180 228 281 343 411
#     4  12  24  45  69 101 136 179 232 282 344 401
#     4  11  25  46  66 104 139 179 225 283 340 413
#
# _framework density 21.796683999999999
#
# number of rings (size 3 to 8) (size 9 to 14) (size 15 to 20)
#    0.000    0.500    5.000    1.500    7.000    3.000 
#    0.000    0.000    0.000    0.000    0.000    0.000 
#    0.000    0.000    0.000    0.000    0.000    0.000 
#
# Total GULP energy -198512.996606 kJ/mol
# GULP energy per Si atom -12407.062288 kJ/mol
# Density = 2.174707 g / cm^3
# Si number density = 21.796684 Si / 1000 Ang^3
#
#
#
# Elastic Constant Matrix: (Units=GPa)
#
#
# Indices 1 2 3 4 5 6 
#
# 1 128.9922 52.4817 59.1665 -8.8751 -34.0649 -4.3162
# 2 52.4817 106.1301 36.8979 -6.3027 -28.5681 1.4437
# 3 59.1665 36.8979 86.6100 -8.8973 -27.9076 7.5151
# 4 -8.8751 -6.3027 -8.8973 56.7880 -0.5169 -6.3457
# 5 -34.0649 -28.5681 -27.9076 -0.5169 41.9259 -5.5982
# 6 -4.3162 1.4437 7.5151 -6.3457 -5.5982 32.1833
#
#
#
# Elastic Compliance Matrix: (Units=1/GPa)
#
#
# Indices 1 2 3 4 5 6 
#
# 1 0.013657 -0.003017 -0.006612 0.001336 0.005282 0.004693
# 2 -0.003017 0.012987 -0.001714 0.000806 0.005334 0.000500
# 3 -0.006612 -0.001714 0.019106 0.001373 0.005658 -0.004016
# 4 0.001336 0.000806 0.001373 0.018608 0.003321 0.004069
# 5 0.005282 0.005334 0.005658 0.003321 0.036404 0.006135
# 6 0.004693 0.000500 -0.004016 0.004069 0.006135 0.034486
#
#
# Mechanical properties :
#
#
# Convention : Reuss Voigt Hill
#
# Bulk Modulus (GPa) = 43.35772 68.75829 56.05800
# Shear Modulus (GPa) = 30.18948 37.72519 33.95734
#
# Velocity S-wave (km/s) = 3.72566 4.16477 3.95132
# Velocity P-wave (km/s) = 6.20020 7.39871 6.82581
#
# Compressibility (1/GPa) = 0.02306394
#
# Stress axis : x y z
#
# Youngs Moduli (GPa) = 73.22444 77.00042 52.34074
#
# Poissons Ratio (x) = 0.23232 0.34607
# Poissons Ratio (y) = 0.22093 0.08969
# Poissons Ratio (z) = 0.48416 0.13194
#
# Static dielectric constant tensor:
#      x y z
#    x 4.066470 -0.271990 -0.268670 
#    y -0.271990 5.512790 -0.043990 
#    z -0.268670 -0.043990 4.231360 
# 
# 
# High freq. dielectric constant tensor:
#      x y z
#    x 1.862830 -0.000460 -0.003050 
#    y -0.000460 1.869790 -0.002450 
#    z -0.003050 -0.002450 1.867970 
# 
# From -- ./inp_files/206938.got.cif
#   From: 2010.06.25/outbox.cif.g09.slc.cpg/sg2_104_cif.got.tgz:206938.got - 2010.06.27 13:26:56.
