data_PCOD8035864
_publ_section_title
;
Structure prediction by ZEFSAII (Michael W. Deem and Ramdas Pophale) SiO2 
 PCOD8035864
Probable space group: P -1
;
_chemical_formula_sum "Si O2"
_cell_formula_units_Z 14
_cell_length_a 19.388538
_cell_length_b 11.483141
_cell_length_c 10.899671
_cell_angle_alpha 128.587460
_cell_angle_beta 156.956728
_cell_angle_gamma 39.333709
_cell_volume 562.883114
_symmetry_space_group_name_H-M "P -1"
_symmetry_group_IT_number 2
_symmetry_cell_setting 'triclinic'
loop_
_space_group_symop_operation_xyz
x,y,z
-x,-y,-z
loop_
_atom_site_type_symbol
_atom_site_label
_atom_site_fract_x
_atom_site_fract_y
_atom_site_fract_z
Si Si1 0.286113 0.190047 0.702537
Si Si2 0.052618 0.587263 0.487856
Si Si3 0.269678 0.717980 0.772924
Si Si4 0.110786 0.819891 0.303165
Si Si5 0.254645 0.908505 0.388447
Si Si6 0.602988 0.106237 0.726175
Si Si7 0.305945 0.414419 0.250080
O O1 0.284104 0.355823 0.743736
O O2 0.062808 0.311898 0.505363
O O3 0.261654 0.080958 0.483275
O O4 0.500000 0.000000 0.000000
O O5 0.110148 0.714278 0.604807
O O6 0.880756 0.593032 0.120375
O O7 0.147837 0.794519 0.492569
O O8 0.500000 0.500000 0.000000
O O9 0.325046 0.854005 0.001676
O O10 0.257509 0.875587 0.520534
O O11 0.193003 0.634411 0.235615
O O12 0.830981 0.984810 0.932013
O O13 0.467547 0.699787 0.541417
O O14 0.000000 0.000000 0.000000
O O15 0.390890 0.312322 0.454428
O O16 0.500000 0.000000 0.500000
#
# Coordination Sequence:
#
# PCOD8035864 Si02
#       7
#     2   2   2   2   2   2   2
#     4  11  25  47  75 109 147 206 245 317 371 449
#     4  11  27  47  74 109 156 193 262 303 380 451
#     4  12  28  50  76 112 151 204 250 314 377 452
#     4  12  27  48  77 108 158 199 251 315 379 452
#     4  12  25  47  77 111 153 193 257 309 389 443
#     4  12  28  49  77 110 151 200 255 311 383 453
#     4  12  26  47  74 114 145 207 247 319 378 449
#
# _framework density 24.871948
#
# number of rings (size 3 to 8) (size 9 to 14) (size 15 to 20)
#    0.000    0.286    4.286    3.429    4.000    2.286 
#    0.000    0.000    0.000    0.000    0.000    0.000 
#    0.000    0.000    0.000    0.000    0.000    0.000 
#
# Total GULP energy -173442.215588 kJ/mol
# GULP energy per Si atom -12388.729685 kJ/mol
# Density = 2.481534 g / cm^3
# Si number density = 24.871948 Si / 1000 Ang^3
#
#
#
# Elastic Constant Matrix: (Units=GPa)
#
#
# Indices 1 2 3 4 5 6 
#
# 1 75.0731 10.8309 -0.6981 9.6280 -0.3137 -0.2879
# 2 10.8309 134.6322 37.9003 3.0269 1.1716 -14.6190
# 3 -0.6981 37.9003 105.8288 -1.9297 -10.6580 -3.8981
# 4 9.6280 3.0269 -1.9297 57.1809 2.8093 -3.5862
# 5 -0.3137 1.1716 -10.6580 2.8093 36.0801 -1.0232
# 6 -0.2879 -14.6190 -3.8981 -3.5862 -1.0232 46.9804
#
#
#
# Elastic Compliance Matrix: (Units=1/GPa)
#
#
# Indices 1 2 3 4 5 6 
#
# 1 0.013801 -0.001260 0.000533 -0.002290 0.000485 -0.000427
# 2 -0.001260 0.008689 -0.003150 -0.000148 -0.001144 0.002399
# 3 0.000533 -0.003150 0.010920 0.000284 0.003311 0.000023
# 4 -0.002290 -0.000148 0.000284 0.018037 -0.001298 0.001312
# 5 0.000485 -0.001144 0.003311 -0.001298 0.028850 0.000451
# 6 -0.000427 0.002399 0.000023 0.001312 0.000451 0.022141
#
#
# Mechanical properties :
#
#
# Convention : Reuss Voigt Hill
#
# Bulk Modulus (GPa) = 38.97278 45.73334 42.35306
# Shear Modulus (GPa) = 42.10751 45.88167 43.99459
#
# Velocity S-wave (km/s) = 4.11904 4.29967 4.21033
# Velocity P-wave (km/s) = 6.19075 6.56331 6.37975
#
# Compressibility (1/GPa) = 0.02565893
#
# Stress axis : x y z
#
# Youngs Moduli (GPa) = 72.45807 115.08272 91.57273
#
# Poissons Ratio (x) = 0.14496 -0.04885
# Poissons Ratio (y) = 0.09127 0.28843
# Poissons Ratio (z) = -0.03865 0.36249
#
# Static dielectric constant tensor:
#      x y z
#    x 3.301640 -1.522970 -0.417870 
#    y -1.522970 3.611880 -0.399690 
#    z -0.417870 -0.399690 4.651770 
# 
# 
# High freq. dielectric constant tensor:
#      x y z
#    x 1.994150 -0.003170 -0.011650 
#    y -0.003170 2.012100 -0.009700 
#    z -0.011650 -0.009700 2.000140 
# 
# From -- ./inp_files/451845.got.cif
#   From: 2010.06.25/outbox.cif.g09.slc.cpg/sg2_226_cif.got.tgz:451845.got - 2010.06.27 13:26:56.
