data_PCOD8035822
_publ_section_title
;
Structure prediction by ZEFSAII (Michael W. Deem and Ramdas Pophale) SiO2 
 PCOD8035822
Probable space group: P -1
;
_chemical_formula_sum "Si O2"
_cell_formula_units_Z 16
_cell_length_a 15.059660
_cell_length_b 14.242277
_cell_length_c 9.236163
_cell_angle_alpha 140.032674
_cell_angle_beta 38.316399
_cell_angle_gamma 143.094348
_cell_volume 684.201844
_symmetry_space_group_name_H-M "P -1"
_symmetry_group_IT_number 2
_symmetry_cell_setting 'triclinic'
loop_
_space_group_symop_operation_xyz
x,y,z
-x,-y,-z
loop_
_atom_site_type_symbol
_atom_site_label
_atom_site_fract_x
_atom_site_fract_y
_atom_site_fract_z
Si Si1 0.650637 0.501572 0.971863
Si Si2 0.820732 0.726759 0.275003
Si Si3 0.956874 0.638382 0.266795
Si Si4 0.286167 0.323795 0.193485
Si Si5 0.173055 0.964366 0.034248
Si Si6 0.716193 0.156299 0.764780
Si Si7 0.832460 0.316214 0.496469
Si Si8 0.602955 0.875524 0.788290
O O1 0.688661 0.643186 0.970241
O O2 0.682033 0.351640 0.699463
O O3 0.779448 0.590740 0.042099
O O4 0.461152 0.424041 0.171424
O O5 0.856358 0.660868 0.296337
O O6 0.659588 0.741392 0.524570
O O7 0.983057 0.905256 0.245247
O O8 0.837341 0.607625 0.520319
O O9 0.136196 0.792293 0.250512
O O10 0.000000 0.500000 0.000000
O O11 0.222043 0.126703 0.065195
O O12 0.172090 0.807984 0.768933
O O13 0.286309 0.003235 0.077619
O O14 0.795966 0.208969 0.565823
O O15 0.608785 0.961406 0.724659
O O16 0.589628 0.227926 0.035980
O O17 0.000000 0.500000 0.500000
#
# Coordination Sequence:
#
# PCOD8035822 Si02
#       8
#     2   2   2   2   2   2   2   2
#     4  11  27  48  71 110 148 198 242 310 365 451
#     4  12  25  46  76 104 153 190 248 304 376 440
#     4  12  26  44  74 105 145 196 242 307 366 443
#     4  11  27  48  73 109 149 191 258 298 378 438
#     4  12  25  48  76 108 147 199 245 315 366 452
#     4  11  26  45  72 109 148 190 253 304 373 440
#     4  12  26  48  74 108 150 197 251 304 377 448
#     4  11  25  47  72 113 147 192 250 310 374 445
#
# _framework density 23.384912
#
# number of rings (size 3 to 8) (size 9 to 14) (size 15 to 20)
#    0.000    0.500    3.750    3.375    5.250    3.000 
#    4.500    0.000    0.000    0.000    0.000    0.000 
#    0.000    0.000    0.000    0.000    0.000    0.000 
#
# Total GULP energy -198246.808498 kJ/mol
# GULP energy per Si atom -12390.425531 kJ/mol
# Density = 2.333169 g / cm^3
# Si number density = 23.384912 Si / 1000 Ang^3
#
#
#
# Elastic Constant Matrix: (Units=GPa)
#
#
# Indices 1 2 3 4 5 6 
#
# 1 71.2383 6.2087 26.0135 -4.1932 -13.4784 4.9183
# 2 6.2087 80.0102 39.5885 -8.4804 1.3333 -0.9632
# 3 26.0135 39.5885 137.1488 -3.6908 -24.0932 7.6327
# 4 -4.1932 -8.4804 -3.6908 31.5164 4.8994 -12.1208
# 5 -13.4784 1.3333 -24.0932 4.8994 46.0683 -6.4505
# 6 4.9183 -0.9632 7.6327 -12.1208 -6.4505 40.3420
#
#
#
# Elastic Compliance Matrix: (Units=1/GPa)
#
#
# Indices 1 2 3 4 5 6 
#
# 1 0.015593 0.000003 -0.002344 0.001070 0.003133 -0.000635
# 2 0.000003 0.015632 -0.005090 0.005016 -0.003323 0.002312
# 3 -0.002344 -0.005090 0.010068 -0.001825 0.004706 -0.001537
# 4 0.001070 0.005016 -0.001825 0.037810 -0.003243 0.011176
# 5 0.003133 -0.003323 0.004706 -0.003243 0.025777 0.001796
# 6 -0.000635 0.002312 -0.001537 0.011176 0.001796 0.028856
#
#
# Mechanical properties :
#
#
# Convention : Reuss Voigt Hill
#
# Bulk Modulus (GPa) = 37.83438 48.00207 42.91822
# Shear Modulus (GPa) = 31.76444 38.02444 34.89444
#
# Velocity S-wave (km/s) = 3.68955 4.03677 3.86706
# Velocity P-wave (km/s) = 5.86212 6.50376 6.19126
#
# Compressibility (1/GPa) = 0.02643099
#
# Stress axis : x y z
#
# Youngs Moduli (GPa) = 64.13280 63.97275 99.32078
#
# Poissons Ratio (x) = -0.00021 0.23280
# Poissons Ratio (y) = -0.00021 0.50557
# Poissons Ratio (z) = 0.15032 0.32564
#
# Static dielectric constant tensor:
#      x y z
#    x 4.191250 0.000430 -0.066170 
#    y 0.000430 4.013170 -0.405570 
#    z -0.066170 -0.405570 4.139620 
# 
# 
# High freq. dielectric constant tensor:
#      x y z
#    x 1.938570 -0.005060 -0.016050 
#    y -0.005060 1.926650 -0.022350 
#    z -0.016050 -0.022350 1.928320 
# 
# From -- ./inp_files/316035.got.cif
#   From: 2010.06.25/outbox.cif.g09.slc.cpg/sg2_159_cif.got.tgz:316035.got - 2010.06.27 13:26:56.
