data_PCOD8035817
_publ_section_title
;
Structure prediction by ZEFSAII (Michael W. Deem and Ramdas Pophale) SiO2 
 PCOD8035817
Probable space group: P -1
;
_chemical_formula_sum "Si O2"
_cell_formula_units_Z 16
_cell_length_a 13.261921
_cell_length_b 22.777811
_cell_length_c 9.556639
_cell_angle_alpha 32.737788
_cell_angle_beta 136.669418
_cell_angle_gamma 154.416091
_cell_volume 668.100303
_symmetry_space_group_name_H-M "P -1"
_symmetry_group_IT_number 2
_symmetry_cell_setting 'triclinic'
loop_
_space_group_symop_operation_xyz
x,y,z
-x,-y,-z
loop_
_atom_site_type_symbol
_atom_site_label
_atom_site_fract_x
_atom_site_fract_y
_atom_site_fract_z
Si Si1 0.752172 0.371610 0.077445
Si Si2 0.816899 0.256316 0.924505
Si Si3 0.471524 0.075558 0.200101
Si Si4 0.899484 0.794202 0.688522
Si Si5 0.749434 0.808558 0.782305
Si Si6 0.720296 0.330032 0.419661
Si Si7 0.981100 0.876776 0.144073
Si Si8 0.700549 0.586668 0.637828
O O1 0.720641 0.471049 0.915871
O O2 0.558437 0.237668 0.034474
O O3 0.712960 0.269934 0.377679
O O4 0.000000 0.500000 0.000000
O O5 0.692916 0.219601 0.727760
O O6 0.030468 0.463434 0.743360
O O7 0.627340 0.146005 0.079012
O O8 0.905460 0.185690 0.142762
O O9 0.500000 0.000000 0.500000
O O10 0.208167 0.959882 0.124904
O O11 0.777037 0.737665 0.828179
O O12 0.697857 0.646682 0.665562
O O13 0.032251 0.981805 0.406958
O O14 0.497925 0.715695 0.687140
O O15 0.764709 0.756925 0.052399
O O16 0.938566 0.761493 0.450208
O O17 0.000000 0.000000 0.000000
O O18 0.500000 0.500000 0.500000
#
# Coordination Sequence:
#
# PCOD8035817 Si02
#       8
#     2   2   2   2   2   2   2   2
#     4  12  24  46  70 106 143 190 239 299 367 429
#     4  11  26  48  73 105 146 194 241 301 369 439
#     4  12  27  47  76 108 149 191 246 307 365 442
#     4  11  25  48  69 106 145 191 248 297 368 434
#     4  11  27  46  74 104 148 194 244 307 362 439
#     4  11  25  47  72 104 145 190 241 301 364 438
#     4  12  25  46  73 111 145 196 248 298 372 434
#     4  12  25  46  73 104 146 192 241 303 360 436
#
# _framework density 23.948501
#
# number of rings (size 3 to 8) (size 9 to 14) (size 15 to 20)
#    0.000    0.500    3.750    3.750    5.250    3.000 
#    0.000    0.000    0.000    0.000    0.000    0.000 
#    0.000    0.000    0.000    0.000    0.000    0.000 
#
# Total GULP energy -198318.722111 kJ/mol
# GULP energy per Si atom -12394.920132 kJ/mol
# Density = 2.389399 g / cm^3
# Si number density = 23.948501 Si / 1000 Ang^3
#
#
#
# Elastic Constant Matrix: (Units=GPa)
#
#
# Indices 1 2 3 4 5 6 
#
# 1 166.5431 48.7475 45.8690 25.8239 -21.2188 -7.8412
# 2 48.7475 89.1017 19.3889 32.3068 -2.7323 -4.6723
# 3 45.8690 19.3889 109.4431 27.5664 -20.8640 -6.3733
# 4 25.8239 32.3068 27.5664 42.3538 -3.8895 -1.5482
# 5 -21.2188 -2.7323 -20.8640 -3.8895 41.9984 4.9034
# 6 -7.8412 -4.6723 -6.3733 -1.5482 4.9034 42.8442
#
#
#
# Elastic Compliance Matrix: (Units=1/GPa)
#
#
# Indices 1 2 3 4 5 6 
#
# 1 0.008102 -0.003690 -0.002067 -0.000513 0.002727 0.000442
# 2 -0.003690 0.017275 0.001280 -0.011842 -0.001332 0.001124
# 3 -0.002067 0.001280 0.012557 -0.007446 0.004489 0.000846
# 4 -0.000513 -0.011842 -0.007446 0.037663 -0.001124 -0.001003
# 5 0.002727 -0.001332 0.004489 -0.001124 0.027480 -0.002164
# 6 0.000442 0.001124 0.000846 -0.001003 -0.002164 0.023881
#
#
# Mechanical properties :
#
#
# Convention : Reuss Voigt Hill
#
# Bulk Modulus (GPa) = 34.50547 65.89987 50.20267
# Shear Modulus (GPa) = 34.34754 42.17809 38.26282
#
# Velocity S-wave (km/s) = 3.79123 4.20122 4.00148
# Velocity P-wave (km/s) = 5.79689 7.14918 6.50825
#
# Compressibility (1/GPa) = 0.02898091
#
# Stress axis : x y z
#
# Youngs Moduli (GPa) = 123.43314 57.88752 79.63598
#
# Poissons Ratio (x) = 0.21358 0.16459
# Poissons Ratio (y) = 0.45542 -0.10194
# Poissons Ratio (z) = 0.25512 -0.07410
#
# Static dielectric constant tensor:
#      x y z
#    x 4.270980 -0.073390 -0.399820 
#    y -0.073390 5.151450 0.053810 
#    z -0.399820 0.053810 4.611920 
# 
# 
# High freq. dielectric constant tensor:
#      x y z
#    x 1.955180 -0.001760 -0.017610 
#    y -0.001760 1.960450 0.001720 
#    z -0.017610 0.001720 1.961630 
# 
# From -- ./inp_files/282802.got.cif
#   From: 2010.06.25/outbox.cif.g09.slc.cpg/sg2_142_cif.got.tgz:282802.got - 2010.06.27 13:26:56.
