data_PCOD8035215
_publ_section_title
;
Structure prediction by ZEFSAII (Michael W. Deem and Ramdas Pophale) SiO2 
 PCOD8035215
Probable space group: P -1
;
_chemical_formula_sum "Si O2"
_cell_formula_units_Z 16
_cell_length_a 6.759559
_cell_length_b 17.336188
_cell_length_c 14.608689
_cell_angle_alpha 28.060243
_cell_angle_beta 113.344297
_cell_angle_gamma 104.047801
_cell_volume 716.339593
_symmetry_space_group_name_H-M "P -1"
_symmetry_group_IT_number 2
_symmetry_cell_setting 'triclinic'
loop_
_space_group_symop_operation_xyz
x,y,z
-x,-y,-z
loop_
_atom_site_type_symbol
_atom_site_label
_atom_site_fract_x
_atom_site_fract_y
_atom_site_fract_z
Si Si1 0.739541 0.873274 0.182654
Si Si2 0.721305 0.499902 0.594528
Si Si3 0.570997 0.343502 0.899775
Si Si4 0.617355 0.394427 0.254388
Si Si5 0.103150 0.949644 0.290413
Si Si6 0.850059 0.760279 0.125551
Si Si7 0.983388 0.100764 0.297796
Si Si8 0.818241 0.589609 0.946126
O O1 0.735240 0.690974 0.411678
O O2 0.863661 0.849659 0.131935
O O3 0.868870 0.963100 0.183757
O O4 0.500000 0.000000 0.000000
O O5 0.500000 0.500000 0.500000
O O6 0.722222 0.422303 0.776899
O O7 0.930938 0.390092 0.691946
O O8 0.492558 0.459983 0.849349
O O9 0.364398 0.316192 0.831900
O O10 0.725257 0.172381 0.149058
O O11 0.734032 0.233377 0.505938
O O12 0.426549 0.346404 0.208830
O O13 0.801148 0.456089 0.162767
O O14 0.088822 0.967907 0.377912
O O15 0.196108 0.100755 0.108344
O O16 0.112541 0.248657 0.170065
O O17 0.000000 0.000000 0.500000
O O18 0.000000 0.500000 0.000000
#
# Coordination Sequence:
#
# PCOD8035215 Si02
#       8
#     2   2   2   2   2   2   2   2
#     4  12  27  47  76 107 151 190 245 302 367 439
#     4  12  26  48  77 104 147 197 244 297 366 434
#     4  12  26  47  73 109 143 195 246 295 366 440
#     4  11  27  43  75 105 138 193 241 297 364 428
#     4  12  27  45  71 109 145 188 242 299 363 431
#     4  12  26  49  72 107 150 192 244 302 365 440
#     4  12  27  47  76 104 150 191 242 305 362 433
#     4  11  24  50  71 103 145 187 245 300 362 429
#
# _framework density 22.335775999999999
#
# number of rings (size 3 to 8) (size 9 to 14) (size 15 to 20)
#    0.000    0.250    3.750    4.500    8.750    1.500 
#    0.000    0.000    0.000    0.000    0.000    0.000 
#    0.000    0.000    0.000    0.000    0.000    0.000 
#
# Total GULP energy -198508.688139 kJ/mol
# GULP energy per Si atom -12406.793009 kJ/mol
# Density = 2.228494 g / cm^3
# Si number density = 22.335776 Si / 1000 Ang^3
#
#
#
# Elastic Constant Matrix: (Units=GPa)
#
#
# Indices 1 2 3 4 5 6 
#
# 1 119.0197 36.2092 45.5846 0.7026 -0.0158 -8.4744
# 2 36.2092 102.0168 9.9636 6.1792 -12.3368 -5.0528
# 3 45.5846 9.9636 132.5099 3.2755 -0.3831 -8.3724
# 4 0.7026 6.1792 3.2755 35.6739 -2.0218 -1.6427
# 5 -0.0158 -12.3368 -0.3831 -2.0218 33.9019 5.2466
# 6 -8.4744 -5.0528 -8.3724 -1.6427 5.2466 47.9802
#
#
#
# Elastic Compliance Matrix: (Units=1/GPa)
#
#
# Indices 1 2 3 4 5 6 
#
# 1 0.010920 -0.003712 -0.003428 0.000709 -0.001517 0.001130
# 2 -0.003712 0.011687 0.000462 -0.001753 0.004130 0.000144
# 3 -0.003428 0.000462 0.008770 -0.000770 0.000075 0.000939
# 4 0.000709 -0.001753 -0.000770 0.028477 0.000947 0.000678
# 5 -0.001517 0.004130 0.000075 0.000947 0.031557 -0.003238
# 6 0.001130 0.000144 0.000939 0.000678 -0.003238 0.021598
#
#
# Mechanical properties :
#
#
# Convention : Reuss Voigt Hill
#
# Bulk Modulus (GPa) = 55.48555 59.67347 57.57951
# Shear Modulus (GPa) = 37.77259 40.96381 39.36820
#
# Velocity S-wave (km/s) = 4.11679 4.28717 4.20284
# Velocity P-wave (km/s) = 6.89150 7.16107 7.02758
#
# Compressibility (1/GPa) = 0.01802271
#
# Stress axis : x y z
#
# Youngs Moduli (GPa) = 91.57404 85.56366 114.02890
#
# Poissons Ratio (x) = 0.31757 0.39090
# Poissons Ratio (y) = 0.33988 -0.05273
# Poissons Ratio (z) = 0.31392 -0.03957
#
# Static dielectric constant tensor:
#      x y z
#    x 3.032570 0.083380 0.535020 
#    y 0.083380 4.159140 0.006360 
#    z 0.535020 0.006360 3.844440 
# 
# 
# High freq. dielectric constant tensor:
#      x y z
#    x 1.886690 -0.001620 0.000140 
#    y -0.001620 1.893140 0.002570 
#    z 0.000140 0.002570 1.892630 
# 
# From -- ./inp_files/49410.got.cif
#   From: 2010.06.25/outbox.cif.g09.slc.cpg/sg2_25_cif.got.tgz:49410.got - 2010.06.27 13:26:56.
