data_PCOD8035399
_publ_section_title
;
Structure prediction by ZEFSAII (Michael W. Deem and Ramdas Pophale) SiO2 
 PCOD8035399
Probable space group: P -1
;
_chemical_formula_sum "Si O2"
_cell_formula_units_Z 16
_cell_length_a 9.031305
_cell_length_b 9.655049
_cell_length_c 11.358709
_cell_angle_alpha 103.019851
_cell_angle_beta 100.319809
_cell_angle_gamma 46.951478
_cell_volume 704.744585
_symmetry_space_group_name_H-M "P -1"
_symmetry_group_IT_number 2
_symmetry_cell_setting 'triclinic'
loop_
_space_group_symop_operation_xyz
x,y,z
-x,-y,-z
loop_
_atom_site_type_symbol
_atom_site_label
_atom_site_fract_x
_atom_site_fract_y
_atom_site_fract_z
Si Si1 0.901758 0.838815 0.372134
Si Si2 0.562119 0.263704 0.366201
Si Si3 0.881209 0.243596 0.847138
Si Si4 0.234988 0.388782 0.743938
Si Si5 0.100121 0.276190 0.076387
Si Si6 0.409376 0.323570 0.106382
Si Si7 0.231456 0.571723 0.549463
Si Si8 0.344455 0.879037 0.126869
O O1 0.829109 0.732809 0.297168
O O2 0.042426 0.818235 0.287399
O O3 0.021623 0.750866 0.494388
O O4 0.717135 0.061642 0.416224
O O5 0.512800 0.223348 0.226425
O O6 0.359749 0.400284 0.440684
O O7 0.650735 0.364327 0.376980
O O8 0.673663 0.464030 0.862412
O O9 0.831882 0.118374 0.862851
O O10 0.053375 0.204774 0.945480
O O11 0.183546 0.501077 0.637962
O O12 0.473566 0.244468 0.777444
O O13 0.109670 0.543106 0.859654
O O14 0.222647 0.334872 0.057801
O O15 0.241743 0.099886 0.154413
O O16 0.578344 0.203379 0.008660
#
# Coordination Sequence:
#
# PCOD8035399 Si02
#       8
#     2   2   2   2   2   2   2   2
#     4  12  25  46  70  98 132 177 221 273 332 387
#     4  11  25  44  72  98 131 174 221 276 331 388
#     4  12  24  43  70  99 137 174 218 271 331 392
#     4  12  26  44  70  98 135 176 218 274 329 392
#     4  12  25  44  67 102 138 173 217 270 329 399
#     4  12  22  46  70  95 139 176 214 273 331 392
#     4  11  26  45  69  98 132 172 226 277 328 383
#     4  12  27  41  69 103 134 176 219 267 331 398
#
# _framework density 22.703263
#
# number of rings (size 3 to 8) (size 9 to 14) (size 15 to 20)
#    0.000    0.250    3.750    5.250    5.250    1.500 
#    0.000    0.000    0.000    0.000    0.000    0.000 
#    0.000    0.000    0.000    0.000    0.000    0.000 
#
# Total GULP energy -198568.844804 kJ/mol
# GULP energy per Si atom -12410.552800 kJ/mol
# Density = 2.265159 g / cm^3
# Si number density = 22.703263 Si / 1000 Ang^3
#
#
#
# Elastic Constant Matrix: (Units=GPa)
#
#
# Indices 1 2 3 4 5 6 
#
# 1 71.7767 1.6732 24.0156 -11.1892 -4.7463 2.6432
# 2 1.6732 102.7444 -0.1924 -19.0865 -9.4467 -9.0013
# 3 24.0156 -0.1924 85.7893 -25.5243 -1.6481 -3.1760
# 4 -11.1892 -19.0865 -25.5243 25.7794 3.4431 2.8588
# 5 -4.7463 -9.4467 -1.6481 3.4431 30.0097 -12.1510
# 6 2.6432 -9.0013 -3.1760 2.8588 -12.1510 28.1348
#
#
#
# Elastic Compliance Matrix: (Units=1/GPa)
#
#
# Indices 1 2 3 4 5 6 
#
# 1 0.015777 0.000465 -0.003276 0.003927 0.001406 -0.001495
# 2 0.000465 0.012991 0.003879 0.012351 0.005203 0.005543
# 3 -0.003276 0.003879 0.018453 0.019505 0.000178 0.001727
# 4 0.003927 0.012351 0.019505 0.069744 -0.003574 -0.002846
# 5 0.001406 0.005203 0.000178 -0.003574 0.044088 0.020957
# 6 -0.001495 0.005543 0.001727 -0.002846 0.020957 0.046992
#
#
# Mechanical properties :
#
#
# Convention : Reuss Voigt Hill
#
# Bulk Modulus (GPa) = 20.26067 34.58923 27.42495
# Shear Modulus (GPa) = 22.48586 32.43904 27.46245
#
# Velocity S-wave (km/s) = 3.15052 3.78408 3.48174
# Velocity P-wave (km/s) = 4.70933 5.86181 5.31689
#
# Compressibility (1/GPa) = 0.04935670
#
# Stress axis : x y z
#
# Youngs Moduli (GPa) = 63.38157 76.97676 54.19275
#
# Poissons Ratio (x) = -0.03577 0.17752
# Poissons Ratio (y) = -0.02945 -0.21021
# Poissons Ratio (z) = 0.20762 -0.29858
#
# Static dielectric constant tensor:
#      x y z
#    x 3.990080 0.007320 0.013920 
#    y 0.007320 4.289940 -0.107820 
#    z 0.013920 -0.107820 3.984250 
# 
# 
# High freq. dielectric constant tensor:
#      x y z
#    x 1.896550 0.000240 0.003470 
#    y 0.000240 1.912990 -0.010420 
#    z 0.003470 -0.010420 1.895110 
# 
# From -- ./inp_files/188879.got.cif
#   From: 2010.06.25/outbox.cif.g09.slc.cpg/sg2_95_cif.got.tgz:188879.got - 2010.06.27 13:26:56.
