data_PCOD8035094
_publ_section_title
;
Structure prediction by ZEFSAII (Michael W. Deem and Ramdas Pophale) SiO2 
 PCOD8035094
Probable space group: P -1
;
_chemical_formula_sum "Si O2"
_cell_formula_units_Z 16
_cell_length_a 15.073607
_cell_length_b 10.870539
_cell_length_c 9.738875
_cell_angle_alpha 108.497845
_cell_angle_beta 117.553872
_cell_angle_gamma 124.852506
_cell_volume 697.500295
_symmetry_space_group_name_H-M "P -1"
_symmetry_group_IT_number 2
_symmetry_cell_setting 'triclinic'
loop_
_space_group_symop_operation_xyz
x,y,z
-x,-y,-z
loop_
_atom_site_type_symbol
_atom_site_label
_atom_site_fract_x
_atom_site_fract_y
_atom_site_fract_z
Si Si1 0.080820 0.780115 0.231643
Si Si2 0.173700 0.116491 0.593176
Si Si3 0.910365 0.590552 0.507498
Si Si4 0.676208 0.548243 0.427838
Si Si5 0.580872 0.957747 0.606104
Si Si6 0.783119 0.625128 0.823294
Si Si7 0.267873 0.181576 0.966029
Si Si8 0.110381 0.604219 0.832488
O O1 0.969162 0.532181 0.125324
O O2 0.111914 0.904615 0.430364
O O3 0.280968 0.958469 0.374409
O O4 0.956759 0.716967 0.004536
O O5 0.254123 0.272510 0.570787
O O6 0.329241 0.275659 0.884241
O O7 0.000000 0.000000 0.500000
O O8 0.956817 0.531472 0.630199
O O9 0.716452 0.447651 0.367378
O O10 0.855578 0.473558 0.278293
O O11 0.086413 0.885368 0.732247
O O12 0.797827 0.704475 0.710250
O O13 0.450872 0.318977 0.219090
O O14 0.414961 0.671763 0.415007
O O15 0.500000 0.000000 0.500000
O O16 0.688256 0.104322 0.880132
O O17 0.793716 0.751557 0.985848
#
# Coordination Sequence:
#
# PCOD8035094 Si02
#       8
#     2   2   2   2   2   2   2   2
#     4  12  24  46  75  99 144 191 233 286 358 413
#     4  12  23  47  73 104 142 186 232 289 354 422
#     4  11  25  46  72 101 141 185 236 296 344 415
#     4  12  26  43  72 105 144 182 230 291 359 415
#     4  12  27  44  69 102 142 184 235 287 340 424
#     4  12  27  46  73 107 142 183 232 294 355 422
#     4  12  25  47  74 105 143 181 236 295 353 422
#     4  11  24  48  70 100 143 189 238 286 347 418
#
# _framework density 22.939056999999998
#
# number of rings (size 3 to 8) (size 9 to 14) (size 15 to 20)
#    0.000    0.250    5.000    3.375    1.750    4.000 
#    0.000    1.875    0.000    0.000    0.000    0.000 
#    0.000    0.000    0.000    0.000    0.000    0.000 
#
# Total GULP energy -198444.491903 kJ/mol
# GULP energy per Si atom -12402.780744 kJ/mol
# Density = 2.288685 g / cm^3
# Si number density = 22.939057 Si / 1000 Ang^3
#
#
#
# Elastic Constant Matrix: (Units=GPa)
#
#
# Indices 1 2 3 4 5 6 
#
# 1 116.5514 35.6835 39.6180 8.8782 11.1004 1.3870
# 2 35.6835 86.4376 24.7129 -26.3227 -9.1974 -1.1329
# 3 39.6180 24.7129 92.4230 -16.3289 -10.3550 3.5436
# 4 8.8782 -26.3227 -16.3289 41.8492 -6.4274 0.3457
# 5 11.1004 -9.1974 -10.3550 -6.4274 47.9398 -1.5274
# 6 1.3870 -1.1329 3.5436 0.3457 -1.5274 28.9371
#
#
#
# Elastic Compliance Matrix: (Units=1/GPa)
#
#
# Indices 1 2 3 4 5 6 
#
# 1 0.016127 -0.009653 -0.007801 -0.013938 -0.009156 -0.000512
# 2 -0.009653 0.021252 0.002604 0.017850 0.009308 0.001254
# 3 -0.007801 0.002604 0.016221 0.010739 0.007209 -0.001258
# 4 -0.013938 0.017850 0.010739 0.044565 0.014956 0.000309
# 5 -0.009156 0.009308 0.007209 0.014956 0.028367 0.001239
# 6 -0.000512 0.001254 -0.001258 0.000309 0.001239 0.034847
#
#
# Mechanical properties :
#
#
# Convention : Reuss Voigt Hill
#
# Bulk Modulus (GPa) = 41.84053 55.04899 48.44476
# Shear Modulus (GPa) = 25.11995 36.77173 30.94584
#
# Velocity S-wave (km/s) = 3.31278 4.00811 3.67692
# Velocity P-wave (km/s) = 5.73691 6.74315 6.26028
#
# Compressibility (1/GPa) = 0.02390027
#
# Stress axis : x y z
#
# Youngs Moduli (GPa) = 62.00922 47.05360 61.64963
#
# Poissons Ratio (x) = 0.45420 0.48090
# Poissons Ratio (y) = 0.59856 -0.16051
# Poissons Ratio (z) = 0.48370 -0.12251
#
# Static dielectric constant tensor:
#      x y z
#    x 4.324970 -0.146200 -0.019050 
#    y -0.146200 4.235540 -0.288020 
#    z -0.019050 -0.288020 4.456550 
# 
# 
# High freq. dielectric constant tensor:
#      x y z
#    x 1.918540 -0.007140 -0.004780 
#    y -0.007140 1.910930 -0.015620 
#    z -0.004780 -0.015620 1.915890 
# 
# From -- ./inp_files/308149.got.cif
#   From: 2010.06.25/outbox.cif.g09.slc.cpg/sg2_155_cif.got.tgz:308149.got - 2010.06.27 13:26:56.
