data_PCOD8035048
_publ_section_title
;
Structure prediction by ZEFSAII (Michael W. Deem and Ramdas Pophale) SiO2 
 PCOD8035048
Probable space group: P -1
;
_chemical_formula_sum "Si O2"
_cell_formula_units_Z 16
_cell_length_a 6.561131
_cell_length_b 14.354260
_cell_length_c 12.158498
_cell_angle_alpha 72.470846
_cell_angle_beta 48.829508
_cell_angle_gamma 94.496614
_cell_volume 758.431864
_symmetry_space_group_name_H-M "P -1"
_symmetry_group_IT_number 2
_symmetry_cell_setting 'triclinic'
loop_
_space_group_symop_operation_xyz
x,y,z
-x,-y,-z
loop_
_atom_site_type_symbol
_atom_site_label
_atom_site_fract_x
_atom_site_fract_y
_atom_site_fract_z
Si Si1 0.792112 0.289478 0.147686
Si Si2 0.761317 0.249052 0.803907
Si Si3 0.754688 0.265833 0.415174
Si Si4 0.428670 0.396235 0.839034
Si Si5 0.186259 0.875297 0.974126
Si Si6 0.395774 0.379426 0.602834
Si Si7 0.559048 0.879950 0.239526
Si Si8 0.408241 0.410631 0.159740
O O1 0.645331 0.251785 0.332573
O O2 0.792618 0.186833 0.120164
O O3 0.641925 0.355924 0.109508
O O4 0.127277 0.366969 0.023800
O O5 0.610251 0.332220 0.848599
O O6 0.677794 0.188352 0.740564
O O7 0.109047 0.312883 0.659171
O O8 0.662684 0.162028 0.966549
O O9 0.662875 0.349993 0.481800
O O10 0.591622 0.153518 0.575196
O O11 0.105603 0.311598 0.282432
O O12 0.338631 0.360399 0.759229
O O13 0.604586 0.523055 0.748618
O O14 0.373923 0.997701 0.843215
O O15 0.850747 0.854547 0.132654
O O16 0.500000 0.500000 0.500000
O O17 0.500000 0.500000 0.000000
#
# Coordination Sequence:
#
# PCOD8035048 Si02
#       8
#     2   2   2   2   2   2   2   2
#     4  12  25  44  67  98 139 180 221 274 334 406
#     4  12  21  44  72 100 132 172 229 278 334 398
#     4  12  26  44  63 103 139 175 222 280 334 398
#     4  12  24  43  67 100 135 181 226 267 335 407
#     4  11  24  47  74  97 129 176 230 283 344 395
#     4  12  26  40  67 101 138 178 222 279 335 393
#     4  11  25  46  72 101 129 174 229 290 338 388
#     4  12  27  41  69  97 138 185 222 267 334 408
#
# _framework density 21.096159
#
# number of rings (size 3 to 8) (size 9 to 14) (size 15 to 20)
#    0.000    0.250    6.250    3.000    5.250    1.500 
#    0.000    0.625    0.000    0.000    0.000    0.000 
#    0.000    0.000    0.000    0.000    0.000    0.000 
#
# Total GULP energy -198424.315833 kJ/mol
# GULP energy per Si atom -12401.519740 kJ/mol
# Density = 2.104814 g / cm^3
# Si number density = 21.096159 Si / 1000 Ang^3
#
#
#
# Elastic Constant Matrix: (Units=GPa)
#
#
# Indices 1 2 3 4 5 6 
#
# 1 103.3095 41.9442 40.5296 -8.1935 2.3372 -4.7509
# 2 41.9442 116.8715 38.0904 -12.6434 -1.9442 -9.4357
# 3 40.5296 38.0904 116.5204 -10.5913 15.2588 -1.2903
# 4 -8.1935 -12.6434 -10.5913 37.5464 0.9293 3.9443
# 5 2.3372 -1.9442 15.2588 0.9293 32.5415 4.8807
# 6 -4.7509 -9.4357 -1.2903 3.9443 4.8807 34.2584
#
#
#
# Elastic Compliance Matrix: (Units=1/GPa)
#
#
# Indices 1 2 3 4 5 6 
#
# 1 0.012328 -0.003263 -0.003200 0.000621 0.000316 0.000574
# 2 -0.003263 0.010935 -0.002454 0.002027 0.001681 0.001994
# 3 -0.003200 -0.002454 0.011352 0.001824 -0.005269 -0.000151
# 4 0.000621 0.002027 0.001824 0.028245 -0.001231 -0.002364
# 5 0.000316 0.001681 -0.005269 -0.001231 0.033972 -0.004390
# 6 0.000574 0.001994 -0.000151 -0.002364 -0.004390 0.030711
#
#
# Mechanical properties :
#
#
# Convention : Reuss Voigt Hill
#
# Bulk Modulus (GPa) = 59.58838 64.20332 61.89585
# Shear Modulus (GPa) = 33.11917 35.27839 34.19878
#
# Velocity S-wave (km/s) = 3.96651 4.09377 4.03064
# Velocity P-wave (km/s) = 7.02033 7.26946 7.14598
#
# Compressibility (1/GPa) = 0.01678179
#
# Stress axis : x y z
#
# Youngs Moduli (GPa) = 81.11403 91.44655 88.09391
#
# Poissons Ratio (x) = 0.29837 0.28192
# Poissons Ratio (y) = 0.26466 0.21615
# Poissons Ratio (z) = 0.25959 0.22438
#
# Static dielectric constant tensor:
#      x y z
#    x 3.817830 -0.027810 0.064860 
#    y -0.027810 3.888770 -0.035080 
#    z 0.064860 -0.035080 3.788390 
# 
# 
# High freq. dielectric constant tensor:
#      x y z
#    x 1.840380 -0.001180 0.006900 
#    y -0.001180 1.831760 -0.001240 
#    z 0.006900 -0.001240 1.822850 
# 
# From -- ./inp_files/48213.got.cif
#   From: 2010.06.25/outbox.cif.g09.slc.cpg/sg2_25_cif.got.tgz:48213.got - 2010.06.27 13:26:56.
