data_PCOD8035014
_publ_section_title
;
Structure prediction by ZEFSAII (Michael W. Deem and Ramdas Pophale) SiO2 
 PCOD8035014
Probable space group: P -1
;
_chemical_formula_sum "Si O2"
_cell_formula_units_Z 16
_cell_length_a 14.076017
_cell_length_b 9.316638
_cell_length_c 19.619089
_cell_angle_alpha 48.673010
_cell_angle_beta 158.773207
_cell_angle_gamma 130.601384
_cell_volume 693.638470
_symmetry_space_group_name_H-M "P -1"
_symmetry_group_IT_number 2
_symmetry_cell_setting 'triclinic'
loop_
_space_group_symop_operation_xyz
x,y,z
-x,-y,-z
loop_
_atom_site_type_symbol
_atom_site_label
_atom_site_fract_x
_atom_site_fract_y
_atom_site_fract_z
Si Si1 0.022937 0.710943 0.976616
Si Si2 0.287814 0.926961 0.957437
Si Si3 0.593544 0.311136 0.008796
Si Si4 0.521121 0.303894 0.616505
Si Si5 0.445074 0.790469 0.557220
Si Si6 0.881420 0.563016 0.605040
Si Si7 0.788533 0.063876 0.519710
Si Si8 0.836010 0.406723 0.357249
O O1 0.157376 0.861375 0.962835
O O2 0.725669 0.739314 0.786630
O O3 0.187134 0.719670 0.154012
O O4 0.000000 0.500000 0.000000
O O5 0.508071 0.114187 0.057163
O O6 0.404934 0.750886 0.051228
O O7 0.077084 0.998382 0.741200
O O8 0.405841 0.470505 0.852576
O O9 0.881908 0.415973 0.189032
O O10 0.500000 0.500000 0.500000
O O11 0.323745 0.291564 0.554057
O O12 0.429657 0.123966 0.562765
O O13 0.293975 0.648199 0.444370
O O14 0.250883 0.787901 0.492417
O O15 0.500000 0.000000 0.500000
O O16 0.987088 0.604945 0.587303
O O17 0.749957 0.180950 0.387826
O O18 0.000000 0.500000 0.500000
#
# Coordination Sequence:
#
# PCOD8035014 Si02
#       8
#     2   2   2   2   2   2   2   2
#     4  12  27  45  76 105 143 195 246 293 373 435
#     4  11  24  47  72 106 146 196 240 298 368 438
#     4  11  26  45  75 105 149 193 244 304 365 434
#     4  12  28  50  73 111 147 191 248 307 359 444
#     4  12  25  46  75 106 147 195 241 303 366 436
#     4  12  26  46  77 104 146 194 242 303 361 433
#     4  12  25  47  72 107 152 187 239 309 363 430
#     4  12  26  44  71 111 150 187 241 300 371 426
#
# _framework density 23.066770999999999
#
# number of rings (size 3 to 8) (size 9 to 14) (size 15 to 20)
#    0.000    0.250    6.250    1.875    5.250    2.000 
#    0.000    0.000    0.000    0.000    0.000    0.000 
#    0.000    0.000    0.000    0.000    0.000    0.000 
#
# Total GULP energy -198363.473276 kJ/mol
# GULP energy per Si atom -12397.717080 kJ/mol
# Density = 2.301427 g / cm^3
# Si number density = 23.066771 Si / 1000 Ang^3
#
#
#
# Elastic Constant Matrix: (Units=GPa)
#
#
# Indices 1 2 3 4 5 6 
#
# 1 72.7141 10.8833 6.6011 -8.5794 5.4259 4.4541
# 2 10.8833 117.8411 45.6530 7.8775 -10.8341 9.9769
# 3 6.6011 45.6530 126.8695 10.1862 2.1922 -3.2562
# 4 -8.5794 7.8775 10.1862 43.6253 -3.7159 -1.5899
# 5 5.4259 -10.8341 2.1922 -3.7159 33.3456 -3.5797
# 6 4.4541 9.9769 -3.2562 -1.5899 -3.5797 37.1524
#
#
#
# Elastic Compliance Matrix: (Units=1/GPa)
#
#
# Indices 1 2 3 4 5 6 
#
# 1 0.014662 -0.001492 -0.000458 0.002976 -0.002673 -0.001527
# 2 -0.001492 0.010743 -0.003829 -0.001136 0.003564 -0.002747
# 3 -0.000458 -0.003829 0.009495 -0.001709 -0.001805 0.001668
# 4 0.002976 -0.001136 -0.001709 0.024327 0.002082 0.001040
# 5 -0.002673 0.003564 -0.001805 0.002082 0.032189 0.002396
# 6 -0.001527 -0.002747 0.001668 0.001040 0.002396 0.028259
#
#
# Mechanical properties :
#
#
# Convention : Reuss Voigt Hill
#
# Bulk Modulus (GPa) = 42.84183 49.29993 46.07088
# Shear Modulus (GPa) = 35.96760 39.77714 37.87237
#
# Velocity S-wave (km/s) = 3.95306 4.15714 4.05638
# Velocity P-wave (km/s) = 6.28083 6.66794 6.47728
#
# Compressibility (1/GPa) = 0.02334168
#
# Stress axis : x y z
#
# Youngs Moduli (GPa) = 68.20562 93.08027 105.31815
#
# Poissons Ratio (x) = 0.13888 0.04823
# Poissons Ratio (y) = 0.10177 0.40328
# Poissons Ratio (z) = 0.03123 0.35642
#
# Static dielectric constant tensor:
#      x y z
#    x 21.154920 22.502650 -23.786280 
#    y 22.502650 33.776150 -31.318130 
#    z -23.786280 -31.318130 37.563100 
# 
# 
# High freq. dielectric constant tensor:
#      x y z
#    x 1.912340 -0.000190 0.017110 
#    y -0.000190 1.926750 0.004790 
#    z 0.017110 0.004790 1.908050 
# 
# From -- ./inp_files/207031.got.cif
#   From: 2010.06.25/outbox.cif.g09.slc.cpg/sg2_104_cif.got.tgz:207031.got - 2010.06.27 13:26:56.
