data_PCOD8035991
_publ_section_title
;
Structure prediction by ZEFSAII (Michael W. Deem and Ramdas Pophale) SiO2 
 PCOD8035991
Probable space group: P -1
;
_chemical_formula_sum "Si O2"
_cell_formula_units_Z 16
_cell_length_a 17.981541
_cell_length_b 17.742507
_cell_length_c 6.669007
_cell_angle_alpha 131.875904
_cell_angle_beta 44.865683
_cell_angle_gamma 150.584479
_cell_volume 729.421527
_symmetry_space_group_name_H-M "P -1"
_symmetry_group_IT_number 2
_symmetry_cell_setting 'triclinic'
loop_
_space_group_symop_operation_xyz
x,y,z
-x,-y,-z
loop_
_atom_site_type_symbol
_atom_site_label
_atom_site_fract_x
_atom_site_fract_y
_atom_site_fract_z
Si Si1 0.162208 0.804442 0.240527
Si Si2 0.552796 0.320965 0.727883
Si Si3 0.344042 0.453466 0.741394
Si Si4 0.221989 0.063793 0.707250
Si Si5 0.374026 0.840227 0.568876
Si Si6 0.184278 0.447901 0.678445
Si Si7 0.859394 0.378836 0.709839
Si Si8 0.928023 0.900378 0.257793
O O1 0.123204 0.707689 0.338269
O O2 0.993168 0.724543 0.336405
O O3 0.261553 0.975585 0.421933
O O4 0.260856 0.817856 0.902281
O O5 0.384375 0.232328 0.789019
O O6 0.542867 0.192249 0.533263
O O7 0.707476 0.470339 0.577829
O O8 0.587050 0.399430 0.011996
O O9 0.500000 0.500000 0.500000
O O10 0.275828 0.441216 0.640463
O O11 0.196368 0.283154 0.814485
O O12 0.169799 0.083548 0.641495
O O13 0.079831 0.966770 0.967248
O O14 0.291338 0.734345 0.345307
O O15 0.500000 0.000000 0.500000
O O16 0.157369 0.541740 0.966960
O O17 0.000000 0.500000 0.500000
O O18 0.000000 0.000000 0.500000
#
# Coordination Sequence:
#
# PCOD8035991 Si02
#       8
#     2   2   2   2   2   2   2   2
#     4  12  26  45  70 106 142 186 234 286 348 416
#     4  12  26  46  68 103 142 181 231 290 349 412
#     4  12  27  45  74 103 135 182 235 292 349 415
#     4  11  27  44  71 101 139 183 231 286 349 417
#     4  12  27  43  68 101 147 190 229 282 347 419
#     4  12  25  43  72  99 139 180 231 290 346 408
#     4  12  24  43  70 103 139 184 235 283 344 418
#     4  11  25  49  72 100 138 179 235 291 350 412
#
# _framework density 21.935192000000001
#
# number of rings (size 3 to 8) (size 9 to 14) (size 15 to 20)
#    0.000    0.250    3.750    4.875    3.500    9.000 
#    0.000    0.000    0.000    0.000    0.000    0.000 
#    0.000    0.000    0.000    0.000    0.000    0.000 
#
# Total GULP energy -198354.025193 kJ/mol
# GULP energy per Si atom -12397.126575 kJ/mol
# Density = 2.188527 g / cm^3
# Si number density = 21.935192 Si / 1000 Ang^3
#
#
#
# Elastic Constant Matrix: (Units=GPa)
#
#
# Indices 1 2 3 4 5 6 
#
# 1 129.9148 29.6039 32.9386 -5.5411 2.4984 1.4377
# 2 29.6039 114.9637 23.6691 -4.7292 -0.7623 5.3137
# 3 32.9386 23.6691 76.6355 -7.2153 -1.4390 -3.0434
# 4 -5.5411 -4.7292 -7.2153 41.2084 2.1597 2.2517
# 5 2.4984 -0.7623 -1.4390 2.1597 36.1525 2.5346
# 6 1.4377 5.3137 -3.0434 2.2517 2.5346 46.9230
#
#
#
# Elastic Compliance Matrix: (Units=1/GPa)
#
#
# Indices 1 2 3 4 5 6 
#
# 1 0.008944 -0.001588 -0.003334 0.000494 -0.000793 -0.000291
# 2 -0.001588 0.009661 -0.002294 0.000547 0.000276 -0.001235
# 3 -0.003334 -0.002294 0.015428 0.001891 0.000596 0.001240
# 4 0.000494 0.000547 0.001891 0.024857 -0.001357 -0.001074
# 5 -0.000793 0.000276 0.000596 -0.001357 0.027925 -0.001412
# 6 -0.000291 -0.001235 0.001240 -0.001074 -0.001412 0.021668
#
#
# Mechanical properties :
#
#
# Convention : Reuss Voigt Hill
#
# Bulk Modulus (GPa) = 51.01384 54.88193 52.94789
# Shear Modulus (GPa) = 38.62523 40.54362 39.58443
#
# Velocity S-wave (km/s) = 4.20084 4.30389 4.25268
# Velocity P-wave (km/s) = 6.84372 7.05495 6.95014
#
# Compressibility (1/GPa) = 0.01960252
#
# Stress axis : x y z
#
# Youngs Moduli (GPa) = 111.80630 103.50878 64.81538
#
# Poissons Ratio (x) = 0.16440 0.21607
# Poissons Ratio (y) = 0.17758 0.14866
# Poissons Ratio (z) = 0.37272 0.23741
#
# Static dielectric constant tensor:
#      x y z
#    x 4.150670 -0.016250 0.208900 
#    y -0.016250 4.124180 0.029160 
#    z 0.208900 0.029160 4.160370 
# 
# 
# High freq. dielectric constant tensor:
#      x y z
#    x 1.878370 0.005350 0.005530 
#    y 0.005350 1.880510 0.002610 
#    z 0.005530 0.002610 1.871610 
# 
# From -- ./inp_files/94327.got.cif
#   From: 2010.06.25/outbox.cif.g09.slc.cpg/sg2_48_cif.got.tgz:94327.got - 2010.06.27 13:26:56.
