data_PCOD8035107
_publ_section_title
;
Structure prediction by ZEFSAII (Michael W. Deem and Ramdas Pophale) SiO2 
 PCOD8035107
Probable space group: P -1
;
_chemical_formula_sum "Si O2"
_cell_formula_units_Z 16
_cell_length_a 8.918301
_cell_length_b 18.940425
_cell_length_c 6.526117
_cell_angle_alpha 136.372140
_cell_angle_beta 105.625886
_cell_angle_gamma 83.034805
_cell_volume 727.971755
_symmetry_space_group_name_H-M "P -1"
_symmetry_group_IT_number 2
_symmetry_cell_setting 'triclinic'
loop_
_space_group_symop_operation_xyz
x,y,z
-x,-y,-z
loop_
_atom_site_type_symbol
_atom_site_label
_atom_site_fract_x
_atom_site_fract_y
_atom_site_fract_z
Si Si1 0.923748 0.908943 0.411856
Si Si2 0.553331 0.666066 0.353989
Si Si3 0.897375 0.420138 0.436151
Si Si4 0.893126 0.143439 0.270284
Si Si5 0.323108 0.957296 0.363920
Si Si6 0.713124 0.234590 0.738162
Si Si7 0.894491 0.741332 0.732904
Si Si8 0.610831 0.483812 0.698015
O O1 0.014147 0.927969 0.699536
O O2 0.745052 0.933664 0.398096
O O3 0.942871 0.797433 0.085873
O O4 0.000000 0.000000 0.500000
O O5 0.459505 0.744738 0.356816
O O6 0.707805 0.729885 0.634040
O O7 0.452179 0.617122 0.406082
O O8 0.613461 0.581403 0.050027
O O9 0.788551 0.475717 0.670163
O O10 0.000000 0.500000 0.500000
O O11 0.030867 0.365325 0.484542
O O12 0.780810 0.336154 0.097744
O O13 0.818714 0.225887 0.558328
O O14 0.034899 0.191356 0.285280
O O15 0.750207 0.087436 0.970007
O O16 0.293439 0.869737 0.346310
O O17 0.500000 0.000000 0.500000
O O18 0.500000 0.500000 0.500000
#
# Coordination Sequence:
#
# PCOD8035107 Si02
#       8
#     2   2   2   2   2   2   2   2
#     4  12  24  48  71 101 144 179 243 296 351 429
#     4  11  28  43  73 108 141 199 235 298 367 417
#     4  12  25  47  76 104 150 190 236 299 355 423
#     4  12  24  46  75 100 147 190 232 298 362 421
#     4  12  29  47  73 107 141 192 235 299 361 424
#     4  12  26  49  67 110 150 182 245 295 353 434
#     4  12  27  45  71 110 139 190 242 292 356 429
#     4  11  24  48  72 101 153 187 245 296 352 429
#
# _framework density 21.978877000000001
#
# number of rings (size 3 to 8) (size 9 to 14) (size 15 to 20)
#    0.000    0.250    6.250    1.875    7.000    2.000 
#    0.000    0.000    0.000    0.000    0.000    0.000 
#    0.000    0.000    0.000    0.000    0.000    0.000 
#
# Total GULP energy -198306.000577 kJ/mol
# GULP energy per Si atom -12394.125036 kJ/mol
# Density = 2.192885 g / cm^3
# Si number density = 21.978877 Si / 1000 Ang^3
#
#
#
# Elastic Constant Matrix: (Units=GPa)
#
#
# Indices 1 2 3 4 5 6 
#
# 1 162.9967 58.9193 42.0146 -7.2148 -0.2081 -3.8429
# 2 58.9193 136.4348 49.2752 -15.4168 7.2733 -12.9398
# 3 42.0146 49.2752 75.6622 -10.9578 -3.1727 9.9288
# 4 -7.2148 -15.4168 -10.9578 30.4074 -2.9981 1.2040
# 5 -0.2081 7.2733 -3.1727 -2.9981 43.7479 -0.6182
# 6 -3.8429 -12.9398 9.9288 1.2040 -0.6182 48.9189
#
#
#
# Elastic Compliance Matrix: (Units=1/GPa)
#
#
# Indices 1 2 3 4 5 6 
#
# 1 0.007707 -0.002263 -0.002934 -0.000383 0.000183 0.000614
# 2 -0.002263 0.011418 -0.006430 0.002563 -0.002142 0.004057
# 3 -0.002934 -0.006430 0.020529 0.003955 0.002728 -0.006161
# 4 -0.000383 0.002563 0.003955 0.035787 0.002297 -0.001007
# 5 0.000183 -0.002142 0.002728 0.002297 0.023558 -0.000865
# 6 0.000614 0.004057 -0.006161 -0.001007 -0.000865 0.022828
#
#
# Mechanical properties :
#
#
# Convention : Reuss Voigt Hill
#
# Bulk Modulus (GPa) = 60.97915 75.05686 68.01801
# Shear Modulus (GPa) = 33.21177 39.60714 36.40945
#
# Velocity S-wave (km/s) = 3.89147 4.24967 4.07451
# Velocity P-wave (km/s) = 6.92792 7.63566 7.29038
#
# Compressibility (1/GPa) = 0.01639905
#
# Stress axis : x y z
#
# Youngs Moduli (GPa) = 129.74635 87.58143 48.71129
#
# Poissons Ratio (x) = 0.19824 0.14292
# Poissons Ratio (y) = 0.29368 0.31322
# Poissons Ratio (z) = 0.38068 0.56316
#
# Static dielectric constant tensor:
#      x y z
#    x 4.389990 -0.130550 -0.214400 
#    y -0.130550 4.157720 -0.134190 
#    z -0.214400 -0.134190 3.966030 
# 
# 
# High freq. dielectric constant tensor:
#      x y z
#    x 1.885780 -0.013800 -0.007940 
#    y -0.013800 1.873410 -0.007710 
#    z -0.007940 -0.007710 1.865250 
# 
# From -- ./inp_files/49411.got.cif
#   From: 2010.06.25/outbox.cif.g09.slc.cpg/sg2_25_cif.got.tgz:49411.got - 2010.06.27 13:26:56.
