data_PCOD8035920
_publ_section_title
;
Structure prediction by ZEFSAII (Michael W. Deem and Ramdas Pophale) SiO2 
 PCOD8035920
Probable space group: P -1
;
_chemical_formula_sum "Si O2"
_cell_formula_units_Z 14
_cell_length_a 11.037105
_cell_length_b 9.254593
_cell_length_c 8.210991
_cell_angle_alpha 102.193836
_cell_angle_beta 40.887324
_cell_angle_gamma 94.331256
_cell_volume 531.944101
_symmetry_space_group_name_H-M "P -1"
_symmetry_group_IT_number 2
_symmetry_cell_setting 'triclinic'
loop_
_space_group_symop_operation_xyz
x,y,z
-x,-y,-z
loop_
_atom_site_type_symbol
_atom_site_label
_atom_site_fract_x
_atom_site_fract_y
_atom_site_fract_z
Si Si1 0.111314 0.432315 0.522008
Si Si2 0.766863 0.895589 0.639976
Si Si3 0.275278 0.662665 0.775267
Si Si4 0.910516 0.869723 0.146781
Si Si5 0.367208 0.806062 0.046824
Si Si6 0.416259 0.625539 0.277467
Si Si7 0.781256 0.607813 0.062616
O O1 0.095593 0.255302 0.492580
O O2 0.324803 0.470071 0.329376
O O3 0.000000 0.500000 0.500000
O O4 0.989938 0.519693 0.810139
O O5 0.786192 0.936540 0.439957
O O6 0.793666 0.045709 0.752056
O O7 0.563196 0.862438 0.882146
O O8 0.361708 0.708942 0.526285
O O9 0.299768 0.480825 0.724133
O O10 0.370835 0.718829 0.853384
O O11 0.064025 0.738818 0.021684
O O12 0.781437 0.783948 0.137438
O O13 0.000000 0.000000 0.000000
O O14 0.335256 0.712869 0.220871
O O15 0.643904 0.595622 0.041581
#
# Coordination Sequence:
#
# PCOD8035920 Si02
#       7
#     2   2   2   2   2   2   2
#     4  12  25  45  78 114 155 201 253 317 384 457
#     4  11  25  48  71 109 158 199 252 320 384 455
#     4  12  24  48  77 109 155 201 251 321 385 452
#     4  12  26  46  77 114 151 205 262 316 387 459
#     4  11  27  49  75 112 155 204 254 316 389 456
#     4  12  26  48  81 116 152 198 264 313 383 467
#     4  12  25  48  76 113 156 199 257 322 384 455
#
# _framework density 26.318552
#
# number of rings (size 3 to 8) (size 9 to 14) (size 15 to 20)
#    0.000    0.286    2.857    6.000    0.000    5.714 
#    0.000    5.000    0.000    0.000    0.000    0.000 
#    0.000    0.000    0.000    0.000    0.000    0.000 
#
# Total GULP energy -173479.619019 kJ/mol
# GULP energy per Si atom -12391.401358 kJ/mol
# Density = 2.625865 g / cm^3
# Si number density = 26.318552 Si / 1000 Ang^3
#
#
#
# Elastic Constant Matrix: (Units=GPa)
#
#
# Indices 1 2 3 4 5 6 
#
# 1 101.3243 44.1192 19.2532 -5.3409 19.8649 6.1204
# 2 44.1192 179.1843 57.7899 -6.4505 23.9520 13.6976
# 3 19.2532 57.7899 74.9484 -0.1579 33.9216 6.9913
# 4 -5.3409 -6.4505 -0.1579 39.8203 2.6098 2.7783
# 5 19.8649 23.9520 33.9216 2.6098 55.6161 -2.0052
# 6 6.1204 13.6976 6.9913 2.7783 -2.0052 36.8344
#
#
#
# Elastic Compliance Matrix: (Units=1/GPa)
#
#
# Indices 1 2 3 4 5 6 
#
# 1 0.011690 -0.002439 0.000676 0.001519 -0.003662 -0.001478
# 2 -0.002439 0.008114 -0.005873 0.001014 0.000856 -0.001527
# 3 0.000676 -0.005873 0.023487 0.000243 -0.012160 -0.003067
# 4 0.001519 0.001014 0.000243 0.025834 -0.002439 -0.002757
# 5 -0.003662 0.000856 -0.012160 -0.002439 0.026603 0.004230
# 6 -0.001478 -0.001527 -0.003067 -0.002757 0.004230 0.028982
#
#
# Mechanical properties :
#
#
# Convention : Reuss Voigt Hill
#
# Bulk Modulus (GPa) = 35.68907 66.42017 51.05462
# Shear Modulus (GPa) = 33.48439 42.07382 37.77910
#
# Velocity S-wave (km/s) = 3.57076 4.00263 3.79285
# Velocity P-wave (km/s) = 5.53085 6.83032 6.21464
#
# Compressibility (1/GPa) = 0.02801978
#
# Stress axis : x y z
#
# Youngs Moduli (GPa) = 85.54176 123.23704 42.57641
#
# Poissons Ratio (x) = 0.30062 -0.02879
# Poissons Ratio (y) = 0.20867 0.25005
# Poissons Ratio (z) = -0.05785 0.72376
#
# Static dielectric constant tensor:
#      x y z
#    x 4.624420 0.112620 -0.007070 
#    y 0.112620 5.223170 -0.013890 
#    z -0.007070 -0.013890 4.282710 
# 
# 
# High freq. dielectric constant tensor:
#      x y z
#    x 2.050470 0.005630 0.004060 
#    y 0.005630 2.054280 -0.001040 
#    z 0.004060 -0.001040 2.074180 
# 
# From -- ./inp_files/244314.got.cif
#   From: 2010.06.25/outbox.cif.g09.slc.cpg/sg2_123_cif.got.tgz:244314.got - 2010.06.27 13:26:56.
