data_PCOD8035606
_publ_section_title
;
Structure prediction by ZEFSAII (Michael W. Deem and Ramdas Pophale) SiO2 
 PCOD8035606
Probable space group: P -1
;
_chemical_formula_sum "Si O2"
_cell_formula_units_Z 10
_cell_length_a 9.037060
_cell_length_b 9.281469
_cell_length_c 9.714882
_cell_angle_alpha 82.665984
_cell_angle_beta 150.906221
_cell_angle_gamma 96.513413
_cell_volume 392.971963
_symmetry_space_group_name_H-M "P -1"
_symmetry_group_IT_number 2
_symmetry_cell_setting 'triclinic'
loop_
_space_group_symop_operation_xyz
x,y,z
-x,-y,-z
loop_
_atom_site_type_symbol
_atom_site_label
_atom_site_fract_x
_atom_site_fract_y
_atom_site_fract_z
Si Si1 0.799763 0.697618 0.881874
Si Si2 0.047510 0.425201 0.263746
Si Si3 0.432047 0.378532 0.845886
Si Si4 0.815131 0.923233 0.244423
Si Si5 0.258704 0.882967 0.370658
O O1 0.768967 0.634110 0.710473
O O2 0.466141 0.763951 0.634592
O O3 0.879759 0.577097 0.074750
O O4 0.073451 0.816307 0.098449
O O5 0.272102 0.447411 0.572062
O O6 0.765808 0.316393 0.082886
O O7 0.221482 0.250262 0.748060
O O8 0.500000 0.500000 0.000000
O O9 0.999082 0.950262 0.249438
O O10 0.000000 0.000000 0.500000
O O11 0.500000 0.000000 0.000000
O O12 0.500000 0.000000 0.500000
#
# Coordination Sequence:
#
# PCOD8035606 Si02
#       5
#     2   2   2   2   2
#     4  11  25  47  74 114 155 195 261 318 391 454
#     4  11  25  45  79 111 152 199 254 329 385 464
#     4  12  26  47  78 110 154 204 266 318 395 463
#     4  12  29  50  76 113 157 204 261 320 392 468
#     4  12  27  47  77 107 159 205 262 314 381 469
#
# _framework density 25.447109000000001
#
# number of rings (size 3 to 8) (size 9 to 14) (size 15 to 20)
#    0.000    0.400    0.000    7.200    8.400    6.400 
#    0.000    0.000    0.000    0.000    0.000    0.000 
#    0.000    0.000    0.000    0.000    0.000    0.000 
#
# Total GULP energy -123954.623742 kJ/mol
# GULP energy per Si atom -12395.462374 kJ/mol
# Density = 2.538919 g / cm^3
# Si number density = 25.447109 Si / 1000 Ang^3
#
#
#
# Elastic Constant Matrix: (Units=GPa)
#
#
# Indices 1 2 3 4 5 6 
#
# 1 156.4711 64.0850 72.3092 1.9574 6.2216 -8.4743
# 2 64.0850 112.6297 54.3498 23.7231 -9.2767 -11.4118
# 3 72.3092 54.3498 211.0077 17.5598 -5.4199 -19.2702
# 4 1.9574 23.7231 17.5598 49.8391 -9.4204 9.6837
# 5 6.2216 -9.2767 -5.4199 -9.4204 57.9874 0.0031
# 6 -8.4743 -11.4118 -19.2702 9.6837 0.0031 31.6170
#
#
#
# Elastic Compliance Matrix: (Units=1/GPa)
#
#
# Indices 1 2 3 4 5 6 
#
# 1 0.009563 -0.005223 -0.002373 0.002970 -0.001601 -0.001678
# 2 -0.005223 0.014430 -0.000786 -0.007150 0.001634 0.005519
# 3 -0.002373 -0.000786 0.006296 -0.002399 0.000327 0.003653
# 4 0.002970 -0.007150 -0.002399 0.026939 0.002690 -0.011498
# 5 -0.001601 0.001634 0.000327 0.002690 0.018146 -0.000466
# 6 -0.001678 0.005519 0.003653 -0.011498 -0.000466 0.038919
#
#
# Mechanical properties :
#
#
# Convention : Reuss Voigt Hill
#
# Bulk Modulus (GPa) = 73.94174 95.73295 84.83735
# Shear Modulus (GPa) = 36.88283 47.17967 42.03125
#
# Velocity S-wave (km/s) = 3.81122 4.31051 4.06853
# Velocity P-wave (km/s) = 6.96328 7.90418 7.44860
#
# Compressibility (1/GPa) = 0.01352416
#
# Stress axis : x y z
#
# Youngs Moduli (GPa) = 104.57487 69.30220 158.82080
#
# Poissons Ratio (x) = 0.36199 0.37690
# Poissons Ratio (y) = 0.54623 0.12479
# Poissons Ratio (z) = 0.24817 0.05445
#
# Static dielectric constant tensor:
#      x y z
#    x 4.636360 0.085870 0.295060 
#    y 0.085870 4.833460 0.141740 
#    z 0.295060 0.141740 4.927420 
# 
# 
# High freq. dielectric constant tensor:
#      x y z
#    x 2.020220 0.000070 0.012540 
#    y 0.000070 2.015750 0.015610 
#    z 0.012540 0.015610 2.044060 
# 
# From -- ./inp_files/150615.got.cif
#   From: 2010.06.25/outbox.cif.g09.slc.cpg/sg2_76_cif.got.tgz:150615.got - 2010.06.27 13:26:56.
