data_PCOD8035778
_publ_section_title
;
Structure prediction by ZEFSAII (Michael W. Deem and Ramdas Pophale) SiO2 
 PCOD8035778
Probable space group: P -1
;
_chemical_formula_sum "Si O2"
_cell_formula_units_Z 12
_cell_length_a 9.192081
_cell_length_b 12.548579
_cell_length_c 7.316762
_cell_angle_alpha 48.193006
_cell_angle_beta 68.521664
_cell_angle_gamma 43.379742
_cell_volume 420.372572
_symmetry_space_group_name_H-M "P -1"
_symmetry_group_IT_number 2
_symmetry_cell_setting 'triclinic'
loop_
_space_group_symop_operation_xyz
x,y,z
-x,-y,-z
loop_
_atom_site_type_symbol
_atom_site_label
_atom_site_fract_x
_atom_site_fract_y
_atom_site_fract_z
Si Si1 0.980117 0.951280 0.863190
Si Si2 0.847663 0.493801 0.464164
Si Si3 0.725957 0.435825 0.010610
Si Si4 0.654687 0.755411 0.889482
Si Si5 0.187494 0.091553 0.573022
Si Si6 0.411003 0.655977 0.521495
O O1 0.077386 0.731282 0.029629
O O2 0.132100 0.968913 0.659146
O O3 0.724635 0.119302 0.738508
O O4 0.000000 0.000000 0.000000
O O5 0.640875 0.570837 0.603878
O O6 0.000000 0.500000 0.500000
O O7 0.988708 0.269486 0.590414
O O8 0.728150 0.651401 0.171490
O O9 0.763697 0.332265 0.306413
O O10 0.500000 0.500000 0.000000
O O11 0.721789 0.606903 0.860777
O O12 0.781912 0.821719 0.711804
O O13 0.397341 0.949040 0.773560
O O14 0.500000 0.500000 0.500000
#
# Coordination Sequence:
#
# PCOD8035778 Si02
#       6
#     2   2   2   2   2   2
#     4  12  25  47  80 117 152 205 267 331 401 479
#     4  12  28  48  76 113 164 217 262 331 401 475
#     4  12  25  45  81 115 152 206 262 326 400 472
#     4  11  25  50  76 116 163 207 268 330 401 481
#     4  11  25  46  80 112 159 209 264 334 406 473
#     4  12  24  47  76 112 156 201 272 325 390 472
#
# _framework density 28.546106000000002
#
# number of rings (size 3 to 8) (size 9 to 14) (size 15 to 20)
#    0.000    0.333    5.000    3.000    2.333    0.667 
#    0.000    3.333    0.000    0.000    0.000    0.000 
#    0.000    0.000    0.000    0.000    0.000    0.000 
#
# Total GULP energy -148735.732204 kJ/mol
# GULP energy per Si atom -12394.644350 kJ/mol
# Density = 2.848113 g / cm^3
# Si number density = 28.546106 Si / 1000 Ang^3
#
#
#
# Elastic Constant Matrix: (Units=GPa)
#
#
# Indices 1 2 3 4 5 6 
#
# 1 114.7010 12.2480 24.3279 -17.6701 -1.5011 -13.6665
# 2 12.2480 115.5621 42.7351 -21.2190 18.2570 -21.5201
# 3 24.3279 42.7351 104.1638 -30.4257 7.0252 -8.2488
# 4 -17.6701 -21.2190 -30.4257 46.6879 -15.7333 3.5455
# 5 -1.5011 18.2570 7.0252 -15.7333 51.4656 -5.2947
# 6 -13.6665 -21.5201 -8.2488 3.5455 -5.2947 48.4094
#
#
#
# Elastic Compliance Matrix: (Units=1/GPa)
#
#
# Indices 1 2 3 4 5 6 
#
# 1 0.009818 0.000293 -0.001345 0.003331 0.001653 0.002610
# 2 0.000293 0.011522 -0.003802 0.001671 -0.002622 0.004148
# 3 -0.001345 -0.003802 0.013418 0.007064 0.001625 -0.000123
# 4 0.003331 0.001671 0.007064 0.030645 0.008065 0.001525
# 5 0.001653 -0.002622 0.001625 0.008065 0.022805 0.001481
# 6 0.002610 0.004148 -0.000123 0.001525 0.001481 0.023267
#
#
# Mechanical properties :
#
#
# Convention : Reuss Voigt Hill
#
# Bulk Modulus (GPa) = 39.91913 54.78321 47.35117
# Shear Modulus (GPa) = 38.60011 46.32031 42.46021
#
# Velocity S-wave (km/s) = 3.68122 4.03258 3.86090
# Velocity P-wave (km/s) = 5.66418 6.39649 6.04144
#
# Compressibility (1/GPa) = 0.02505065
#
# Stress axis : x y z
#
# Youngs Moduli (GPa) = 101.85274 86.79219 74.52437
#
# Poissons Ratio (x) = -0.02547 0.10025
# Poissons Ratio (y) = -0.02989 0.28335
# Poissons Ratio (z) = 0.13701 0.32999
#
# Static dielectric constant tensor:
#      x y z
#    x 5.826750 1.458920 2.696700 
#    y 1.458920 8.730320 7.284450 
#    z 2.696700 7.284450 19.395200 
# 
# 
# High freq. dielectric constant tensor:
#      x y z
#    x 2.162750 -0.015740 0.016310 
#    y -0.015740 2.156920 0.005570 
#    z 0.016310 0.005570 2.196110 
# 
# From -- ./inp_files/173698.got.cif
#   From: 2010.06.25/outbox.cif.g09.slc.cpg/sg2_87_cif.got.tgz:173698.got - 2010.06.27 13:26:56.
