data_PCOD8035616
_publ_section_title
;
Structure prediction by ZEFSAII (Michael W. Deem and Ramdas Pophale) SiO2 
 PCOD8035616
Probable space group: P -1
;
_chemical_formula_sum "Si O2"
_cell_formula_units_Z 14
_cell_length_a 9.318371
_cell_length_b 14.646711
_cell_length_c 12.238698
_cell_angle_alpha 30.135859
_cell_angle_beta 52.905821
_cell_angle_gamma 64.607949
_cell_volume 650.712251
_symmetry_space_group_name_H-M "P -1"
_symmetry_group_IT_number 2
_symmetry_cell_setting 'triclinic'
loop_
_space_group_symop_operation_xyz
x,y,z
-x,-y,-z
loop_
_atom_site_type_symbol
_atom_site_label
_atom_site_fract_x
_atom_site_fract_y
_atom_site_fract_z
Si Si1 0.858625 0.041803 0.935741
Si Si2 0.217228 0.727627 0.651445
Si Si3 0.467926 0.481753 0.299193
Si Si4 0.085458 0.431172 0.423645
Si Si5 0.321251 0.279480 0.792641
Si Si6 0.523514 0.886858 0.919330
Si Si7 0.027890 0.437088 0.877006
O O1 0.947237 0.243895 0.636614
O O2 0.661579 0.038243 0.086467
O O3 0.836726 0.880865 0.023003
O O4 0.000000 0.000000 0.000000
O O5 0.371564 0.609007 0.725466
O O6 0.083216 0.637298 0.706413
O O7 0.303671 0.945182 0.363877
O O8 0.097875 0.716709 0.827756
O O9 0.287753 0.402321 0.389284
O O10 0.427303 0.427494 0.501905
O O11 0.518862 0.707229 0.030039
O O12 0.000000 0.500000 0.500000
O O13 0.086729 0.566363 0.179661
O O14 0.221753 0.380897 0.823587
O O15 0.463490 0.177908 0.893701
#
# Coordination Sequence:
#
# PCOD8035616 Si02
#       7
#     2   2   2   2   2   2   2
#     4  12  22  38  65 104 134 166 220 282 329 391
#     4  11  26  48  65  97 138 177 222 274 329 405
#     4  12  24  42  70  99 135 171 222 281 329 392
#     4  12  22  41  69  97 133 174 220 278 335 382
#     4  12  23  40  69 102 131 172 227 278 329 389
#     4  12  24  40  69  98 134 176 222 271 337 389
#     4  11  25  46  68  95 136 177 223 274 331 400
#
# _framework density 21.514885
#
# number of rings (size 3 to 8) (size 9 to 14) (size 15 to 20)
#    0.000    0.286    7.143    1.714    2.000    1.143 
#    2.571    0.714    0.000    0.000    0.000    0.000 
#    0.000    0.000    0.000    0.000    0.000    0.000 
#
# Total GULP energy -173633.962598 kJ/mol
# GULP energy per Si atom -12402.425900 kJ/mol
# Density = 2.146592 g / cm^3
# Si number density = 21.514885 Si / 1000 Ang^3
#
#
#
# Elastic Constant Matrix: (Units=GPa)
#
#
# Indices 1 2 3 4 5 6 
#
# 1 105.0575 12.8088 31.3804 16.9895 10.0487 -7.7661
# 2 12.8088 78.9160 42.8974 7.8236 3.7657 0.0835
# 3 31.3804 42.8974 142.0545 -4.6313 -12.1436 8.8455
# 4 16.9895 7.8236 -4.6313 34.6720 7.0412 -6.3581
# 5 10.0487 3.7657 -12.1436 7.0412 35.6952 -4.1185
# 6 -7.7661 0.0835 8.8455 -6.3581 -4.1185 33.9110
#
#
#
# Elastic Compliance Matrix: (Units=1/GPa)
#
#
# Indices 1 2 3 4 5 6 
#
# 1 0.011779 0.000595 -0.003367 -0.005299 -0.003226 0.002189
# 2 0.000595 0.016023 -0.005369 -0.003970 -0.002854 0.000406
# 3 -0.003367 -0.005369 0.009992 0.002945 0.004065 -0.002318
# 4 -0.005299 -0.003970 0.002945 0.034147 -0.003359 0.004022
# 5 -0.003226 -0.002854 0.004065 -0.003359 0.031431 0.001395
# 6 0.002189 0.000406 -0.002318 0.004022 0.001395 0.031518
#
#
# Mechanical properties :
#
#
# Convention : Reuss Voigt Hill
#
# Bulk Modulus (GPa) = 46.48175 55.57792 51.02983
# Shear Modulus (GPa) = 31.57725 36.78507 34.18116
#
# Velocity S-wave (km/s) = 3.83520 4.13940 3.99020
# Velocity P-wave (km/s) = 6.42364 6.98101 6.70812
#
# Compressibility (1/GPa) = 0.02151382
#
# Stress axis : x y z
#
# Youngs Moduli (GPa) = 84.89687 62.41092 100.07613
#
# Poissons Ratio (x) = -0.03715 0.33692
# Poissons Ratio (y) = -0.05053 0.53729
# Poissons Ratio (z) = 0.28582 0.33507
#
# Static dielectric constant tensor:
#      x y z
#    x 4.150470 0.192130 -0.366400 
#    y 0.192130 4.046700 -0.596660 
#    z -0.366400 -0.596660 4.354480 
# 
# 
# High freq. dielectric constant tensor:
#      x y z
#    x 1.861710 -0.002500 -0.011710 
#    y -0.002500 1.827960 -0.021890 
#    z -0.011710 -0.021890 1.840680 
# 
# From -- ./inp_files/305874.got.cif
#   From: 2010.06.25/outbox.cif.g09.slc.cpg/sg2_153_cif.got.tgz:305874.got - 2010.06.27 13:26:56.
