data_PCOD8035362
_publ_section_title
;
Structure prediction by ZEFSAII (Michael W. Deem and Ramdas Pophale) SiO2 
 PCOD8035362
Probable space group: P -1
;
_chemical_formula_sum "Si O2"
_cell_formula_units_Z 16
_cell_length_a 11.618602
_cell_length_b 16.350454
_cell_length_c 8.692314
_cell_angle_alpha 145.641243
_cell_angle_beta 113.540422
_cell_angle_gamma 54.093993
_cell_volume 741.766465
_symmetry_space_group_name_H-M "P -1"
_symmetry_group_IT_number 2
_symmetry_cell_setting 'triclinic'
loop_
_space_group_symop_operation_xyz
x,y,z
-x,-y,-z
loop_
_atom_site_type_symbol
_atom_site_label
_atom_site_fract_x
_atom_site_fract_y
_atom_site_fract_z
Si Si1 0.427913 0.182625 0.186343
Si Si2 0.449205 0.177129 0.822112
Si Si3 0.512828 0.428875 0.727032
Si Si4 0.692297 0.258340 0.055489
Si Si5 0.105084 0.324875 0.210047
Si Si6 0.793655 0.275114 0.459467
Si Si7 0.863620 0.555393 0.908476
Si Si8 0.999581 0.056737 0.759754
O O1 0.507375 0.259005 0.449701
O O2 0.260841 0.267478 0.275890
O O3 0.451207 0.184679 0.019567
O O4 0.500000 0.000000 0.000000
O O5 0.500000 0.000000 0.500000
O O6 0.565404 0.221294 0.884281
O O7 0.287866 0.310559 0.884543
O O8 0.375689 0.549539 0.733608
O O9 0.668020 0.392788 0.692618
O O10 0.500000 0.500000 0.000000
O O11 0.724340 0.231230 0.210924
O O12 0.834799 0.142099 0.856344
O O13 0.109374 0.352194 0.074176
O O14 0.000000 0.500000 0.500000
O O15 0.058440 0.186530 0.004491
O O16 0.863074 0.384266 0.600775
O O17 0.909217 0.103211 0.332421
O O18 0.000000 0.500000 0.000000
O O19 0.000000 0.000000 0.500000
#
# Coordination Sequence:
#
# PCOD8035362 Si02
#       8
#     2   2   2   2   2   2   2   2
#     4  11  25  44  70 102 143 181 232 295 353 427
#     4  11  26  44  73 105 140 188 235 294 358 422
#     4  12  25  44  72 104 140 187 238 295 361 424
#     4  12  25  47  72 101 143 185 246 292 352 431
#     4  11  25  46  67  99 141 186 228 283 361 420
#     4  12  24  46  73 106 139 189 241 295 358 426
#     4  11  25  45  72 102 140 181 235 292 352 425
#     4  12  27  45  72 106 146 187 240 297 357 430
#
# _framework density 21.570132000000001
#
# number of rings (size 3 to 8) (size 9 to 14) (size 15 to 20)
#    0.000    0.500    2.500    6.000    7.000    2.000 
#    0.000    0.000    0.000    0.000    0.000    0.000 
#    0.000    0.000    0.000    0.000    0.000    0.000 
#
# Total GULP energy -198407.325319 kJ/mol
# GULP energy per Si atom -12400.457832 kJ/mol
# Density = 2.152104 g / cm^3
# Si number density = 21.570132 Si / 1000 Ang^3
#
#
#
# Elastic Constant Matrix: (Units=GPa)
#
#
# Indices 1 2 3 4 5 6 
#
# 1 134.6210 48.3747 49.0036 6.9233 -14.0027 -18.1659
# 2 48.3747 118.8380 28.9209 30.7948 14.1414 -11.0465
# 3 49.0036 28.9209 129.5975 11.1944 5.5326 -2.0633
# 4 6.9233 30.7948 11.1944 39.9836 -8.2096 0.0958
# 5 -14.0027 14.1414 5.5326 -8.2096 28.6176 3.7072
# 6 -18.1659 -11.0465 -2.0633 0.0958 3.7072 35.2563
#
#
#
# Elastic Compliance Matrix: (Units=1/GPa)
#
#
# Indices 1 2 3 4 5 6 
#
# 1 0.012942 -0.007275 -0.004374 0.007138 0.012457 0.002803
# 2 -0.007275 0.017866 0.001005 -0.016445 -0.017796 0.003824
# 3 -0.004374 0.001005 0.009703 -0.003865 -0.005520 -0.000780
# 4 0.007138 -0.016445 -0.003865 0.042706 0.025196 -0.004466
# 5 0.012457 -0.017796 -0.005520 0.025196 0.058871 -0.005739
# 6 0.002803 0.003824 -0.000780 -0.004466 -0.005739 0.031576
#
#
# Mechanical properties :
#
#
# Convention : Reuss Voigt Hill
#
# Bulk Modulus (GPa) = 52.02159 70.62831 61.32495
# Shear Modulus (GPa) = 24.83119 37.88865 31.35992
#
# Velocity S-wave (km/s) = 3.39659 4.19565 3.81709
# Velocity P-wave (km/s) = 6.28906 7.50240 6.92236
#
# Compressibility (1/GPa) = 0.01922279
#
# Stress axis : x y z
#
# Youngs Moduli (GPa) = 77.27040 55.97161 103.06293
#
# Poissons Ratio (x) = 0.40720 0.45077
# Poissons Ratio (y) = 0.56215 -0.10357
# Poissons Ratio (z) = 0.33796 -0.05625
#
# Static dielectric constant tensor:
#      x y z
#    x 4.276000 0.053170 0.108840 
#    y 0.053170 4.241860 0.499010 
#    z 0.108840 0.499010 4.009640 
# 
# 
# High freq. dielectric constant tensor:
#      x y z
#    x 1.865050 -0.006600 0.003780 
#    y -0.006600 1.859120 0.013070 
#    z 0.003780 0.013070 1.852470 
# 
# From -- ./inp_files/189164.got.cif
#   From: 2010.06.25/outbox.cif.g09.slc.cpg/sg2_95_cif.got.tgz:189164.got - 2010.06.27 13:26:56.
