data_PCOD8035085
_publ_section_title
;
Structure prediction by ZEFSAII (Michael W. Deem and Ramdas Pophale) SiO2 
 PCOD8035085
Probable space group: P -1
;
_chemical_formula_sum "Si O2"
_cell_formula_units_Z 16
_cell_length_a 12.426711
_cell_length_b 17.318621
_cell_length_c 8.949595
_cell_angle_alpha 30.211699
_cell_angle_beta 52.301614
_cell_angle_gamma 51.541452
_cell_volume 745.418446
_symmetry_space_group_name_H-M "P -1"
_symmetry_group_IT_number 2
_symmetry_cell_setting 'triclinic'
loop_
_space_group_symop_operation_xyz
x,y,z
-x,-y,-z
loop_
_atom_site_type_symbol
_atom_site_label
_atom_site_fract_x
_atom_site_fract_y
_atom_site_fract_z
Si Si1 0.906529 0.895698 0.394263
Si Si2 0.412586 0.432459 0.310592
Si Si3 0.149075 0.424986 0.055409
Si Si4 0.868156 0.477958 0.745946
Si Si5 0.204788 0.893207 0.127068
Si Si6 0.391627 0.893973 0.243403
Si Si7 0.352731 0.572960 0.436930
Si Si8 0.132421 0.891001 0.655516
O O1 0.820795 0.760165 0.708095
O O2 0.072740 0.821674 0.409828
O O3 0.862748 0.048123 0.282141
O O4 0.869708 0.953852 0.159283
O O5 0.271468 0.407646 0.395496
O O6 0.513243 0.282008 0.552920
O O7 0.351010 0.549542 0.300998
O O8 0.500000 0.500000 0.000000
O O9 0.141273 0.460401 0.179700
O O10 0.255975 0.496156 0.752333
O O11 0.000000 0.500000 0.000000
O O12 0.000000 0.500000 0.500000
O O13 0.870950 0.292055 0.047297
O O14 0.294852 0.945336 0.094968
O O15 0.312804 0.761373 0.164814
O O16 0.281699 0.912303 0.438740
O O17 0.500000 0.000000 0.000000
O O18 0.500000 0.500000 0.500000
O O19 0.000000 0.000000 0.500000
#
# Coordination Sequence:
#
# PCOD8035085 Si02
#       8
#     2   2   2   2   2   2   2   2
#     4  11  26  42  78 103 147 184 243 300 357 428
#     4  12  26  48  71 102 142 192 241 299 364 432
#     4  12  25  46  71 109 140 186 247 296 354 431
#     4  12  28  45  74 107 147 189 249 300 355 435
#     4  11  24  48  68 105 142 191 234 297 363 428
#     4  12  28  47  71 103 149 189 242 298 370 440
#     4  12  24  45  74  99 144 190 236 295 365 430
#     4  12  25  47  73 104 146 193 239 299 367 433
#
# _framework density 21.464452999999999
#
# number of rings (size 3 to 8) (size 9 to 14) (size 15 to 20)
#    0.000    0.250    5.000    3.750    8.750    0.000 
#    0.000    1.250    0.000    0.000    0.000    0.000 
#    0.000    0.000    0.000    0.000    0.000    0.000 
#
# Total GULP energy -198243.918976 kJ/mol
# GULP energy per Si atom -12390.244936 kJ/mol
# Density = 2.141560 g / cm^3
# Si number density = 21.464453 Si / 1000 Ang^3
#
#
#
# Elastic Constant Matrix: (Units=GPa)
#
#
# Indices 1 2 3 4 5 6 
#
# 1 165.5919 50.2850 44.5223 12.1264 4.1110 -4.3956
# 2 50.2850 116.0187 34.6219 15.2034 -7.1266 6.1014
# 3 44.5223 34.6219 99.5132 14.4979 -17.8991 1.5911
# 4 12.1264 15.2034 14.4979 50.0394 -2.2541 -0.6800
# 5 4.1110 -7.1266 -17.8991 -2.2541 36.3767 3.5063
# 6 -4.3956 6.1014 1.5911 -0.6800 3.5063 56.1924
#
#
#
# Elastic Compliance Matrix: (Units=1/GPa)
#
#
# Indices 1 2 3 4 5 6 
#
# 1 0.007811 -0.002673 -0.003089 -0.000308 -0.003059 0.001176
# 2 -0.002673 0.010799 -0.001983 -0.002013 0.001456 -0.001441
# 3 -0.003089 -0.001983 0.013664 -0.002321 0.006622 -0.000854
# 4 -0.000308 -0.002013 -0.002321 0.021340 -0.000231 0.000533
# 5 -0.003059 0.001456 0.006622 -0.000231 0.031612 -0.002560
# 6 0.001176 -0.001441 -0.000854 0.000533 -0.002560 0.018235
#
#
# Mechanical properties :
#
#
# Convention : Reuss Voigt Hill
#
# Bulk Modulus (GPa) = 59.58151 71.10913 65.34532
# Shear Modulus (GPa) = 40.14675 45.30133 42.72404
#
# Velocity S-wave (km/s) = 4.32948 4.59903 4.46629
# Velocity P-wave (km/s) = 7.26712 7.83595 7.55689
#
# Compressibility (1/GPa) = 0.01678373
#
# Stress axis : x y z
#
# Youngs Moduli (GPa) = 128.02827 92.60523 73.18717
#
# Poissons Ratio (x) = 0.24754 0.22605
# Poissons Ratio (y) = 0.34223 0.14512
# Poissons Ratio (z) = 0.39544 0.18362
#
# Static dielectric constant tensor:
#      x y z
#    x 4.148650 -0.095750 0.074450 
#    y -0.095750 4.145740 0.043740 
#    z 0.074450 0.043740 3.865310 
# 
# 
# High freq. dielectric constant tensor:
#      x y z
#    x 1.863480 -0.004340 0.007640 
#    y -0.004340 1.860520 0.001220 
#    z 0.007640 0.001220 1.838110 
# 
# From -- ./inp_files/278639.got.cif
#   From: 2010.06.25/outbox.cif.g09.slc.cpg/sg2_140_cif.got.tgz:278639.got - 2010.06.27 13:26:56.
