data_PCOD8035769
_publ_section_title
;
Structure prediction by ZEFSAII (Michael W. Deem and Ramdas Pophale) SiO2 
 PCOD8035769
Probable space group: P -1
;
_chemical_formula_sum "Si O2"
_cell_formula_units_Z 14
_cell_length_a 14.378874
_cell_length_b 12.225311
_cell_length_c 5.546613
_cell_angle_alpha 50.341363
_cell_angle_beta 69.381735
_cell_angle_gamma 49.839067
_cell_volume 570.719162
_symmetry_space_group_name_H-M "P -1"
_symmetry_group_IT_number 2
_symmetry_cell_setting 'triclinic'
loop_
_space_group_symop_operation_xyz
x,y,z
-x,-y,-z
loop_
_atom_site_type_symbol
_atom_site_label
_atom_site_fract_x
_atom_site_fract_y
_atom_site_fract_z
Si Si1 0.859249 0.611170 0.897006
Si Si2 0.798504 0.803917 0.170123
Si Si3 0.458007 0.885795 0.096936
Si Si4 0.808891 0.243778 0.872224
Si Si5 0.609791 0.336197 0.267705
Si Si6 0.318569 0.468449 0.754030
Si Si7 0.947992 0.942550 0.829872
O O1 0.846638 0.700960 0.525167
O O2 0.783688 0.720843 0.056064
O O3 0.799964 0.504567 0.045044
O O4 0.000000 0.500000 0.000000
O O5 0.895732 0.837231 0.932787
O O6 0.667924 0.979724 0.118586
O O7 0.432109 0.787546 0.458070
O O8 0.566645 0.734197 0.043998
O O9 0.500000 0.000000 0.000000
O O10 0.727346 0.450462 0.587021
O O11 0.832267 0.117340 0.808552
O O12 0.735479 0.214687 0.176723
O O13 0.942177 0.186856 0.908269
O O14 0.641045 0.412444 0.353058
O O15 0.500000 0.500000 0.000000
O O16 0.000000 0.000000 0.500000
#
# Coordination Sequence:
#
# PCOD8035769 Si02
#       7
#     2   2   2   2   2   2   2
#     4  12  30  51  81 115 162 211 270 334 412 484
#     4  12  29  50  78 116 160 210 267 337 412 480
#     4  12  27  51  75 117 161 211 266 338 408 477
#     4  11  25  46  77 111 152 204 270 331 402 476
#     4  12  28  47  81 111 158 210 275 332 396 489
#     4  12  27  49  77 112 156 213 269 328 399 489
#     4  11  26  46  78 111 153 204 269 338 406 480
#
# _framework density 24.530453999999999
#
# number of rings (size 3 to 8) (size 9 to 14) (size 15 to 20)
#    0.000    0.286    2.857    4.286   16.000    0.571 
#    0.000    0.000    0.000    0.000    0.000    0.000 
#    0.000    0.000    0.000    0.000    0.000    0.000 
#
# Total GULP energy -173455.650330 kJ/mol
# GULP energy per Si atom -12389.689309 kJ/mol
# Density = 2.447462 g / cm^3
# Si number density = 24.530454 Si / 1000 Ang^3
#
#
#
# Elastic Constant Matrix: (Units=GPa)
#
#
# Indices 1 2 3 4 5 6 
#
# 1 138.3277 30.0654 67.9909 -11.9037 -24.4864 -11.1332
# 2 30.0654 107.6560 33.2550 1.5235 1.4643 -10.3974
# 3 67.9909 33.2550 145.7381 -8.1356 -6.4905 2.0665
# 4 -11.9037 1.5235 -8.1356 37.7398 -4.8808 3.3421
# 5 -24.4864 1.4643 -6.4905 -4.8808 57.9611 -5.2137
# 6 -11.1332 -10.3974 2.0665 3.3421 -5.2137 45.1290
#
#
#
# Elastic Compliance Matrix: (Units=1/GPa)
#
#
# Indices 1 2 3 4 5 6 
#
# 1 0.011098 -0.001536 -0.004493 0.002948 0.004735 0.002919
# 2 -0.001536 0.010535 -0.001857 -0.001637 -0.001069 0.002131
# 3 -0.004493 -0.001857 0.009413 0.000756 -0.000925 -0.002130
# 4 0.002948 -0.001637 0.000756 0.028245 0.003628 -0.001357
# 5 0.004735 -0.001069 -0.000925 0.003628 0.019750 0.002977
# 6 0.002919 0.002131 -0.002130 -0.001357 0.002977 0.023912
#
#
# Mechanical properties :
#
#
# Convention : Reuss Voigt Hill
#
# Bulk Modulus (GPa) = 65.46794 72.70493 69.08643
# Shear Modulus (GPa) = 40.38275 45.52668 42.95472
#
# Velocity S-wave (km/s) = 4.06178 4.31272 4.18913
# Velocity P-wave (km/s) = 6.98167 7.38257 7.18492
#
# Compressibility (1/GPa) = 0.01527465
#
# Stress axis : x y z
#
# Youngs Moduli (GPa) = 90.10445 94.92392 106.24012
#
# Poissons Ratio (x) = 0.14578 0.47735
# Poissons Ratio (y) = 0.13838 0.19724
# Poissons Ratio (z) = 0.40485 0.17623
#
# Static dielectric constant tensor:
#      x y z
#    x 5.637670 -0.132690 0.183740 
#    y -0.132690 4.981120 -0.044300 
#    z 0.183740 -0.044300 4.592320 
# 
# 
# High freq. dielectric constant tensor:
#      x y z
#    x 2.005530 -0.019940 -0.002790 
#    y -0.019940 1.969180 -0.010150 
#    z -0.002790 -0.010150 1.976330 
# 
# From -- ./inp_files/94284.got.cif
#   From: 2010.06.25/outbox.cif.g09.slc.cpg/sg2_48_cif.got.tgz:94284.got - 2010.06.27 13:26:56.
