data_PCOD8035238
_publ_section_title
;
Structure prediction by ZEFSAII (Michael W. Deem and Ramdas Pophale) SiO2 
 PCOD8035238
Probable space group: P -1
;
_chemical_formula_sum "Si O2"
_cell_formula_units_Z 14
_cell_length_a 9.208122
_cell_length_b 5.290095
_cell_length_c 23.628612
_cell_angle_alpha 92.629842
_cell_angle_beta 141.862058
_cell_angle_gamma 105.254773
_cell_volume 620.953012
_symmetry_space_group_name_H-M "P -1"
_symmetry_group_IT_number 2
_symmetry_cell_setting 'triclinic'
loop_
_space_group_symop_operation_xyz
x,y,z
-x,-y,-z
loop_
_atom_site_type_symbol
_atom_site_label
_atom_site_fract_x
_atom_site_fract_y
_atom_site_fract_z
Si Si1 0.059821 0.065180 0.409258
Si Si2 0.281388 0.097400 0.271272
Si Si3 0.018456 0.795446 0.728703
Si Si4 0.229527 0.180355 0.956574
Si Si5 0.566861 0.207562 0.952823
Si Si6 0.390343 0.809929 0.407955
Si Si7 0.162785 0.550096 0.607253
O O1 0.884124 0.225010 0.367094
O O2 0.061410 0.032258 0.340510
O O3 0.364009 0.264200 0.528224
O O4 0.924492 0.749827 0.391580
O O5 0.142950 0.259138 0.262581
O O6 0.522599 0.313224 0.307904
O O7 0.379697 0.957589 0.348116
O O8 0.047003 0.865838 0.156743
O O9 0.899891 0.463451 0.668274
O O10 0.335051 0.977240 0.838303
O O11 0.462399 0.229852 0.983424
O O12 0.314083 0.457476 0.027386
O O13 0.206823 0.898199 0.979798
O O14 0.500000 0.000000 0.500000
O O15 0.000000 0.500000 0.500000
#
# Coordination Sequence:
#
# PCOD8035238 Si02
#       7
#     2   2   2   2   2   2   2
#     4  12  26  44  63  91 136 170 214 256 320 382
#     4  11  25  39  69  94 129 170 219 261 325 372
#     4  11  25  40  69  95 126 174 213 269 319 382
#     4   9  20  36  59  95 124 158 203 274 316 374
#     4   9  20  37  61  91 128 153 211 264 327 366
#     4  12  24  40  63  99 133 168 216 268 313 383
#     4  12  26  44  62  92 132 177 210 261 313 383
#
# _framework density 22.54599
#
# number of rings (size 3 to 8) (size 9 to 14) (size 15 to 20)
#    0.000    1.143    2.857    2.571   12.000    0.000 
#    0.000    0.000    0.000    5.143    0.000    0.000 
#    0.000    0.000    0.000    0.000    0.000    0.000 
#
# Total GULP energy -173447.208243 kJ/mol
# GULP energy per Si atom -12389.086303 kJ/mol
# Density = 2.249467 g / cm^3
# Si number density = 22.545990 Si / 1000 Ang^3
#
#
#
# Elastic Constant Matrix: (Units=GPa)
#
#
# Indices 1 2 3 4 5 6 
#
# 1 48.9837 27.5111 27.6764 12.8220 9.9887 3.5531
# 2 27.5111 157.9080 53.7845 14.0866 -10.2890 -8.1225
# 3 27.6764 53.7845 146.6839 13.8093 1.8657 -6.9317
# 4 12.8220 14.0866 13.8093 35.7575 -4.7386 1.2138
# 5 9.9887 -10.2890 1.8657 -4.7386 19.5299 -0.5285
# 6 3.5531 -8.1225 -6.9317 1.2138 -0.5285 29.9406
#
#
#
# Elastic Compliance Matrix: (Units=1/GPa)
#
#
# Indices 1 2 3 4 5 6 
#
# 1 0.033312 -0.005483 -0.003212 -0.011323 -0.022532 -0.006123
# 2 -0.005483 0.008621 -0.002131 0.000324 0.007699 0.002619
# 3 -0.003212 -0.002131 0.008429 -0.001402 -0.000577 0.001801
# 4 -0.011323 0.000324 -0.001402 0.034353 0.014430 -0.000031
# 5 -0.022532 0.007699 -0.000577 0.014430 0.070484 0.005288
# 6 -0.006123 0.002619 0.001801 -0.000031 0.005288 0.035348
#
#
# Mechanical properties :
#
#
# Convention : Reuss Voigt Hill
#
# Bulk Modulus (GPa) = 34.83021 63.50217 49.16619
# Shear Modulus (GPa) = 22.54596 33.35251 27.94923
#
# Velocity S-wave (km/s) = 3.16571 3.85035 3.52469
# Velocity P-wave (km/s) = 5.37069 6.92775 6.19831
#
# Compressibility (1/GPa) = 0.02871071
#
# Stress axis : x y z
#
# Youngs Moduli (GPa) = 30.01953 115.98957 118.63393
#
# Poissons Ratio (x) = 0.63594 0.38102
# Poissons Ratio (y) = 0.16459 0.25286
# Poissons Ratio (z) = 0.09641 0.24722
#
# Static dielectric constant tensor:
#      x y z
#    x 4.247420 -0.151700 0.167300 
#    y -0.151700 4.274900 0.088280 
#    z 0.167300 0.088280 4.196290 
# 
# 
# High freq. dielectric constant tensor:
#      x y z
#    x 1.854370 -0.015930 0.004740 
#    y -0.015930 1.894740 0.000710 
#    z 0.004740 0.000710 1.893970 
# 
# From -- ./inp_files/138507.got.cif
#   From: 2010.06.25/outbox.cif.g09.slc.cpg/sg2_70_cif.got.tgz:138507.got - 2010.06.27 13:26:56.
