data_PCOD8035265
_publ_section_title
;
Structure prediction by ZEFSAII (Michael W. Deem and Ramdas Pophale) SiO2 
 PCOD8035265
Probable space group: P -1
;
_chemical_formula_sum "Si O2"
_cell_formula_units_Z 16
_cell_length_a 14.908437
_cell_length_b 8.501809
_cell_length_c 8.537936
_cell_angle_alpha 85.576689
_cell_angle_beta 134.209356
_cell_angle_gamma 105.150020
_cell_volume 740.047731
_symmetry_space_group_name_H-M "P -1"
_symmetry_group_IT_number 2
_symmetry_cell_setting 'triclinic'
loop_
_space_group_symop_operation_xyz
x,y,z
-x,-y,-z
loop_
_atom_site_type_symbol
_atom_site_label
_atom_site_fract_x
_atom_site_fract_y
_atom_site_fract_z
Si Si1 0.314727 0.540164 0.163429
Si Si2 0.508458 0.640791 0.123457
Si Si3 0.965582 0.065120 0.291403
Si Si4 0.460628 0.823756 0.549676
Si Si5 0.336862 0.821405 0.732073
Si Si6 0.736857 0.824769 0.832933
Si Si7 0.245656 0.114604 0.499824
Si Si8 0.120283 0.637898 0.699953
O O1 0.433899 0.549664 0.191033
O O2 0.367757 0.684148 0.340721
O O3 0.258958 0.359996 0.187181
O O4 0.192240 0.560944 0.920673
O O5 0.659864 0.707777 0.350582
O O6 0.500000 0.500000 0.000000
O O7 0.451930 0.792858 0.986546
O O8 0.916720 0.220900 0.258303
O O9 0.096544 0.111789 0.343626
O O10 0.000000 0.000000 0.500000
O O11 0.854806 0.924550 0.078487
O O12 0.375565 0.805372 0.602909
O O13 0.600847 0.799169 0.761928
O O14 0.500000 0.000000 0.500000
O O15 0.205246 0.690627 0.641924
O O16 0.299014 0.991982 0.683924
O O17 0.739539 0.920528 0.664279
O O18 0.000000 0.500000 0.500000
#
# Coordination Sequence:
#
# PCOD8035265 Si02
#       8
#     2   2   2   2   2   2   2   2
#     4  11  25  44  70 104 142 180 229 292 353 412
#     4  11  25  42  71 106 139 180 232 292 349 412
#     4  12  27  46  73  98 135 191 235 285 347 420
#     4  12  23  43  72 106 142 181 229 289 357 414
#     4  11  25  43  72 100 141 178 238 283 352 405
#     4  12  26  46  70 103 145 180 234 286 353 426
#     4  12  26  46  70 101 143 183 236 284 352 420
#     4  11  26  48  70 102 139 180 239 288 348 420
#
# _framework density 21.620225999999999
#
# number of rings (size 3 to 8) (size 9 to 14) (size 15 to 20)
#    0.000    0.500    3.750    3.375    8.750    2.000 
#    0.000    1.250    0.000    0.000    0.000    0.000 
#    0.000    0.000    0.000    0.000    0.000    0.000 
#
# Total GULP energy -198305.859165 kJ/mol
# GULP energy per Si atom -12394.116198 kJ/mol
# Density = 2.157102 g / cm^3
# Si number density = 21.620226 Si / 1000 Ang^3
#
#
#
# Elastic Constant Matrix: (Units=GPa)
#
#
# Indices 1 2 3 4 5 6 
#
# 1 122.3334 21.7730 37.5987 10.1029 12.3360 9.8948
# 2 21.7730 106.2768 56.6795 9.0302 9.9346 2.5260
# 3 37.5987 56.6795 142.9788 39.1713 14.7425 15.7799
# 4 10.1029 9.0302 39.1713 46.0289 0.7637 -5.3662
# 5 12.3360 9.9346 14.7425 0.7637 37.6460 -0.7347
# 6 9.8948 2.5260 15.7799 -5.3662 -0.7347 23.4634
#
#
#
# Elastic Compliance Matrix: (Units=1/GPa)
#
#
# Indices 1 2 3 4 5 6 
#
# 1 0.009304 -0.000898 -0.001108 -0.001285 -0.002419 -0.003451
# 2 -0.000898 0.012458 -0.005942 0.003259 -0.000659 0.003758
# 3 -0.001108 -0.005942 0.014745 -0.012449 -0.003820 -0.011776
# 4 -0.001285 0.003259 -0.012449 0.033810 0.004071 0.016423
# 5 -0.002419 -0.000659 -0.003820 0.004071 0.029051 0.005501
# 6 -0.003451 0.003758 -0.011776 0.016423 0.005501 0.055518
#
#
# Mechanical properties :
#
#
# Convention : Reuss Voigt Hill
#
# Bulk Modulus (GPa) = 48.51857 67.07685 57.79771
# Shear Modulus (GPa) = 28.14488 38.46351 33.30419
#
# Velocity S-wave (km/s) = 3.61194 4.22246 3.92907
# Velocity P-wave (km/s) = 6.31544 7.40706 6.88293
#
# Compressibility (1/GPa) = 0.02061067
#
# Stress axis : x y z
#
# Youngs Moduli (GPa) = 107.48038 80.27160 67.81844
#
# Poissons Ratio (x) = 0.07205 0.07518
# Poissons Ratio (y) = 0.09648 0.40298
# Poissons Ratio (z) = 0.11914 0.47698
#
# Static dielectric constant tensor:
#      x y z
#    x 4.385390 -0.092390 0.250450 
#    y -0.092390 4.177770 -0.241670 
#    z 0.250450 -0.241670 4.098460 
# 
# 
# High freq. dielectric constant tensor:
#      x y z
#    x 1.856230 0.004550 0.005570 
#    y 0.004550 1.859440 -0.005260 
#    z 0.005570 -0.005260 1.860240 
# 
# From -- ./inp_files/216444.got.cif
#   From: 2010.06.25/outbox.cif.g09.slc.cpg/sg2_109_cif.got.tgz:216444.got - 2010.06.27 13:26:56.
