data_PCOD8035425
_publ_section_title
;
Structure prediction by ZEFSAII (Michael W. Deem and Ramdas Pophale) SiO2 
 PCOD8035425
Probable space group: P -1
;
_chemical_formula_sum "Si O2"
_cell_formula_units_Z 14
_cell_length_a 9.443175
_cell_length_b 18.291828
_cell_length_c 8.530858
_cell_angle_alpha 125.677161
_cell_angle_beta 60.601118
_cell_angle_gamma 152.204330
_cell_volume 556.962614
_symmetry_space_group_name_H-M "P -1"
_symmetry_group_IT_number 2
_symmetry_cell_setting 'triclinic'
loop_
_space_group_symop_operation_xyz
x,y,z
-x,-y,-z
loop_
_atom_site_type_symbol
_atom_site_label
_atom_site_fract_x
_atom_site_fract_y
_atom_site_fract_z
Si Si1 0.564339 0.257245 0.074998
Si Si2 0.865842 0.414083 0.640038
Si Si3 0.775295 0.717913 0.761779
Si Si4 0.733232 0.032370 0.961475
Si Si5 0.212004 0.180850 0.660210
Si Si6 0.308678 0.819725 0.348829
Si Si7 0.744521 0.637200 0.339788
O O1 0.524606 0.181419 0.841306
O O2 0.341014 0.236484 0.149736
O O3 0.907574 0.446386 0.171068
O O4 0.447095 0.145778 0.150187
O O5 0.535983 0.304723 0.709673
O O6 0.807806 0.280509 0.547122
O O7 0.000000 0.500000 0.500000
O O8 0.783428 0.659602 0.533288
O O9 0.541704 0.556330 0.803349
O O10 0.118493 0.876252 0.836791
O O11 0.023546 0.158081 0.848042
O O12 0.500000 0.000000 0.000000
O O13 0.284724 0.274331 0.586828
O O14 0.000000 0.000000 0.500000
O O15 0.051977 0.727588 0.243930
O O16 0.500000 0.000000 0.500000
#
# Coordination Sequence:
#
# PCOD8035425 Si02
#       7
#     2   2   2   2   2   2   2
#     4  12  26  50  78 113 151 208 260 316 395 469
#     4  12  27  47  81 117 162 200 260 328 399 464
#     4  11  25  47  74 108 147 202 257 315 378 465
#     4  12  28  48  75 110 157 198 258 318 390 456
#     4  12  27  48  74 113 158 204 253 320 396 461
#     4  12  26  48  79 112 153 205 264 318 386 477
#     4  11  25  44  74 108 152 196 260 310 383 459
#
# _framework density 25.136337000000001
#
# number of rings (size 3 to 8) (size 9 to 14) (size 15 to 20)
#    0.000    0.286    1.429    6.857    6.000    2.857 
#    0.000    0.000    0.000    0.000    0.000    0.000 
#    0.000    0.000    0.000    0.000    0.000    0.000 
#
# Total GULP energy -173484.956952 kJ/mol
# GULP energy per Si atom -12391.782639 kJ/mol
# Density = 2.507913 g / cm^3
# Si number density = 25.136337 Si / 1000 Ang^3
#
#
#
# Elastic Constant Matrix: (Units=GPa)
#
#
# Indices 1 2 3 4 5 6 
#
# 1 206.4934 80.5805 31.9572 24.8368 -3.8499 1.8194
# 2 80.5805 140.5502 31.4368 28.7290 -0.0916 -8.2099
# 3 31.9572 31.4368 81.4935 5.8305 -4.0015 1.9212
# 4 24.8368 28.7290 5.8305 34.3656 3.2961 -2.3823
# 5 -3.8499 -0.0916 -4.0015 3.2961 35.2042 5.6945
# 6 1.8194 -8.2099 1.9212 -2.3823 5.6945 68.0400
#
#
#
# Elastic Compliance Matrix: (Units=1/GPa)
#
#
# Indices 1 2 3 4 5 6 
#
# 1 0.006493 -0.003084 -0.001152 -0.002048 0.000869 -0.000658
# 2 -0.003084 0.010808 -0.002552 -0.006265 -0.000216 0.001257
# 3 -0.001152 -0.002552 0.013769 0.000430 0.001518 -0.000778
# 4 -0.002048 -0.006265 0.000430 0.036160 -0.003717 0.000864
# 5 0.000869 -0.000216 0.001518 -0.003717 0.029455 -0.002688
# 6 -0.000658 0.001257 -0.000778 0.000864 -0.002688 0.015144
#
#
# Mechanical properties :
#
#
# Convention : Reuss Voigt Hill
#
# Bulk Modulus (GPa) = 57.16096 79.60958 68.38527
# Shear Modulus (GPa) = 38.09946 46.49280 42.29613
#
# Velocity S-wave (km/s) = 3.89744 4.30539 4.10648
# Velocity P-wave (km/s) = 6.56072 7.51366 7.05330
#
# Compressibility (1/GPa) = 0.01749446
#
# Stress axis : x y z
#
# Youngs Moduli (GPa) = 154.01530 92.52547 72.62673
#
# Poissons Ratio (x) = 0.28537 0.08364
# Poissons Ratio (y) = 0.47501 0.18533
# Poissons Ratio (z) = 0.17738 0.23610
#
# Static dielectric constant tensor:
#      x y z
#    x 4.698510 0.050540 0.046800 
#    y 0.050540 5.164670 -0.025300 
#    z 0.046800 -0.025300 4.333110 
# 
# 
# High freq. dielectric constant tensor:
#      x y z
#    x 2.019340 -0.000380 -0.007840 
#    y -0.000380 2.025350 0.008010 
#    z -0.007840 0.008010 1.987430 
# 
# From -- ./inp_files/218220.got.cif
#   From: 2010.06.25/outbox.cif.g09.slc.cpg/sg2_110_cif.got.tgz:218220.got - 2010.06.27 13:26:56.
