data_PCOD8035368
_publ_section_title
;
Structure prediction by ZEFSAII (Michael W. Deem and Ramdas Pophale) SiO2 
 PCOD8035368
Probable space group: P -1
;
_chemical_formula_sum "Si O2"
_cell_formula_units_Z 14
_cell_length_a 23.595096
_cell_length_b 6.277910
_cell_length_c 17.915858
_cell_angle_alpha 43.893317
_cell_angle_beta 20.239271
_cell_angle_gamma 53.122462
_cell_volume 603.688758
_symmetry_space_group_name_H-M "P -1"
_symmetry_group_IT_number 2
_symmetry_cell_setting 'triclinic'
loop_
_space_group_symop_operation_xyz
x,y,z
-x,-y,-z
loop_
_atom_site_type_symbol
_atom_site_label
_atom_site_fract_x
_atom_site_fract_y
_atom_site_fract_z
Si Si1 0.323863 0.567031 0.713173
Si Si2 0.257322 0.467059 0.988772
Si Si3 0.687072 0.227211 0.626891
Si Si4 0.883753 0.485053 0.458438
Si Si5 0.518890 0.768913 0.707925
Si Si6 0.018899 0.776494 0.846672
Si Si7 0.625942 0.160974 0.973710
O O1 0.500000 0.500000 0.500000
O O2 0.337300 0.881922 0.567137
O O3 0.296521 0.628419 0.818243
O O4 0.164542 0.271993 0.954294
O O5 0.056126 0.386630 0.277014
O O6 0.312430 0.144685 0.005276
O O7 0.363562 0.729328 0.851299
O O8 0.751797 0.223472 0.632831
O O9 0.619183 0.526627 0.623297
O O10 0.850658 0.277095 0.360759
O O11 0.530251 0.911719 0.875679
O O12 0.789267 0.442016 0.666718
O O13 0.919382 0.854000 0.291870
O O14 0.439640 0.709448 0.903699
O O15 0.000000 0.500000 0.000000
#
# Coordination Sequence:
#
# PCOD8035368 Si02
#       7
#     2   2   2   2   2   2   2
#     4  12  23  45  72 100 141 176 229 283 343 402
#     4  11  25  44  70 107 135 179 228 282 344 406
#     4  11  25  46  69 100 137 181 231 279 339 406
#     4  12  26  45  71 102 138 184 224 282 347 401
#     4  11  25  44  71 101 136 186 225 283 340 402
#     4  12  28  44  68 104 141 176 229 284 336 408
#     4  11  25  47  70 101 140 179 231 280 337 410
#
# _framework density 23.190757999999999
#
# number of rings (size 3 to 8) (size 9 to 14) (size 15 to 20)
#    0.000    0.571    2.857    4.714    4.000    6.286 
#    0.000    0.000    0.000    0.000    0.000    0.000 
#    0.000    0.000    0.000    0.000    0.000    0.000 
#
# Total GULP energy -173629.665625 kJ/mol
# GULP energy per Si atom -12402.118973 kJ/mol
# Density = 2.313798 g / cm^3
# Si number density = 23.190758 Si / 1000 Ang^3
#
#
#
# Elastic Constant Matrix: (Units=GPa)
#
#
# Indices 1 2 3 4 5 6 
#
# 1 90.0022 14.8200 47.6705 8.7118 -13.3094 20.5653
# 2 14.8200 62.5169 27.3963 13.8237 -7.5616 6.9000
# 3 47.6705 27.3963 139.7287 24.9028 -0.6749 7.7948
# 4 8.7118 13.8237 24.9028 39.7638 -3.0877 -1.3478
# 5 -13.3094 -7.5616 -0.6749 -3.0877 44.9479 -0.0373
# 6 20.5653 6.9000 7.7948 -1.3478 -0.0373 35.4679
#
#
#
# Elastic Compliance Matrix: (Units=1/GPa)
#
#
# Indices 1 2 3 4 5 6 
#
# 1 0.016458 -0.000117 -0.005041 -0.000324 0.004749 -0.008419
# 2 -0.000117 0.018926 -0.002622 -0.004806 0.002777 -0.003218
# 3 -0.005041 -0.002622 0.010115 -0.004446 -0.002086 0.001039
# 4 -0.000324 -0.004806 -0.004446 0.029868 0.001083 0.003236
# 5 0.004749 0.002777 -0.002086 0.001083 0.024162 -0.002769
# 6 -0.008419 -0.003218 0.001039 0.003236 -0.002769 0.033594
#
#
# Mechanical properties :
#
#
# Convention : Reuss Voigt Hill
#
# Bulk Modulus (GPa) = 33.40129 52.44680 42.92405
# Shear Modulus (GPa) = 31.51356 37.52667 34.52011
#
# Velocity S-wave (km/s) = 3.69030 4.02702 3.86233
# Velocity P-wave (km/s) = 5.70893 6.65485 6.19995
#
# Compressibility (1/GPa) = 0.02993896
#
# Stress axis : x y z
#
# Youngs Moduli (GPa) = 60.76161 52.83794 98.86348
#
# Poissons Ratio (x) = 0.00617 0.49842
# Poissons Ratio (y) = 0.00709 0.25917
# Poissons Ratio (z) = 0.30633 0.13852
#
# Static dielectric constant tensor:
#      x y z
#    x 4.589420 0.114640 0.101040 
#    y 0.114640 4.260860 -0.127680 
#    z 0.101040 -0.127680 5.209100 
# 
# 
# High freq. dielectric constant tensor:
#      x y z
#    x 1.921420 0.000310 -0.007140 
#    y 0.000310 1.918990 0.013980 
#    z -0.007140 0.013980 1.933470 
# 
# From -- ./inp_files/26719.got.cif
#   From: 2010.06.25/outbox.cif.g09.slc.cpg/sg2_14_cif.got.tgz:26719.got - 2010.06.27 13:26:56.
