data_PCOD8035485
_publ_section_title
;
Structure prediction by ZEFSAII (Michael W. Deem and Ramdas Pophale) SiO2 
 PCOD8035485
Probable space group: P -1
;
_chemical_formula_sum "Si O2"
_cell_formula_units_Z 14
_cell_length_a 21.727857
_cell_length_b 13.000341
_cell_length_c 6.523298
_cell_angle_alpha 70.724168
_cell_angle_beta 84.083253
_cell_angle_gamma 24.182889
_cell_volume 611.956637
_symmetry_space_group_name_H-M "P -1"
_symmetry_group_IT_number 2
_symmetry_cell_setting 'triclinic'
loop_
_space_group_symop_operation_xyz
x,y,z
-x,-y,-z
loop_
_atom_site_type_symbol
_atom_site_label
_atom_site_fract_x
_atom_site_fract_y
_atom_site_fract_z
Si Si1 0.186877 0.634440 0.220342
Si Si2 0.221986 0.971252 0.291970
Si Si3 0.867012 0.698191 0.602788
Si Si4 0.489074 0.591935 0.142399
Si Si5 0.481629 0.804077 0.772900
Si Si6 0.330343 0.248428 0.764960
Si Si7 0.890756 0.432282 0.995356
O O1 0.345825 0.457185 0.249259
O O2 0.222242 0.525307 0.507740
O O3 0.199455 0.517909 0.125437
O O4 0.000000 0.000000 0.000000
O O5 0.295326 0.904005 0.101448
O O6 0.375489 0.669922 0.566807
O O7 0.108268 0.248387 0.272151
O O8 0.095727 0.076890 0.209642
O O9 0.000000 0.500000 0.500000
O O10 0.660596 0.040215 0.389955
O O11 0.897864 0.529308 0.795953
O O12 0.500000 0.500000 0.000000
O O13 0.539224 0.635949 0.056749
O O14 0.388801 0.069886 0.685212
O O15 0.205318 0.392874 0.870713
O O16 0.500000 0.000000 0.000000
#
# Coordination Sequence:
#
# PCOD8035485 Si02
#       7
#     2   2   2   2   2   2   2
#     4  12  30  46  73 110 146 196 242 308 376 433
#     4  11  26  43  70 109 141 191 240 291 378 439
#     4  12  24  44  77 107 144 193 244 306 367 437
#     4  11  25  45  71 103 146 191 236 302 368 432
#     4  12  24  47  77 100 145 191 245 301 364 438
#     4  12  25  49  75 104 141 195 251 298 366 441
#     4  12  26  45  73 102 150 183 246 297 368 443
#
# _framework density 22.877438000000001
#
# number of rings (size 3 to 8) (size 9 to 14) (size 15 to 20)
#    0.000    0.286    4.286    4.286    4.000    1.714 
#    0.000    0.000    0.000    0.000    0.000    0.000 
#    0.000    0.000    0.000    0.000    0.000    0.000 
#
# Total GULP energy -173515.335188 kJ/mol
# GULP energy per Si atom -12393.952513 kJ/mol
# Density = 2.282537 g / cm^3
# Si number density = 22.877438 Si / 1000 Ang^3
#
#
#
# Elastic Constant Matrix: (Units=GPa)
#
#
# Indices 1 2 3 4 5 6 
#
# 1 80.3268 40.8802 39.9077 -1.7702 -9.4878 -26.5601
# 2 40.8802 151.0281 56.9113 11.2850 -13.1672 -32.2012
# 3 39.9077 56.9113 120.1756 -2.6289 -15.0772 -14.0171
# 4 -1.7702 11.2850 -2.6289 37.8963 -5.2983 -2.3232
# 5 -9.4878 -13.1672 -15.0772 -5.2983 45.1395 -0.4877
# 6 -26.5601 -32.2012 -14.0171 -2.3232 -0.4877 47.5040
#
#
#
# Elastic Compliance Matrix: (Units=1/GPa)
#
#
# Indices 1 2 3 4 5 6 
#
# 1 0.018250 -0.001660 -0.004007 0.001884 0.002321 0.008012
# 2 -0.001660 0.009599 -0.003405 -0.002754 0.001038 0.004450
# 3 -0.004007 -0.003405 0.011458 0.001865 0.002199 -0.001054
# 4 0.001884 -0.002754 0.001865 0.027986 0.003513 0.001142
# 5 0.002321 0.001038 0.002199 0.003513 0.024124 0.003070
# 6 0.008012 0.004450 -0.001054 0.001142 0.003070 0.028323
#
#
# Mechanical properties :
#
#
# Convention : Reuss Voigt Hill
#
# Bulk Modulus (GPa) = 47.25566 69.65878 58.45722
# Shear Modulus (GPa) = 34.49701 40.36338 37.43019
#
# Velocity S-wave (km/s) = 3.88739 4.20495 4.04928
# Velocity P-wave (km/s) = 6.39139 7.35461 6.88985
#
# Compressibility (1/GPa) = 0.02116148
#
# Stress axis : x y z
#
# Youngs Moduli (GPa) = 54.79555 104.17795 87.27272
#
# Poissons Ratio (x) = 0.17293 0.34973
# Poissons Ratio (y) = 0.09096 0.29720
# Poissons Ratio (z) = 0.21958 0.35477
#
# Static dielectric constant tensor:
#      x y z
#    x 4.322580 -0.171010 0.250070 
#    y -0.171010 4.413070 -0.010650 
#    z 0.250070 -0.010650 4.995250 
# 
# 
# High freq. dielectric constant tensor:
#      x y z
#    x 1.903180 -0.016770 -0.002260 
#    y -0.016770 1.907220 -0.006310 
#    z -0.002260 -0.006310 1.924840 
# 
# From -- ./inp_files/28111.got.cif
#   From: 2010.06.25/outbox.cif.g09.slc.cpg/sg2_15_cif.got.tgz:28111.got - 2010.06.27 13:26:56.
