data_PCOD8035531
_publ_section_title
;
Structure prediction by ZEFSAII (Michael W. Deem and Ramdas Pophale) SiO2 
 PCOD8035531
Probable space group: P -1
;
_chemical_formula_sum "Si O2"
_cell_formula_units_Z 16
_cell_length_a 9.183914
_cell_length_b 15.581305
_cell_length_c 8.730871
_cell_angle_alpha 104.879172
_cell_angle_beta 76.823431
_cell_angle_gamma 47.615366
_cell_volume 737.832180
_symmetry_space_group_name_H-M "P -1"
_symmetry_group_IT_number 2
_symmetry_cell_setting 'triclinic'
loop_
_space_group_symop_operation_xyz
x,y,z
-x,-y,-z
loop_
_atom_site_type_symbol
_atom_site_label
_atom_site_fract_x
_atom_site_fract_y
_atom_site_fract_z
Si Si1 0.227054 0.423483 0.317543
Si Si2 0.879077 0.875111 0.764696
Si Si3 0.485536 0.105832 0.486331
Si Si4 0.743634 0.357205 0.948861
Si Si5 0.987399 0.594339 0.150362
Si Si6 0.049533 0.079071 0.559443
Si Si7 0.419734 0.152128 0.165462
Si Si8 0.617699 0.364592 0.321351
O O1 0.353710 0.276070 0.166184
O O2 0.407427 0.389681 0.374018
O O3 0.000000 0.500000 0.500000
O O4 0.148329 0.513982 0.228256
O O5 0.872545 0.899324 0.596890
O O6 0.805768 0.808119 0.795685
O O7 0.145012 0.777318 0.712001
O O8 0.671206 0.024792 0.964755
O O9 0.286815 0.259846 0.681529
O O10 0.453683 0.125278 0.323636
O O11 0.500000 0.000000 0.500000
O O12 0.736726 0.033169 0.426066
O O13 0.918693 0.359987 0.931977
O O14 0.842834 0.230441 0.763286
O O15 0.500000 0.500000 0.000000
O O16 0.698388 0.344767 0.122450
O O17 0.000000 0.500000 0.000000
O O18 0.000000 0.000000 0.500000
O O19 0.500000 0.500000 0.500000
#
# Coordination Sequence:
#
# PCOD8035531 Si02
#       8
#     2   2   2   2   2   2   2   2
#     4  12  27  48  72 104 149 188 246 304 364 443
#     4  11  26  45  72 108 142 188 244 294 372 437
#     4  12  24  48  72 102 144 196 243 300 361 432
#     4  12  26  50  73 103 151 192 242 305 369 434
#     4  12  29  45  77 109 146 195 252 300 370 436
#     4  12  29  46  74 106 149 190 248 305 369 438
#     4  11  25  45  73 102 148 188 240 301 361 434
#     4  12  28  45  74 104 148 193 240 300 374 436
#
# _framework density 21.685148999999999
#
# number of rings (size 3 to 8) (size 9 to 14) (size 15 to 20)
#    0.000    0.250    5.000    2.250   10.500    0.500 
#    0.000    0.000    0.000    0.000    0.000    0.000 
#    0.000    0.000    0.000    0.000    0.000    0.000 
#
# Total GULP energy -198292.825991 kJ/mol
# GULP energy per Si atom -12393.301624 kJ/mol
# Density = 2.163579 g / cm^3
# Si number density = 21.685149 Si / 1000 Ang^3
#
#
#
# Elastic Constant Matrix: (Units=GPa)
#
#
# Indices 1 2 3 4 5 6 
#
# 1 31.6118 21.5439 33.0051 178.7478 -20.9201 12.3195
# 2 21.5439 97.4003 36.5927 41.2552 -1.2064 -2.3903
# 3 33.0051 36.5927 154.3911 30.0217 3.3051 8.7329
# 4 178.7478 41.2552 30.0217 -164.7149 33.5911 -16.4323
# 5 -20.9201 -1.2064 3.3051 33.5911 31.6923 11.8172
# 6 12.3195 -2.3903 8.7329 -16.4323 11.8172 47.7294
#
#
#
# Elastic Compliance Matrix: (Units=1/GPa)
#
#
# Indices 1 2 3 4 5 6 
#
# 1 0.005838 -0.002805 -0.001552 0.004947 -0.001611 0.000739
# 2 -0.002805 0.012070 -0.002184 -0.000785 -0.000965 0.001697
# 3 -0.001552 -0.002184 0.007572 -0.000838 -0.000544 -0.001248
# 4 0.004947 -0.000785 -0.000838 0.000008 0.004129 -0.002182
# 5 -0.001611 -0.000965 -0.000544 0.004129 0.028017 -0.005048
# 6 0.000739 0.001697 -0.001248 -0.002182 -0.005048 0.021573
#
#
# Mechanical properties :
#
#
# Convention : Reuss Voigt Hill
#
# Bulk Modulus (GPa) = 80.66673 51.74293 66.20483
# Shear Modulus (GPa) = 54.17587 -4.24119 24.96734
#
# Velocity S-wave (km/s) = 5.00372 -1.40002 3.39685
# Velocity P-wave (km/s) = 8.40611 4.61513 6.78093
#
# Compressibility (1/GPa) = 0.01239668
#
# Stress axis : x y z
#
# Youngs Moduli (GPa) = 171.29706 82.84917 132.07139
#
# Poissons Ratio (x) = 0.23242 0.20503
# Poissons Ratio (y) = 0.48055 0.28840
# Poissons Ratio (z) = 0.26592 0.18091
#
# Static dielectric constant tensor:
#      x y z
#    x 3.732490 -0.324370 -0.107700 
#    y -0.324370 4.060880 0.231700 
#    z -0.107700 0.231700 3.923110 
# 
# 
# High freq. dielectric constant tensor:
#      x y z
#    x 1.863210 -0.005260 -0.003350 
#    y -0.005260 1.865980 0.007960 
#    z -0.003350 0.007960 1.868190 
# 
# From -- ./inp_files/207641.got.cif
#   From: 2010.06.25/outbox.cif.g09.slc.cpg/sg2_104_cif.got.tgz:207641.got - 2010.06.27 13:26:56.
