data_PCOD8035170
_publ_section_title
;
Structure prediction by ZEFSAII (Michael W. Deem and Ramdas Pophale) SiO2 
 PCOD8035170
Probable space group: P -1
;
_chemical_formula_sum "Si O2"
_cell_formula_units_Z 14
_cell_length_a 8.800088
_cell_length_b 13.700392
_cell_length_c 11.196396
_cell_angle_alpha 35.184301
_cell_angle_beta 127.619068
_cell_angle_gamma 135.188895
_cell_volume 546.626869
_symmetry_space_group_name_H-M "P -1"
_symmetry_group_IT_number 2
_symmetry_cell_setting 'triclinic'
loop_
_space_group_symop_operation_xyz
x,y,z
-x,-y,-z
loop_
_atom_site_type_symbol
_atom_site_label
_atom_site_fract_x
_atom_site_fract_y
_atom_site_fract_z
Si Si1 0.330447 0.236816 0.631893
Si Si2 0.263935 0.732455 0.576756
Si Si3 0.047346 0.988052 0.169345
Si Si4 0.620046 0.994612 0.320789
Si Si5 0.986056 0.334827 0.248546
Si Si6 0.353041 0.411054 0.904250
Si Si7 0.589554 0.341414 0.880737
O O1 0.527476 0.361902 0.692790
O O2 0.201443 0.346431 0.407438
O O3 0.422890 0.163521 0.641256
O O4 0.161600 0.057522 0.806168
O O5 0.216784 0.692724 0.736301
O O6 0.211515 0.525259 0.703280
O O7 0.102113 0.811398 0.377376
O O8 0.508529 0.887309 0.499771
O O9 0.224337 0.190638 0.098618
O O10 0.000000 0.000000 0.000000
O O11 0.879345 0.138367 0.316241
O O12 0.502059 0.119332 0.095102
O O13 0.145447 0.558997 0.055396
O O14 0.480530 0.438782 0.814086
O O15 0.500000 0.500000 0.000000
#
# Coordination Sequence:
#
# PCOD8035170 Si02
#       7
#     2   2   2   2   2   2   2
#     4  11  25  44  70  97 144 184 230 288 355 414
#     4  11  26  46  73 104 142 185 233 291 355 411
#     4  11  24  49  69 105 143 185 233 292 350 426
#     4  12  24  45  73 100 139 188 232 287 355 415
#     4  11  26  43  71 101 140 179 239 288 346 420
#     4  12  27  43  75 104 143 184 238 289 354 416
#     4  12  25  48  66 105 143 180 235 294 344 422
#
# _framework density 25.611619999999998
#
# number of rings (size 3 to 8) (size 9 to 14) (size 15 to 20)
#    0.000    0.571    2.857    3.857    8.000    0.571 
#    0.000    0.000    0.000    0.000    0.000    0.000 
#    0.000    0.000    0.000    0.000    0.000    0.000 
#
# Total GULP energy -173464.156683 kJ/mol
# GULP energy per Si atom -12390.296906 kJ/mol
# Density = 2.555333 g / cm^3
# Si number density = 25.611620 Si / 1000 Ang^3
#
#
#
# Elastic Constant Matrix: (Units=GPa)
#
#
# Indices 1 2 3 4 5 6 
#
# 1 130.3920 55.2620 46.9268 -17.1229 -11.6919 -12.6644
# 2 55.2620 143.8914 19.1412 3.5354 4.6332 -8.8437
# 3 46.9268 19.1412 111.3016 -15.1093 8.3934 -14.2315
# 4 -17.1229 3.5354 -15.1093 25.1540 -5.2247 3.4718
# 5 -11.6919 4.6332 8.3934 -5.2247 51.6549 -4.8090
# 6 -12.6644 -8.8437 -14.2315 3.4718 -4.8090 39.9792
#
#
#
# Elastic Compliance Matrix: (Units=1/GPa)
#
#
# Indices 1 2 3 4 5 6 
#
# 1 0.012494 -0.004569 -0.003586 0.007764 0.004752 0.001568
# 2 -0.004569 0.008944 -0.000026 -0.004948 -0.002269 0.000679
# 3 -0.003586 -0.000026 0.011461 0.003689 -0.002078 0.002368
# 4 0.007764 -0.004948 0.003689 0.049420 0.006523 -0.000829
# 5 0.004752 -0.002269 -0.002078 0.006523 0.021852 0.002326
# 6 0.001568 0.000679 0.002368 -0.000829 0.002326 0.026855
#
#
# Mechanical properties :
#
#
# Convention : Reuss Voigt Hill
#
# Bulk Modulus (GPa) = 60.46435 69.80502 65.13469
# Shear Modulus (GPa) = 32.70125 40.97461 36.83793
#
# Velocity S-wave (km/s) = 3.57713 4.00414 3.79664
# Velocity P-wave (km/s) = 6.38127 6.97796 6.68627
#
# Compressibility (1/GPa) = 0.01653867
#
# Stress axis : x y z
#
# Youngs Moduli (GPa) = 80.03955 111.80598 87.25186
#
# Poissons Ratio (x) = 0.51080 0.31287
# Poissons Ratio (y) = 0.36567 0.00224
# Poissons Ratio (z) = 0.28701 0.00287
#
# Static dielectric constant tensor:
#      x y z
#    x 4.785740 -0.096570 0.050420 
#    y -0.096570 4.234780 0.367260 
#    z 0.050420 0.367260 4.896460 
# 
# 
# High freq. dielectric constant tensor:
#      x y z
#    x 2.021090 0.006430 -0.011310 
#    y 0.006430 2.024420 -0.002510 
#    z -0.011310 -0.002510 2.067310 
# 
# From -- ./inp_files/391869.got.cif
#   From: 2010.06.25/outbox.cif.g09.slc.cpg/sg2_196_cif.got.tgz:391869.got - 2010.06.27 13:26:56.
