data_PCOD8035927
_publ_section_title
;
Structure prediction by ZEFSAII (Michael W. Deem and Ramdas Pophale) SiO2 
 PCOD8035927
Probable space group: P -1
;
_chemical_formula_sum "Si O2"
_cell_formula_units_Z 16
_cell_length_a 8.200526
_cell_length_b 17.551490
_cell_length_c 7.404369
_cell_angle_alpha 89.204355
_cell_angle_beta 144.467737
_cell_angle_gamma 93.430286
_cell_volume 617.132670
_symmetry_space_group_name_H-M "P -1"
_symmetry_group_IT_number 2
_symmetry_cell_setting 'triclinic'
loop_
_space_group_symop_operation_xyz
x,y,z
-x,-y,-z
loop_
_atom_site_type_symbol
_atom_site_label
_atom_site_fract_x
_atom_site_fract_y
_atom_site_fract_z
Si Si1 0.714226 0.819681 0.864730
Si Si2 0.694632 0.664247 0.668024
Si Si3 0.734203 0.083278 0.674993
Si Si4 0.700101 0.801358 0.264744
Si Si5 0.136573 0.577975 0.200373
Si Si6 0.426266 0.035881 0.737734
Si Si7 0.277051 0.551401 0.715846
Si Si8 0.166466 0.702337 0.809469
O O1 0.628481 0.748216 0.662134
O O2 0.570240 0.891332 0.654943
O O3 0.614650 0.801632 0.978206
O O4 0.045753 0.843343 0.146739
O O5 0.403437 0.620848 0.327219
O O6 0.946848 0.660778 0.751592
O O7 0.864149 0.626368 0.988124
O O8 0.794884 0.019788 0.578506
O O9 0.297668 0.948489 0.146233
O O10 0.722877 0.886297 0.364678
O O11 0.999109 0.765843 0.551998
O O12 0.450104 0.748707 0.144534
O O13 0.316561 0.562992 0.539245
O O14 0.000000 0.500000 0.000000
O O15 0.500000 0.000000 0.000000
O O16 0.000000 0.500000 0.500000
O O17 0.278374 0.636732 0.789581
O O18 0.500000 0.500000 0.000000
#
# Coordination Sequence:
#
# PCOD8035927 Si02
#       8
#     2   2   2   2   2   2   2   2
#     4  12  24  47  72 106 144 196 247 309 372 440
#     4  12  25  45  72 104 150 192 244 305 374 449
#     4  11  26  46  71 106 149 194 254 312 372 446
#     4  12  25  44  72 104 145 194 250 306 369 444
#     4  12  26  46  72 108 146 194 239 302 373 449
#     4  11  25  48  72 109 149 202 252 314 378 446
#     4  12  26  48  75 106 145 189 243 303 365 447
#     4  12  26  46  71 108 143 193 245 302 370 442
#
# _framework density 25.926355000000001
#
# number of rings (size 3 to 8) (size 9 to 14) (size 15 to 20)
#    0.000    0.250    1.250    7.875    0.000    5.500 
#    0.000    0.000    0.000    0.000    0.000    0.000 
#    0.000    0.000    0.000    0.000    0.000    0.000 
#
# Total GULP energy -198315.510385 kJ/mol
# GULP energy per Si atom -12394.719399 kJ/mol
# Density = 2.586734 g / cm^3
# Si number density = 25.926355 Si / 1000 Ang^3
#
#
#
# Elastic Constant Matrix: (Units=GPa)
#
#
# Indices 1 2 3 4 5 6 
#
# 1 100.4099 41.5828 23.1738 19.9830 -5.2080 -13.9666
# 2 41.5828 185.1343 58.4135 2.4914 1.8485 -29.5101
# 3 23.1738 58.4135 113.1201 3.4196 19.5552 -22.4454
# 4 19.9830 2.4914 3.4196 47.3474 2.0409 9.6256
# 5 -5.2080 1.8485 19.5552 2.0409 41.1438 9.3375
# 6 -13.9666 -29.5101 -22.4454 9.6256 9.3375 39.5003
#
#
#
# Elastic Compliance Matrix: (Units=1/GPa)
#
#
# Indices 1 2 3 4 5 6 
#
# 1 0.012768 -0.001910 -0.001029 -0.006012 0.001679 0.003571
# 2 -0.001910 0.007184 -0.002688 -0.000023 -0.000006 0.003172
# 3 -0.001029 -0.002688 0.013349 -0.001565 -0.007974 0.007480
# 4 -0.006012 -0.000023 -0.001565 0.025664 0.000865 -0.009490
# 5 0.001679 -0.000006 -0.007974 0.000865 0.030863 -0.011448
# 6 0.003571 0.003172 0.007480 -0.009490 -0.011448 0.038218
#
#
# Mechanical properties :
#
#
# Convention : Reuss Voigt Hill
#
# Bulk Modulus (GPa) = 45.35642 71.66718 58.51180
# Shear Modulus (GPa) = 34.09512 43.96457 39.02984
#
# Velocity S-wave (km/s) = 3.63033 4.12241 3.88417
# Velocity P-wave (km/s) = 5.92492 7.09660 6.53706
#
# Compressibility (1/GPa) = 0.02204760
#
# Stress axis : x y z
#
# Youngs Moduli (GPa) = 78.32126 139.19155 74.91293
#
# Poissons Ratio (x) = 0.26580 0.07712
# Poissons Ratio (y) = 0.14956 0.20134
# Poissons Ratio (z) = 0.08063 0.37410
#
# Static dielectric constant tensor:
#      x y z
#    x 4.715360 0.256870 -0.061460 
#    y 0.256870 4.905910 -0.412810 
#    z -0.061460 -0.412810 3.941900 
# 
# 
# High freq. dielectric constant tensor:
#      x y z
#    x 2.036330 0.012580 -0.000060 
#    y 0.012580 2.061100 -0.006860 
#    z -0.000060 -0.006860 2.048420 
# 
# From -- ./inp_files/217778.got.cif
#   From: 2010.06.25/outbox.cif.g09.slc.cpg/sg2_109_cif.got.tgz:217778.got - 2010.06.27 13:26:56.
