data_PCOD8035248
_publ_section_title
;
Structure prediction by ZEFSAII (Michael W. Deem and Ramdas Pophale) SiO2 
 PCOD8035248
Probable space group: P -1
;
_chemical_formula_sum "Si O2"
_cell_formula_units_Z 14
_cell_length_a 26.124619
_cell_length_b 14.002533
_cell_length_c 13.959680
_cell_angle_alpha 160.472014
_cell_angle_beta 20.345583
_cell_angle_gamma 157.799449
_cell_volume 553.000237
_symmetry_space_group_name_H-M "P -1"
_symmetry_group_IT_number 2
_symmetry_cell_setting 'triclinic'
loop_
_space_group_symop_operation_xyz
x,y,z
-x,-y,-z
loop_
_atom_site_type_symbol
_atom_site_label
_atom_site_fract_x
_atom_site_fract_y
_atom_site_fract_z
Si Si1 0.387025 0.916969 0.399696
Si Si2 0.511269 0.432445 0.805257
Si Si3 0.165834 0.585609 0.239388
Si Si4 0.982731 0.874357 0.568237
Si Si5 0.036766 0.698403 0.842239
Si Si6 0.855252 0.624844 0.370580
Si Si7 0.621308 0.754519 0.458077
O O1 0.388829 0.109596 0.676003
O O2 0.458889 0.127893 0.378459
O O3 0.199538 0.728428 0.529217
O O4 0.483257 0.695603 0.039490
O O5 0.677539 0.385186 0.447625
O O6 0.500000 0.500000 0.000000
O O7 0.000000 0.500000 0.500000
O O8 0.119250 0.427044 0.067355
O O9 0.267932 0.948501 0.394785
O O10 0.271091 0.411817 0.938879
O O11 0.002146 0.549603 0.238631
O O12 0.855151 0.813168 0.647785
O O13 0.136049 0.146232 0.516756
O O14 0.936711 0.973138 0.845502
O O15 0.000000 0.500000 0.000000
O O16 0.500000 0.500000 0.500000
#
# Coordination Sequence:
#
# PCOD8035248 Si02
#       7
#     2   2   2   2   2   2   2
#     4  12  27  46  75 105 156 194 254 312 377 459
#     4  12  28  46  75 108 150 200 247 304 391 452
#     4  12  26  48  81 110 149 201 259 313 378 456
#     4  11  25  41  72 103 146 189 242 314 366 435
#     4  12  24  44  74 109 143 193 261 304 369 447
#     4  11  25  47  72 104 153 188 248 313 374 445
#     4  12  28  51  77 115 160 201 251 327 394 448
#
# _framework density 25.316445000000002
#
# number of rings (size 3 to 8) (size 9 to 14) (size 15 to 20)
#    0.000    0.286    2.857    5.571    6.000    3.429 
#    0.000    0.000    0.000    0.000    0.000    0.000 
#    0.000    0.000    0.000    0.000    0.000    0.000 
#
# Total GULP energy -173436.008655 kJ/mol
# GULP energy per Si atom -12388.286332 kJ/mol
# Density = 2.525882 g / cm^3
# Si number density = 25.316445 Si / 1000 Ang^3
#
#
#
# Elastic Constant Matrix: (Units=GPa)
#
#
# Indices 1 2 3 4 5 6 
#
# 1 89.6663 35.8923 26.4542 -2.5239 -5.7846 -7.3021
# 2 35.8923 117.7392 34.2634 9.3314 -11.6654 14.5716
# 3 26.4542 34.2634 113.4931 9.1802 -17.5097 13.3594
# 4 -2.5239 9.3314 9.1802 38.1410 6.2561 -5.0082
# 5 -5.7846 -11.6654 -17.5097 6.2561 37.6009 15.0386
# 6 -7.3021 14.5716 13.3594 -5.0082 15.0386 36.9162
#
#
#
# Elastic Compliance Matrix: (Units=1/GPa)
#
#
# Indices 1 2 3 4 5 6 
#
# 1 0.015466 -0.005851 -0.004655 0.006110 -0.006897 0.010692
# 2 -0.005851 0.012842 0.000688 -0.006599 0.008900 -0.010996
# 3 -0.004655 0.000688 0.013459 -0.007180 0.011676 -0.011793
# 4 0.006110 -0.006599 -0.007180 0.035281 -0.017680 0.018400
# 5 -0.006897 0.008900 0.011676 -0.017680 0.049308 -0.031588
# 6 0.010692 -0.010996 -0.011793 0.018400 -0.031588 0.053176
#
#
# Mechanical properties :
#
#
# Convention : Reuss Voigt Hill
#
# Bulk Modulus (GPa) = 45.18611 57.12426 51.15518
# Shear Modulus (GPa) = 24.20782 37.48420 30.84601
#
# Velocity S-wave (km/s) = 3.09562 3.85207 3.49437
# Velocity P-wave (km/s) = 5.53755 6.51135 6.04409
#
# Compressibility (1/GPa) = 0.02213069
#
# Stress axis : x y z
#
# Youngs Moduli (GPa) = 64.65930 77.86677 74.30038
#
# Poissons Ratio (x) = 0.45557 0.34590
# Poissons Ratio (y) = 0.37830 -0.05111
# Poissons Ratio (z) = 0.30101 -0.05357
#
# Static dielectric constant tensor:
#      x y z
#    x 4.901950 0.197490 -0.034240 
#    y 0.197490 4.644440 0.177550 
#    z -0.034240 0.177550 4.405940 
# 
# 
# High freq. dielectric constant tensor:
#      x y z
#    x 2.022850 0.006540 0.003950 
#    y 0.006540 2.009960 0.019790 
#    z 0.003950 0.019790 2.002630 
# 
# From -- ./inp_files/544233.got.cif
#   From: 2010.06.25/outbox.cif.g09.slc.cpg/sg2_273_cif.got.tgz:544233.got - 2010.06.27 13:26:56.
