data_PCOD8035621
_publ_section_title
;
Structure prediction by ZEFSAII (Michael W. Deem and Ramdas Pophale) SiO2 
 PCOD8035621
Probable space group: P -1
;
_chemical_formula_sum "Si O2"
_cell_formula_units_Z 14
_cell_length_a 15.055336
_cell_length_b 8.439017
_cell_length_c 21.243640
_cell_angle_alpha 32.419987
_cell_angle_beta 28.418632
_cell_angle_gamma 47.861550
_cell_volume 661.064565
_symmetry_space_group_name_H-M "P -1"
_symmetry_group_IT_number 2
_symmetry_cell_setting 'triclinic'
loop_
_space_group_symop_operation_xyz
x,y,z
-x,-y,-z
loop_
_atom_site_type_symbol
_atom_site_label
_atom_site_fract_x
_atom_site_fract_y
_atom_site_fract_z
Si Si1 0.518021 0.667783 0.499557
Si Si2 0.326434 0.185887 0.205827
Si Si3 0.076723 0.840203 0.592468
Si Si4 0.780234 0.939627 0.439804
Si Si5 0.083234 0.217987 0.056541
Si Si6 0.930376 0.855501 0.158496
Si Si7 0.485020 0.641936 0.262522
O O1 0.500000 0.500000 0.500000
O O2 0.726991 0.926736 0.280091
O O3 0.523174 0.446075 0.629194
O O4 0.345730 0.818752 0.569104
O O5 0.151027 0.233369 0.256953
O O6 0.227176 0.037253 0.382255
O O7 0.423795 0.953255 0.188306
O O8 0.500000 0.500000 0.000000
O O9 0.113907 0.511780 0.691697
O O10 0.126474 0.048334 0.553788
O O11 0.652404 0.601496 0.616376
O O12 0.955873 0.007726 0.259042
O O13 0.301915 0.322551 0.909916
O O14 0.087517 0.017409 0.058193
O O15 0.000000 0.500000 0.000000
O O16 0.000000 0.000000 0.000000
#
# Coordination Sequence:
#
# PCOD8035621 Si02
#       7
#     2   2   2   2   2   2   2
#     4  12  21  40  66  99 139 176 220 279 345 410
#     4  11  25  48  74  95 133 183 242 288 328 412
#     4  11  25  46  70 100 134 182 233 284 346 406
#     4  12  24  43  66 102 144 174 222 287 353 417
#     4  12  23  38  64  99 139 178 223 275 347 415
#     4  12  23  41  68 103 139 178 231 283 344 415
#     4  12  24  43  67  97 137 182 226 283 345 399
#
# _framework density 21.177962999999998
#
# number of rings (size 3 to 8) (size 9 to 14) (size 15 to 20)
#    0.000    0.286    5.714    3.857    0.000    4.000 
#    0.000    1.429    0.000    0.000    0.000    0.000 
#    0.000    0.000    0.000    0.000    0.000    0.000 
#
# Total GULP energy -173606.332676 kJ/mol
# GULP energy per Si atom -12400.452334 kJ/mol
# Density = 2.112976 g / cm^3
# Si number density = 21.177963 Si / 1000 Ang^3
#
#
#
# Elastic Constant Matrix: (Units=GPa)
#
#
# Indices 1 2 3 4 5 6 
#
# 1 131.4034 48.3566 65.4478 -3.1882 -16.4310 15.7576
# 2 48.3566 113.1612 60.8179 -0.7412 -10.9394 6.0674
# 3 65.4478 60.8179 162.2340 9.4355 -25.6478 -1.1820
# 4 -3.1882 -0.7412 9.4355 42.8004 0.6347 -11.2541
# 5 -16.4310 -10.9394 -25.6478 0.6347 36.8201 0.0711
# 6 15.7576 6.0674 -1.1820 -11.2541 0.0711 38.4193
#
#
#
# Elastic Compliance Matrix: (Units=1/GPa)
#
#
# Indices 1 2 3 4 5 6 
#
# 1 0.010856 -0.002525 -0.003188 0.000376 0.001875 -0.004045
# 2 -0.002525 0.011814 -0.003454 0.000577 -0.000031 -0.000767
# 3 -0.003188 -0.003454 0.009545 -0.002061 0.004233 0.001535
# 4 0.000376 0.000577 -0.002061 0.025785 -0.001555 0.007247
# 5 0.001875 -0.000031 0.004233 -0.001555 0.030964 -0.001147
# 6 -0.004045 -0.000767 0.001535 0.007247 -0.001147 0.029981
#
#
# Mechanical properties :
#
#
# Convention : Reuss Voigt Hill
#
# Bulk Modulus (GPa) = 72.04197 84.00480 78.02338
# Shear Modulus (GPa) = 35.23445 39.08639 37.16042
#
# Velocity S-wave (km/s) = 4.08331 4.30072 4.19343
# Velocity P-wave (km/s) = 7.50483 8.02583 7.76970
#
# Compressibility (1/GPa) = 0.01388080
#
# Stress axis : x y z
#
# Youngs Moduli (GPa) = 92.11708 84.64233 104.76655
#
# Poissons Ratio (x) = 0.21373 0.33396
# Poissons Ratio (y) = 0.23261 0.36190
# Poissons Ratio (z) = 0.29364 0.29239
#
# Static dielectric constant tensor:
#      x y z
#    x 3.977630 0.017550 -0.237320 
#    y 0.017550 3.987780 0.185290 
#    z -0.237320 0.185290 4.137580 
# 
# 
# High freq. dielectric constant tensor:
#      x y z
#    x 1.833360 0.005640 -0.017100 
#    y 0.005640 1.832850 0.012980 
#    z -0.017100 0.012980 1.844240 
# 
# From -- ./inp_files/283412.got.cif
#   From: 2010.06.25/outbox.cif.g09.slc.cpg/sg2_142_cif.got.tgz:283412.got - 2010.06.27 13:26:56.
