data_PCOD8035383
_publ_section_title
;
Structure prediction by ZEFSAII (Michael W. Deem and Ramdas Pophale) SiO2 
 PCOD8035383
Probable space group: P -1
;
_chemical_formula_sum "Si O2"
_cell_formula_units_Z 10
_cell_length_a 9.431767
_cell_length_b 22.603747
_cell_length_c 9.493368
_cell_angle_alpha 152.774679
_cell_angle_beta 138.616123
_cell_angle_gamma 30.160023
_cell_volume 463.684964
_symmetry_space_group_name_H-M "P -1"
_symmetry_group_IT_number 2
_symmetry_cell_setting 'triclinic'
loop_
_space_group_symop_operation_xyz
x,y,z
-x,-y,-z
loop_
_atom_site_type_symbol
_atom_site_label
_atom_site_fract_x
_atom_site_fract_y
_atom_site_fract_z
Si Si1 0.778391 0.698009 0.214736
Si Si2 0.690036 0.721646 0.871420
Si Si3 0.200294 0.844812 0.214646
Si Si4 0.719659 0.439949 0.158199
Si Si5 0.881947 0.937746 0.883108
O O1 0.497166 0.802028 0.321921
O O2 0.934010 0.773852 0.513875
O O3 0.679267 0.722291 0.032502
O O4 0.000000 0.500000 0.000000
O O5 0.630244 0.601987 0.518594
O O6 0.980181 0.665178 0.914185
O O7 0.453530 0.909155 0.028346
O O8 0.279121 0.674543 0.971914
O O9 0.000000 0.000000 0.500000
O O10 0.030615 0.892510 0.046581
O O11 0.500000 0.500000 0.000000
O O12 0.000000 0.000000 0.000000
#
# Coordination Sequence:
#
# PCOD8035383 Si02
#       5
#     2   2   2   2   2
#     4  12  27  45  73 104 142 185 243 289 349 425
#     4  11  25  44  71 104 140 188 237 283 356 426
#     4  12  27  45  72 105 143 185 238 293 355 414
#     4  11  25  44  72 104 147 184 230 296 358 415
#     4  12  27  45  73 102 143 188 234 290 350 417
#
# _framework density 21.566368000000001
#
# number of rings (size 3 to 8) (size 9 to 14) (size 15 to 20)
#    0.000    0.400    2.000    5.400    8.400    8.000 
#    0.000    0.000    0.000    0.000    0.000    0.000 
#    0.000    0.000    0.000    0.000    0.000    0.000 
#
# Total GULP energy -124066.629619 kJ/mol
# GULP energy per Si atom -12406.662962 kJ/mol
# Density = 2.151728 g / cm^3
# Si number density = 21.566368 Si / 1000 Ang^3
#
#
#
# Elastic Constant Matrix: (Units=GPa)
#
#
# Indices 1 2 3 4 5 6 
#
# 1 117.2920 47.5131 78.2241 -8.7810 3.5267 18.1545
# 2 47.5131 165.4663 76.4615 -7.8925 1.9287 24.0068
# 3 78.2241 76.4615 150.7568 -8.1490 10.1532 -3.3711
# 4 -8.7810 -7.8925 -8.1490 41.7861 4.5825 -3.3070
# 5 3.5267 1.9287 10.1532 4.5825 39.6891 3.8980
# 6 18.1545 24.0068 -3.3711 -3.3070 3.8980 40.5819
#
#
#
# Elastic Compliance Matrix: (Units=1/GPa)
#
#
# Indices 1 2 3 4 5 6 
#
# 1 0.015116 0.000747 -0.008451 0.000878 0.001465 -0.007975
# 2 0.000747 0.009172 -0.005266 0.000205 0.001432 -0.006318
# 3 -0.008451 -0.005266 0.014178 0.001060 -0.003578 0.008504
# 4 0.000878 0.000205 0.001060 0.024889 -0.003422 0.001931
# 5 0.001465 0.001432 -0.003578 -0.003422 0.026763 -0.004649
# 6 -0.007975 -0.006318 0.008504 0.001931 -0.004649 0.033257
#
#
# Mechanical properties :
#
#
# Convention : Reuss Voigt Hill
#
# Bulk Modulus (GPa) = 79.84591 93.10138 86.47364
# Shear Modulus (GPa) = 32.57497 39.83251 36.20374
#
# Velocity S-wave (km/s) = 3.89067 4.30231 4.10165
# Velocity P-wave (km/s) = 7.56880 8.24277 7.91296
#
# Compressibility (1/GPa) = 0.01252412
#
# Stress axis : x y z
#
# Youngs Moduli (GPa) = 66.15643 109.02262 70.53284
#
# Poissons Ratio (x) = -0.08142 0.59611
# Poissons Ratio (y) = -0.04941 0.37144
# Poissons Ratio (z) = 0.55912 0.57414
#
# Static dielectric constant tensor:
#      x y z
#    x 4.291760 0.086970 0.248040 
#    y 0.086970 4.329770 0.171580 
#    z 0.248040 0.171580 4.168020 
# 
# 
# High freq. dielectric constant tensor:
#      x y z
#    x 1.861320 -0.001800 0.003030 
#    y -0.001800 1.871330 0.001270 
#    z 0.003030 0.001270 1.862680 
# 
# From -- ./inp_files/15237.got.cif
#   From: 2010.06.25/outbox.cif.g09.slc.cpg/sg2_8_cif.got.tgz:15237.got - 2010.06.27 13:26:56.
