data_PCOD8035558
_publ_section_title
;
Structure prediction by ZEFSAII (Michael W. Deem and Ramdas Pophale) SiO2 
 PCOD8035558
Probable space group: P -1
;
_chemical_formula_sum "Si O2"
_cell_formula_units_Z 16
_cell_length_a 5.603257
_cell_length_b 14.177072
_cell_length_c 18.637441
_cell_angle_alpha 150.896473
_cell_angle_beta 110.431622
_cell_angle_gamma 71.530277
_cell_volume 674.579267
_symmetry_space_group_name_H-M "P -1"
_symmetry_group_IT_number 2
_symmetry_cell_setting 'triclinic'
loop_
_space_group_symop_operation_xyz
x,y,z
-x,-y,-z
loop_
_atom_site_type_symbol
_atom_site_label
_atom_site_fract_x
_atom_site_fract_y
_atom_site_fract_z
Si Si1 0.000080 0.183453 0.989882
Si Si2 0.200757 0.840121 0.387802
Si Si3 0.206206 0.775431 0.756932
Si Si4 0.882485 0.555518 0.948736
Si Si5 0.634465 0.962683 0.606174
Si Si6 0.513040 0.874111 0.153882
Si Si7 0.872089 0.230710 0.412436
Si Si8 0.790299 0.627071 0.729284
O O1 0.720271 0.090828 0.903190
O O2 0.204082 0.009528 0.908188
O O3 0.983897 0.272505 0.966747
O O4 0.068701 0.347521 0.163089
O O5 0.103265 0.624181 0.224131
O O6 0.416344 0.826298 0.461954
O O7 0.289838 0.895563 0.355086
O O8 0.000000 0.000000 0.500000
O O9 0.111450 0.690045 0.614334
O O10 0.504304 0.719201 0.763240
O O11 0.997376 0.708342 0.748455
O O12 0.606341 0.651651 0.001771
O O13 0.000000 0.500000 0.000000
O O14 0.849321 0.813780 0.557211
O O15 0.544837 0.106031 0.754860
O O16 0.714420 0.036692 0.265639
O O17 0.746849 0.399292 0.560211
#
# Coordination Sequence:
#
# PCOD8035558 Si02
#       8
#     2   2   2   2   2   2   2   2
#     4  12  28  47  77 112 154 204 257 329 399 464
#     4  11  26  46  74 113 156 196 259 325 389 478
#     4  12  26  53  76 117 154 212 262 333 395 472
#     4  12  27  47  76 114 151 208 257 316 401 478
#     4  11  25  45  74 109 153 205 252 325 394 465
#     4  12  25  48  75 106 161 202 260 317 390 484
#     4  12  26  47  76 112 151 207 255 326 394 469
#     4  12  31  47  83 114 158 204 276 328 397 471
#
# _framework density 23.718489999999999
#
# number of rings (size 3 to 8) (size 9 to 14) (size 15 to 20)
#    0.000    0.250    2.500    5.250    8.750    3.000 
#    0.000    0.000    0.000    0.000    0.000    0.000 
#    0.000    0.000    0.000    0.000    0.000    0.000 
#
# Total GULP energy -198281.241167 kJ/mol
# GULP energy per Si atom -12392.577573 kJ/mol
# Density = 2.366451 g / cm^3
# Si number density = 23.718490 Si / 1000 Ang^3
#
#
#
# Elastic Constant Matrix: (Units=GPa)
#
#
# Indices 1 2 3 4 5 6 
#
# 1 137.7931 59.3462 42.0089 -3.7494 -6.9687 -16.6105
# 2 59.3462 125.6361 48.6518 -12.5572 2.3650 -31.3969
# 3 42.0089 48.6518 149.1480 12.2148 -10.6855 -29.6867
# 4 -3.7494 -12.5572 12.2148 49.2405 -6.1365 -8.3401
# 5 -6.9687 2.3650 -10.6855 -6.1365 41.5812 -12.2905
# 6 -16.6105 -31.3969 -29.6867 -8.3401 -12.2905 92.2822
#
#
#
# Elastic Compliance Matrix: (Units=1/GPa)
#
#
# Indices 1 2 3 4 5 6 
#
# 1 0.009441 -0.003933 -0.001245 0.000255 0.001581 0.000194
# 2 -0.003933 0.011894 -0.002574 0.003763 -0.000624 0.002768
# 3 -0.001245 -0.002574 0.008603 -0.002294 0.002333 0.001771
# 4 0.000255 0.003763 -0.002294 0.022825 0.003530 0.003121
# 5 0.001581 -0.000624 0.002333 0.003530 0.026865 0.004720
# 6 0.000194 0.002768 0.001771 0.003121 0.004720 0.013293
#
#
# Mechanical properties :
#
#
# Convention : Reuss Voigt Hill
#
# Bulk Modulus (GPa) = 69.28594 79.17679 74.23137
# Shear Modulus (GPa) = 44.15519 54.12547 49.14033
#
# Velocity S-wave (km/s) = 4.31935 4.78221 4.55666
# Velocity P-wave (km/s) = 7.35873 7.99669 7.68433
#
# Compressibility (1/GPa) = 0.01443294
#
# Stress axis : x y z
#
# Youngs Moduli (GPa) = 105.91887 84.07841 116.24405
#
# Poissons Ratio (x) = 0.33071 0.14473
# Poissons Ratio (y) = 0.41661 0.29919
# Poissons Ratio (z) = 0.13188 0.21640
#
# Static dielectric constant tensor:
#      x y z
#    x 4.535470 0.096010 -0.232970 
#    y 0.096010 4.510130 -0.229800 
#    z -0.232970 -0.229800 4.543750 
# 
# 
# High freq. dielectric constant tensor:
#      x y z
#    x 1.941650 -0.003140 -0.008240 
#    y -0.003140 1.948700 -0.009340 
#    z -0.008240 -0.009340 1.957970 
# 
# From -- ./inp_files/550209.got.cif
#   From: 2010.06.25/outbox.cif.g09.slc.cpg/sg2_276_cif.got.tgz:550209.got - 2010.06.27 13:26:56.
