data_PCOD8035242
_publ_section_title
;
Structure prediction by ZEFSAII (Michael W. Deem and Ramdas Pophale) SiO2 
 PCOD8035242
Probable space group: P -1
;
_chemical_formula_sum "Si O2"
_cell_formula_units_Z 16
_cell_length_a 9.290033
_cell_length_b 14.206726
_cell_length_c 11.971436
_cell_angle_alpha 108.095677
_cell_angle_beta 35.724763
_cell_angle_gamma 124.479946
_cell_volume 723.130581
_symmetry_space_group_name_H-M "P -1"
_symmetry_group_IT_number 2
_symmetry_cell_setting 'triclinic'
loop_
_space_group_symop_operation_xyz
x,y,z
-x,-y,-z
loop_
_atom_site_type_symbol
_atom_site_label
_atom_site_fract_x
_atom_site_fract_y
_atom_site_fract_z
Si Si1 0.368769 0.288915 0.998596
Si Si2 0.442524 0.775113 0.794985
Si Si3 0.167629 0.772332 0.367288
Si Si4 0.271623 0.863067 0.576433
Si Si5 0.781565 0.035805 0.762717
Si Si6 0.782661 0.663961 0.130452
Si Si7 0.381685 0.218506 0.547059
Si Si8 0.530291 0.604494 0.800823
O O1 0.625771 0.264505 0.831441
O O2 0.337449 0.324042 0.907243
O O3 0.442491 0.392900 0.079983
O O4 0.056188 0.171774 0.196063
O O5 0.520674 0.728537 0.619245
O O6 0.414306 0.689531 0.880424
O O7 0.707844 0.915365 0.701964
O O8 0.133211 0.762397 0.965079
O O9 0.314872 0.842282 0.413979
O O10 0.140458 0.859003 0.333772
O O11 0.842114 0.654008 0.558951
O O12 0.357877 0.791872 0.574725
O O13 0.500000 0.000000 0.500000
O O14 0.062287 0.088600 0.690412
O O15 0.500000 0.000000 0.000000
O O16 0.620717 0.685140 0.339650
O O17 0.706694 0.530776 0.139794
#
# Coordination Sequence:
#
# PCOD8035242 Si02
#       8
#     2   2   2   2   2   2   2   2
#     4  11  25  46  69 101 138 178 234 280 344 398
#     4  12  25  46  70 102 140 178 229 281 343 406
#     4  11  25  45  67 103 137 179 227 280 344 410
#     4  11  25  41  69 102 138 181 224 282 344 408
#     4  12  25  44  73 102 141 179 224 282 348 409
#     4  12  26  47  69 102 138 181 234 283 333 405
#     4  12  25  44  69 102 140 181 222 283 348 398
#     4  11  27  46  72  99 136 186 231 280 339 403
#
# _framework density 22.126017000000001
#
# number of rings (size 3 to 8) (size 9 to 14) (size 15 to 20)
#    0.000    0.500    5.000    2.625    5.250    2.500 
#    0.000    0.000    0.000    0.000    0.000    0.000 
#    0.000    0.000    0.000    0.000    0.000    0.000 
#
# Total GULP energy -198418.858562 kJ/mol
# GULP energy per Si atom -12401.178660 kJ/mol
# Density = 2.207566 g / cm^3
# Si number density = 22.126017 Si / 1000 Ang^3
#
#
#
# Elastic Constant Matrix: (Units=GPa)
#
#
# Indices 1 2 3 4 5 6 
#
# 1 90.8037 24.2367 22.1721 10.2830 0.9242 5.3916
# 2 24.2367 114.7109 26.6298 3.8877 3.9446 6.4126
# 3 22.1721 26.6298 104.0989 22.0939 1.9874 7.3002
# 4 10.2830 3.8877 22.0939 30.5045 3.0661 -1.6513
# 5 0.9242 3.9446 1.9874 3.0661 42.3259 4.4371
# 6 5.3916 6.4126 7.3002 -1.6513 4.4371 32.2120
#
#
#
# Elastic Compliance Matrix: (Units=1/GPa)
#
#
# Indices 1 2 3 4 5 6 
#
# 1 0.012338 -0.002119 -0.001339 -0.003040 0.000373 -0.001547
# 2 -0.002119 0.009713 -0.002184 0.001082 -0.000738 -0.000927
# 3 -0.001339 -0.002184 0.012424 -0.008467 0.000542 -0.002665
# 4 -0.003040 0.001082 -0.008467 0.040363 -0.003054 0.004702
# 5 0.000373 -0.000738 0.000542 -0.003054 0.024253 -0.003536
# 6 -0.001547 -0.000927 -0.002665 0.004702 -0.003536 0.032820
#
#
# Mechanical properties :
#
#
# Convention : Reuss Voigt Hill
#
# Bulk Modulus (GPa) = 43.12209 50.63231 46.87720
# Shear Modulus (GPa) = 33.12898 36.78013 34.95455
#
# Velocity S-wave (km/s) = 3.87368 4.08156 3.97897
# Velocity P-wave (km/s) = 6.28799 6.71904 6.50708
#
# Compressibility (1/GPa) = 0.02318997
#
# Stress axis : x y z
#
# Youngs Moduli (GPa) = 81.05212 102.95674 80.49051
#
# Poissons Ratio (x) = 0.21819 0.10778
# Poissons Ratio (y) = 0.17177 0.17578
# Poissons Ratio (z) = 0.10853 0.22485
#
# Static dielectric constant tensor:
#      x y z
#    x 4.261330 0.239890 -0.104000 
#    y 0.239890 3.822260 0.058710 
#    z -0.104000 0.058710 4.188130 
# 
# 
# High freq. dielectric constant tensor:
#      x y z
#    x 1.885220 0.014990 -0.000700 
#    y 0.014990 1.856910 0.007880 
#    z -0.000700 0.007880 1.885530 
# 
# From -- ./inp_files/274225.got.cif
#   From: 2010.06.25/outbox.cif.g09.slc.cpg/sg2_138_cif.got.tgz:274225.got - 2010.06.27 13:26:56.
