data_PCOD8035471
_publ_section_title
;
Structure prediction by ZEFSAII (Michael W. Deem and Ramdas Pophale) SiO2 
 PCOD8035471
Probable space group: P -1
;
_chemical_formula_sum "Si O2"
_cell_formula_units_Z 12
_cell_length_a 14.820807
_cell_length_b 6.747194
_cell_length_c 8.796453
_cell_angle_alpha 92.155146
_cell_angle_beta 78.803461
_cell_angle_gamma 39.738303
_cell_volume 526.557940
_symmetry_space_group_name_H-M "P -1"
_symmetry_group_IT_number 2
_symmetry_cell_setting 'triclinic'
loop_
_space_group_symop_operation_xyz
x,y,z
-x,-y,-z
loop_
_atom_site_type_symbol
_atom_site_label
_atom_site_fract_x
_atom_site_fract_y
_atom_site_fract_z
Si Si1 0.939206 0.837193 0.666401
Si Si2 0.117465 0.282750 0.820335
Si Si3 0.382081 0.219476 0.409943
Si Si4 0.573973 0.167175 0.146043
Si Si5 0.637031 0.120674 0.790120
Si Si6 0.093506 0.955167 0.635072
O O1 0.066646 0.487586 0.693633
O O2 0.959674 0.030141 0.725031
O O3 0.775689 0.034139 0.766492
O O4 0.964463 0.801473 0.474844
O O5 0.276316 0.102088 0.810032
O O6 0.133057 0.023019 0.768119
O O7 0.000000 0.500000 0.000000
O O8 0.456050 0.208495 0.245177
O O9 0.237723 0.584702 0.524322
O O10 0.500000 0.000000 0.500000
O O11 0.333381 0.086126 0.360317
O O12 0.508752 0.500730 0.193919
O O13 0.610660 0.053512 0.955962
#
# Coordination Sequence:
#
# PCOD8035471 Si02
#       6
#     2   2   2   2   2   2
#     4  11  25  45  70 101 138 184 228 280 340 407
#     4  12  26  46  70 102 140 181 228 285 344 406
#     4  12  26  44  72 107 138 180 229 288 343 408
#     4  11  25  46  69 103 138 184 228 281 341 410
#     4  11  25  46  72  99 141 185 228 278 346 406
#     4  11  27  43  71 102 139 181 232 282 341 411
#
# _framework density 22.789515000000002
#
# number of rings (size 3 to 8) (size 9 to 14) (size 15 to 20)
#    0.000    0.667    3.333    3.000    9.333    2.000 
#    6.000    0.000    0.000    0.000    0.000    0.000 
#    0.000    0.000    0.000    0.000    0.000    0.000 
#
# Total GULP energy -148837.871436 kJ/mol
# GULP energy per Si atom -12403.155953 kJ/mol
# Density = 2.273765 g / cm^3
# Si number density = 22.789515 Si / 1000 Ang^3
#
#
#
# Elastic Constant Matrix: (Units=GPa)
#
#
# Indices 1 2 3 4 5 6 
#
# 1 111.8653 44.3418 53.8154 4.5301 -8.4491 -0.9496
# 2 44.3418 124.4301 52.7978 -6.7465 12.8920 -17.9563
# 3 53.8154 52.7978 97.1375 8.1499 -1.0986 10.8630
# 4 4.5301 -6.7465 8.1499 38.0894 5.6112 2.1116
# 5 -8.4491 12.8920 -1.0986 5.6112 39.6592 -1.7382
# 6 -0.9496 -17.9563 10.8630 2.1116 -1.7382 36.9376
#
#
#
# Elastic Compliance Matrix: (Units=1/GPa)
#
#
# Indices 1 2 3 4 5 6 
#
# 1 0.013084 -0.002454 -0.005888 -0.001332 0.003660 0.001123
# 2 -0.002454 0.014380 -0.007905 0.004891 -0.005727 0.008703
# 3 -0.005888 -0.007905 0.019306 -0.004623 0.002096 -0.009309
# 4 -0.001332 0.004891 -0.004623 0.029060 -0.006036 0.001758
# 5 0.003660 -0.005727 0.002096 -0.006036 0.028698 -0.001611
# 6 0.001123 0.008703 -0.009309 0.001758 -0.001611 0.033894
#
#
# Mechanical properties :
#
#
# Convention : Reuss Voigt Hill
#
# Bulk Modulus (GPa) = 70.04190 70.59366 70.31778
# Shear Modulus (GPa) = 28.46207 35.10241 31.78224
#
# Velocity S-wave (km/s) = 3.53783 3.92891 3.73848
# Velocity P-wave (km/s) = 6.89125 7.18508 7.03970
#
# Compressibility (1/GPa) = 0.01427717
#
# Stress axis : x y z
#
# Youngs Moduli (GPa) = 76.42786 69.54243 51.79828
#
# Poissons Ratio (x) = 0.17065 0.30496
# Poissons Ratio (y) = 0.18754 0.40946
# Poissons Ratio (z) = 0.44997 0.54972
#
# Static dielectric constant tensor:
#      x y z
#    x 4.328240 -0.015970 -0.079910 
#    y -0.015970 4.217460 -0.209190 
#    z -0.079910 -0.209190 3.980030 
# 
# 
# High freq. dielectric constant tensor:
#      x y z
#    x 1.914750 -0.003750 -0.004520 
#    y -0.003750 1.907090 -0.009680 
#    z -0.004520 -0.009680 1.894100 
# 
# From -- ./inp_files/22734.got.cif
#   From: 2010.06.25/outbox.cif.g09.slc.cpg/sg2_12_cif.got.tgz:22734.got - 2010.06.27 13:26:56.
