data_PCOD8035033
_publ_section_title
;
Structure prediction by ZEFSAII (Michael W. Deem and Ramdas Pophale) SiO2 
 PCOD8035033
Probable space group: P -1
;
_chemical_formula_sum "Si O2"
_cell_formula_units_Z 14
_cell_length_a 9.178171
_cell_length_b 7.853568
_cell_length_c 14.818421
_cell_angle_alpha 128.247004
_cell_angle_beta 120.598267
_cell_angle_gamma 49.770830
_cell_volume 629.728375
_symmetry_space_group_name_H-M "P -1"
_symmetry_group_IT_number 2
_symmetry_cell_setting 'triclinic'
loop_
_space_group_symop_operation_xyz
x,y,z
-x,-y,-z
loop_
_atom_site_type_symbol
_atom_site_label
_atom_site_fract_x
_atom_site_fract_y
_atom_site_fract_z
Si Si1 0.746507 0.690316 0.715345
Si Si2 0.028185 0.278655 0.371152
Si Si3 0.946867 0.825365 0.980984
Si Si4 0.702296 0.233169 0.178600
Si Si5 0.045170 0.863587 0.375768
Si Si6 0.649134 0.976709 0.232574
Si Si7 0.618701 0.566273 0.988437
O O1 0.812380 0.757671 0.664481
O O2 0.840881 0.726366 0.848490
O O3 0.774380 0.412351 0.642000
O O4 0.518153 0.888649 0.702021
O O5 0.000000 0.500000 0.500000
O O6 0.838330 0.359152 0.274338
O O7 0.080268 0.024128 0.360702
O O8 0.153002 0.611666 0.013234
O O9 0.809222 0.975322 0.070439
O O10 0.000000 0.000000 0.000000
O O11 0.659430 0.193556 0.253353
O O12 0.491294 0.419792 0.134010
O O13 0.000000 0.000000 0.500000
O O14 0.863862 0.811371 0.286287
O O15 0.588733 0.829518 0.095675
O O16 0.500000 0.500000 0.000000
#
# Coordination Sequence:
#
# PCOD8035033 Si02
#       7
#     2   2   2   2   2   2   2
#     4  12  23  46  72  99 141 178 232 282 343 408
#     4  11  24  47  73  98 138 183 228 286 339 411
#     4  12  22  40  67 101 138 182 220 280 345 407
#     4  11  25  43  65 101 138 178 227 276 346 403
#     4  11  25  47  72  99 136 186 228 282 350 400
#     4  11  26  44  65 101 139 176 227 291 335 406
#     4  12  22  38  67  98 135 179 223 274 342 409
#
# _framework density 22.231805999999999
#
# number of rings (size 3 to 8) (size 9 to 14) (size 15 to 20)
#    0.000    0.571    7.143    0.429    0.000    3.429 
#    0.000    0.714    0.000    0.000    0.000    0.000 
#    0.000    0.000    0.000    0.000    0.000    0.000 
#
# Total GULP energy -173462.451105 kJ/mol
# GULP energy per Si atom -12390.175079 kJ/mol
# Density = 2.218121 g / cm^3
# Si number density = 22.231806 Si / 1000 Ang^3
#
#
#
# Elastic Constant Matrix: (Units=GPa)
#
#
# Indices 1 2 3 4 5 6 
#
# 1 114.4417 29.2236 20.2706 5.9336 -15.6556 0.2611
# 2 29.2236 89.5578 11.2030 8.7316 -3.7110 -5.5342
# 3 20.2706 11.2030 102.8385 8.7304 -7.2302 1.3742
# 4 5.9336 8.7316 8.7304 29.5277 7.5906 1.5407
# 5 -15.6556 -3.7110 -7.2302 7.5906 27.7756 6.6710
# 6 0.2611 -5.5342 1.3742 1.5407 6.6710 35.0863
#
#
#
# Elastic Compliance Matrix: (Units=1/GPa)
#
#
# Indices 1 2 3 4 5 6 
#
# 1 0.010698 -0.002940 -0.001101 -0.002523 0.006427 -0.001611
# 2 -0.002940 0.012643 -0.000541 -0.003162 0.000244 0.002130
# 3 -0.001101 -0.000541 0.010539 -0.003518 0.003241 -0.000952
# 4 -0.002523 -0.003162 -0.003518 0.039864 -0.013781 0.000528
# 5 0.006427 0.000244 0.003241 -0.013781 0.046268 -0.008328
# 6 -0.001611 0.002130 -0.000952 0.000528 -0.008328 0.030447
#
#
# Mechanical properties :
#
#
# Convention : Reuss Voigt Hill
#
# Bulk Modulus (GPa) = 40.45931 47.58139 44.02035
# Shear Modulus (GPa) = 29.78676 34.88731 32.33704
#
# Velocity S-wave (km/s) = 3.66433 3.96568 3.81798
# Velocity P-wave (km/s) = 6.01178 6.51288 6.26734
#
# Compressibility (1/GPa) = 0.02471619
#
# Stress axis : x y z
#
# Youngs Moduli (GPa) = 93.47956 79.09505 94.88460
#
# Poissons Ratio (x) = 0.23257 0.10444
# Poissons Ratio (y) = 0.27486 0.05130
# Poissons Ratio (z) = 0.10290 0.04276
#
# Static dielectric constant tensor:
#      x y z
#    x 3.897250 0.254900 -0.063750 
#    y 0.254900 4.025980 0.344940 
#    z -0.063750 0.344940 3.218520 
# 
# 
# High freq. dielectric constant tensor:
#      x y z
#    x 1.887820 0.000590 0.004920 
#    y 0.000590 1.866950 -0.002370 
#    z 0.004920 -0.002370 1.877330 
# 
# From -- ./inp_files/179756.got.cif
#   From: 2010.06.25/outbox.cif.g09.slc.cpg/sg2_90_cif.got.tgz:179756.got - 2010.06.27 13:26:56.
