data_PCOD8035829
_publ_section_title
;
Structure prediction by ZEFSAII (Michael W. Deem and Ramdas Pophale) SiO2 
 PCOD8035829
Probable space group: P -1
;
_chemical_formula_sum "Si O2"
_cell_formula_units_Z 16
_cell_length_a 11.863771
_cell_length_b 14.183799
_cell_length_c 6.045632
_cell_angle_alpha 133.417833
_cell_angle_beta 90.870625
_cell_angle_gamma 105.393198
_cell_volume 683.472797
_symmetry_space_group_name_H-M "P -1"
_symmetry_group_IT_number 2
_symmetry_cell_setting 'triclinic'
loop_
_space_group_symop_operation_xyz
x,y,z
-x,-y,-z
loop_
_atom_site_type_symbol
_atom_site_label
_atom_site_fract_x
_atom_site_fract_y
_atom_site_fract_z
Si Si1 0.393946 0.531913 0.160375
Si Si2 0.686106 0.267606 0.810876
Si Si3 0.494633 0.276941 0.139478
Si Si4 0.913440 0.782505 0.787762
Si Si5 0.836525 0.983278 0.794798
Si Si6 0.736534 0.734691 0.094504
Si Si7 0.941978 0.503507 0.252294
Si Si8 0.371609 0.995085 0.902515
O O1 0.365690 0.653240 0.236620
O O2 0.433445 0.586924 0.496899
O O3 0.500000 0.500000 0.000000
O O4 0.270470 0.388255 0.928367
O O5 0.684975 0.123526 0.475681
O O6 0.594179 0.226483 0.948908
O O7 0.820886 0.364500 0.044027
O O8 0.408918 0.317008 0.033432
O O9 0.395593 0.149212 0.063418
O O10 0.867630 0.878016 0.786283
O O11 0.921760 0.647819 0.453327
O O12 0.816582 0.718191 0.871924
O O13 0.046524 0.879511 0.041035
O O14 0.789609 0.895678 0.429590
O O15 0.731598 0.034021 0.960273
O O16 0.000000 0.500000 0.500000
O O17 0.000000 0.500000 0.000000
O O18 0.500000 0.000000 0.000000
#
# Coordination Sequence:
#
# PCOD8035829 Si02
#       8
#     2   2   2   2   2   2   2   2
#     4  12  25  42  70 104 146 182 239 302 375 454
#     4  12  27  46  74 103 148 200 242 312 382 454
#     4  12  25  43  70 107 141 190 241 302 378 451
#     4  11  26  48  76 104 146 194 253 315 376 456
#     4  11  25  47  73 105 144 193 251 312 381 450
#     4  12  24  42  73 107 143 186 245 306 375 451
#     4  12  31  53  78 112 154 205 261 321 385 461
#     4  12  24  47  73 104 152 191 246 310 378 456
#
# _framework density 23.409856999999999
#
# number of rings (size 3 to 8) (size 9 to 14) (size 15 to 20)
#    0.000    0.250    3.750    4.875    7.000    2.000 
#    0.000    0.000    0.000    0.000    0.000    0.000 
#    0.000    0.000    0.000    0.000    0.000    0.000 
#
# Total GULP energy -198253.841418 kJ/mol
# GULP energy per Si atom -12390.865089 kJ/mol
# Density = 2.335657 g / cm^3
# Si number density = 23.409857 Si / 1000 Ang^3
#
#
#
# Elastic Constant Matrix: (Units=GPa)
#
#
# Indices 1 2 3 4 5 6 
#
# 1 112.9975 16.8890 42.7095 -0.9572 -3.2535 14.4831
# 2 16.8890 70.3802 7.0709 6.4563 -2.2230 13.2213
# 3 42.7095 7.0709 145.7348 11.2164 -7.5829 5.4389
# 4 -0.9572 6.4563 11.2164 46.5096 4.1135 0.9721
# 5 -3.2535 -2.2230 -7.5829 4.1135 50.0139 0.9949
# 6 14.4831 13.2213 5.4389 0.9721 0.9949 33.5861
#
#
#
# Elastic Compliance Matrix: (Units=1/GPa)
#
#
# Indices 1 2 3 4 5 6 
#
# 1 0.010708 -0.001721 -0.003014 0.001248 0.000130 -0.003492
# 2 -0.001721 0.015872 0.000159 -0.002243 0.000911 -0.005494
# 3 -0.003014 0.000159 0.007963 -0.002109 0.001192 -0.000027
# 4 0.001248 -0.002243 -0.002109 0.022539 -0.002194 0.000099
# 5 0.000130 0.000911 0.001192 -0.002194 0.020428 -0.001150
# 6 -0.003492 -0.005494 -0.000027 0.000099 -0.001150 0.033478
#
#
# Mechanical properties :
#
#
# Convention : Reuss Voigt Hill
#
# Bulk Modulus (GPa) = 39.38239 51.38349 45.38294
# Shear Modulus (GPa) = 38.87976 43.51811 41.19894
#
# Velocity S-wave (km/s) = 4.07975 4.31625 4.19966
# Velocity P-wave (km/s) = 6.24916 6.84377 6.55321
#
# Compressibility (1/GPa) = 0.02539206
#
# Stress axis : x y z
#
# Youngs Moduli (GPa) = 93.38911 63.00345 125.58741
#
# Poissons Ratio (x) = 0.10844 0.37846
# Poissons Ratio (y) = 0.16074 -0.02002
# Poissons Ratio (z) = 0.28143 -0.01004
#
# Static dielectric constant tensor:
#      x y z
#    x 4.472410 -0.134650 -0.144360 
#    y -0.134650 4.583710 0.105800 
#    z -0.144360 0.105800 4.747650 
# 
# 
# High freq. dielectric constant tensor:
#      x y z
#    x 1.933120 0.005690 -0.003670 
#    y 0.005690 1.937810 0.014340 
#    z -0.003670 0.014340 1.941660 
# 
# From -- ./inp_files/78787.got.cif
#   From: 2010.06.25/outbox.cif.g09.slc.cpg/sg2_40_cif.got.tgz:78787.got - 2010.06.27 13:26:56.
