data_PCOD8035629
_publ_section_title
;
Structure prediction by ZEFSAII (Michael W. Deem and Ramdas Pophale) SiO2 
 PCOD8035629
Probable space group: P -1
;
_chemical_formula_sum "Si O2"
_cell_formula_units_Z 16
_cell_length_a 11.103792
_cell_length_b 18.022189
_cell_length_c 8.684547
_cell_angle_alpha 96.517195
_cell_angle_beta 138.179692
_cell_angle_gamma 50.720303
_cell_volume 645.637687
_symmetry_space_group_name_H-M "P -1"
_symmetry_group_IT_number 2
_symmetry_cell_setting 'triclinic'
loop_
_space_group_symop_operation_xyz
x,y,z
-x,-y,-z
loop_
_atom_site_type_symbol
_atom_site_label
_atom_site_fract_x
_atom_site_fract_y
_atom_site_fract_z
Si Si1 0.182734 0.543543 0.815920
Si Si2 0.651117 0.748495 0.122905
Si Si3 0.774814 0.321460 0.930973
Si Si4 0.630420 0.910136 0.745077
Si Si5 0.803944 0.961875 0.177442
Si Si6 0.772539 0.593758 0.664695
Si Si7 0.240091 0.752995 0.803098
Si Si8 0.428317 0.820063 0.601538
O O1 0.998879 0.636092 0.509077
O O2 0.972806 0.550059 0.695684
O O3 0.242554 0.588009 0.006057
O O4 0.529409 0.394032 0.063722
O O5 0.446908 0.757082 0.023756
O O6 0.673340 0.718923 0.955219
O O7 0.468448 0.889703 0.985580
O O8 0.422059 0.414237 0.566429
O O9 0.911378 0.219312 0.170880
O O10 0.007129 0.240669 0.985597
O O11 0.409325 0.914058 0.567776
O O12 0.500000 0.000000 0.500000
O O13 0.630294 0.961402 0.906091
O O14 0.954398 0.863636 0.437525
O O15 0.071568 0.917277 0.331344
O O16 0.529769 0.741893 0.525304
O O17 0.000000 0.500000 0.000000
#
# Coordination Sequence:
#
# PCOD8035629 Si02
#       8
#     2   2   2   2   2   2   2   2
#     4  12  26  48  73 111 141 191 241 299 363 428
#     4  11  25  47  77 105 144 188 246 298 361 421
#     4  12  27  46  71 110 145 190 240 298 359 431
#     4  12  28  44  72 107 149 194 238 291 366 434
#     4  11  26  48  73 106 143 193 241 300 356 429
#     4  12  26  46  74 101 150 193 237 296 360 433
#     4  11  25  47  76 103 146 189 242 298 364 420
#     4  11  25  46  70 105 144 190 240 295 357 427
#
# _framework density 24.781700000000001
#
# number of rings (size 3 to 8) (size 9 to 14) (size 15 to 20)
#    0.000    0.500    3.750    4.500    7.000    2.500 
#    0.000    0.000    0.000    0.000    0.000    0.000 
#    0.000    0.000    0.000    0.000    0.000    0.000 
#
# Total GULP energy -198518.500854 kJ/mol
# GULP energy per Si atom -12407.406303 kJ/mol
# Density = 2.472530 g / cm^3
# Si number density = 24.781700 Si / 1000 Ang^3
#
#
#
# Elastic Constant Matrix: (Units=GPa)
#
#
# Indices 1 2 3 4 5 6 
#
# 1 77.0986 -20.6484 1.1973 -9.2171 6.9451 4.7405
# 2 -20.6484 76.2481 27.4568 2.8162 -0.4599 5.1004
# 3 1.1973 27.4568 112.3398 4.3710 -16.2221 16.8034
# 4 -9.2171 2.8162 4.3710 42.9499 11.8783 0.3668
# 5 6.9451 -0.4599 -16.2221 11.8783 38.8476 4.0505
# 6 4.7405 5.1004 16.8034 0.3668 4.0505 41.3619
#
#
#
# Elastic Compliance Matrix: (Units=1/GPa)
#
#
# Indices 1 2 3 4 5 6 
#
# 1 0.015315 0.004756 -0.002032 0.004518 -0.004798 -0.001086
# 2 0.004756 0.015930 -0.004317 0.001187 -0.002776 -0.000494
# 3 -0.002032 -0.004317 0.011758 -0.003155 0.006670 -0.004637
# 4 0.004518 0.001187 -0.003155 0.027428 -0.010645 0.001417
# 5 -0.004798 -0.002776 0.006670 -0.010645 0.033125 -0.004967
# 6 -0.001086 -0.000494 -0.004637 0.001417 -0.004967 0.026720
#
#
# Mechanical properties :
#
#
# Convention : Reuss Voigt Hill
#
# Bulk Modulus (GPa) = 25.11531 31.29977 28.20754
# Shear Modulus (GPa) = 34.07546 41.81060 37.94303
#
# Velocity S-wave (km/s) = 3.71216 4.11196 3.91716
# Velocity P-wave (km/s) = 5.34136 5.93312 5.64500
#
# Compressibility (1/GPa) = 0.03981635
#
# Stress axis : x y z
#
# Youngs Moduli (GPa) = 65.29636 62.77428 85.04963
#
# Poissons Ratio (x) = -0.29854 0.17280
# Poissons Ratio (y) = -0.31054 0.36718
# Poissons Ratio (z) = 0.13266 0.27101
#
# Static dielectric constant tensor:
#      x y z
#    x 4.749320 -0.150360 -0.050740 
#    y -0.150360 4.688410 0.157640 
#    z -0.050740 0.157640 4.431310 
# 
# 
# High freq. dielectric constant tensor:
#      x y z
#    x 1.997980 0.000960 0.003840 
#    y 0.000960 1.998360 0.006670 
#    z 0.003840 0.006670 1.984240 
# 
# From -- ./inp_files/279573.got.cif
#   From: 2010.06.25/outbox.cif.g09.slc.cpg/sg2_140_cif.got.tgz:279573.got - 2010.06.27 13:26:56.
