data_PCOD8035683
_publ_section_title
;
Structure prediction by ZEFSAII (Michael W. Deem and Ramdas Pophale) SiO2 
 PCOD8035683
Probable space group: P -1
;
_chemical_formula_sum "Si O2"
_cell_formula_units_Z 10
_cell_length_a 8.046130
_cell_length_b 8.501280
_cell_length_c 11.801106
_cell_angle_alpha 141.112424
_cell_angle_beta 110.949284
_cell_angle_gamma 46.766175
_cell_volume 340.910622
_symmetry_space_group_name_H-M "P -1"
_symmetry_group_IT_number 2
_symmetry_cell_setting 'triclinic'
loop_
_space_group_symop_operation_xyz
x,y,z
-x,-y,-z
loop_
_atom_site_type_symbol
_atom_site_label
_atom_site_fract_x
_atom_site_fract_y
_atom_site_fract_z
Si Si1 0.890925 0.815091 0.811030
Si Si2 0.377200 0.433565 0.806841
Si Si3 0.719997 0.291386 0.640490
Si Si4 0.516116 0.834651 0.648298
Si Si5 0.791969 0.754873 0.999893
O O1 0.184258 0.572806 0.730808
O O2 0.802619 0.646046 0.630825
O O3 0.880887 0.823999 0.952032
O O4 0.711876 0.222456 0.956642
O O5 0.648421 0.193907 0.679511
O O6 0.366493 0.203644 0.756075
O O7 0.535038 0.378314 0.544804
O O8 0.663572 0.626879 0.852401
O O9 0.000000 0.000000 0.500000
O O10 0.420825 0.893053 0.786145
O O11 0.000000 0.500000 0.000000
#
# Coordination Sequence:
#
# PCOD8035683 Si02
#       5
#     2   2   2   2   2
#     4  11  25  46  75 106 138 190 233 285 357 413
#     4  11  25  46  72 107 141 184 237 285 352 418
#     4  12  26  44  74 106 138 189 236 283 357 413
#     4  12  25  47  75 102 146 184 230 297 344 417
#     4  12  24  48  73 102 145 185 234 287 350 419
#
# _framework density 29.333202
#
# number of rings (size 3 to 8) (size 9 to 14) (size 15 to 20)
#    0.000    0.400    6.000    1.800    0.000    1.600 
#    0.000    0.000    0.000    0.000    0.000    0.000 
#    0.000    0.000    0.000    0.000    0.000    0.000 
#
# Total GULP energy -123887.433345 kJ/mol
# GULP energy per Si atom -12388.743335 kJ/mol
# Density = 2.926644 g / cm^3
# Si number density = 29.333202 Si / 1000 Ang^3
#
#
#
# Elastic Constant Matrix: (Units=GPa)
#
#
# Indices 1 2 3 4 5 6 
#
# 1 137.7259 24.1595 53.2027 -5.1055 3.8819 -25.8098
# 2 24.1595 103.1047 15.0552 -4.9330 10.1641 11.6156
# 3 53.2027 15.0552 130.1165 -25.0795 44.9836 -3.9717
# 4 -5.1055 -4.9330 -25.0795 39.8858 -14.9421 9.5461
# 5 3.8819 10.1641 44.9836 -14.9421 59.6948 -15.1144
# 6 -25.8098 11.6156 -3.9717 9.5461 -15.1144 51.7240
#
#
#
# Elastic Compliance Matrix: (Units=1/GPa)
#
#
# Indices 1 2 3 4 5 6 
#
# 1 0.011942 -0.003538 -0.007062 -0.002953 0.006608 0.008687
# 2 -0.003538 0.011405 0.001685 0.001903 -0.003949 -0.005702
# 3 -0.007062 0.001685 0.015432 0.006371 -0.011715 -0.007316
# 4 -0.002953 0.001903 0.006371 0.030975 0.001097 -0.006808
# 5 0.006608 -0.003949 -0.011715 0.001097 0.029025 0.011563
# 6 0.008687 -0.005702 -0.007316 -0.006808 0.011563 0.029022
#
#
# Mechanical properties :
#
#
# Convention : Reuss Voigt Hill
#
# Bulk Modulus (GPa) = 47.73529 61.75354 54.74442
# Shear Modulus (GPa) = 32.76245 48.82957 40.79601
#
# Velocity S-wave (km/s) = 3.34564 4.08444 3.73336
# Velocity P-wave (km/s) = 5.58867 6.58344 6.10635
#
# Compressibility (1/GPa) = 0.02094886
#
# Stress axis : x y z
#
# Youngs Moduli (GPa) = 83.74072 87.68326 64.79838
#
# Poissons Ratio (x) = 0.31025 0.45759
# Poissons Ratio (y) = 0.29630 -0.10919
# Poissons Ratio (z) = 0.59136 -0.14776
#
# Static dielectric constant tensor:
#      x y z
#    x 8.009100 -2.549370 0.996310 
#    y -2.549370 8.056330 -1.383770 
#    z 0.996310 -1.383770 5.702700 
# 
# 
# High freq. dielectric constant tensor:
#      x y z
#    x 2.215790 -0.005600 0.013470 
#    y -0.005600 2.208370 -0.016190 
#    z 0.013470 -0.016190 2.177100 
# 
# From -- ./inp_files/145744.got.cif
#   From: 2010.06.25/outbox.cif.g09.slc.cpg/sg2_73_cif.got.tgz:145744.got - 2010.06.27 13:26:56.
