data_PCOD8035634
_publ_section_title
;
Structure prediction by ZEFSAII (Michael W. Deem and Ramdas Pophale) SiO2 
 PCOD8035634
Probable space group: P -1
;
_chemical_formula_sum "Si O2"
_cell_formula_units_Z 16
_cell_length_a 9.303386
_cell_length_b 15.322088
_cell_length_c 5.193509
_cell_angle_alpha 91.827864
_cell_angle_beta 77.578227
_cell_angle_gamma 79.232521
_cell_volume 708.253237
_symmetry_space_group_name_H-M "P -1"
_symmetry_group_IT_number 2
_symmetry_cell_setting 'triclinic'
loop_
_space_group_symop_operation_xyz
x,y,z
-x,-y,-z
loop_
_atom_site_type_symbol
_atom_site_label
_atom_site_fract_x
_atom_site_fract_y
_atom_site_fract_z
Si Si1 0.482625 0.351171 0.016114
Si Si2 0.629249 0.489365 0.251157
Si Si3 0.003325 0.939931 0.240277
Si Si4 0.460940 0.905568 0.560869
Si Si5 0.777614 0.814650 0.275199
Si Si6 0.798840 0.711285 0.738763
Si Si7 0.327835 0.843782 0.123424
Si Si8 0.039618 0.548397 0.739810
O O1 0.596579 0.413527 0.063908
O O2 0.352406 0.329223 0.253424
O O3 0.593331 0.259774 0.882749
O O4 0.377702 0.410902 0.847673
O O5 0.500000 0.500000 0.500000
O O6 0.784790 0.450730 0.328114
O O7 0.853649 0.899724 0.279644
O O8 0.148154 0.858624 0.156558
O O9 0.000000 0.000000 0.500000
O O10 0.000000 0.000000 0.000000
O O11 0.610570 0.832991 0.454676
O O12 0.399669 0.892715 0.869363
O O13 0.500000 0.000000 0.500000
O O14 0.340139 0.892169 0.393561
O O15 0.855897 0.740150 0.442802
O O16 0.767570 0.787938 0.977814
O O17 0.942882 0.646606 0.791935
O O18 0.000000 0.500000 0.500000
O O19 0.000000 0.500000 0.000000
#
# Coordination Sequence:
#
# PCOD8035634 Si02
#       8
#     2   2   2   2   2   2   2   2
#     4  11  25  46  70 106 145 185 249 298 365 416
#     4  11  27  45  75 104 147 194 244 305 360 430
#     4  12  27  50  71 103 149 187 231 295 361 430
#     4  12  24  44  72 106 135 183 236 290 351 432
#     4  12  25  45  71 104 138 186 233 295 357 419
#     4  12  25  45  71 105 143 183 240 299 350 430
#     4  12  26  44  75 103 141 189 233 292 357 423
#     4  12  26  46  73 102 143 192 235 290 364 423
#
# _framework density 22.590788
#
# number of rings (size 3 to 8) (size 9 to 14) (size 15 to 20)
#    0.000    0.250    3.750    4.875    7.000    1.000 
#    0.000    0.000    0.000    0.000    0.000    0.000 
#    0.000    0.000    0.000    0.000    0.000    0.000 
#
# Total GULP energy -198315.168015 kJ/mol
# GULP energy per Si atom -12394.698001 kJ/mol
# Density = 2.253937 g / cm^3
# Si number density = 22.590788 Si / 1000 Ang^3
#
#
#
# Elastic Constant Matrix: (Units=GPa)
#
#
# Indices 1 2 3 4 5 6 
#
# 1 130.5988 22.4388 21.6282 2.8887 -3.1891 -8.8684
# 2 22.4388 106.6071 24.7667 -7.8027 7.1290 -2.2323
# 3 21.6282 24.7667 103.1412 -12.1743 12.3771 11.7495
# 4 2.8887 -7.8027 -12.1743 36.8979 -4.6272 -6.6551
# 5 -3.1891 7.1290 12.3771 -4.6272 39.2816 3.3372
# 6 -8.8684 -2.2323 11.7495 -6.6551 3.3372 38.4604
#
#
#
# Elastic Compliance Matrix: (Units=1/GPa)
#
#
# Indices 1 2 3 4 5 6 
#
# 1 0.008427 -0.001438 -0.001943 -0.001058 0.001249 0.002162
# 2 -0.001438 0.010382 -0.001980 0.001726 -0.001283 0.001286
# 3 -0.001943 -0.001980 0.011617 0.002591 -0.002863 -0.003415
# 4 -0.001058 0.001726 0.002591 0.029361 0.001905 0.003980
# 5 0.001249 -0.001283 -0.002863 0.001905 0.026997 -0.000925
# 6 0.002162 0.001286 -0.003415 0.003980 -0.000925 0.028386
#
#
# Mechanical properties :
#
#
# Convention : Reuss Voigt Hill
#
# Bulk Modulus (GPa) = 50.75284 53.11273 51.93279
# Shear Modulus (GPa) = 37.74756 41.02889 39.38822
#
# Velocity S-wave (km/s) = 4.09213 4.26629 4.18012
# Velocity P-wave (km/s) = 6.69644 6.91593 6.80707
#
# Compressibility (1/GPa) = 0.01970333
#
# Stress axis : x y z
#
# Youngs Moduli (GPa) = 118.67287 96.32072 86.08212
#
# Poissons Ratio (x) = 0.13851 0.16723
# Poissons Ratio (y) = 0.17065 0.17047
# Poissons Ratio (z) = 0.23055 0.19074
#
# Static dielectric constant tensor:
#      x y z
#    x 4.229540 -0.245410 0.032210 
#    y -0.245410 4.454920 0.119590 
#    z 0.032210 0.119590 4.197230 
# 
# 
# High freq. dielectric constant tensor:
#      x y z
#    x 1.905090 -0.011060 0.001400 
#    y -0.011060 1.899600 -0.005090 
#    z 0.001400 -0.005090 1.895660 
# 
# From -- ./inp_files/38458.got.cif
#   From: 2010.06.25/outbox.cif.g09.slc.cpg/sg2_20_cif.got.tgz:38458.got - 2010.06.27 13:26:56.
