data_PCOD8035572
_publ_section_title
;
Structure prediction by ZEFSAII (Michael W. Deem and Ramdas Pophale) SiO2 
 PCOD8035572
Probable space group: P -1
;
_chemical_formula_sum "Si O2"
_cell_formula_units_Z 14
_cell_length_a 8.164063
_cell_length_b 19.418035
_cell_length_c 9.152795
_cell_angle_alpha 31.865798
_cell_angle_beta 66.973633
_cell_angle_gamma 53.275951
_cell_volume 590.182119
_symmetry_space_group_name_H-M "P -1"
_symmetry_group_IT_number 2
_symmetry_cell_setting 'triclinic'
loop_
_space_group_symop_operation_xyz
x,y,z
-x,-y,-z
loop_
_atom_site_type_symbol
_atom_site_label
_atom_site_fract_x
_atom_site_fract_y
_atom_site_fract_z
Si Si1 0.292288 0.304156 0.816073
Si Si2 0.802734 0.169213 0.234253
Si Si3 0.909803 0.354850 0.679840
Si Si4 0.612932 0.080787 0.886510
Si Si5 0.320798 0.679380 0.710160
Si Si6 0.399472 0.161549 0.328586
Si Si7 0.045066 0.221818 0.571111
O O1 0.261682 0.472259 0.511299
O O2 0.516460 0.166173 0.921984
O O3 0.124553 0.287905 0.814176
O O4 0.263974 0.290666 0.021791
O O5 0.806837 0.268658 0.187896
O O6 0.587619 0.174289 0.301216
O O7 0.821853 0.244700 0.942048
O O8 0.000000 0.000000 0.500000
O O9 0.964586 0.349694 0.498231
O O10 0.587055 0.212296 0.547350
O O11 0.500000 0.000000 0.000000
O O12 0.859899 0.946220 0.079070
O O13 0.161394 0.713430 0.572376
O O14 0.500000 0.500000 0.000000
O O15 0.244043 0.196250 0.455495
O O16 0.500000 0.000000 0.500000
#
# Coordination Sequence:
#
# PCOD8035572 Si02
#       7
#     2   2   2   2   2   2   2
#     4  11  25  45  75 104 155 189 250 304 387 438
#     4  12  27  48  75 107 150 194 250 302 376 448
#     4  11  26  47  73 111 146 198 242 314 373 455
#     4  12  24  47  78 113 148 201 256 313 375 452
#     4  12  29  49  75 110 158 198 254 316 380 449
#     4  12  26  46  75 111 144 194 246 312 368 446
#     4  12  26  48  78 111 149 198 260 304 379 448
#
# _framework density 23.721492999999999
#
# number of rings (size 3 to 8) (size 9 to 14) (size 15 to 20)
#    0.000    0.286    2.857    5.571    4.000    2.286 
#    0.000    0.000    0.000    0.000    0.000    0.000 
#    0.000    0.000    0.000    0.000    0.000    0.000 
#
# Total GULP energy -173541.367106 kJ/mol
# GULP energy per Si atom -12395.811936 kJ/mol
# Density = 2.366750 g / cm^3
# Si number density = 23.721493 Si / 1000 Ang^3
#
#
#
# Elastic Constant Matrix: (Units=GPa)
#
#
# Indices 1 2 3 4 5 6 
#
# 1 137.2812 49.9395 63.2591 -5.1368 12.9296 11.7836
# 2 49.9395 153.1755 45.4891 -1.1356 5.9878 -2.1245
# 3 63.2591 45.4891 142.9626 -5.0428 4.9114 -2.0459
# 4 -5.1368 -1.1356 -5.0428 46.2782 -8.1359 7.4495
# 5 12.9296 5.9878 4.9114 -8.1359 44.7821 9.6028
# 6 11.7836 -2.1245 -2.0459 7.4495 9.6028 27.9021
#
#
#
# Elastic Compliance Matrix: (Units=1/GPa)
#
#
# Indices 1 2 3 4 5 6 
#
# 1 0.010470 -0.002274 -0.003899 0.001289 -0.001011 -0.004877
# 2 -0.002274 0.007744 -0.001428 -0.000650 -0.000742 0.001874
# 3 -0.003899 -0.001428 0.009217 0.000154 -0.000143 0.002222
# 4 0.001289 -0.000650 0.000154 0.024295 0.006076 -0.009160
# 5 -0.001011 -0.000742 -0.000143 0.006076 0.026033 -0.010222
# 6 -0.004877 0.001874 0.002222 -0.009160 -0.010222 0.044168
#
#
# Mechanical properties :
#
#
# Convention : Reuss Voigt Hill
#
# Bulk Modulus (GPa) = 81.77898 83.42166 82.60032
# Shear Modulus (GPa) = 35.40895 42.10790 38.75842
#
# Velocity S-wave (km/s) = 3.86773 4.21776 4.04653
# Velocity P-wave (km/s) = 7.38209 7.67872 7.53187
#
# Compressibility (1/GPa) = 0.01222808
#
# Stress axis : x y z
#
# Youngs Moduli (GPa) = 95.50752 129.12652 108.49880
#
# Poissons Ratio (x) = 0.29367 0.42303
# Poissons Ratio (y) = 0.21721 0.15498
# Poissons Ratio (z) = 0.37238 0.18445
#
# Static dielectric constant tensor:
#      x y z
#    x 4.164720 -0.000890 0.170890 
#    y -0.000890 4.538660 0.096950 
#    z 0.170890 0.096950 4.449250 
# 
# 
# High freq. dielectric constant tensor:
#      x y z
#    x 1.933180 0.006220 0.013510 
#    y 0.006220 1.959940 0.001740 
#    z 0.013510 0.001740 1.949870 
# 
# From -- ./inp_files/216314.got.cif
#   From: 2010.06.25/outbox.cif.g09.slc.cpg/sg2_109_cif.got.tgz:216314.got - 2010.06.27 13:26:56.
