data_PCOD8035652
_publ_section_title
;
Structure prediction by ZEFSAII (Michael W. Deem and Ramdas Pophale) SiO2 
 PCOD8035652
Probable space group: P -1
;
_chemical_formula_sum "Si O2"
_cell_formula_units_Z 10
_cell_length_a 8.232812
_cell_length_b 9.053121
_cell_length_c 7.623591
_cell_angle_alpha 100.118527
_cell_angle_beta 67.121124
_cell_angle_gamma 53.198403
_cell_volume 349.015444
_symmetry_space_group_name_H-M "P -1"
_symmetry_group_IT_number 2
_symmetry_cell_setting 'triclinic'
loop_
_space_group_symop_operation_xyz
x,y,z
-x,-y,-z
loop_
_atom_site_type_symbol
_atom_site_label
_atom_site_fract_x
_atom_site_fract_y
_atom_site_fract_z
Si Si1 0.883340 0.358214 0.375392
Si Si2 0.072922 0.513855 0.158504
Si Si3 0.659926 0.276214 0.186237
Si Si4 0.669751 0.122859 0.808055
Si Si5 0.281690 0.005566 0.606116
O O1 0.822152 0.310242 0.208921
O O2 0.645818 0.487222 0.639560
O O3 0.904375 0.522478 0.368334
O O4 0.157145 0.133755 0.292339
O O5 0.996044 0.736943 0.248925
O O6 0.372689 0.288971 0.023223
O O7 0.000000 0.500000 0.000000
O O8 0.702684 0.095090 0.239775
O O9 0.769130 0.186169 0.920945
O O10 0.690635 0.139073 0.592052
O O11 0.500000 0.000000 0.500000
#
# Coordination Sequence:
#
# PCOD8035652 Si02
#       5
#     2   2   2   2   2
#     4  11  25  46  71 104 141 183 230 288 347 412
#     4  12  24  44  73 103 139 182 235 285 341 411
#     4  11  26  49  71 101 145 181 230 289 347 411
#     4  12  26  44  76 102 138 188 232 282 350 410
#     4  12  25  45  71 104 138 180 237 283 337 417
#
# _framework density 28.652025999999999
#
# number of rings (size 3 to 8) (size 9 to 14) (size 15 to 20)
#    0.000    0.400    4.000    3.600    2.800    2.400 
#    0.000   12.000    0.000    0.000    0.000    0.000 
#    0.000    0.000    0.000    0.000    0.000    0.000 
#
# Total GULP energy -123920.881209 kJ/mol
# GULP energy per Si atom -12392.088121 kJ/mol
# Density = 2.858681 g / cm^3
# Si number density = 28.652026 Si / 1000 Ang^3
#
#
#
# Elastic Constant Matrix: (Units=GPa)
#
#
# Indices 1 2 3 4 5 6 
#
# 1 47.4508 63.5750 44.7623 12.7143 15.3420 -12.8952
# 2 63.5750 129.0227 39.7342 35.2702 -15.5641 -4.5279
# 3 44.7623 39.7342 149.1209 10.7857 48.2924 -18.2317
# 4 12.7143 35.2702 10.7857 48.7321 -25.9129 -4.0199
# 5 15.3420 -15.5641 48.2924 -25.9129 63.8657 0.8082
# 6 -12.8952 -4.5279 -18.2317 -4.0199 0.8082 43.4131
#
#
#
# Elastic Compliance Matrix: (Units=1/GPa)
#
#
# Indices 1 2 3 4 5 6 
#
# 1 0.214102 -0.109219 0.000771 -0.018902 -0.086964 0.052397
# 2 -0.109219 0.066377 -0.003998 0.004339 0.047547 -0.027681
# 3 0.000771 -0.003998 0.013332 -0.007469 -0.014334 0.004986
# 4 -0.018902 0.004339 -0.007469 0.037670 0.026597 -0.005306
# 5 -0.086964 0.047547 -0.014334 0.026597 0.070091 -0.025734
# 6 0.052397 -0.027681 0.004986 -0.005306 -0.025734 0.037793
#
#
# Mechanical properties :
#
#
# Convention : Reuss Voigt Hill
#
# Bulk Modulus (GPa) = 14.51001 69.08192 41.79596
# Shear Modulus (GPa) = 7.27558 43.03704 25.15631
#
# Velocity S-wave (km/s) = 1.59524 3.87985 2.96631
# Velocity P-wave (km/s) = 2.91003 6.65086 5.13333
#
# Compressibility (1/GPa) = 0.06891795
#
# Stress axis : x y z
#
# Youngs Moduli (GPa) = 4.67066 15.06551 75.01001
#
# Poissons Ratio (x) = 1.64544 -0.05780
# Poissons Ratio (y) = 0.51013 0.29987
# Poissons Ratio (z) = -0.00360 0.06023
#
# Static dielectric constant tensor:
#      x y z
#    x 3.908040 -0.039000 0.635670 
#    y -0.039000 6.038940 0.363650 
#    z 0.635670 0.363650 5.602800 
# 
# 
# High freq. dielectric constant tensor:
#      x y z
#    x 2.166340 -0.020970 0.005900 
#    y -0.020970 2.162560 0.016940 
#    z 0.005900 0.016940 2.177190 
# 
# From -- ./inp_files/146088.got.cif
#   From: 2010.06.25/outbox.cif.g09.slc.cpg/sg2_74_cif.got.tgz:146088.got - 2010.06.27 13:26:56.
