data_PCOD8035124
_publ_section_title
;
Structure prediction by ZEFSAII (Michael W. Deem and Ramdas Pophale) SiO2 
 PCOD8035124
Probable space group: P -1
;
_chemical_formula_sum "Si O2"
_cell_formula_units_Z 16
_cell_length_a 11.903657
_cell_length_b 17.286654
_cell_length_c 19.368009
_cell_angle_alpha 20.199015
_cell_angle_beta 35.465104
_cell_angle_gamma 46.332788
_cell_volume 742.100214
_symmetry_space_group_name_H-M "P -1"
_symmetry_group_IT_number 2
_symmetry_cell_setting 'triclinic'
loop_
_space_group_symop_operation_xyz
x,y,z
-x,-y,-z
loop_
_atom_site_type_symbol
_atom_site_label
_atom_site_fract_x
_atom_site_fract_y
_atom_site_fract_z
Si Si1 0.593376 0.570050 0.165076
Si Si2 0.861770 0.083848 0.615434
Si Si3 0.274181 0.873074 0.750054
Si Si4 0.501040 0.093008 0.697885
Si Si5 0.802136 0.278464 0.759125
Si Si6 0.755106 0.584146 0.919665
Si Si7 0.397912 0.700342 0.968623
Si Si8 0.971147 0.774704 0.437899
O O1 0.540932 0.340873 0.431967
O O2 0.390503 0.635531 0.214405
O O3 0.654547 0.517125 0.101890
O O4 0.790785 0.796473 0.904775
O O5 0.667986 0.143947 0.633301
O O6 0.944422 0.223908 0.528187
O O7 0.044356 0.168805 0.394861
O O8 0.500000 0.000000 0.500000
O O9 0.166249 0.624039 0.971506
O O10 0.310113 0.832197 0.846003
O O11 0.125095 0.021105 0.694673
O O12 0.265991 0.964103 0.955301
O O13 0.524562 0.895030 0.799669
O O14 0.839927 0.188652 0.739977
O O15 0.000000 0.500000 0.500000
O O16 0.576442 0.596103 0.944985
O O17 0.202326 0.482673 0.279140
#
# Coordination Sequence:
#
# PCOD8035124 Si02
#       8
#     2   2   2   2   2   2   2   2
#     4  11  26  45  70 103 140 187 232 276 349 413
#     4  11  26  46  69 102 146 185 224 289 345 413
#     4  12  25  39  69 105 141 181 228 287 346 412
#     4  11  26  45  71 105 138 183 234 282 345 413
#     4  11  24  48  73 100 139 179 231 294 340 405
#     4  12  22  46  67 103 147 183 226 285 348 413
#     4  12  23  44  68 103 144 175 230 291 340 405
#     4  12  26  47  72 104 138 183 234 285 351 401
#
# _framework density 21.560431000000001
#
# number of rings (size 3 to 8) (size 9 to 14) (size 15 to 20)
#    0.000    0.500    6.250    2.250    3.500    4.000 
#    0.000    1.250    0.000    0.000    0.000    0.000 
#    0.000    0.000    0.000    0.000    0.000    0.000 
#
# Total GULP energy -198313.223357 kJ/mol
# GULP energy per Si atom -12394.576460 kJ/mol
# Density = 2.151136 g / cm^3
# Si number density = 21.560431 Si / 1000 Ang^3
#
#
#
# Elastic Constant Matrix: (Units=GPa)
#
#
# Indices 1 2 3 4 5 6 
#
# 1 102.0908 50.9579 55.6921 2.8429 10.9870 -1.2314
# 2 50.9579 103.9716 49.2303 10.6598 12.5690 6.7707
# 3 55.6921 49.2303 185.3325 8.9524 19.0152 -5.3793
# 4 2.8429 10.6598 8.9524 35.2656 0.3680 2.3277
# 5 10.9870 12.5690 19.0152 0.3680 40.4614 -1.7559
# 6 -1.2314 6.7707 -5.3793 2.3277 -1.7559 22.7334
#
#
#
# Elastic Compliance Matrix: (Units=1/GPa)
#
#
# Indices 1 2 3 4 5 6 
#
# 1 0.014237 -0.005867 -0.002652 0.001194 -0.000733 0.001712
# 2 -0.005867 0.014228 -0.001788 -0.003032 -0.002169 -0.004835
# 3 -0.002652 -0.001788 0.006976 -0.001129 -0.001905 0.002008
# 4 0.001194 -0.003032 -0.001129 0.029605 0.000781 -0.002271
# 5 -0.000733 -0.002169 -0.001905 0.000781 0.026568 0.002127
# 6 0.001712 -0.004835 0.002008 -0.002271 0.002127 0.046393
#
#
# Mechanical properties :
#
#
# Convention : Reuss Voigt Hill
#
# Bulk Modulus (GPa) = 67.44687 78.12838 72.78763
# Shear Modulus (GPa) = 30.56912 35.39305 32.98109
#
# Velocity S-wave (km/s) = 3.76950 4.05603 3.91539
# Velocity P-wave (km/s) = 7.09198 7.63222 7.36705
#
# Compressibility (1/GPa) = 0.01482649
#
# Stress axis : x y z
#
# Youngs Moduli (GPa) = 70.23964 70.28425 143.34925
#
# Poissons Ratio (x) = 0.41236 0.38022
# Poissons Ratio (y) = 0.41210 0.25627
# Poissons Ratio (z) = 0.18631 0.12565
#
# Static dielectric constant tensor:
#      x y z
#    x 4.061790 0.405460 0.255730 
#    y 0.405460 4.377820 0.173580 
#    z 0.255730 0.173580 4.664510 
# 
# 
# High freq. dielectric constant tensor:
#      x y z
#    x 1.844650 0.006760 0.003250 
#    y 0.006760 1.832830 0.000950 
#    z 0.003250 0.000950 1.872740 
# 
# From -- ./inp_files/472403.got.cif
#   From: 2010.06.25/outbox.cif.g09.slc.cpg/sg2_237_cif.got.tgz:472403.got - 2010.06.27 13:26:56.
