data_PCOD8035915
_publ_section_title
;
Structure prediction by ZEFSAII (Michael W. Deem and Ramdas Pophale) SiO2 
 PCOD8035915
Probable space group: P -1
;
_chemical_formula_sum "Si O2"
_cell_formula_units_Z 12
_cell_length_a 14.338302
_cell_length_b 6.855128
_cell_length_c 11.840164
_cell_angle_alpha 92.009434
_cell_angle_beta 151.701425
_cell_angle_gamma 92.496918
_cell_volume 544.521563
_symmetry_space_group_name_H-M "P -1"
_symmetry_group_IT_number 2
_symmetry_cell_setting 'triclinic'
loop_
_space_group_symop_operation_xyz
x,y,z
-x,-y,-z
loop_
_atom_site_type_symbol
_atom_site_label
_atom_site_fract_x
_atom_site_fract_y
_atom_site_fract_z
Si Si1 0.488017 0.279226 0.942948
Si Si2 0.318917 0.185021 0.529199
Si Si3 0.360416 0.829519 0.283895
Si Si4 0.793821 0.009203 0.215894
Si Si5 0.920831 0.935420 0.098552
Si Si6 0.204055 0.424703 0.201316
O O1 0.330871 0.262171 0.670988
O O2 0.387262 0.149671 0.935812
O O3 0.500000 0.500000 0.000000
O O4 0.705840 0.217730 0.142719
O O5 0.542508 0.153639 0.737435
O O6 0.265339 0.341467 0.383540
O O7 0.161543 0.979310 0.353155
O O8 0.365328 0.616444 0.341690
O O9 0.500000 0.000000 0.500000
O O10 0.139596 0.884045 0.038383
O O11 0.832629 0.950725 0.128405
O O12 0.000000 0.000000 0.500000
O O13 0.824062 0.730003 0.935446
O O14 0.000000 0.500000 0.000000
#
# Coordination Sequence:
#
# PCOD8035915 Si02
#       6
#     2   2   2   2   2   2
#     4  11  27  46  72 104 139 183 238 289 346 415
#     4  12  24  46  68 100 141 180 227 287 343 407
#     4  12  25  44  69 100 142 179 227 283 345 412
#     4  11  25  48  71 101 137 187 233 288 350 404
#     4  12  25  45  71 100 142 180 228 287 342 414
#     4  12  26  43  70 107 137 182 230 276 354 414
#
# _framework density 22.037693000000001
#
# number of rings (size 3 to 8) (size 9 to 14) (size 15 to 20)
#    0.000    0.333    6.667    2.000    2.333    2.000 
#    0.000    0.000    0.000    0.000    0.000    0.000 
#    0.000    0.000    0.000    0.000    0.000    0.000 
#
# Total GULP energy -148687.155892 kJ/mol
# GULP energy per Si atom -12390.596324 kJ/mol
# Density = 2.198753 g / cm^3
# Si number density = 22.037693 Si / 1000 Ang^3
#
#
#
# Elastic Constant Matrix: (Units=GPa)
#
#
# Indices 1 2 3 4 5 6 
#
# 1 87.5693 54.4775 23.1759 -2.9697 -2.0739 1.2060
# 2 54.4775 139.4735 56.3824 17.1458 -11.1314 -13.9844
# 3 23.1759 56.3824 107.7538 -0.0115 -8.0205 -5.5019
# 4 -2.9697 17.1458 -0.0115 37.8472 -1.2004 8.7354
# 5 -2.0739 -11.1314 -8.0205 -1.2004 43.2935 0.6227
# 6 1.2060 -13.9844 -5.5019 8.7354 0.6227 34.6358
#
#
#
# Elastic Compliance Matrix: (Units=1/GPa)
#
#
# Indices 1 2 3 4 5 6 
#
# 1 0.016522 -0.007895 0.000240 0.006051 -0.000951 -0.005234
# 2 -0.007895 0.014378 -0.005300 -0.008784 0.001987 0.007418
# 3 0.000240 -0.005300 0.012026 0.002668 0.000964 -0.000928
# 4 0.006051 -0.008784 0.002668 0.033588 -0.000373 -0.011798
# 5 -0.000951 0.001987 0.000964 -0.000373 0.023722 0.000656
# 6 -0.005234 0.007418 -0.000928 -0.011798 0.000656 0.034865
#
#
# Mechanical properties :
#
#
# Convention : Reuss Voigt Hill
#
# Bulk Modulus (GPa) = 58.76234 66.98537 62.87385
# Shear Modulus (GPa) = 29.99679 36.53937 33.26808
#
# Velocity S-wave (km/s) = 3.69339 4.07632 3.88957
# Velocity P-wave (km/s) = 6.70153 7.25376 6.98311
#
# Compressibility (1/GPa) = 0.01701770
#
# Stress axis : x y z
#
# Youngs Moduli (GPa) = 60.52401 69.55016 83.14996
#
# Poissons Ratio (x) = 0.54911 -0.01996
# Poissons Ratio (y) = 0.47785 0.44066
# Poissons Ratio (z) = -0.01453 0.36859
#
# Static dielectric constant tensor:
#      x y z
#    x 4.252090 -0.705210 0.422680 
#    y -0.705210 4.929520 -0.878380 
#    z 0.422680 -0.878380 4.800200 
# 
# 
# High freq. dielectric constant tensor:
#      x y z
#    x 1.888390 0.000810 0.008190 
#    y 0.000810 1.860700 -0.011530 
#    z 0.008190 -0.011530 1.877790 
# 
# From -- ./inp_files/30482.got.cif
#   From: 2010.06.25/outbox.cif.g09.slc.cpg/sg2_16_cif.got.tgz:30482.got - 2010.06.27 13:26:56.
