data_PCOD8035586
_publ_section_title
;
Structure prediction by ZEFSAII (Michael W. Deem and Ramdas Pophale) SiO2 
 PCOD8035586
Probable space group: P -1
;
_chemical_formula_sum "Si O2"
_cell_formula_units_Z 14
_cell_length_a 8.995695
_cell_length_b 12.527021
_cell_length_c 15.151341
_cell_angle_alpha 29.381180
_cell_angle_beta 47.762120
_cell_angle_gamma 57.963541
_cell_volume 612.956552
_symmetry_space_group_name_H-M "P -1"
_symmetry_group_IT_number 2
_symmetry_cell_setting 'triclinic'
loop_
_space_group_symop_operation_xyz
x,y,z
-x,-y,-z
loop_
_atom_site_type_symbol
_atom_site_label
_atom_site_fract_x
_atom_site_fract_y
_atom_site_fract_z
Si Si1 0.232499 0.487015 0.715457
Si Si2 0.834258 0.115394 0.435041
Si Si3 0.393265 0.560163 0.144289
Si Si4 0.947926 0.333992 0.511428
Si Si5 0.441267 0.792848 0.778277
Si Si6 0.436853 0.747970 0.177193
Si Si7 0.949022 0.134502 0.194632
O O1 0.264700 0.720432 0.582977
O O2 0.158216 0.531290 0.615920
O O3 0.445557 0.395575 0.699704
O O4 0.065515 0.309454 0.956003
O O5 0.936313 0.246234 0.215012
O O6 0.663012 0.925390 0.604935
O O7 0.000000 0.000000 0.500000
O O8 0.542779 0.397478 0.164224
O O9 0.496190 0.706068 0.081094
O O10 0.180019 0.440601 0.354528
O O11 0.355003 0.707888 0.969378
O O12 0.805409 0.333757 0.655243
O O13 0.941691 0.076424 0.678659
O O14 0.278647 0.938986 0.700985
O O15 0.500000 0.000000 0.000000
#
# Coordination Sequence:
#
# PCOD8035586 Si02
#       7
#     2   2   2   2   2   2   2
#     4  12  26  47  73 107 146 194 239 305 368 420
#     4  12  25  42  75 112 150 187 236 308 369 431
#     4  11  25  48  75 105 146 194 242 298 370 430
#     4  12  25  51  70 103 148 195 246 293 357 443
#     4  11  25  45  76 111 145 190 242 300 368 444
#     4  12  28  48  75 106 145 197 249 301 356 428
#     4  12  24  45  71 106 152 188 245 290 373 440
#
# _framework density 22.840119999999999
#
# number of rings (size 3 to 8) (size 9 to 14) (size 15 to 20)
#    0.000    0.286    5.714    2.571    8.000    0.000 
#    0.000    1.429    0.000    0.000    0.000    0.000 
#    0.000    0.000    0.000    0.000    0.000    0.000 
#
# Total GULP energy -173531.725279 kJ/mol
# GULP energy per Si atom -12395.123234 kJ/mol
# Density = 2.278813 g / cm^3
# Si number density = 22.840120 Si / 1000 Ang^3
#
#
#
# Elastic Constant Matrix: (Units=GPa)
#
#
# Indices 1 2 3 4 5 6 
#
# 1 88.2852 25.7618 32.4086 -0.9088 8.2651 -11.5432
# 2 25.7618 93.5237 40.2980 -2.8147 1.0770 7.5171
# 3 32.4086 40.2980 93.0977 4.6694 11.7122 2.8455
# 4 -0.9088 -2.8147 4.6694 42.3570 -4.5815 1.4236
# 5 8.2651 1.0770 11.7122 -4.5815 33.5604 -2.9284
# 6 -11.5432 7.5171 2.8455 1.4236 -2.9284 46.2271
#
#
#
# Elastic Compliance Matrix: (Units=1/GPa)
#
#
# Indices 1 2 3 4 5 6 
#
# 1 0.014144 -0.002594 -0.003720 0.000219 -0.001717 0.004067
# 2 -0.002594 0.013975 -0.005424 0.001783 0.002108 -0.002508
# 3 -0.003720 -0.005424 0.015135 -0.002571 -0.004647 -0.001194
# 4 0.000219 0.001783 -0.002571 0.024476 0.004078 -0.000573
# 5 -0.001717 0.002108 -0.004647 0.004078 0.032457 0.001445
# 6 0.004067 -0.002508 -0.001194 -0.000573 0.001445 0.023238
#
#
# Mechanical properties :
#
#
# Convention : Reuss Voigt Hill
#
# Bulk Modulus (GPa) = 50.56348 52.42705 51.49527
# Shear Modulus (GPa) = 32.57460 36.19143 34.38301
#
# Velocity S-wave (km/s) = 3.78060 3.98497 3.88413
# Velocity P-wave (km/s) = 6.42210 6.64658 6.53530
#
# Compressibility (1/GPa) = 0.01977712
#
# Stress axis : x y z
#
# Youngs Moduli (GPa) = 70.70014 71.55566 66.07411
#
# Poissons Ratio (x) = 0.18559 0.24582
# Poissons Ratio (y) = 0.18337 0.35841
# Poissons Ratio (z) = 0.26304 0.38814
#
# Static dielectric constant tensor:
#      x y z
#    x 4.099430 -0.118710 0.136240 
#    y -0.118710 4.136260 0.226990 
#    z 0.136240 0.226990 4.107190 
# 
# 
# High freq. dielectric constant tensor:
#      x y z
#    x 1.909670 -0.009630 0.009190 
#    y -0.009630 1.901890 0.013020 
#    z 0.009190 0.013020 1.906450 
# 
# From -- ./inp_files/223284.got.cif
#   From: 2010.06.25/outbox.cif.g09.slc.cpg/sg2_112_cif.got.tgz:223284.got - 2010.06.27 13:26:56.
