data_PCOD8035980
_publ_section_title
;
Structure prediction by ZEFSAII (Michael W. Deem and Ramdas Pophale) SiO2 
 PCOD8035980
Probable space group: P -1
;
_chemical_formula_sum "Si O2"
_cell_formula_units_Z 12
_cell_length_a 7.104628
_cell_length_b 7.227637
_cell_length_c 8.440342
_cell_angle_alpha 97.854454
_cell_angle_beta 93.282727
_cell_angle_gamma 99.300588
_cell_volume 422.300621
_symmetry_space_group_name_H-M "P -1"
_symmetry_group_IT_number 2
_symmetry_cell_setting 'triclinic'
loop_
_space_group_symop_operation_xyz
x,y,z
-x,-y,-z
loop_
_atom_site_type_symbol
_atom_site_label
_atom_site_fract_x
_atom_site_fract_y
_atom_site_fract_z
Si Si1 0.497065 0.502166 0.689724
Si Si2 0.028499 0.714222 0.586837
Si Si3 0.194569 0.959171 0.376677
Si Si4 0.458411 0.918035 0.814622
Si Si5 0.803072 0.812010 0.192457
Si Si6 0.883587 0.605312 0.884955
O O1 0.500000 0.500000 0.500000
O O2 0.706438 0.479217 0.766246
O O3 0.433286 0.693649 0.773254
O O4 0.334783 0.341342 0.729287
O O5 0.000000 0.500000 0.500000
O O6 0.216633 0.834148 0.522075
O O7 0.037565 0.708616 0.777966
O O8 0.854074 0.832892 0.552216
O O9 0.382560 0.977887 0.285826
O O10 0.260084 0.984801 0.763604
O O11 0.500000 0.000000 0.000000
O O12 0.021653 0.829034 0.258734
O O13 0.790685 0.758717 0.998523
O O14 0.000000 0.500000 0.000000
#
# Coordination Sequence:
#
# PCOD8035980 Si02
#       6
#     2   2   2   2   2   2
#     4  12  29  56  84 127 176 225 290 361 437 515
#     4  11  25  48  81 118 168 223 282 352 435 510
#     4  11  27  52  83 124 166 220 297 357 427 521
#     4  12  28  54  88 125 174 228 294 359 436 525
#     4  12  29  50  86 124 167 227 292 357 434 516
#     4  12  27  51  87 127 170 233 291 356 438 526
#
# _framework density 28.415775
#
# number of rings (size 3 to 8) (size 9 to 14) (size 15 to 20)
#    0.000    0.333    3.333    2.500    7.000    7.333 
#    0.000    0.000    0.000    0.000    0.000    0.000 
#    0.000    0.000    0.000    0.000    0.000    0.000 
#
# Total GULP energy -148755.493728 kJ/mol
# GULP energy per Si atom -12396.291144 kJ/mol
# Density = 2.835110 g / cm^3
# Si number density = 28.415775 Si / 1000 Ang^3
#
#
#
# Elastic Constant Matrix: (Units=GPa)
#
#
# Indices 1 2 3 4 5 6 
#
# 1 132.9482 29.1396 32.8923 -9.2529 4.0078 -0.7701
# 2 29.1396 176.3122 63.9878 -8.9294 1.2293 -6.1750
# 3 32.8923 63.9878 216.6070 -8.4265 -10.9529 19.4537
# 4 -9.2529 -8.9294 -8.4265 57.4568 10.5266 -2.9235
# 5 4.0078 1.2293 -10.9529 10.5266 53.2608 2.5212
# 6 -0.7701 -6.1750 19.4537 -2.9235 2.5212 41.7138
#
#
#
# Elastic Compliance Matrix: (Units=1/GPa)
#
#
# Indices 1 2 3 4 5 6 
#
# 1 0.008092 -0.000867 -0.001038 0.001247 -0.001080 0.000658
# 2 -0.000867 0.006669 -0.002026 0.000843 -0.000768 0.002022
# 3 -0.001038 -0.002026 0.005721 -0.000067 0.001460 -0.003080
# 4 0.001247 0.000843 -0.000067 0.018522 -0.003869 0.001711
# 5 -0.001080 -0.000768 0.001460 -0.003869 0.020048 -0.002298
# 6 0.000658 0.002022 -0.003080 0.001711 -0.002298 0.025979
#
#
# Mechanical properties :
#
#
# Convention : Reuss Voigt Hill
#
# Bulk Modulus (GPa) = 79.24012 86.43406 82.83709
# Shear Modulus (GPa) = 51.49336 57.14278 54.31807
#
# Velocity S-wave (km/s) = 4.26154 4.48923 4.37687
# Velocity P-wave (km/s) = 7.22224 7.57328 7.39984
#
# Compressibility (1/GPa) = 0.01261987
#
# Stress axis : x y z
#
# Youngs Moduli (GPa) = 123.58361 149.94265 174.80654
#
# Poissons Ratio (x) = 0.12999 0.18141
# Poissons Ratio (y) = 0.10714 0.35417
# Poissons Ratio (z) = 0.12825 0.30380
#
# Static dielectric constant tensor:
#      x y z
#    x 5.422350 -0.161400 -0.253160 
#    y -0.161400 5.706210 -0.068880 
#    z -0.253160 -0.068880 6.808320 
# 
# 
# High freq. dielectric constant tensor:
#      x y z
#    x 2.154430 0.004080 0.002240 
#    y 0.004080 2.164090 0.005880 
#    z 0.002240 0.005880 2.193370 
# 
# From -- ./inp_files/228575.got.cif
#   From: 2010.06.25/outbox.cif.g09.slc.cpg/sg2_115_cif.got.tgz:228575.got - 2010.06.27 13:26:56.
