data_PCOD8035324
_publ_section_title
;
Structure prediction by ZEFSAII (Michael W. Deem and Ramdas Pophale) SiO2 
 PCOD8035324
Probable space group: P -1
;
_chemical_formula_sum "Si O2"
_cell_formula_units_Z 16
_cell_length_a 9.279607
_cell_length_b 9.724506
_cell_length_c 11.545522
_cell_angle_alpha 82.595205
_cell_angle_beta 47.076353
_cell_angle_gamma 76.247263
_cell_volume 740.245346
_symmetry_space_group_name_H-M "P -1"
_symmetry_group_IT_number 2
_symmetry_cell_setting 'triclinic'
loop_
_space_group_symop_operation_xyz
x,y,z
-x,-y,-z
loop_
_atom_site_type_symbol
_atom_site_label
_atom_site_fract_x
_atom_site_fract_y
_atom_site_fract_z
Si Si1 0.042784 0.871765 0.080451
Si Si2 0.487404 0.596489 0.111908
Si Si3 0.771535 0.906475 0.632376
Si Si4 0.206793 0.777274 0.417266
Si Si5 0.174231 0.587425 0.902969
Si Si6 0.401912 0.658497 0.559636
Si Si7 0.672593 0.867059 0.438885
Si Si8 0.549329 0.130261 0.024670
O O1 0.831961 0.861013 0.251199
O O2 0.118109 0.719223 0.002432
O O3 0.212740 0.891961 0.077866
O O4 0.000000 0.000000 0.000000
O O5 0.275294 0.657002 0.291618
O O6 0.633725 0.519098 0.138616
O O7 0.500000 0.500000 0.000000
O O8 0.548055 0.737239 0.016063
O O9 0.788560 0.890025 0.488184
O O10 0.574788 0.852817 0.788889
O O11 0.972438 0.798384 0.578061
O O12 0.758694 0.069257 0.662766
O O13 0.328747 0.738526 0.472803
O O14 0.219661 0.654446 0.748213
O O15 0.000000 0.500000 0.000000
O O16 0.500000 0.500000 0.500000
O O17 0.575436 0.728835 0.512785
O O18 0.500000 0.000000 0.500000
O O19 0.500000 0.000000 0.000000
#
# Coordination Sequence:
#
# PCOD8035324 Si02
#       8
#     2   2   2   2   2   2   2   2
#     4  12  28  46  72 108 147 189 247 304 366 438
#     4  12  26  50  71 101 153 191 243 305 367 441
#     4  11  25  43  73 109 140 189 248 299 362 428
#     4  11  25  46  72 105 148 188 243 302 360 434
#     4  12  28  47  74 107 147 196 244 302 372 435
#     4  12  25  47  73 104 147 192 241 298 365 438
#     4  12  25  46  73 104 145 190 241 300 360 432
#     4  12  26  45  75 104 144 194 244 301 368 432
#
# _framework density 21.614456000000001
#
# number of rings (size 3 to 8) (size 9 to 14) (size 15 to 20)
#    0.000    0.250    5.000    3.750    5.250    0.000 
#    0.000    1.250    0.000    0.000    0.000    0.000 
#    0.000    0.000    0.000    0.000    0.000    0.000 
#
# Total GULP energy -198327.861045 kJ/mol
# GULP energy per Si atom -12395.491315 kJ/mol
# Density = 2.156526 g / cm^3
# Si number density = 21.614456 Si / 1000 Ang^3
#
#
#
# Elastic Constant Matrix: (Units=GPa)
#
#
# Indices 1 2 3 4 5 6 
#
# 1 91.3139 42.8244 27.5442 11.3666 -7.0241 2.5586
# 2 42.8244 139.9648 43.5045 13.4104 -8.3153 3.7521
# 3 27.5442 43.5045 140.5067 0.3046 -11.3664 1.3383
# 4 11.3666 13.4104 0.3046 45.2060 2.3995 -0.9569
# 5 -7.0241 -8.3153 -11.3664 2.3995 39.2931 -0.6048
# 6 2.5586 3.7521 1.3383 -0.9569 -0.6048 45.4778
#
#
#
# Elastic Compliance Matrix: (Units=1/GPa)
#
#
# Indices 1 2 3 4 5 6 
#
# 1 0.013372 -0.003301 -0.001476 -0.002458 0.001408 -0.000470
# 2 -0.003301 0.009045 -0.002077 -0.001895 0.000831 -0.000528
# 3 -0.001476 -0.002077 0.008178 0.000848 0.001611 0.000053
# 4 -0.002458 -0.001895 0.000848 0.023418 -0.002014 0.000736
# 5 0.001408 0.000831 0.001611 -0.002014 0.026468 0.000114
# 6 -0.000470 -0.000528 0.000053 0.000736 0.000114 0.022074
#
#
# Mechanical properties :
#
#
# Convention : Reuss Voigt Hill
#
# Bulk Modulus (GPa) = 59.21674 66.61463 62.91569
# Shear Modulus (GPa) = 41.02021 43.18954 42.10488
#
# Velocity S-wave (km/s) = 4.36112 4.47495 4.41840
# Velocity P-wave (km/s) = 7.26742 7.58858 7.42974
#
# Compressibility (1/GPa) = 0.01688712
#
# Stress axis : x y z
#
# Youngs Moduli (GPa) = 74.78432 110.55438 122.28637
#
# Poissons Ratio (x) = 0.36493 0.18044
# Poissons Ratio (y) = 0.24686 0.25402
# Poissons Ratio (z) = 0.11035 0.22965
#
# Static dielectric constant tensor:
#      x y z
#    x 3.614320 -0.064050 0.071320 
#    y -0.064050 3.544290 -0.093240 
#    z 0.071320 -0.093240 4.141640 
# 
# 
# High freq. dielectric constant tensor:
#      x y z
#    x 1.847660 -0.007040 0.007170 
#    y -0.007040 1.862690 0.008080 
#    z 0.007170 0.008080 1.868040 
# 
# From -- ./inp_files/186704.got.cif
#   From: 2010.06.25/outbox.cif.g09.slc.cpg/sg2_94_cif.got.tgz:186704.got - 2010.06.27 13:26:56.
