data_PCOD8035987
_publ_section_title
;
Structure prediction by ZEFSAII (Michael W. Deem and Ramdas Pophale) SiO2 
 PCOD8035987
Probable space group: P -1
;
_chemical_formula_sum "Si O2"
_cell_formula_units_Z 14
_cell_length_a 9.465868
_cell_length_b 9.443164
_cell_length_c 24.926334
_cell_angle_alpha 27.824448
_cell_angle_beta 34.440522
_cell_angle_gamma 45.022222
_cell_volume 586.027033
_symmetry_space_group_name_H-M "P -1"
_symmetry_group_IT_number 2
_symmetry_cell_setting 'triclinic'
loop_
_space_group_symop_operation_xyz
x,y,z
-x,-y,-z
loop_
_atom_site_type_symbol
_atom_site_label
_atom_site_fract_x
_atom_site_fract_y
_atom_site_fract_z
Si Si1 0.599111 0.013673 0.904091
Si Si2 0.722492 0.071951 0.071067
Si Si3 0.508113 0.570413 0.388969
Si Si4 0.839368 0.785777 0.454859
Si Si5 0.050373 0.342388 0.145272
Si Si6 0.259619 0.851585 0.467398
Si Si7 0.482534 0.336476 0.304310
O O1 0.673183 0.369790 0.752597
O O2 0.407593 0.888825 0.958850
O O3 0.841731 0.819691 0.887126
O O4 0.500000 0.000000 0.000000
O O5 0.593385 0.788409 0.239997
O O6 0.743243 0.389121 0.991363
O O7 0.000000 0.000000 0.000000
O O8 0.353442 0.265087 0.517564
O O9 0.321256 0.758425 0.419315
O O10 0.731386 0.448235 0.396290
O O11 0.669119 0.842614 0.540496
O O12 0.000000 0.500000 0.500000
O O13 0.022991 0.090363 0.285870
O O14 0.773967 0.452655 0.184542
O O15 0.468757 0.119421 0.329575
O O16 0.000000 0.000000 0.500000
#
# Coordination Sequence:
#
# PCOD8035987 Si02
#       7
#     2   2   2   2   2   2   2
#     4  12  29  49  73 111 154 197 255 309 373 451
#     4  12  26  51  76 109 150 205 249 302 378 452
#     4  11  25  49  71 107 151 190 252 304 367 455
#     4  12  22  46  78 106 143 189 256 310 368 447
#     4  12  26  47  78 104 150 198 247 315 370 444
#     4  11  27  45  76 110 149 194 243 314 379 434
#     4  12  25  47  72 111 143 195 252 307 379 435
#
# _framework density 23.889685
#
# number of rings (size 3 to 8) (size 9 to 14) (size 15 to 20)
#    0.000    0.286    5.714    1.714    4.000    2.857 
#    0.000    0.000    0.000    0.000    0.000    0.000 
#    0.000    0.000    0.000    0.000    0.000    0.000 
#
# Total GULP energy -173545.261110 kJ/mol
# GULP energy per Si atom -12396.090079 kJ/mol
# Density = 2.383531 g / cm^3
# Si number density = 23.889685 Si / 1000 Ang^3
#
#
#
# Elastic Constant Matrix: (Units=GPa)
#
#
# Indices 1 2 3 4 5 6 
#
# 1 82.9110 26.4757 25.5302 11.3145 11.5944 1.0796
# 2 26.4757 143.9698 20.2130 12.5129 14.3192 -0.5386
# 3 25.5302 20.2130 84.0311 -4.3166 1.3982 9.6811
# 4 11.3145 12.5129 -4.3166 46.1882 5.9267 -0.6252
# 5 11.5944 14.3192 1.3982 5.9267 27.5798 -2.6334
# 6 1.0796 -0.5386 9.6811 -0.6252 -2.6334 48.6654
#
#
#
# Elastic Compliance Matrix: (Units=1/GPa)
#
#
# Indices 1 2 3 4 5 6 
#
# 1 0.014897 -0.001408 -0.004293 -0.003071 -0.004633 0.000218
# 2 -0.001408 0.007856 -0.001517 -0.001529 -0.003059 0.000235
# 3 -0.004293 -0.001517 0.013986 0.002596 0.001076 -0.002612
# 4 -0.003071 -0.001529 0.002596 0.023456 -0.003119 -0.000333
# 5 -0.004633 -0.003059 0.001076 -0.003119 0.040602 0.002012
# 6 0.000218 0.000235 -0.002612 -0.000333 0.002012 0.021170
#
#
# Mechanical properties :
#
#
# Convention : Reuss Voigt Hill
#
# Bulk Modulus (GPa) = 44.83684 50.59441 47.71563
# Shear Modulus (GPa) = 34.76171 40.39955 37.58063
#
# Velocity S-wave (km/s) = 3.81871 4.11674 3.97052
# Velocity P-wave (km/s) = 6.18485 6.61975 6.40599
#
# Compressibility (1/GPa) = 0.02230309
#
# Stress axis : x y z
#
# Youngs Moduli (GPa) = 67.12793 127.29440 71.50083
#
# Poissons Ratio (x) = 0.17926 0.30695
# Poissons Ratio (y) = 0.09453 0.10843
# Poissons Ratio (z) = 0.28818 0.19304
#
# Static dielectric constant tensor:
#      x y z
#    x 4.531080 0.066380 -0.230330 
#    y 0.066380 4.621550 -0.173070 
#    z -0.230330 -0.173070 4.140460 
# 
# 
# High freq. dielectric constant tensor:
#      x y z
#    x 1.942510 -0.002430 -0.001480 
#    y -0.002430 1.982120 -0.015700 
#    z -0.001480 -0.015700 1.931810 
# 
# From -- ./inp_files/606536.got.cif
#   From: 2010.06.25/outbox.cif.g09.slc.cpg/sg2_304_cif.got.tgz:606536.got - 2010.06.27 13:26:56.
