data_PCOD8035562
_publ_section_title
;
Structure prediction by ZEFSAII (Michael W. Deem and Ramdas Pophale) SiO2 
 PCOD8035562
Probable space group: P -1
;
_chemical_formula_sum "Si O2"
_cell_formula_units_Z 16
_cell_length_a 31.879710
_cell_length_b 9.952362
_cell_length_c 16.057350
_cell_angle_alpha 136.566902
_cell_angle_beta 162.291209
_cell_angle_gamma 35.967815
_cell_volume 881.072578
_symmetry_space_group_name_H-M "P -1"
_symmetry_group_IT_number 2
_symmetry_cell_setting 'triclinic'
loop_
_space_group_symop_operation_xyz
x,y,z
-x,-y,-z
loop_
_atom_site_type_symbol
_atom_site_label
_atom_site_fract_x
_atom_site_fract_y
_atom_site_fract_z
Si Si1 0.782507 0.664046 0.246166
Si Si2 0.126868 0.095428 0.053488
Si Si3 0.578445 0.002162 0.343115
Si Si4 0.034204 0.154927 0.427850
Si Si5 0.193111 0.358589 0.525580
Si Si6 0.093579 0.466374 0.047430
Si Si7 0.383421 0.399990 0.656876
Si Si8 0.276035 0.681540 0.742630
O O1 0.894032 0.386335 0.315424
O O2 0.772357 0.716738 0.348029
O O3 0.856912 0.796699 0.404175
O O4 0.598983 0.763557 0.909279
O O5 0.121037 0.214468 0.007688
O O6 0.313916 0.925972 0.368457
O O7 0.034856 0.321636 0.040531
O O8 0.051953 0.940219 0.835582
O O9 0.672490 0.868153 0.375872
O O10 0.547166 0.841721 0.271414
O O11 0.151234 0.965399 0.634867
O O12 0.215396 0.570606 0.643912
O O13 0.999004 0.453236 0.181071
O O14 0.272070 0.433691 0.380034
O O15 0.269921 0.609009 0.602597
O O16 0.536975 0.406041 0.917322
#
# Coordination Sequence:
#
# PCOD8035562 Si02
#       8
#     2   2   2   2   2   2   2   2
#     4  11  24  36  49  76 113 148 169 203 262 316
#     4   9  16  31  56  79  99 131 179 217 254 306
#     4   9  18  34  55  78 106 134 170 221 261 302
#     4  11  21  37  54  73 107 146 180 204 246 328
#     4  10  20  34  55  80 107 131 172 227 264 295
#     4   9  15  30  54  84 103 123 167 231 270 286
#     4   9  16  28  57  83 101 125 175 223 258 298
#     4  10  17  31  55  82  97 133 179 220 253 296
#
# _framework density 18.159683000000001
#
# number of rings (size 3 to 8) (size 9 to 14) (size 15 to 20)
#    0.000    2.250    3.750    1.875    0.000    1.000 
#    0.000    3.750    0.000    0.750    0.000    0.000 
#    0.000    0.000    0.000    0.000    0.000    0.000 
#
# Total GULP energy -198296.282346 kJ/mol
# GULP energy per Si atom -12393.517647 kJ/mol
# Density = 1.811835 g / cm^3
# Si number density = 18.159683 Si / 1000 Ang^3
#
#
#
# Elastic Constant Matrix: (Units=GPa)
#
#
# Indices 1 2 3 4 5 6 
#
# 1 31.4316 -0.6005 17.4451 -1.3668 4.6161 -1.5115
# 2 -0.6005 58.3543 20.4856 -3.2962 10.8466 -0.9852
# 3 17.4451 20.4856 119.7024 -2.4301 -2.5087 0.8786
# 4 -1.3668 -3.2962 -2.4301 27.8493 0.6166 1.8714
# 5 4.6161 10.8466 -2.5087 0.6166 14.1149 -0.3264
# 6 -1.5115 -0.9852 0.8786 1.8714 -0.3264 8.2328
#
#
#
# Elastic Compliance Matrix: (Units=1/GPa)
#
#
# Indices 1 2 3 4 5 6 
#
# 1 0.039284 0.006795 -0.007307 0.002012 -0.019280 0.007584
# 2 0.006795 0.023225 -0.005371 0.002871 -0.021077 0.003111
# 3 -0.007307 -0.005371 0.010531 -0.000074 0.008328 -0.002761
# 4 0.002012 0.002871 -0.000074 0.036972 -0.004675 -0.007869
# 5 -0.019280 -0.021077 0.008328 -0.004675 0.094984 -0.002122
# 6 0.007584 0.003111 -0.002761 -0.007869 -0.002122 0.125229
#
#
# Mechanical properties :
#
#
# Convention : Reuss Voigt Hill
#
# Bulk Modulus (GPa) = 16.32029 31.57209 23.94619
# Shear Modulus (GPa) = 13.79630 21.51660 17.65645
#
# Velocity S-wave (km/s) = 2.75929 3.44591 3.12154
# Velocity P-wave (km/s) = 4.37701 5.76680 5.11928
#
# Compressibility (1/GPa) = 0.06127343
#
# Stress axis : x y z
#
# Youngs Moduli (GPa) = 25.45567 43.05775 94.95391
#
# Poissons Ratio (x) = -0.29256 0.69381
# Poissons Ratio (y) = -0.17296 0.51001
# Poissons Ratio (z) = 0.18600 0.23127
#
# Static dielectric constant tensor:
#      x y z
#    x 2.855290 0.071430 -0.025110 
#    y 0.071430 3.232320 0.014240 
#    z -0.025110 0.014240 3.704650 
# 
# 
# High freq. dielectric constant tensor:
#      x y z
#    x 1.649190 0.010170 -0.000180 
#    y 0.010170 1.690760 -0.000990 
#    z -0.000180 -0.000990 1.729690 
# 
# From -- ./inp_files/271630.got.cif
#   From: 2010.06.25/outbox.cif.g09.slc.cpg/sg2_136_cif.got.tgz:271630.got - 2010.06.27 13:26:56.
