data_PCOD8035917
_publ_section_title
;
Structure prediction by ZEFSAII (Michael W. Deem and Ramdas Pophale) SiO2 
 PCOD8035917
Probable space group: P -1
;
_chemical_formula_sum "Si O2"
_cell_formula_units_Z 14
_cell_length_a 16.318445
_cell_length_b 9.167088
_cell_length_c 11.268145
_cell_angle_alpha 39.416682
_cell_angle_beta 147.387361
_cell_angle_gamma 129.748177
_cell_volume 576.529526
_symmetry_space_group_name_H-M "P -1"
_symmetry_group_IT_number 2
_symmetry_cell_setting 'triclinic'
loop_
_space_group_symop_operation_xyz
x,y,z
-x,-y,-z
loop_
_atom_site_type_symbol
_atom_site_label
_atom_site_fract_x
_atom_site_fract_y
_atom_site_fract_z
Si Si1 0.166673 0.875638 0.713663
Si Si2 0.257977 0.365236 0.576420
Si Si3 0.940768 0.869633 0.238727
Si Si4 0.401162 0.653547 0.975198
Si Si5 0.863140 0.339465 0.937684
Si Si6 0.799317 0.250934 0.547898
Si Si7 0.342624 0.144810 0.232194
O O1 0.019245 0.800658 0.504230
O O2 0.150982 0.146292 0.559304
O O3 0.317570 0.835190 0.845852
O O4 0.184935 0.731083 0.946051
O O5 0.425484 0.274903 0.871779
O O6 0.276582 0.517607 0.383704
O O7 0.182122 0.534715 0.475870
O O8 0.042402 0.772652 0.315377
O O9 0.764158 0.794183 0.053766
O O10 0.921363 0.142447 0.042418
O O11 0.385322 0.396436 0.172052
O O12 0.339029 0.681789 0.749386
O O13 0.000000 0.500000 0.000000
O O14 0.763957 0.003601 0.718791
O O15 0.500000 0.000000 0.500000
#
# Coordination Sequence:
#
# PCOD8035917 Si02
#       7
#     2   2   2   2   2   2   2
#     4  11  28  47  72 104 146 191 242 296 354 435
#     4  12  25  46  74 106 145 191 237 297 364 425
#     4  11  25  48  71 108 141 189 239 298 359 423
#     4  11  27  46  72 108 143 192 238 297 363 425
#     4  12  26  44  70 103 143 187 243 291 359 423
#     4  11  26  45  74 107 145 189 239 302 355 433
#     4  12  25  45  74 109 145 183 241 294 365 423
#
# _framework density 24.283232000000002
#
# number of rings (size 3 to 8) (size 9 to 14) (size 15 to 20)
#    0.000    0.571    4.286    1.714    4.000    4.000 
#    0.000    0.000    0.000    0.000    0.000    0.000 
#    0.000    0.000    0.000    0.000    0.000    0.000 
#
# Total GULP energy -173478.586480 kJ/mol
# GULP energy per Si atom -12391.327606 kJ/mol
# Density = 2.422796 g / cm^3
# Si number density = 24.283232 Si / 1000 Ang^3
#
#
#
# Elastic Constant Matrix: (Units=GPa)
#
#
# Indices 1 2 3 4 5 6 
#
# 1 91.4286 35.7366 37.2432 9.6892 -13.4378 -12.5433
# 2 35.7366 83.2856 10.0371 6.9064 -15.7469 -12.8170
# 3 37.2432 10.0371 128.7998 26.5997 -10.4500 -4.0995
# 4 9.6892 6.9064 26.5997 39.8863 9.7881 0.5111
# 5 -13.4378 -15.7469 -10.4500 9.7881 44.7726 -4.2150
# 6 -12.5433 -12.8170 -4.0995 0.5111 -4.2150 22.4020
#
#
#
# Elastic Compliance Matrix: (Units=1/GPa)
#
#
# Indices 1 2 3 4 5 6 
#
# 1 0.015586 -0.004602 -0.003360 -0.001613 0.003204 0.006119
# 2 -0.004602 0.016800 0.001850 -0.004815 0.006838 0.008770
# 3 -0.003360 0.001850 0.010527 -0.007515 0.003931 0.002014
# 4 -0.001613 -0.004815 -0.007515 0.034411 -0.012219 -0.008117
# 5 0.003204 0.006838 0.003931 -0.012219 0.030461 0.012436
# 6 0.006119 0.008770 0.002014 -0.008117 0.012436 0.055976
#
#
# Mechanical properties :
#
#
# Convention : Reuss Voigt Hill
#
# Bulk Modulus (GPa) = 32.58571 52.17196 42.37883
# Shear Modulus (GPa) = 26.85061 36.11198 31.48129
#
# Velocity S-wave (km/s) = 3.32885 3.86050 3.60449
# Velocity P-wave (km/s) = 5.31255 6.43449 5.90025
#
# Compressibility (1/GPa) = 0.03068830
#
# Stress axis : x y z
#
# Youngs Moduli (GPa) = 64.15874 59.52276 94.99821
#
# Poissons Ratio (x) = 0.27391 0.31924
# Poissons Ratio (y) = 0.29524 -0.17572
# Poissons Ratio (z) = 0.21560 -0.11010
#
# Static dielectric constant tensor:
#      x y z
#    x 3.734320 -0.104770 0.406320 
#    y -0.104770 4.422900 0.084130 
#    z 0.406320 0.084130 4.056420 
# 
# 
# High freq. dielectric constant tensor:
#      x y z
#    x 1.950310 -0.004790 -0.004850 
#    y -0.004790 1.973710 0.000850 
#    z -0.004850 0.000850 1.992460 
# 
# From -- ./inp_files/461839.got.cif
#   From: 2010.06.25/outbox.cif.g09.slc.cpg/sg2_231_cif.got.tgz:461839.got - 2010.06.27 13:26:56.
