data_PCOD8035418
_publ_section_title
;
Structure prediction by ZEFSAII (Michael W. Deem and Ramdas Pophale) SiO2 
 PCOD8035418
Probable space group: P -1
;
_chemical_formula_sum "Si O2"
_cell_formula_units_Z 16
_cell_length_a 11.770535
_cell_length_b 8.959288
_cell_length_c 8.854936
_cell_angle_alpha 85.150773
_cell_angle_beta 133.427650
_cell_angle_gamma 87.099574
_cell_volume 668.071428
_symmetry_space_group_name_H-M "P -1"
_symmetry_group_IT_number 2
_symmetry_cell_setting 'triclinic'
loop_
_space_group_symop_operation_xyz
x,y,z
-x,-y,-z
loop_
_atom_site_type_symbol
_atom_site_label
_atom_site_fract_x
_atom_site_fract_y
_atom_site_fract_z
Si Si1 0.794829 0.822201 0.104685
Si Si2 0.780653 0.569310 0.538671
Si Si3 0.319535 0.574704 0.808366
Si Si4 0.419377 0.938761 0.285257
Si Si5 0.725878 0.325767 0.707114
Si Si6 0.856137 0.495247 0.074892
Si Si7 0.701170 0.887091 0.346805
Si Si8 0.848281 0.160211 0.552223
O O1 0.768072 0.667573 0.006647
O O2 0.695995 0.847698 0.168468
O O3 0.974701 0.815450 0.325901
O O4 0.743813 0.956342 0.923848
O O5 0.761808 0.550551 0.343643
O O6 0.660445 0.467697 0.522308
O O7 0.744142 0.747062 0.516211
O O8 0.959192 0.500158 0.745077
O O9 0.222398 0.609419 0.870896
O O10 0.289113 0.731892 0.674705
O O11 0.500000 0.500000 0.000000
O O12 0.397780 0.761591 0.308152
O O13 0.525731 0.955907 0.233459
O O14 0.500000 0.000000 0.500000
O O15 0.823245 0.191465 0.706200
O O16 0.832900 0.416033 0.902147
O O17 0.830326 0.992046 0.500384
#
# Coordination Sequence:
#
# PCOD8035418 Si02
#       8
#     2   2   2   2   2   2   2   2
#     4  12  27  48  79 109 147 199 250 313 364 442
#     4  11  25  49  74 110 148 196 253 305 369 442
#     4  11  25  44  73 109 152 195 243 309 368 441
#     4  12  30  51  71 111 156 200 243 306 382 447
#     4  11  27  47  74 109 150 195 247 305 374 445
#     4  12  25  45  78 111 147 193 256 304 371 439
#     4  12  27  48  77 109 150 195 250 311 371 441
#     4  11  26  50  74 110 151 194 256 300 375 443
#
# _framework density 23.949534
#
# number of rings (size 3 to 8) (size 9 to 14) (size 15 to 20)
#    0.000    0.500    5.000    2.250    8.750    1.000 
#    0.000    0.000    0.000    0.000    0.000    0.000 
#    0.000    0.000    0.000    0.000    0.000    0.000 
#
# Total GULP energy -198232.241785 kJ/mol
# GULP energy per Si atom -12389.515112 kJ/mol
# Density = 2.389502 g / cm^3
# Si number density = 23.949534 Si / 1000 Ang^3
#
#
#
# Elastic Constant Matrix: (Units=GPa)
#
#
# Indices 1 2 3 4 5 6 
#
# 1 79.6594 21.1193 35.1890 0.8285 -12.6086 9.8365
# 2 21.1193 162.1769 57.6165 4.1681 -8.9087 8.4805
# 3 35.1890 57.6165 116.8507 -2.8190 -4.2185 -6.4768
# 4 0.8285 4.1681 -2.8190 34.6800 -0.0847 -6.2149
# 5 -12.6086 -8.9087 -4.2185 -0.0847 30.3019 4.8443
# 6 9.8365 8.4805 -6.4768 -6.2149 4.8443 34.6086
#
#
#
# Elastic Compliance Matrix: (Units=1/GPa)
#
#
# Indices 1 2 3 4 5 6 
#
# 1 0.017054 0.000668 -0.005661 -0.002284 0.007706 -0.007559
# 2 0.000668 0.007993 -0.004299 -0.001978 0.002611 -0.003674
# 3 -0.005661 -0.004299 0.012676 0.002736 -0.002793 0.005917
# 4 -0.002284 -0.001978 0.002736 0.030683 -0.002260 0.007472
# 5 0.007706 0.002611 -0.002793 -0.002260 0.038032 -0.009082
# 6 -0.007559 -0.003674 0.005917 0.007472 -0.009082 0.035663
#
#
# Mechanical properties :
#
#
# Convention : Reuss Voigt Hill
#
# Bulk Modulus (GPa) = 52.25300 65.17074 58.71187
# Shear Modulus (GPa) = 29.92838 36.23559 33.08198
#
# Velocity S-wave (km/s) = 3.53886 3.89395 3.72064
# Velocity P-wave (km/s) = 6.20994 6.89114 6.55939
#
# Compressibility (1/GPa) = 0.01913766
#
# Stress axis : x y z
#
# Youngs Moduli (GPa) = 58.63734 125.11070 78.89162
#
# Poissons Ratio (x) = -0.08351 0.44658
# Poissons Ratio (y) = -0.03914 0.33917
# Poissons Ratio (z) = 0.33193 0.53788
#
# Static dielectric constant tensor:
#      x y z
#    x 4.407250 -0.082700 -0.359660 
#    y -0.082700 4.494820 0.045690 
#    z -0.359660 0.045690 4.277960 
# 
# 
# High freq. dielectric constant tensor:
#      x y z
#    x 1.951600 0.001030 -0.018090 
#    y 0.001030 1.963850 0.003480 
#    z -0.018090 0.003480 1.940170 
# 
# From -- ./inp_files/243701.got.cif
#   From: 2010.06.25/outbox.cif.g09.slc.cpg/sg2_122_cif.got.tgz:243701.got - 2010.06.27 13:26:56.
