data_PCOD8035726
_publ_section_title
;
Structure prediction by ZEFSAII (Michael W. Deem and Ramdas Pophale) SiO2 
 PCOD8035726
Probable space group: P -1
;
_chemical_formula_sum "Si O2"
_cell_formula_units_Z 14
_cell_length_a 11.494904
_cell_length_b 9.404961
_cell_length_c 8.567658
_cell_angle_alpha 82.885158
_cell_angle_beta 39.025246
_cell_angle_gamma 83.835654
_cell_volume 578.636930
_symmetry_space_group_name_H-M "P -1"
_symmetry_group_IT_number 2
_symmetry_cell_setting 'triclinic'
loop_
_space_group_symop_operation_xyz
x,y,z
-x,-y,-z
loop_
_atom_site_type_symbol
_atom_site_label
_atom_site_fract_x
_atom_site_fract_y
_atom_site_fract_z
Si Si1 0.831717 0.464114 0.799289
Si Si2 0.725792 0.774097 0.918809
Si Si3 0.983219 0.343792 0.964937
Si Si4 0.766227 0.904321 0.342038
Si Si5 0.110363 0.851537 0.626386
Si Si6 0.361397 0.979734 0.830725
Si Si7 0.381257 0.768703 0.098290
O O1 0.752563 0.606224 0.946915
O O2 0.667443 0.390996 0.884630
O O3 0.000000 0.500000 0.500000
O O4 0.880117 0.356657 0.904953
O O5 0.930444 0.842638 0.701841
O O6 0.605512 0.787297 0.880690
O O7 0.605731 0.856882 0.165155
O O8 0.172703 0.260106 0.729416
O O9 0.000000 0.500000 0.000000
O O10 0.888248 0.245939 0.206565
O O11 0.545143 0.901569 0.587211
O O12 0.864262 0.981713 0.374658
O O13 0.797784 0.003798 0.139094
O O14 0.288869 0.795050 0.357422
O O15 0.291267 0.886150 0.060714
#
# Coordination Sequence:
#
# PCOD8035726 Si02
#       7
#     2   2   2   2   2   2   2
#     4  12  26  47  74 104 141 194 237 288 361 425
#     4  12  25  48  70 105 148 185 240 296 351 424
#     4  12  24  47  74 104 142 188 236 294 357 420
#     4  11  25  46  74 107 144 184 244 296 354 422
#     4  12  25  46  75 105 144 189 240 293 355 423
#     4  11  25  47  72 108 141 190 237 297 357 418
#     4  12  27  47  71 107 148 185 241 289 359 421
#
# _framework density 24.194792
#
# number of rings (size 3 to 8) (size 9 to 14) (size 15 to 20)
#    0.000    0.286    5.714    2.143    4.000    0.571 
#    2.571    0.714    0.000    0.000    0.000    0.000 
#    0.000    0.000    0.000    0.000    0.000    0.000 
#
# Total GULP energy -173437.352776 kJ/mol
# GULP energy per Si atom -12388.382341 kJ/mol
# Density = 2.413972 g / cm^3
# Si number density = 24.194792 Si / 1000 Ang^3
#
#
#
# Elastic Constant Matrix: (Units=GPa)
#
#
# Indices 1 2 3 4 5 6 
#
# 1 150.1462 49.7736 21.7886 -5.3228 -16.1175 12.5352
# 2 49.7736 165.0258 46.4038 38.8139 -6.0280 15.4573
# 3 21.7886 46.4038 64.9802 9.4114 5.2981 1.0652
# 4 -5.3228 38.8139 9.4114 36.3617 -0.6985 2.2528
# 5 -16.1175 -6.0280 5.2981 -0.6985 32.2200 -4.3103
# 6 12.5352 15.4573 1.0652 2.2528 -4.3103 51.2027
#
#
#
# Elastic Compliance Matrix: (Units=1/GPa)
#
#
# Indices 1 2 3 4 5 6 
#
# 1 0.008633 -0.003078 -0.001751 0.005144 0.004004 -0.001037
# 2 -0.003078 0.011351 -0.005530 -0.010994 0.000989 -0.001991
# 3 -0.001751 -0.005530 0.020287 0.000221 -0.005076 0.001239
# 4 0.005144 -0.010994 0.000221 0.039933 0.001401 0.000416
# 5 0.004004 0.000989 -0.005076 0.001401 0.034311 0.001654
# 6 -0.001037 -0.001991 0.001239 0.000416 0.001654 0.020480
#
#
# Mechanical properties :
#
#
# Convention : Reuss Voigt Hill
#
# Bulk Modulus (GPa) = 51.14143 68.45382 59.79763
# Shear Modulus (GPa) = 30.82009 41.43596 36.12802
#
# Velocity S-wave (km/s) = 3.57295 4.14284 3.86841
# Velocity P-wave (km/s) = 6.18098 7.15810 6.68741
#
# Compressibility (1/GPa) = 0.01955362
#
# Stress axis : x y z
#
# Youngs Moduli (GPa) = 115.83014 88.09603 49.29261
#
# Poissons Ratio (x) = 0.27115 0.08633
# Poissons Ratio (y) = 0.35651 0.27258
# Poissons Ratio (z) = 0.20285 0.48716
#
# Static dielectric constant tensor:
#      x y z
#    x 4.766350 -0.016380 0.267700 
#    y -0.016380 4.526670 0.232010 
#    z 0.267700 0.232010 4.233820 
# 
# 
# High freq. dielectric constant tensor:
#      x y z
#    x 1.980240 0.004030 0.009250 
#    y 0.004030 1.967180 0.023130 
#    z 0.009250 0.023130 1.942420 
# 
# From -- ./inp_files/191064.got.cif
#   From: 2010.06.25/outbox.cif.g09.slc.cpg/sg2_96_cif.got.tgz:191064.got - 2010.06.27 13:26:56.
