data_PCOD8035642
_publ_section_title
;
Structure prediction by ZEFSAII (Michael W. Deem and Ramdas Pophale) SiO2 
 PCOD8035642
Probable space group: P -1
;
_chemical_formula_sum "Si O2"
_cell_formula_units_Z 16
_cell_length_a 10.794819
_cell_length_b 9.303191
_cell_length_c 18.630403
_cell_angle_alpha 150.036662
_cell_angle_beta 54.135528
_cell_angle_gamma 116.313268
_cell_volume 747.673195
_symmetry_space_group_name_H-M "P -1"
_symmetry_group_IT_number 2
_symmetry_cell_setting 'triclinic'
loop_
_space_group_symop_operation_xyz
x,y,z
-x,-y,-z
loop_
_atom_site_type_symbol
_atom_site_label
_atom_site_fract_x
_atom_site_fract_y
_atom_site_fract_z
Si Si1 0.876149 0.598205 0.684399
Si Si2 0.658664 0.638466 0.307483
Si Si3 0.440000 0.821535 0.187396
Si Si4 0.003102 0.489096 0.910605
Si Si5 0.938779 0.079004 0.132784
Si Si6 0.869741 0.915451 0.675239
Si Si7 0.608268 0.327499 0.329782
Si Si8 0.392319 0.750178 0.340560
O O1 0.832969 0.788789 0.710174
O O2 0.723312 0.483063 0.713853
O O3 0.927306 0.808510 0.818305
O O4 0.015774 0.332642 0.512159
O O5 0.829260 0.476236 0.162400
O O6 0.576829 0.479711 0.329239
O O7 0.559282 0.622999 0.262172
O O8 0.673365 0.965631 0.467832
O O9 0.411899 0.826636 0.284180
O O10 0.286111 0.987983 0.274111
O O11 0.575420 0.998826 0.195893
O O12 0.500000 0.500000 0.000000
O O13 0.951697 0.197538 0.773647
O O14 0.000000 0.500000 0.000000
O O15 0.890429 0.781542 0.051910
O O16 0.786661 0.324556 0.290146
O O17 0.000000 0.000000 0.000000
O O18 0.500000 0.500000 0.500000
#
# Coordination Sequence:
#
# PCOD8035642 Si02
#       8
#     2   2   2   2   2   2   2   2
#     4  11  25  46  71 102 136 184 232 286 348 415
#     4  11  25  47  70 103 141 184 237 284 357 422
#     4  12  28  44  69 105 139 181 233 291 354 412
#     4  12  25  45  71 104 141 186 230 292 360 419
#     4  12  27  44  71 106 142 182 237 291 353 416
#     4  11  25  46  71 100 138 182 233 285 346 425
#     4  12  25  47  72 101 139 189 232 286 346 423
#     4  11  26  44  71 102 139 182 231 294 347 420
#
# _framework density 21.399723999999999
#
# number of rings (size 3 to 8) (size 9 to 14) (size 15 to 20)
#    0.000    0.500    5.000    2.250    7.000    1.500 
#    0.000    1.875    0.000    0.000    0.000    0.000 
#    0.000    0.000    0.000    0.000    0.000    0.000 
#
# Total GULP energy -198443.603360 kJ/mol
# GULP energy per Si atom -12402.725210 kJ/mol
# Density = 2.135102 g / cm^3
# Si number density = 21.399724 Si / 1000 Ang^3
#
#
#
# Elastic Constant Matrix: (Units=GPa)
#
#
# Indices 1 2 3 4 5 6 
#
# 1 136.0876 55.6425 38.9915 -1.1733 -0.1163 -16.3701
# 2 55.6425 132.9909 26.1282 7.1614 13.5165 -5.9703
# 3 38.9915 26.1282 82.7906 5.7032 7.7224 -4.4175
# 4 -1.1733 7.1614 5.7032 43.8738 1.0181 3.5909
# 5 -0.1163 13.5165 7.7224 1.0181 34.3552 1.0804
# 6 -16.3701 -5.9703 -4.4175 3.5909 1.0804 42.3037
#
#
#
# Elastic Compliance Matrix: (Units=1/GPa)
#
#
# Indices 1 2 3 4 5 6 
#
# 1 0.010328 -0.003726 -0.003816 0.001089 0.002234 0.002923
# 2 -0.003726 0.009696 -0.000865 -0.001491 -0.003590 0.000055
# 3 -0.003816 -0.000865 0.014550 -0.001797 -0.002895 0.000147
# 4 0.001089 -0.001491 -0.001797 0.023452 0.000361 -0.001977
# 5 0.002234 -0.003590 -0.002895 0.000361 0.031192 -0.000772
# 6 0.002923 0.000055 0.000147 -0.001977 -0.000772 0.024980
#
#
# Mechanical properties :
#
#
# Convention : Reuss Voigt Hill
#
# Bulk Modulus (GPa) = 56.30200 65.93260 61.11730
# Shear Modulus (GPa) = 36.51475 39.51367 38.01421
#
# Velocity S-wave (km/s) = 4.13524 4.30170 4.21929
# Velocity P-wave (km/s) = 7.01193 7.45317 7.23591
#
# Compressibility (1/GPa) = 0.01776136
#
# Stress axis : x y z
#
# Youngs Moduli (GPa) = 96.82629 103.13808 68.72741
#
# Poissons Ratio (x) = 0.38429 0.26224
# Poissons Ratio (y) = 0.36077 0.05942
# Poissons Ratio (z) = 0.36945 0.08917
#
# Static dielectric constant tensor:
#      x y z
#    x 0.842620 -1.275680 -0.381130 
#    y -1.275680 3.512800 -0.004430 
#    z -0.381130 -0.004430 3.820080 
# 
# 
# High freq. dielectric constant tensor:
#      x y z
#    x 1.849070 -0.006100 -0.000480 
#    y -0.006100 1.856760 0.007740 
#    z -0.000480 0.007740 1.848100 
# 
# From -- ./inp_files/317931.got.cif
#   From: 2010.06.25/outbox.cif.g09.slc.cpg/sg2_159_cif.got.tgz:317931.got - 2010.06.27 13:26:56.
