data_PCOD8035147
_publ_section_title
;
Structure prediction by ZEFSAII (Michael W. Deem and Ramdas Pophale) SiO2 
 PCOD8035147
Probable space group: P -1
;
_chemical_formula_sum "Si O2"
_cell_formula_units_Z 16
_cell_length_a 24.288788
_cell_length_b 22.410666
_cell_length_c 6.739091
_cell_angle_alpha 45.571536
_cell_angle_beta 55.823450
_cell_angle_gamma 17.963930
_cell_volume 711.899352
_symmetry_space_group_name_H-M "P -1"
_symmetry_group_IT_number 2
_symmetry_cell_setting 'triclinic'
loop_
_space_group_symop_operation_xyz
x,y,z
-x,-y,-z
loop_
_atom_site_type_symbol
_atom_site_label
_atom_site_fract_x
_atom_site_fract_y
_atom_site_fract_z
Si Si1 0.352807 0.865131 0.871568
Si Si2 0.217764 0.581561 0.805442
Si Si3 0.227014 0.387919 0.143275
Si Si4 0.571161 0.968188 0.117825
Si Si5 0.149862 0.963188 0.236234
Si Si6 0.104913 0.800882 0.140041
Si Si7 0.874429 0.721528 0.852136
Si Si8 0.563064 0.490433 0.063622
O O1 0.230158 0.093137 0.526500
O O2 0.575933 0.625964 0.044545
O O3 0.373281 0.769222 0.882035
O O4 0.229839 0.964722 0.066662
O O5 0.200387 0.621785 0.515541
O O6 0.023125 0.849637 0.687272
O O7 0.208807 0.493332 0.061217
O O8 0.296314 0.238268 0.510669
O O9 0.375557 0.230324 0.024367
O O10 0.015747 0.608663 0.968525
O O11 0.700920 0.891076 0.951459
O O12 0.500000 0.000000 0.000000
O O13 0.335961 0.680903 0.562589
O O14 0.064140 0.045151 0.002785
O O15 0.285261 0.619453 0.063402
O O16 0.000000 0.000000 0.000000
O O17 0.000000 0.500000 0.000000
O O18 0.500000 0.500000 0.000000
#
# Coordination Sequence:
#
# PCOD8035147 Si02
#       8
#     2   2   2   2   2   2   2   2
#     4  12  28  46  73 107 144 190 242 293 358 425
#     4  12  27  46  73 108 143 188 239 291 355 429
#     4  11  27  45  75 106 138 190 238 288 364 426
#     4  11  24  48  75 102 141 184 239 300 355 421
#     4  12  26  48  74 102 150 188 235 296 354 421
#     4  12  23  44  73 102 142 188 235 288 357 420
#     4  12  27  47  75 106 145 189 238 298 360 421
#     4  12  25  46  73 106 146 190 238 296 354 424
#
# _framework density 22.475089000000001
#
# number of rings (size 3 to 8) (size 9 to 14) (size 15 to 20)
#    0.000    0.250    3.750    4.875    7.000    3.000 
#    0.000    0.000    0.000    0.000    0.000    0.000 
#    0.000    0.000    0.000    0.000    0.000    0.000 
#
# Total GULP energy -198441.688763 kJ/mol
# GULP energy per Si atom -12402.605548 kJ/mol
# Density = 2.242394 g / cm^3
# Si number density = 22.475089 Si / 1000 Ang^3
#
#
#
# Elastic Constant Matrix: (Units=GPa)
#
#
# Indices 1 2 3 4 5 6 
#
# 1 116.6319 33.6968 32.4263 -2.0071 4.6650 -16.4804
# 2 33.6968 94.5016 52.9582 6.9264 -2.9866 -23.7490
# 3 32.4263 52.9582 137.5071 4.3777 -7.6524 -8.1303
# 4 -2.0071 6.9264 4.3777 37.3536 -3.0145 -9.3205
# 5 4.6650 -2.9866 -7.6524 -3.0145 40.9694 2.6824
# 6 -16.4804 -23.7490 -8.1303 -9.3205 2.6824 45.7725
#
#
#
# Elastic Compliance Matrix: (Units=1/GPa)
#
#
# Indices 1 2 3 4 5 6 
#
# 1 0.010115 -0.002282 -0.001496 0.001665 -0.001647 0.002628
# 2 -0.002282 0.015981 -0.005214 -0.000889 -0.000031 0.006365
# 3 -0.001496 -0.005214 0.009640 -0.000543 0.001665 -0.001739
# 4 0.001665 -0.000889 -0.000543 0.028646 0.001373 0.005794
# 5 -0.001647 -0.000031 0.001665 0.001373 0.025104 -0.001505
# 6 0.002628 0.006365 -0.001739 0.005794 -0.001505 0.027055
#
#
# Mechanical properties :
#
#
# Convention : Reuss Voigt Hill
#
# Bulk Modulus (GPa) = 56.32884 65.20035 60.76460
# Shear Modulus (GPa) = 35.60201 40.12305 37.86253
#
# Velocity S-wave (km/s) = 3.98435 4.22977 4.10889
# Velocity P-wave (km/s) = 6.80323 7.27514 7.04314
#
# Compressibility (1/GPa) = 0.01775289
#
# Stress axis : x y z
#
# Youngs Moduli (GPa) = 98.86303 62.57403 103.73381
#
# Poissons Ratio (x) = 0.14282 0.15514
# Poissons Ratio (y) = 0.22564 0.54083
# Poissons Ratio (z) = 0.14785 0.32624
#
# Static dielectric constant tensor:
#      x y z
#    x 4.137190 -0.150830 -0.034910 
#    y -0.150830 4.420350 0.238010 
#    z -0.034910 0.238010 4.466180 
# 
# 
# High freq. dielectric constant tensor:
#      x y z
#    x 1.894880 -0.014740 -0.000530 
#    y -0.014740 1.898560 0.005910 
#    z -0.000530 0.005910 1.896060 
# 
# From -- ./inp_files/124997.got.cif
#   From: 2010.06.25/outbox.cif.g09.slc.cpg/sg2_63_cif.got.tgz:124997.got - 2010.06.27 13:26:56.
