data_PCOD8035925
_publ_section_title
;
Structure prediction by ZEFSAII (Michael W. Deem and Ramdas Pophale) SiO2 
 PCOD8035925
Probable space group: P -1
;
_chemical_formula_sum "Si O2"
_cell_formula_units_Z 16
_cell_length_a 8.601712
_cell_length_b 9.170654
_cell_length_c 14.111745
_cell_angle_alpha 88.185288
_cell_angle_beta 136.456605
_cell_angle_gamma 107.320832
_cell_volume 702.817906
_symmetry_space_group_name_H-M "P -1"
_symmetry_group_IT_number 2
_symmetry_cell_setting 'triclinic'
loop_
_space_group_symop_operation_xyz
x,y,z
-x,-y,-z
loop_
_atom_site_type_symbol
_atom_site_label
_atom_site_fract_x
_atom_site_fract_y
_atom_site_fract_z
Si Si1 0.356193 0.424028 0.274779
Si Si2 0.093973 0.439512 0.452461
Si Si3 0.958355 0.815664 0.282808
Si Si4 0.977565 0.524701 0.204741
Si Si5 0.412084 0.637766 0.121701
Si Si6 0.039103 0.048530 0.156013
Si Si7 0.132767 0.883086 0.556301
Si Si8 0.675369 0.070468 0.856739
O O1 0.616764 0.460743 0.438719
O O2 0.394388 0.488635 0.182137
O O3 0.208155 0.235183 0.218348
O O4 0.222430 0.519513 0.268961
O O5 0.000000 0.500000 0.500000
O O6 0.935767 0.447257 0.292010
O O7 0.044707 0.258482 0.454047
O O8 0.003697 0.705061 0.225332
O O9 0.688626 0.741368 0.210852
O O10 0.148788 0.839086 0.453469
O O11 0.003669 0.984807 0.249816
O O12 0.742062 0.427767 0.039703
O O13 0.304471 0.748641 0.129852
O O14 0.151319 0.941287 0.150510
O O15 0.770097 0.020776 0.997042
O O16 0.400061 0.948173 0.718495
O O17 0.000000 0.000000 0.500000
#
# Coordination Sequence:
#
# PCOD8035925 Si02
#       8
#     2   2   2   2   2   2   2   2
#     4  12  25  49  73 107 149 188 241 299 360 435
#     4  12  25  49  72 108 143 193 241 299 363 425
#     4  12  27  48  69 111 141 194 242 298 364 427
#     4  12  27  44  74 107 144 191 244 297 358 435
#     4  12  25  49  74 104 146 193 243 296 357 435
#     4  11  28  45  73 110 146 189 241 300 367 427
#     4  12  25  46  76 102 147 190 240 298 363 429
#     4  11  25  48  72 105 147 194 234 301 364 433
#
# _framework density 22.765498999999998
#
# number of rings (size 3 to 8) (size 9 to 14) (size 15 to 20)
#    0.000    0.250    5.000    2.625    7.000    1.000 
#    2.250    0.000    0.000    0.000    0.000    0.000 
#    0.000    0.000    0.000    0.000    0.000    0.000 
#
# Total GULP energy -198440.450619 kJ/mol
# GULP energy per Si atom -12402.528164 kJ/mol
# Density = 2.271368 g / cm^3
# Si number density = 22.765499 Si / 1000 Ang^3
#
#
#
# Elastic Constant Matrix: (Units=GPa)
#
#
# Indices 1 2 3 4 5 6 
#
# 1 72.9723 56.1749 28.8598 -0.6048 -5.9992 0.3140
# 2 56.1749 160.2266 65.1355 -4.3516 -3.2075 15.5562
# 3 28.8598 65.1355 157.9147 9.5751 -5.0521 18.2022
# 4 -0.6048 -4.3516 9.5751 36.2139 0.3611 -9.4397
# 5 -5.9992 -3.2075 -5.0521 0.3611 37.4733 -8.0720
# 6 0.3140 15.5562 18.2022 -9.4397 -8.0720 49.3028
#
#
#
# Elastic Compliance Matrix: (Units=1/GPa)
#
#
# Indices 1 2 3 4 5 6 
#
# 1 0.019451 -0.006575 -0.001123 0.000576 0.003035 0.002973
# 2 -0.006575 0.009873 -0.002754 0.001300 -0.001017 -0.001974
# 3 -0.001123 -0.002754 0.008191 -0.003232 0.000128 -0.002745
# 4 0.000576 0.001300 -0.003232 0.030384 0.000929 0.006749
# 5 0.003035 -0.001017 0.000128 0.000929 0.028180 0.005046
# 6 0.002973 -0.001974 -0.002745 0.006749 0.005046 0.024018
#
#
# Mechanical properties :
#
#
# Convention : Reuss Voigt Hill
#
# Bulk Modulus (GPa) = 60.20934 76.82820 68.51877
# Shear Modulus (GPa) = 34.12076 40.66089 37.39082
#
# Velocity S-wave (km/s) = 3.87562 4.23078 4.05709
# Velocity P-wave (km/s) = 6.82146 7.59519 7.21870
#
# Compressibility (1/GPa) = 0.01660872
#
# Stress axis : x y z
#
# Youngs Moduli (GPa) = 51.41100 101.28951 122.09247
#
# Poissons Ratio (x) = 0.66598 0.13714
# Poissons Ratio (y) = 0.33803 0.33630
# Poissons Ratio (z) = 0.05775 0.27900
#
# Static dielectric constant tensor:
#      x y z
#    x 4.078240 0.025510 -0.665280 
#    y 0.025510 4.702840 -0.497250 
#    z -0.665280 -0.497250 4.634760 
# 
# 
# High freq. dielectric constant tensor:
#      x y z
#    x 1.896500 -0.009460 -0.003060 
#    y -0.009460 1.908720 -0.008860 
#    z -0.003060 -0.008860 1.914640 
# 
# From -- ./inp_files/494994.got.cif
#   From: 2010.06.25/outbox.cif.g09.slc.cpg/sg2_248_cif.got.tgz:494994.got - 2010.06.27 13:26:56.
