data_PCOD8035893
_publ_section_title
;
Structure prediction by ZEFSAII (Michael W. Deem and Ramdas Pophale) SiO2 
 PCOD8035893
Probable space group: P -1
;
_chemical_formula_sum "Si O2"
_cell_formula_units_Z 16
_cell_length_a 9.178499
_cell_length_b 5.237696
_cell_length_c 15.876780
_cell_angle_alpha 123.714221
_cell_angle_beta 102.480684
_cell_angle_gamma 96.225221
_cell_volume 594.876299
_symmetry_space_group_name_H-M "P -1"
_symmetry_group_IT_number 2
_symmetry_cell_setting 'triclinic'
loop_
_space_group_symop_operation_xyz
x,y,z
-x,-y,-z
loop_
_atom_site_type_symbol
_atom_site_label
_atom_site_fract_x
_atom_site_fract_y
_atom_site_fract_z
Si Si1 0.045121 0.048099 0.133934
Si Si2 0.873200 0.291255 0.508735
Si Si3 0.764663 0.879698 0.268517
Si Si4 0.606448 0.145729 0.142733
Si Si5 0.926925 0.231184 0.684222
Si Si6 0.740946 0.779775 0.966310
Si Si7 0.335179 0.935129 0.181486
Si Si8 0.349072 0.303268 0.399451
O O1 0.034959 0.399625 0.216572
O O2 0.154748 0.914291 0.185270
O O3 0.159168 0.036373 0.065683
O O4 0.876053 0.798956 0.058052
O O5 0.961612 0.183424 0.579646
O O6 0.773200 0.490076 0.582910
O O7 0.000000 0.500000 0.500000
O O8 0.755581 0.023935 0.387385
O O9 0.670936 0.511262 0.193343
O O10 0.947680 0.912640 0.276313
O O11 0.693901 0.057383 0.219907
O O12 0.619641 0.937975 0.024517
O O13 0.419411 0.068148 0.126306
O O14 0.745331 0.040440 0.636012
O O15 0.646823 0.415774 0.866561
O O16 0.425937 0.213339 0.306857
O O17 0.500000 0.500000 0.500000
#
# Coordination Sequence:
#
# PCOD8035893 Si02
#       8
#     2   2   2   2   2   2   2   2
#     4  11  25  47  79 114 148 205 260 323 391 466
#     4  12  26  46  77 109 147 205 259 322 389 455
#     4  12  28  49  79 114 152 204 269 316 390 460
#     4  12  30  49  81 113 158 207 258 324 386 469
#     4  12  25  47  78 108 155 200 262 328 388 460
#     4  11  26  47  78 114 148 207 258 322 388 463
#     4  12  27  48  75 110 162 200 258 319 395 459
#     4  12  28  46  73 111 158 201 257 317 395 468
#
# _framework density 26.896348
#
# number of rings (size 3 to 8) (size 9 to 14) (size 15 to 20)
#    0.000    0.250    5.000    2.625    8.750    2.000 
#    0.000    0.000    0.000    0.000    0.000    0.000 
#    0.000    0.000    0.000    0.000    0.000    0.000 
#
# Total GULP energy -198273.864935 kJ/mol
# GULP energy per Si atom -12392.116558 kJ/mol
# Density = 2.683513 g / cm^3
# Si number density = 26.896348 Si / 1000 Ang^3
#
#
#
# Elastic Constant Matrix: (Units=GPa)
#
#
# Indices 1 2 3 4 5 6 
#
# 1 148.7993 5.2502 32.0447 8.3254 -5.7804 7.2608
# 2 5.2502 46.4887 -4.3748 15.3075 -2.1105 1.6928
# 3 32.0447 -4.3748 156.4050 25.9573 -31.2956 -4.3376
# 4 8.3254 15.3075 25.9573 42.1478 0.3254 3.0481
# 5 -5.7804 -2.1105 -31.2956 0.3254 37.6454 -7.8154
# 6 7.2608 1.6928 -4.3376 3.0481 -7.8154 40.9353
#
#
#
# Elastic Compliance Matrix: (Units=1/GPa)
#
#
# Indices 1 2 3 4 5 6 
#
# 1 0.007162 -0.000975 -0.001690 0.000097 -0.000682 -0.001547
# 2 -0.000975 0.026056 0.003916 -0.011817 0.004946 0.001335
# 3 -0.001690 0.003916 0.010023 -0.007585 0.009084 0.003499
# 4 0.000097 -0.011817 -0.007585 0.033047 -0.008141 -0.004347
# 5 -0.000682 0.004946 0.009084 -0.008141 0.036098 0.008377
# 6 -0.001547 0.001335 0.003499 -0.004347 0.008377 0.026942
#
#
# Mechanical properties :
#
#
# Convention : Reuss Voigt Hill
#
# Bulk Modulus (GPa) = 21.86025 46.39259 34.12642
# Shear Modulus (GPa) = 32.87889 45.39724 39.13806
#
# Velocity S-wave (km/s) = 3.50012 4.11281 3.81877
# Velocity P-wave (km/s) = 4.94769 6.31187 5.67095
#
# Compressibility (1/GPa) = 0.04574514
#
# Stress axis : x y z
#
# Youngs Moduli (GPa) = 139.61844 38.37835 99.77054
#
# Poissons Ratio (x) = 0.03740 0.16863
# Poissons Ratio (y) = 0.13607 -0.39075
# Poissons Ratio (z) = 0.23598 -0.15031
#
# Static dielectric constant tensor:
#      x y z
#    x 5.929700 -0.290840 0.024680 
#    y -0.290840 4.682380 -0.201150 
#    z 0.024680 -0.201150 5.601650 
# 
# 
# High freq. dielectric constant tensor:
#      x y z
#    x 2.107930 -0.006260 -0.008030 
#    y -0.006260 2.066010 -0.012520 
#    z -0.008030 -0.012520 2.117200 
# 
# From -- ./inp_files/124288.got.cif
#   From: 2010.06.25/outbox.cif.g09.slc.cpg/sg2_63_cif.got.tgz:124288.got - 2010.06.27 13:26:56.
