data_PCOD8035342
_publ_section_title
;
Structure prediction by ZEFSAII (Michael W. Deem and Ramdas Pophale) SiO2 
 PCOD8035342
Probable space group: P -1
;
_chemical_formula_sum "Si O2"
_cell_formula_units_Z 12
_cell_length_a 19.470926
_cell_length_b 8.746575
_cell_length_c 15.383303
_cell_angle_alpha 139.961600
_cell_angle_beta 20.094712
_cell_angle_gamma 132.331554
_cell_volume 566.587540
_symmetry_space_group_name_H-M "P -1"
_symmetry_group_IT_number 2
_symmetry_cell_setting 'triclinic'
loop_
_space_group_symop_operation_xyz
x,y,z
-x,-y,-z
loop_
_atom_site_type_symbol
_atom_site_label
_atom_site_fract_x
_atom_site_fract_y
_atom_site_fract_z
Si Si1 0.714423 0.089410 0.282868
Si Si2 0.298946 0.549659 0.703650
Si Si3 0.848101 0.243720 0.369549
Si Si4 0.236922 0.207721 0.274677
Si Si5 0.684013 0.986152 0.600440
Si Si6 0.003455 0.112534 0.680337
O O1 0.710011 0.240108 0.265331
O O2 0.750687 0.256569 0.394263
O O3 0.500000 0.000000 0.500000
O O4 0.909036 0.864431 0.958520
O O5 0.500000 0.500000 0.500000
O O6 0.281188 0.304554 0.569914
O O7 0.116078 0.633971 0.026160
O O8 0.813825 0.510455 0.567441
O O9 0.711756 0.087618 0.516344
O O10 0.143811 0.176204 0.464967
O O11 0.151648 0.052063 0.235932
O O12 0.476762 0.108454 0.946902
O O13 0.858096 0.049835 0.483138
#
# Coordination Sequence:
#
# PCOD8035342 Si02
#       6
#     2   2   2   2   2   2
#     4  11  26  44  70 104 134 178 224 283 335 393
#     4  12  24  45  74  99 134 175 234 279 329 398
#     4  11  26  44  69 102 140 175 223 277 340 402
#     4  11  26  44  66  99 142 175 223 273 338 407
#     4  12  24  44  72  99 134 179 224 278 336 395
#     4  11  25  44  68 100 133 182 223 278 333 394
#
# _framework density 21.179428000000001
#
# number of rings (size 3 to 8) (size 9 to 14) (size 15 to 20)
#    0.000    0.667    3.333    3.500    7.000    2.000 
#    0.000    0.000    0.000    0.000    0.000    0.000 
#    0.000    0.000    0.000    0.000    0.000    0.000 
#
# Total GULP energy -148814.304591 kJ/mol
# GULP energy per Si atom -12401.192049 kJ/mol
# Density = 2.113122 g / cm^3
# Si number density = 21.179428 Si / 1000 Ang^3
#
#
#
# Elastic Constant Matrix: (Units=GPa)
#
#
# Indices 1 2 3 4 5 6 
#
# 1 85.0076 1.9487 33.3724 -2.9964 -27.1429 -40.2240
# 2 1.9487 67.8012 36.0255 10.0104 -0.7997 -17.0181
# 3 33.3724 36.0255 160.3908 -0.0939 -4.8739 -11.3441
# 4 -2.9964 10.0104 -0.0939 39.2763 2.5388 0.8950
# 5 -27.1429 -0.7997 -4.8739 2.5388 32.2890 -16.3669
# 6 -40.2240 -17.0181 -11.3441 0.8950 -16.3669 -17.1451
#
#
#
# Elastic Compliance Matrix: (Units=1/GPa)
#
#
# Indices 1 2 3 4 5 6 
#
# 1 0.006800 -0.002444 -0.001712 0.001446 -0.000648 -0.011700
# 2 -0.002444 0.016164 -0.003552 -0.003955 -0.004056 -0.004296
# 3 -0.001712 -0.003552 0.007550 0.000709 0.000584 0.002027
# 4 0.001446 -0.003955 0.000709 0.026551 -0.000086 0.001533
# 5 -0.000648 -0.004056 0.000584 -0.000086 0.022261 -0.016096
# 6 -0.011700 -0.004296 0.002027 0.001533 -0.016096 -0.012507
#
#
# Mechanical properties :
#
#
# Convention : Reuss Voigt Hill
#
# Bulk Modulus (GPa) = 66.22931 50.65476 58.44203
# Shear Modulus (GPa) = 57.29471 27.00758 42.15115
#
# Velocity S-wave (km/s) = 5.20680 3.57484 4.46600
# Velocity P-wave (km/s) = 8.21500 6.40376 7.36527
#
# Compressibility (1/GPa) = 0.01509906
#
# Stress axis : x y z
#
# Youngs Moduli (GPa) = 147.06643 61.86531 132.44541
#
# Poissons Ratio (x) = 0.15117 0.22679
# Poissons Ratio (y) = 0.35936 0.47040
# Poissons Ratio (z) = 0.25183 0.21972
#
# Static dielectric constant tensor:
#      x y z
#    x 4.010510 0.107400 0.007930 
#    y 0.107400 3.767880 -0.042640 
#    z 0.007930 -0.042640 4.036130 
# 
# 
# High freq. dielectric constant tensor:
#      x y z
#    x 1.846430 0.002630 -0.001020 
#    y 0.002630 1.826640 -0.005490 
#    z -0.001020 -0.005490 1.849460 
# 
# From -- ./inp_files/148620.got.cif
#   From: 2010.06.25/outbox.cif.g09.slc.cpg/sg2_75_cif.got.tgz:148620.got - 2010.06.27 13:26:56.
