data_PCOD8035907
_publ_section_title
;
Structure prediction by ZEFSAII (Michael W. Deem and Ramdas Pophale) SiO2 
 PCOD8035907
Probable space group: P -1
;
_chemical_formula_sum "Si O2"
_cell_formula_units_Z 16
_cell_length_a 12.176216
_cell_length_b 15.743033
_cell_length_c 8.289548
_cell_angle_alpha 65.932231
_cell_angle_beta 102.847727
_cell_angle_gamma 48.001732
_cell_volume 737.114964
_symmetry_space_group_name_H-M "P -1"
_symmetry_group_IT_number 2
_symmetry_cell_setting 'triclinic'
loop_
_space_group_symop_operation_xyz
x,y,z
-x,-y,-z
loop_
_atom_site_type_symbol
_atom_site_label
_atom_site_fract_x
_atom_site_fract_y
_atom_site_fract_z
Si Si1 0.935387 0.672438 0.728518
Si Si2 0.489067 0.551746 0.281695
Si Si3 0.418847 0.985949 0.853054
Si Si4 0.079846 0.756989 0.831093
Si Si5 0.131375 0.806233 0.475307
Si Si6 0.313384 0.868281 0.072898
Si Si7 0.685105 0.128305 0.556182
Si Si8 0.682556 0.728598 0.847534
O O1 0.813382 0.813293 0.437656
O O2 0.754390 0.748224 0.715932
O O3 0.064444 0.656459 0.890855
O O4 0.109123 0.477114 0.865200
O O5 0.500000 0.500000 0.500000
O O6 0.720194 0.380630 0.402559
O O7 0.431778 0.700225 0.152520
O O8 0.318682 0.613460 0.074823
O O9 0.590115 0.855609 0.864683
O O10 0.500000 0.000000 0.000000
O O11 0.396157 0.902730 0.991599
O O12 0.025585 0.847281 0.575489
O O13 0.904265 0.914168 0.781534
O O14 0.276898 0.795088 0.559181
O O15 0.943959 0.962202 0.164748
O O16 0.380489 0.820915 0.317879
O O17 0.499529 0.211867 0.325429
#
# Coordination Sequence:
#
# PCOD8035907 Si02
#       8
#     2   2   2   2   2   2   2   2
#     4  11  25  48  70 103 134 181 237 280 343 409
#     4  12  26  45  67 104 145 185 225 281 350 409
#     4  12  27  47  73 102 138 178 232 288 350 408
#     4  12  25  42  74 101 139 182 233 282 338 416
#     4  12  24  45  69 102 142 180 231 280 346 408
#     4  12  26  44  67 104 141 181 231 283 347 416
#     4  12  23  44  73  97 141 184 225 286 346 409
#     4  11  26  47  73  98 136 181 233 286 343 414
#
# _framework density 21.706244999999999
#
# number of rings (size 3 to 8) (size 9 to 14) (size 15 to 20)
#    0.000    0.250    5.000    3.750    5.250    0.500 
#    0.000    0.000    0.000    0.000    0.000    0.000 
#    0.000    0.000    0.000    0.000    0.000    0.000 
#
# Total GULP energy -198523.761074 kJ/mol
# GULP energy per Si atom -12407.735067 kJ/mol
# Density = 2.165684 g / cm^3
# Si number density = 21.706245 Si / 1000 Ang^3
#
#
#
# Elastic Constant Matrix: (Units=GPa)
#
#
# Indices 1 2 3 4 5 6 
#
# 1 117.3450 26.4121 31.0077 -0.8012 0.4630 20.4844
# 2 26.4121 121.2713 52.7084 -10.6096 16.4266 19.8366
# 3 31.0077 52.7084 85.8220 -12.3899 4.8206 16.4915
# 4 -0.8012 -10.6096 -12.3899 36.8535 9.1331 -0.1697
# 5 0.4630 16.4266 4.8206 9.1331 19.8256 -2.6085
# 6 20.4844 19.8366 16.4915 -0.1697 -2.6085 35.4246
#
#
#
# Elastic Compliance Matrix: (Units=1/GPa)
#
#
# Indices 1 2 3 4 5 6 
#
# 1 0.010082 -0.000531 -0.002703 -0.001058 0.000794 -0.004221
# 2 -0.000531 0.014182 -0.005833 0.005455 -0.013608 -0.005895
# 3 -0.002703 -0.005833 0.017681 0.004692 -0.002028 -0.003528
# 4 -0.001058 0.005455 0.004692 0.035930 -0.022997 -0.006149
# 5 0.000794 -0.013608 -0.002028 -0.022997 0.074558 0.013486
# 6 -0.004221 -0.005895 -0.003528 -0.006149 0.013486 0.036577
#
#
# Mechanical properties :
#
#
# Convention : Reuss Voigt Hill
#
# Bulk Modulus (GPa) = 41.99879 60.52164 51.26021
# Shear Modulus (GPa) = 23.24704 32.70808 27.97756
#
# Velocity S-wave (km/s) = 3.27614 3.88603 3.59404
# Velocity P-wave (km/s) = 5.80530 6.93380 6.39449
#
# Compressibility (1/GPa) = 0.02381021
#
# Stress axis : x y z
#
# Youngs Moduli (GPa) = 99.18586 70.51332 56.55880
#
# Poissons Ratio (x) = 0.03742 0.15288
# Poissons Ratio (y) = 0.05263 0.32993
# Poissons Ratio (z) = 0.26810 0.41134
#
# Static dielectric constant tensor:
#      x y z
#    x 4.035390 0.100070 0.005950 
#    y 0.100070 4.222300 -0.070970 
#    z 0.005950 -0.070970 4.085720 
# 
# 
# High freq. dielectric constant tensor:
#      x y z
#    x 1.863310 0.007290 -0.001700 
#    y 0.007290 1.861220 -0.009080 
#    z -0.001700 -0.009080 1.856060 
# 
# From -- ./inp_files/272600.got.cif
#   From: 2010.06.25/outbox.cif.g09.slc.cpg/sg2_137_cif.got.tgz:272600.got - 2010.06.27 13:26:56.
