data_PCOD8035653
_publ_section_title
;
Structure prediction by ZEFSAII (Michael W. Deem and Ramdas Pophale) SiO2 
 PCOD8035653
Probable space group: P -1
;
_chemical_formula_sum "Si O2"
_cell_formula_units_Z 12
_cell_length_a 11.943744
_cell_length_b 21.827176
_cell_length_c 5.679752
_cell_angle_alpha 58.738840
_cell_angle_beta 104.468792
_cell_angle_gamma 152.397465
_cell_volume 497.209230
_symmetry_space_group_name_H-M "P -1"
_symmetry_group_IT_number 2
_symmetry_cell_setting 'triclinic'
loop_
_space_group_symop_operation_xyz
x,y,z
-x,-y,-z
loop_
_atom_site_type_symbol
_atom_site_label
_atom_site_fract_x
_atom_site_fract_y
_atom_site_fract_z
Si Si1 0.066586 0.215559 0.402622
Si Si2 0.364519 0.473573 0.673822
Si Si3 0.567175 0.999254 0.785681
Si Si4 0.752391 0.914859 0.591214
Si Si5 0.355997 0.739103 0.361599
Si Si6 0.238191 0.557429 0.289453
O O1 0.371898 0.356877 0.354866
O O2 0.111613 0.290275 0.046007
O O3 0.907184 0.172772 0.605134
O O4 0.859273 0.030994 0.610681
O O5 0.500000 0.500000 0.500000
O O6 0.234789 0.470707 0.497796
O O7 0.500000 0.000000 0.500000
O O8 0.386260 0.823174 0.031262
O O9 0.500000 0.000000 0.000000
O O10 0.650518 0.902298 0.336776
O O11 0.476294 0.712517 0.917637
O O12 0.000000 0.000000 0.500000
O O13 0.307621 0.636573 0.411777
O O14 0.075926 0.597036 0.658139
#
# Coordination Sequence:
#
# PCOD8035653 Si02
#       6
#     2   2   2   2   2   2
#     4  11  26  46  70 109 147 194 266 313 385 464
#     4  11  26  46  74 106 150 199 254 321 389 462
#     4  12  27  47  78 111 155 207 260 323 391 464
#     4  12  25  45  76 108 149 200 255 320 389 464
#     4  11  26  46  73 106 151 195 256 316 386 462
#     4  11  25  46  71 104 150 193 253 312 393 450
#
# _framework density 24.134709999999998
#
# number of rings (size 3 to 8) (size 9 to 14) (size 15 to 20)
#    0.000    0.667    1.667    4.500    9.333    2.667 
#    0.000    0.000    0.000    0.000    0.000    0.000 
#    0.000    0.000    0.000    0.000    0.000    0.000 
#
# Total GULP energy -148771.849571 kJ/mol
# GULP energy per Si atom -12397.654131 kJ/mol
# Density = 2.407978 g / cm^3
# Si number density = 24.134710 Si / 1000 Ang^3
#
#
#
# Elastic Constant Matrix: (Units=GPa)
#
#
# Indices 1 2 3 4 5 6 
#
# 1 165.6857 41.2628 58.2095 1.7292 -13.9284 0.4512
# 2 41.2628 82.5977 14.1955 3.2326 -1.9442 9.0991
# 3 58.2095 14.1955 136.0729 -4.1559 -12.0778 2.9590
# 4 1.7292 3.2326 -4.1559 38.3834 2.2641 -5.8462
# 5 -13.9284 -1.9442 -12.0778 2.2641 52.4407 -4.3347
# 6 0.4512 9.0991 2.9590 -5.8462 -4.3347 41.3071
#
#
#
# Elastic Compliance Matrix: (Units=1/GPa)
#
#
# Indices 1 2 3 4 5 6 
#
# 1 0.008106 -0.003601 -0.002997 -0.000315 0.001427 0.001025
# 2 -0.003601 0.014322 0.000017 -0.001522 -0.000637 -0.003399
# 3 -0.002997 0.000017 0.008769 0.000963 0.001154 -0.000342
# 4 -0.000315 -0.001522 0.000963 0.026954 -0.000751 0.004006
# 5 0.001427 -0.000637 0.001154 -0.000751 0.019890 0.002023
# 6 0.001025 -0.003399 -0.000342 0.004006 0.002023 0.025750
#
#
# Mechanical properties :
#
#
# Convention : Reuss Voigt Hill
#
# Bulk Modulus (GPa) = 55.44932 67.96576 61.70754
# Shear Modulus (GPa) = 40.66230 44.47213 42.56721
#
# Velocity S-wave (km/s) = 4.10909 4.29728 4.20424
# Velocity P-wave (km/s) = 6.74816 7.26941 7.01363
#
# Compressibility (1/GPa) = 0.01803449
#
# Stress axis : x y z
#
# Youngs Moduli (GPa) = 123.36830 69.82277 114.04386
#
# Poissons Ratio (x) = 0.25145 0.34179
# Poissons Ratio (y) = 0.44428 -0.00198
# Poissons Ratio (z) = 0.36974 -0.00121
#
# Static dielectric constant tensor:
#      x y z
#    x 4.602220 0.282070 -0.119810 
#    y 0.282070 4.171110 -0.315130 
#    z -0.119810 -0.315130 4.494240 
# 
# 
# High freq. dielectric constant tensor:
#      x y z
#    x 1.973290 0.009900 -0.005920 
#    y 0.009900 1.948780 -0.016370 
#    z -0.005920 -0.016370 1.972180 
# 
# From -- ./inp_files/21173.got.cif
#   From: 2010.06.25/outbox.cif.g09.slc.cpg/sg2_11_cif.got.tgz:21173.got - 2010.06.27 13:26:56.
