data_PCOD8035063
_publ_section_title
;
Structure prediction by ZEFSAII (Michael W. Deem and Ramdas Pophale) SiO2 
 PCOD8035063
Probable space group: P -1
;
_chemical_formula_sum "Si O2"
_cell_formula_units_Z 14
_cell_length_a 11.157660
_cell_length_b 8.504688
_cell_length_c 13.602675
_cell_angle_alpha 59.583005
_cell_angle_beta 150.924734
_cell_angle_gamma 120.950296
_cell_volume 532.935086
_symmetry_space_group_name_H-M "P -1"
_symmetry_group_IT_number 2
_symmetry_cell_setting 'triclinic'
loop_
_space_group_symop_operation_xyz
x,y,z
-x,-y,-z
loop_
_atom_site_type_symbol
_atom_site_label
_atom_site_fract_x
_atom_site_fract_y
_atom_site_fract_z
Si Si1 0.328967 0.325664 0.093175
Si Si2 0.166629 0.660741 0.178499
Si Si3 0.737172 0.675597 0.318452
Si Si4 0.305802 0.833239 0.020740
Si Si5 0.138160 0.301300 0.385430
Si Si6 0.949495 0.838475 0.229902
Si Si7 0.437304 0.027565 0.592542
O O1 0.537183 0.506689 0.187037
O O2 0.470692 0.153819 0.245677
O O3 0.138678 0.317332 0.865577
O O4 0.131167 0.329777 0.038612
O O5 0.241425 0.472165 0.333400
O O6 0.314640 0.825276 0.303569
O O7 0.249559 0.682175 0.116870
O O8 0.867303 0.628083 0.528081
O O9 0.947018 0.738564 0.366368
O O10 0.589743 0.845060 0.182948
O O11 0.141957 0.773448 0.825671
O O12 0.256729 0.027626 0.965822
O O13 0.302989 0.136841 0.545214
O O14 0.230733 0.961462 0.379209
#
# Coordination Sequence:
#
# PCOD8035063 Si02
#       7
#     2   2   2   2   2   2   2
#     4  12  27  47  72 107 147 192 227 300 358 424
#     4  12  24  48  73 108 147 180 243 287 370 419
#     4  12  26  46  75 105 143 190 241 291 354 422
#     4  11  24  47  77 106 141 188 236 304 350 420
#     4  11  25  46  74 108 140 188 236 299 348 421
#     4  11  27  48  71 106 143 193 241 285 357 423
#     4  11  26  45  73 105 144 185 235 297 351 423
#
# _framework density 26.269617
#
# number of rings (size 3 to 8) (size 9 to 14) (size 15 to 20)
#    0.000    0.571    4.286    2.143    2.000    5.714 
#    0.000    0.000    0.000    0.000    0.000    0.000 
#    0.000    0.000    0.000    0.000    0.000    0.000 
#
# Total GULP energy -173491.114744 kJ/mol
# GULP energy per Si atom -12392.222482 kJ/mol
# Density = 2.620983 g / cm^3
# Si number density = 26.269617 Si / 1000 Ang^3
#
#
#
# Elastic Constant Matrix: (Units=GPa)
#
#
# Indices 1 2 3 4 5 6 
#
# 1 30.6592 -6.4124 17.6652 0.6305 -12.8752 -5.9306
# 2 -6.4124 89.0299 25.6010 21.3234 -6.2504 -14.5917
# 3 17.6652 25.6010 86.9611 6.3276 -0.4904 -20.3220
# 4 0.6305 21.3234 6.3276 41.5770 -3.6540 -7.7755
# 5 -12.8752 -6.2504 -0.4904 -3.6540 35.5457 12.6478
# 6 -5.9306 -14.5917 -20.3220 -7.7755 12.6478 25.6793
#
#
#
# Elastic Compliance Matrix: (Units=1/GPa)
#
#
# Indices 1 2 3 4 5 6 
#
# 1 0.050314 0.008732 -0.013794 -0.002303 0.021298 -0.005521
# 2 0.008732 0.015668 -0.005254 -0.006489 0.004209 0.002724
# 3 -0.013794 -0.005254 0.019112 0.001818 -0.010732 0.014790
# 4 -0.002303 -0.006489 0.001818 0.028222 -0.001334 0.006422
# 5 0.021298 0.004209 -0.010732 -0.001334 0.044700 -0.023603
# 6 -0.005521 0.002724 0.014790 0.006422 -0.023603 0.064488
#
#
# Mechanical properties :
#
#
# Convention : Reuss Voigt Hill
#
# Bulk Modulus (GPa) = 15.51299 31.15087 23.33193
# Shear Modulus (GPa) = 18.89477 31.88017 25.38747
#
# Velocity S-wave (km/s) = 2.68482 3.48742 3.11210
# Velocity P-wave (km/s) = 3.94070 5.30095 4.67061
#
# Compressibility (1/GPa) = 0.06446209
#
# Stress axis : x y z
#
# Youngs Moduli (GPa) = 19.87515 63.82387 52.32385
#
# Poissons Ratio (x) = -0.55733 0.72177
# Poissons Ratio (y) = -0.17356 0.27492
# Poissons Ratio (z) = 0.27416 0.33534
#
# Static dielectric constant tensor:
#      x y z
#    x 4.481070 -0.261580 0.111290 
#    y -0.261580 4.921380 0.173740 
#    z 0.111290 0.173740 5.096580 
# 
# 
# High freq. dielectric constant tensor:
#      x y z
#    x 2.029660 -0.018130 0.002550 
#    y -0.018130 2.058490 0.011550 
#    z 0.002550 0.011550 2.069330 
# 
# From -- ./inp_files/514148.got.cif
#   From: 2010.06.25/outbox.cif.g09.slc.cpg/sg2_258_cif.got.tgz:514148.got - 2010.06.27 13:26:56.
