data_PCOD8035633
_publ_section_title
;
Structure prediction by ZEFSAII (Michael W. Deem and Ramdas Pophale) SiO2 
 PCOD8035633
Probable space group: P -1
;
_chemical_formula_sum "Si O2"
_cell_formula_units_Z 16
_cell_length_a 8.997128
_cell_length_b 11.503102
_cell_length_c 19.277340
_cell_angle_alpha 135.409002
_cell_angle_beta 148.947210
_cell_angle_gamma 53.815525
_cell_volume 721.422892
_symmetry_space_group_name_H-M "P -1"
_symmetry_group_IT_number 2
_symmetry_cell_setting 'triclinic'
loop_
_space_group_symop_operation_xyz
x,y,z
-x,-y,-z
loop_
_atom_site_type_symbol
_atom_site_label
_atom_site_fract_x
_atom_site_fract_y
_atom_site_fract_z
Si Si1 0.114825 0.692571 0.859966
Si Si2 0.459075 0.734886 0.629222
Si Si3 0.743448 0.003737 0.689970
Si Si4 0.670704 0.447354 0.359046
Si Si5 0.429537 0.902310 0.189225
Si Si6 0.059176 0.324458 0.707505
Si Si7 0.710584 0.242942 0.660034
Si Si8 0.694849 0.166344 0.145884
O O1 0.298781 0.761641 0.898269
O O2 0.773146 0.691672 0.708566
O O3 0.203366 0.506444 0.829817
O O4 0.197474 0.801943 0.006588
O O5 0.365395 0.616250 0.604268
O O6 0.237620 0.703613 0.464810
O O7 0.464422 0.927921 0.735414
O O8 0.738227 0.055000 0.789826
O O9 0.808088 0.170848 0.742095
O O10 0.444983 0.909133 0.509069
O O11 0.987526 0.874496 0.719131
O O12 0.483266 0.603740 0.337332
O O13 0.566322 0.301842 0.202828
O O14 0.000000 0.500000 0.500000
O O15 0.708790 0.803215 0.277762
O O16 0.990530 0.302968 0.752774
O O17 0.500000 0.000000 0.000000
#
# Coordination Sequence:
#
# PCOD8035633 Si02
#       8
#     2   2   2   2   2   2   2   2
#     4  12  26  49  71 101 146 184 238 296 348 415
#     4  12  25  45  77 100 136 188 243 290 342 417
#     4  11  26  45  70 103 147 181 230 292 356 419
#     4  12  26  44  73 107 137 181 238 294 345 410
#     4  12  27  45  72 105 142 188 231 290 360 418
#     4  12  26  45  73 105 137 188 238 293 347 416
#     4  11  25  46  70 106 143 180 233 296 349 416
#     4  12  27  46  71 103 142 189 230 282 353 426
#
# _framework density 22.178394000000001
#
# number of rings (size 3 to 8) (size 9 to 14) (size 15 to 20)
#    0.000    0.250    5.000    3.000    8.750    0.000 
#    0.000    1.250    0.000    0.000    0.000    0.000 
#    0.000    0.000    0.000    0.000    0.000    0.000 
#
# Total GULP energy -198521.655856 kJ/mol
# GULP energy per Si atom -12407.603491 kJ/mol
# Density = 2.212792 g / cm^3
# Si number density = 22.178394 Si / 1000 Ang^3
#
#
#
# Elastic Constant Matrix: (Units=GPa)
#
#
# Indices 1 2 3 4 5 6 
#
# 1 114.3318 40.5027 13.2350 9.0159 8.6064 16.0710
# 2 40.5027 139.6033 8.6971 21.7300 0.5347 9.0318
# 3 13.2350 8.6971 60.0780 12.4667 0.7485 7.2437
# 4 9.0159 21.7300 12.4667 37.3198 5.4842 1.0476
# 5 8.6064 0.5347 0.7485 5.4842 33.4449 8.6755
# 6 16.0710 9.0318 7.2437 1.0476 8.6755 43.8703
#
#
#
# Elastic Compliance Matrix: (Units=1/GPa)
#
#
# Indices 1 2 3 4 5 6 
#
# 1 0.010412 -0.002740 -0.001548 -0.000048 -0.001915 -0.002615
# 2 -0.002740 0.008738 0.000440 -0.004781 0.001618 -0.001074
# 3 -0.001548 0.000440 0.018532 -0.006248 0.001721 -0.002775
# 4 -0.000048 -0.004781 -0.006248 0.032450 -0.005712 0.002388
# 5 -0.001915 0.001618 0.001721 -0.005712 0.032895 -0.006285
# 6 -0.002615 -0.001074 -0.002775 0.002388 -0.006285 0.025617
#
#
# Mechanical properties :
#
#
# Convention : Reuss Voigt Hill
#
# Bulk Modulus (GPa) = 33.34969 48.76476 41.05723
# Shear Modulus (GPa) = 34.16795 39.69889 36.93342
#
# Velocity S-wave (km/s) = 3.92930 4.23541 4.08522
# Velocity P-wave (km/s) = 5.97123 6.77890 6.38784
#
# Compressibility (1/GPa) = 0.02998528
#
# Stress axis : x y z
#
# Youngs Moduli (GPa) = 96.04396 114.44032 53.96091
#
# Poissons Ratio (x) = 0.31361 0.08353
# Poissons Ratio (y) = 0.26320 -0.02374
# Poissons Ratio (z) = 0.14867 -0.05036
#
# Static dielectric constant tensor:
#      x y z
#    x 4.132580 0.142330 0.037240 
#    y 0.142330 4.373870 0.164270 
#    z 0.037240 0.164270 3.932790 
# 
# 
# High freq. dielectric constant tensor:
#      x y z
#    x 1.878700 0.007950 0.003810 
#    y 0.007950 1.894540 0.012720 
#    z 0.003810 0.012720 1.867240 
# 
# From -- ./inp_files/316043.got.cif
#   From: 2010.06.25/outbox.cif.g09.slc.cpg/sg2_159_cif.got.tgz:316043.got - 2010.06.27 13:26:56.
