data_PCOD8035812
_publ_section_title
;
Structure prediction by ZEFSAII (Michael W. Deem and Ramdas Pophale) SiO2 
 PCOD8035812
Probable space group: P -1
;
_chemical_formula_sum "Si O2"
_cell_formula_units_Z 16
_cell_length_a 14.875614
_cell_length_b 14.503439
_cell_length_c 12.110360
_cell_angle_alpha 58.628311
_cell_angle_beta 138.993113
_cell_angle_gamma 151.411774
_cell_volume 731.602944
_symmetry_space_group_name_H-M "P -1"
_symmetry_group_IT_number 2
_symmetry_cell_setting 'triclinic'
loop_
_space_group_symop_operation_xyz
x,y,z
-x,-y,-z
loop_
_atom_site_type_symbol
_atom_site_label
_atom_site_fract_x
_atom_site_fract_y
_atom_site_fract_z
Si Si1 0.243064 0.133306 0.719542
Si Si2 0.175072 0.549309 0.218375
Si Si3 0.690618 0.778127 0.026240
Si Si4 0.840031 0.109866 0.920941
Si Si5 0.411792 0.999833 0.629766
Si Si6 0.912917 0.709703 0.193170
Si Si7 0.637931 0.506942 0.703081
Si Si8 0.252572 0.899700 0.793216
O O1 0.183671 0.121434 0.798088
O O2 0.486416 0.382209 0.756160
O O3 0.284400 0.033842 0.804201
O O4 0.000000 0.000000 0.500000
O O5 0.353384 0.750554 0.334836
O O6 0.390261 0.627395 0.298923
O O7 0.015975 0.353426 0.267894
O O8 0.000000 0.500000 0.000000
O O9 0.858664 0.799494 0.106636
O O10 0.364015 0.539972 0.873577
O O11 0.741743 0.922658 0.916695
O O12 0.568782 0.992878 0.772003
O O13 0.009526 0.267261 0.874556
O O14 0.043948 0.248262 0.129828
O O15 0.270872 0.926112 0.662685
O O16 0.168400 0.838960 0.417778
O O17 0.500000 0.500000 0.500000
O O18 0.500000 0.000000 0.000000
#
# Coordination Sequence:
#
# PCOD8035812 Si02
#       8
#     2   2   2   2   2   2   2   2
#     4  12  23  42  68 102 138 174 222 283 343 406
#     4  12  23  43  65 103 142 174 218 280 345 405
#     4  11  25  47  71  94 138 177 231 286 336 402
#     4  12  25  46  69 100 136 180 231 282 337 404
#     4  12  26  43  71 100 141 179 229 277 337 417
#     4  11  27  48  68  96 133 186 231 282 335 399
#     4  12  24  41  69 105 139 177 222 281 350 405
#     4  12  23  41  68 101 137 177 217 275 348 400
#
# _framework density 21.869786999999999
#
# number of rings (size 3 to 8) (size 9 to 14) (size 15 to 20)
#    0.000    0.250    5.000    4.500    1.750    2.500 
#    0.000    0.000    0.000    0.000    0.000    0.000 
#    0.000    0.000    0.000    0.000    0.000    0.000 
#
# Total GULP energy -198360.400290 kJ/mol
# GULP energy per Si atom -12397.525018 kJ/mol
# Density = 2.182001 g / cm^3
# Si number density = 21.869787 Si / 1000 Ang^3
#
#
#
# Elastic Constant Matrix: (Units=GPa)
#
#
# Indices 1 2 3 4 5 6 
#
# 1 77.1890 2.8174 20.5321 -0.8280 1.9128 -4.4969
# 2 2.8174 107.7207 20.9163 0.3727 0.3506 -6.9536
# 3 20.5321 20.9163 147.2172 15.0936 6.9779 -15.0706
# 4 -0.8280 0.3727 15.0936 30.9723 -2.5610 2.0514
# 5 1.9128 0.3506 6.9779 -2.5610 34.2441 -5.7502
# 6 -4.4969 -6.9536 -15.0706 2.0514 -5.7502 38.5854
#
#
#
# Elastic Compliance Matrix: (Units=1/GPa)
#
#
# Indices 1 2 3 4 5 6 
#
# 1 0.013529 0.000067 -0.001941 0.001246 -0.000143 0.000743
# 2 0.000067 0.009615 -0.001315 0.000477 0.000414 0.001263
# 3 -0.001941 -0.001315 0.008026 -0.004239 -0.001379 0.002691
# 4 0.001246 0.000477 -0.004239 0.034810 0.002916 -0.002841
# 5 -0.000143 0.000414 -0.001379 0.002916 0.030358 0.003888
# 6 0.000743 0.001263 0.002691 -0.002841 0.003888 0.028013
#
#
# Mechanical properties :
#
#
# Convention : Reuss Voigt Hill
#
# Bulk Modulus (GPa) = 40.33432 46.73982 43.53707
# Shear Modulus (GPa) = 35.97317 39.95110 37.96213
#
# Velocity S-wave (km/s) = 4.06011 4.27871 4.17084
# Velocity P-wave (km/s) = 6.36100 6.76964 6.56850
#
# Compressibility (1/GPa) = 0.02479278
#
# Stress axis : x y z
#
# Youngs Moduli (GPa) = 73.91334 104.00039 124.59879
#
# Poissons Ratio (x) = -0.00699 0.24189
# Poissons Ratio (y) = -0.00497 0.16381
# Poissons Ratio (z) = 0.14349 0.13673
#
# Static dielectric constant tensor:
#      x y z
#    x 4.447490 0.060490 0.391910 
#    y 0.060490 3.918650 0.133990 
#    z 0.391910 0.133990 3.908230 
# 
# 
# High freq. dielectric constant tensor:
#      x y z
#    x 1.866920 0.000800 0.009660 
#    y 0.000800 1.875210 0.000780 
#    z 0.009660 0.000780 1.857840 
# 
# From -- ./inp_files/455639.got.cif
#   From: 2010.06.25/outbox.cif.g09.slc.cpg/sg2_228_cif.got.tgz:455639.got - 2010.06.27 13:26:56.
