data_PCOD8035139
_publ_section_title
;
Structure prediction by ZEFSAII (Michael W. Deem and Ramdas Pophale) SiO2 
 PCOD8035139
Probable space group: P -1
;
_chemical_formula_sum "Si O2"
_cell_formula_units_Z 16
_cell_length_a 8.405657
_cell_length_b 9.046690
_cell_length_c 13.496793
_cell_angle_alpha 135.793727
_cell_angle_beta 102.166777
_cell_angle_gamma 87.582365
_cell_volume 690.550414
_symmetry_space_group_name_H-M "P -1"
_symmetry_group_IT_number 2
_symmetry_cell_setting 'triclinic'
loop_
_space_group_symop_operation_xyz
x,y,z
-x,-y,-z
loop_
_atom_site_type_symbol
_atom_site_label
_atom_site_fract_x
_atom_site_fract_y
_atom_site_fract_z
Si Si1 0.658412 0.945441 0.861626
Si Si2 0.072635 0.283765 0.796073
Si Si3 0.172653 0.386525 0.655804
Si Si4 0.250031 0.695037 0.118521
Si Si5 0.709063 0.152875 0.169001
Si Si6 0.113140 0.818080 0.602731
Si Si7 0.639616 0.483983 0.590709
Si Si8 0.504097 0.761369 0.355174
O O1 0.459236 0.910868 0.822031
O O2 0.728897 0.730983 0.734544
O O3 0.717462 0.139271 0.887996
O O4 0.726745 0.992218 0.004192
O O5 0.047412 0.381625 0.730400
O O6 0.896625 0.237383 0.803291
O O7 0.141160 0.060224 0.681509
O O8 0.202386 0.452101 0.955863
O O9 0.284288 0.613938 0.764129
O O10 0.302655 0.236911 0.634030
O O11 0.071454 0.301873 0.503387
O O12 0.410177 0.700781 0.210539
O O13 0.865086 0.158663 0.264925
O O14 0.240174 0.675364 0.506124
O O15 0.500000 0.500000 0.500000
O O16 0.564360 0.403488 0.647068
O O17 0.500000 0.000000 0.500000
#
# Coordination Sequence:
#
# PCOD8035139 Si02
#       8
#     2   2   2   2   2   2   2   2
#     4  11  24  48  74 107 147 189 244 304 357 440
#     4  11  26  48  71 109 149 188 243 299 374 433
#     4  12  24  47  71 108 146 186 243 302 364 433
#     4  11  26  48  76 104 149 195 242 302 361 438
#     4  11  25  45  73 109 143 188 243 300 372 429
#     4  12  26  45  74 106 150 194 235 304 366 430
#     4  12  24  46  72 109 147 189 244 295 360 437
#     4  12  25  42  75 111 140 196 243 295 364 433
#
# _framework density 23.169922
#
# number of rings (size 3 to 8) (size 9 to 14) (size 15 to 20)
#    0.000    0.500    3.750    3.750    3.500    2.500 
#    0.000    1.250    0.000    0.000    0.000    0.000 
#    0.000    0.000    0.000    0.000    0.000    0.000 
#
# Total GULP energy -198416.783732 kJ/mol
# GULP energy per Si atom -12401.048983 kJ/mol
# Density = 2.311719 g / cm^3
# Si number density = 23.169922 Si / 1000 Ang^3
#
#
#
# Elastic Constant Matrix: (Units=GPa)
#
#
# Indices 1 2 3 4 5 6 
#
# 1 109.9119 47.6630 57.1318 -0.3340 9.7084 -3.2760
# 2 47.6630 85.7320 27.3494 1.6270 -2.0177 8.6249
# 3 57.1318 27.3494 151.2412 2.2441 20.6853 -16.2757
# 4 -0.3340 1.6270 2.2441 55.1291 -6.1943 -0.1172
# 5 9.7084 -2.0177 20.6853 -6.1943 26.7506 -6.7247
# 6 -3.2760 8.6249 -16.2757 -0.1172 -6.7247 40.1811
#
#
#
# Elastic Compliance Matrix: (Units=1/GPa)
#
#
# Indices 1 2 3 4 5 6 
#
# 1 0.014264 -0.006880 -0.003714 0.000148 -0.002614 0.000698
# 2 -0.006880 0.016395 -0.001303 -0.000062 0.003725 -0.003985
# 3 -0.003714 -0.001303 0.009318 -0.000972 -0.005468 0.002833
# 4 0.000148 -0.000062 -0.000972 0.018764 0.005177 0.000553
# 5 -0.002614 0.003725 -0.005468 0.005177 0.045130 0.004340
# 6 0.000698 -0.003985 0.002833 0.000553 0.004340 0.027675
#
#
# Mechanical properties :
#
#
# Convention : Reuss Voigt Hill
#
# Bulk Modulus (GPa) = 61.79402 67.90816 64.85109
# Shear Modulus (GPa) = 31.10713 38.72821 34.91767
#
# Velocity S-wave (km/s) = 3.66808 4.09282 3.88625
# Velocity P-wave (km/s) = 6.68338 7.19078 6.94171
#
# Compressibility (1/GPa) = 0.01618280
#
# Stress axis : x y z
#
# Youngs Moduli (GPa) = 70.10489 60.99520 107.32297
#
# Poissons Ratio (x) = 0.41966 0.39857
# Poissons Ratio (y) = 0.48234 0.13985
# Poissons Ratio (z) = 0.26035 0.07948
#
# Static dielectric constant tensor:
#      x y z
#    x 4.114140 0.132960 -0.033050 
#    y 0.132960 4.424170 -0.045380 
#    z -0.033050 -0.045380 4.619800 
# 
# 
# High freq. dielectric constant tensor:
#      x y z
#    x 1.902440 0.006740 0.002620 
#    y 0.006740 1.930420 0.000730 
#    z 0.002620 0.000730 1.937020 
# 
# From -- ./inp_files/383599.got.cif
#   From: 2010.06.25/outbox.cif.g09.slc.cpg/sg2_192_cif.got.tgz:383599.got - 2010.06.27 13:26:56.
