data_PCOD8035361
_publ_section_title
;
Structure prediction by ZEFSAII (Michael W. Deem and Ramdas Pophale) SiO2 
 PCOD8035361
Probable space group: P -1
;
_chemical_formula_sum "Si O2"
_cell_formula_units_Z 16
_cell_length_a 15.523391
_cell_length_b 11.920626
_cell_length_c 9.241766
_cell_angle_alpha 131.481923
_cell_angle_beta 109.935327
_cell_angle_gamma 109.681218
_cell_volume 724.447814
_symmetry_space_group_name_H-M "P -1"
_symmetry_group_IT_number 2
_symmetry_cell_setting 'triclinic'
loop_
_space_group_symop_operation_xyz
x,y,z
-x,-y,-z
loop_
_atom_site_type_symbol
_atom_site_label
_atom_site_fract_x
_atom_site_fract_y
_atom_site_fract_z
Si Si1 0.456634 0.397394 0.730680
Si Si2 0.603582 0.024669 0.675101
Si Si3 0.959729 0.084571 0.254723
Si Si4 0.907581 0.502771 0.788441
Si Si5 0.893396 0.029256 0.854548
Si Si6 0.365431 0.252583 0.122342
Si Si7 0.893034 0.502806 0.099451
Si Si8 0.360750 0.900619 0.906305
O O1 0.583146 0.653884 0.932445
O O2 0.470276 0.236258 0.580909
O O3 0.286656 0.233102 0.458026
O O4 0.500000 0.500000 0.000000
O O5 0.500000 0.000000 0.500000
O O6 0.765521 0.230878 0.864869
O O7 0.630652 0.117558 0.933153
O O8 0.080820 0.318767 0.632518
O O9 0.952296 0.156154 0.155707
O O10 0.016514 0.992826 0.178348
O O11 0.792380 0.865992 0.043412
O O12 0.786383 0.372278 0.480358
O O13 0.946452 0.376874 0.716855
O O14 0.845929 0.485337 0.892771
O O15 0.066184 0.787397 0.077621
O O16 0.500000 0.500000 0.500000
O O17 0.352842 0.063662 0.998122
O O18 0.500000 0.000000 0.000000
#
# Coordination Sequence:
#
# PCOD8035361 Si02
#       8
#     2   2   2   2   2   2   2   2
#     4  12  29  46  73 102 147 191 231 296 356 423
#     4  12  27  47  71 105 143 187 238 291 354 421
#     4  11  25  44  74 103 140 181 231 296 346 423
#     4  11  25  44  71 100 137 182 235 285 349 416
#     4  11  25  46  70 105 137 183 236 286 356 416
#     4  12  25  48  72 103 143 188 239 284 361 425
#     4  11  25  44  70 101 139 180 233 288 348 417
#     4  12  27  45  75 104 142 188 235 296 349 423
#
# _framework density 22.085787
#
# number of rings (size 3 to 8) (size 9 to 14) (size 15 to 20)
#    0.000    0.500    5.000    1.500    8.750    2.500 
#    0.000    0.000    0.000    0.000    0.000    0.000 
#    0.000    0.000    0.000    0.000    0.000    0.000 
#
# Total GULP energy -198379.304957 kJ/mol
# GULP energy per Si atom -12398.706560 kJ/mol
# Density = 2.203552 g / cm^3
# Si number density = 22.085787 Si / 1000 Ang^3
#
#
#
# Elastic Constant Matrix: (Units=GPa)
#
#
# Indices 1 2 3 4 5 6 
#
# 1 120.5565 46.2425 40.6994 -9.9914 12.2444 14.8910
# 2 46.2425 152.9953 47.2534 -17.3062 -3.0380 27.1860
# 3 40.6994 47.2534 107.2559 -25.4192 -10.2676 8.9420
# 4 -9.9914 -17.3062 -25.4192 48.0500 11.6401 -2.1720
# 5 12.2444 -3.0380 -10.2676 11.6401 37.7366 -9.2021
# 6 14.8910 27.1860 8.9420 -2.1720 -9.2021 33.9074
#
#
#
# Elastic Compliance Matrix: (Units=1/GPa)
#
#
# Indices 1 2 3 4 5 6 
#
# 1 0.011375 -0.001527 -0.003579 0.001236 -0.006253 -0.004445
# 2 -0.001527 0.009078 -0.002660 0.001631 -0.001515 -0.006213
# 3 -0.003579 -0.002660 0.013122 0.004458 0.003503 0.001480
# 4 0.001236 0.001631 0.004458 0.025759 -0.007858 -0.003508
# 5 -0.006253 -0.001515 0.003503 -0.007858 0.034697 0.011950
# 6 -0.004445 -0.006213 0.001480 -0.003508 0.011950 0.039053
#
#
# Mechanical properties :
#
#
# Convention : Reuss Voigt Hill
#
# Bulk Modulus (GPa) = 55.42572 72.13313 63.77942
# Shear Modulus (GPa) = 32.33477 40.37963 36.35720
#
# Velocity S-wave (km/s) = 3.83045 4.28051 4.06172
# Velocity P-wave (km/s) = 6.68679 7.56054 7.13705
#
# Compressibility (1/GPa) = 0.01804217
#
# Stress axis : x y z
#
# Youngs Moduli (GPa) = 87.90860 110.15855 76.20828
#
# Poissons Ratio (x) = 0.16826 0.27273
# Poissons Ratio (y) = 0.13427 0.20274
# Poissons Ratio (z) = 0.31460 0.29307
#
# Static dielectric constant tensor:
#      x y z
#    x 4.891090 -0.381370 0.044920 
#    y -0.381370 4.074510 -0.512700 
#    z 0.044920 -0.512700 3.840980 
# 
# 
# High freq. dielectric constant tensor:
#      x y z
#    x 1.874320 0.015380 0.000280 
#    y 0.015380 1.878160 -0.007180 
#    z 0.000280 -0.007180 1.875580 
# 
# From -- ./inp_files/298474.got.cif
#   From: 2010.06.25/outbox.cif.g09.slc.cpg/sg2_150_cif.got.tgz:298474.got - 2010.06.27 13:26:56.
