data_PCOD8035258
_publ_section_title
;
Structure prediction by ZEFSAII (Michael W. Deem and Ramdas Pophale) SiO2 
 PCOD8035258
Probable space group: P -1
;
_chemical_formula_sum "Si O2"
_cell_formula_units_Z 16
_cell_length_a 5.254981
_cell_length_b 6.138825
_cell_length_c 27.618461
_cell_angle_alpha 131.157624
_cell_angle_beta 77.506849
_cell_angle_gamma 93.529619
_cell_volume 650.949481
_symmetry_space_group_name_H-M "P -1"
_symmetry_group_IT_number 2
_symmetry_cell_setting 'triclinic'
loop_
_space_group_symop_operation_xyz
x,y,z
-x,-y,-z
loop_
_atom_site_type_symbol
_atom_site_label
_atom_site_fract_x
_atom_site_fract_y
_atom_site_fract_z
Si Si1 0.181243 0.754282 0.029108
Si Si2 0.038430 0.231505 0.423561
Si Si3 0.022183 0.598431 0.740651
Si Si4 0.560596 0.379505 0.901728
Si Si5 0.571808 0.859146 0.375890
Si Si6 0.657757 0.896983 0.214323
Si Si7 0.977497 0.618853 0.852777
Si Si8 0.730503 0.621221 0.659673
O O1 0.344977 0.765624 0.073159
O O2 0.008382 0.065309 0.077199
O O3 0.374082 0.680451 0.964600
O O4 0.000000 0.500000 0.000000
O O5 0.042403 0.349085 0.385051
O O6 0.000000 0.500000 0.500000
O O7 0.328834 0.066717 0.395060
O O8 0.792855 0.047212 0.416723
O O9 0.876457 0.631384 0.803142
O O10 0.844704 0.502904 0.689832
O O11 0.272351 0.353060 0.701382
O O12 0.100559 0.911502 0.767582
O O13 0.788951 0.449849 0.867802
O O14 0.417068 0.135252 0.843860
O O15 0.455968 0.630198 0.385110
O O16 0.426487 0.059218 0.280273
O O17 0.739154 0.572158 0.184290
#
# Coordination Sequence:
#
# PCOD8035258 Si02
#       8
#     2   2   2   2   2   2   2   2
#     4  11  25  46  65  92 137 182 237 296 369 445
#     4  12  28  49  78 116 156 204 257 308 375 453
#     4  11  25  46  71 106 143 191 242 307 372 445
#     4  11  25  42  66  98 132 182 237 298 369 444
#     4  11  26  48  76 113 151 205 251 310 379 443
#     4  11  25  42  69 103 137 188 235 306 372 445
#     4  12  24  41  68  98 137 178 241 299 373 439
#     4  11  26  48  76 107 156 194 255 312 378 448
#
# _framework density 24.579477000000001
#
# number of rings (size 3 to 8) (size 9 to 14) (size 15 to 20)
#    0.000    0.750    1.250    5.250    7.000    8.000 
#    0.000    0.000    0.000    0.000    0.000    0.000 
#    0.000    0.000    0.000    0.000    0.000    0.000 
#
# Total GULP energy -198299.714396 kJ/mol
# GULP energy per Si atom -12393.732150 kJ/mol
# Density = 2.452353 g / cm^3
# Si number density = 24.579477 Si / 1000 Ang^3
#
#
#
# Elastic Constant Matrix: (Units=GPa)
#
#
# Indices 1 2 3 4 5 6 
#
# 1 106.6022 24.2169 42.9873 16.3352 4.4727 0.2356
# 2 24.2169 51.7658 58.7834 17.1548 -7.2717 -0.9374
# 3 42.9873 58.7834 152.5633 12.0617 -1.3402 5.1349
# 4 16.3352 17.1548 12.0617 45.7837 4.9551 -1.9008
# 5 4.4727 -7.2717 -1.3402 4.9551 41.1224 6.9138
# 6 0.2356 -0.9374 5.1349 -1.9008 6.9138 26.8224
#
#
#
# Elastic Compliance Matrix: (Units=1/GPa)
#
#
# Indices 1 2 3 4 5 6 
#
# 1 0.011173 -0.002188 -0.002141 -0.002427 -0.001453 0.000438
# 2 -0.002188 0.042174 -0.014651 -0.012024 0.008454 0.001267
# 3 -0.002141 -0.014651 0.012619 0.003049 -0.001946 -0.002191
# 4 -0.002427 -0.012024 0.003049 0.027094 -0.005420 0.002335
# 5 -0.001453 0.008454 -0.001946 -0.005420 0.027711 -0.006846
# 6 0.000438 0.001267 -0.002191 0.002335 -0.006846 0.039672
#
#
# Mechanical properties :
#
#
# Convention : Reuss Voigt Hill
#
# Bulk Modulus (GPa) = 35.70638 62.54514 49.12576
# Shear Modulus (GPa) = 24.06894 35.07529 29.57211
#
# Velocity S-wave (km/s) = 3.13266 3.78168 3.47237
# Velocity P-wave (km/s) = 5.25768 6.67604 6.00886
#
# Compressibility (1/GPa) = 0.02800620
#
# Stress axis : x y z
#
# Youngs Moduli (GPa) = 89.50259 23.71151 79.24779
#
# Poissons Ratio (x) = 0.05187 0.16966
# Poissons Ratio (y) = 0.19579 1.16106
# Poissons Ratio (z) = 0.19161 0.34740
#
# Static dielectric constant tensor:
#      x y z
#    x 4.580900 -0.061750 -0.157200 
#    y -0.061750 4.269340 0.300690 
#    z -0.157200 0.300690 4.892470 
# 
# 
# High freq. dielectric constant tensor:
#      x y z
#    x 1.975220 0.002110 -0.009560 
#    y 0.002110 1.966010 0.018930 
#    z -0.009560 0.018930 1.988170 
# 
# From -- ./inp_files/121627.got.cif
#   From: 2010.06.25/outbox.cif.g09.slc.cpg/sg2_61_cif.got.tgz:121627.got - 2010.06.27 13:26:56.
