data_PCOD8035133
_publ_section_title
;
Structure prediction by ZEFSAII (Michael W. Deem and Ramdas Pophale) SiO2 
 PCOD8035133
Probable space group: P -1
;
_chemical_formula_sum "Si O2"
_cell_formula_units_Z 14
_cell_length_a 6.798851
_cell_length_b 14.298026
_cell_length_c 13.957030
_cell_angle_alpha 30.561406
_cell_angle_beta 71.624543
_cell_angle_gamma 80.737189
_cell_volume 637.294319
_symmetry_space_group_name_H-M "P -1"
_symmetry_group_IT_number 2
_symmetry_cell_setting 'triclinic'
loop_
_space_group_symop_operation_xyz
x,y,z
-x,-y,-z
loop_
_atom_site_type_symbol
_atom_site_label
_atom_site_fract_x
_atom_site_fract_y
_atom_site_fract_z
Si Si1 0.403158 0.702074 0.101108
Si Si2 0.255830 0.898441 0.623620
Si Si3 0.313771 0.563032 0.029423
Si Si4 0.669811 0.103321 0.746777
Si Si5 0.069344 0.810587 0.181473
Si Si6 0.390343 0.388308 0.524683
Si Si7 0.016560 0.818026 0.538409
O O1 0.410069 0.676080 0.009415
O O2 0.173197 0.734446 0.140134
O O3 0.450217 0.516583 0.308114
O O4 0.593237 0.879443 0.942279
O O5 0.191789 0.872387 0.545895
O O6 0.500000 0.000000 0.500000
O O7 0.122637 0.026714 0.585402
O O8 0.210059 0.697333 0.860214
O O9 0.129840 0.385947 0.240760
O O10 0.500000 0.500000 0.000000
O O11 0.744554 0.150342 0.802332
O O12 0.473337 0.197339 0.668039
O O13 0.869718 0.188727 0.573901
O O14 0.863950 0.655766 0.384006
O O15 0.000000 0.000000 0.000000
O O16 0.500000 0.500000 0.500000
#
# Coordination Sequence:
#
# PCOD8035133 Si02
#       7
#     2   2   2   2   2   2   2
#     4  12  27  46  73 105 142 190 234 289 354 415
#     4  11  24  48  73  97 142 182 235 293 350 409
#     4  12  27  46  73 104 141 185 238 291 351 415
#     4  12  27  47  72 107 142 185 234 286 355 422
#     4  12  25  47  73 104 145 184 233 288 350 422
#     4  12  26  46  74 103 146 184 233 288 345 424
#     4  11  27  45  73 105 136 187 235 288 353 417
#
# _framework density 21.967870000000001
#
# number of rings (size 3 to 8) (size 9 to 14) (size 15 to 20)
#    0.000    0.286    4.286    3.857    8.000    3.429 
#    0.000    0.000    0.000    0.000    0.000    0.000 
#    0.000    0.000    0.000    0.000    0.000    0.000 
#
# Total GULP energy -173732.851387 kJ/mol
# GULP energy per Si atom -12409.489385 kJ/mol
# Density = 2.191787 g / cm^3
# Si number density = 21.967870 Si / 1000 Ang^3
#
#
#
# Elastic Constant Matrix: (Units=GPa)
#
#
# Indices 1 2 3 4 5 6 
#
# 1 118.6937 42.3945 44.7229 -2.7421 2.2791 -5.6660
# 2 42.3945 121.8076 24.6486 8.1267 -0.0238 -7.7495
# 3 44.7229 24.6486 133.8213 -5.3145 -0.8878 -15.4068
# 4 -2.7421 8.1267 -5.3145 35.7986 -1.0911 -6.1270
# 5 2.2791 -0.0238 -0.8878 -1.0911 56.5452 -6.3450
# 6 -5.6660 -7.7495 -15.4068 -6.1270 -6.3450 25.9184
#
#
#
# Elastic Compliance Matrix: (Units=1/GPa)
#
#
# Indices 1 2 3 4 5 6 
#
# 1 0.010717 -0.003213 -0.002982 0.001048 -0.000489 -0.000262
# 2 -0.003213 0.009698 -0.000651 -0.002312 0.000227 0.001319
# 3 -0.002982 -0.000651 0.009312 0.002263 0.000921 0.005450
# 4 0.001048 -0.002312 0.002263 0.030365 0.001525 0.008434
# 5 -0.000489 0.000227 0.000921 0.001525 0.018350 0.005361
# 6 -0.000262 0.001319 0.005450 0.008434 0.005361 0.045465
#
#
# Mechanical properties :
#
#
# Convention : Reuss Voigt Hill
#
# Bulk Modulus (GPa) = 62.35979 66.42830 64.39404
# Shear Modulus (GPa) = 34.97837 41.15622 38.06729
#
# Velocity S-wave (km/s) = 3.99463 4.33306 4.16728
# Velocity P-wave (km/s) = 7.05156 7.43898 7.24786
#
# Compressibility (1/GPa) = 0.01603598
#
# Stress axis : x y z
#
# Youngs Moduli (GPa) = 93.30644 103.11415 107.38416
#
# Poissons Ratio (x) = 0.33135 0.32019
# Poissons Ratio (y) = 0.29984 0.06988
# Poissons Ratio (z) = 0.27821 0.06710
#
# Static dielectric constant tensor:
#      x y z
#    x 4.171030 -0.058130 0.142900 
#    y -0.058130 4.087210 -0.035050 
#    z 0.142900 -0.035050 4.183410 
# 
# 
# High freq. dielectric constant tensor:
#      x y z
#    x 1.871240 -0.003170 0.001420 
#    y -0.003170 1.868160 -0.003460 
#    z 0.001420 -0.003460 1.887080 
# 
# From -- ./inp_files/48498.got.cif
#   From: 2010.06.25/outbox.cif.g09.slc.cpg/sg2_25_cif.got.tgz:48498.got - 2010.06.27 13:26:56.
