data_PCOD8035321
_publ_section_title
;
Structure prediction by ZEFSAII (Michael W. Deem and Ramdas Pophale) SiO2 
 PCOD8035321
Probable space group: P -1
;
_chemical_formula_sum "Si O2"
_cell_formula_units_Z 16
_cell_length_a 6.592381
_cell_length_b 22.707392
_cell_length_c 14.172641
_cell_angle_alpha 20.966081
_cell_angle_beta 99.179266
_cell_angle_gamma 101.451847
_cell_volume 741.994301
_symmetry_space_group_name_H-M "P -1"
_symmetry_group_IT_number 2
_symmetry_cell_setting 'triclinic'
loop_
_space_group_symop_operation_xyz
x,y,z
-x,-y,-z
loop_
_atom_site_type_symbol
_atom_site_label
_atom_site_fract_x
_atom_site_fract_y
_atom_site_fract_z
Si Si1 0.721695 0.668893 0.044846
Si Si2 0.727453 0.877331 0.426035
Si Si3 0.573376 0.576085 0.492382
Si Si4 0.988278 0.388679 0.442737
Si Si5 0.163275 0.446406 0.165353
Si Si6 0.096328 0.995941 0.410319
Si Si7 0.362858 0.874589 0.107302
Si Si8 0.442554 0.787485 0.701035
O O1 0.520455 0.561508 0.233928
O O2 0.891626 0.557676 0.192017
O O3 0.832380 0.813976 0.905046
O O4 0.650772 0.775895 0.792751
O O5 0.714714 0.697167 0.648573
O O6 0.519672 0.874147 0.478311
O O7 0.938156 0.907039 0.456114
O O8 0.736048 0.019931 0.135985
O O9 0.500000 0.500000 0.500000
O O10 0.495106 0.750915 0.247451
O O11 0.821442 0.601936 0.483203
O O12 0.822483 0.228435 0.693060
O O13 0.056365 0.375320 0.360275
O O14 0.336994 0.600213 0.963135
O O15 0.000000 0.500000 0.000000
O O16 0.292468 0.896527 0.579514
O O17 0.000000 0.000000 0.500000
O O18 0.500000 0.000000 0.000000
#
# Coordination Sequence:
#
# PCOD8035321 Si02
#       8
#     2   2   2   2   2   2   2   2
#     4  11  25  43  73 101 141 183 228 286 359 415
#     4  12  28  43  71 104 141 184 232 288 349 422
#     4  11  27  46  74 101 138 189 240 296 352 419
#     4  11  26  49  74 100 144 184 235 297 347 419
#     4  12  24  46  73 103 138 184 233 285 354 416
#     4  12  26  43  67 107 144 180 226 285 355 421
#     4  11  29  48  70 105 141 191 242 290 354 418
#     4  12  25  45  71 104 141 182 227 290 350 421
#
# _framework density 21.563507999999999
#
# number of rings (size 3 to 8) (size 9 to 14) (size 15 to 20)
#    0.000    0.500    3.750    3.000    8.750    3.000 
#    0.000    0.000    0.000    0.000    0.000    0.000 
#    0.000    0.000    0.000    0.000    0.000    0.000 
#
# Total GULP energy -198448.468682 kJ/mol
# GULP energy per Si atom -12403.029293 kJ/mol
# Density = 2.151443 g / cm^3
# Si number density = 21.563508 Si / 1000 Ang^3
#
#
#
# Elastic Constant Matrix: (Units=GPa)
#
#
# Indices 1 2 3 4 5 6 
#
# 1 124.7113 50.5608 45.2404 -6.4040 9.0214 0.3821
# 2 50.5608 120.8120 44.4200 -6.1811 8.7392 -2.0783
# 3 45.2404 44.4200 124.8370 -13.3777 6.5147 -5.6858
# 4 -6.4040 -6.1811 -13.3777 48.8004 3.3902 3.8520
# 5 9.0214 8.7392 6.5147 3.3902 37.6154 -4.0690
# 6 0.3821 -2.0783 -5.6858 3.8520 -4.0690 23.5983
#
#
#
# Elastic Compliance Matrix: (Units=1/GPa)
#
#
# Indices 1 2 3 4 5 6 
#
# 1 0.010419 -0.003323 -0.002530 0.000467 -0.001482 -0.001403
# 2 -0.003323 0.010696 -0.002496 0.000313 -0.001270 0.000124
# 3 -0.002530 -0.002496 0.010145 0.002026 -0.000554 0.001839
# 4 0.000467 0.000313 0.002026 0.021624 -0.002865 -0.003516
# 5 -0.001482 -0.001270 -0.000554 -0.002865 0.028141 0.005099
# 6 -0.001403 0.000124 0.001839 -0.003516 0.005099 0.044306
#
#
# Mechanical properties :
#
#
# Convention : Reuss Voigt Hill
#
# Bulk Modulus (GPa) = 68.67261 72.31140 70.49201
# Shear Modulus (GPa) = 34.04047 37.34543 35.69295
#
# Velocity S-wave (km/s) = 3.97749 4.16610 4.07289
# Velocity P-wave (km/s) = 7.28078 7.53318 7.40805
#
# Compressibility (1/GPa) = 0.01456185
#
# Stress axis : x y z
#
# Youngs Moduli (GPa) = 95.97770 93.49344 98.56855
#
# Poissons Ratio (x) = 0.31071 0.24936
# Poissons Ratio (y) = 0.31897 0.24603
# Poissons Ratio (z) = 0.24281 0.23336
#
# Static dielectric constant tensor:
#      x y z
#    x 4.044490 -0.189230 -0.090860 
#    y -0.189230 3.282190 0.134940 
#    z -0.090860 0.134940 4.045220 
# 
# 
# High freq. dielectric constant tensor:
#      x y z
#    x 1.859380 0.004240 -0.005370 
#    y 0.004240 1.854000 -0.011510 
#    z -0.005370 -0.011510 1.863830 
# 
# From -- ./inp_files/69602.got.cif
#   From: 2010.06.25/outbox.cif.g09.slc.cpg/sg2_35_cif.got.tgz:69602.got - 2010.06.27 13:26:56.
