data_PCOD8035093
_publ_section_title
;
Structure prediction by ZEFSAII (Michael W. Deem and Ramdas Pophale) SiO2 
 PCOD8035093
Probable space group: P -1
;
_chemical_formula_sum "Si O2"
_cell_formula_units_Z 16
_cell_length_a 14.206416
_cell_length_b 14.741597
_cell_length_c 9.787291
_cell_angle_alpha 103.349374
_cell_angle_beta 83.785954
_cell_angle_gamma 29.944141
_cell_volume 769.167978
_symmetry_space_group_name_H-M "P -1"
_symmetry_group_IT_number 2
_symmetry_cell_setting 'triclinic'
loop_
_space_group_symop_operation_xyz
x,y,z
-x,-y,-z
loop_
_atom_site_type_symbol
_atom_site_label
_atom_site_fract_x
_atom_site_fract_y
_atom_site_fract_z
Si Si1 0.319637 0.797532 0.642861
Si Si2 0.854702 0.483130 0.777302
Si Si3 0.652453 0.645315 0.147582
Si Si4 0.079042 0.146158 0.025542
Si Si5 0.145939 0.750860 0.653858
Si Si6 0.458703 0.954775 0.886178
Si Si7 0.305609 0.186679 0.713059
Si Si8 0.855304 0.955903 0.520410
O O1 0.221050 0.786271 0.698781
O O2 0.613663 0.531335 0.498848
O O3 0.215845 0.916503 0.552043
O O4 0.234033 0.949292 0.820647
O O5 0.706428 0.668290 0.743810
O O6 0.052690 0.371902 0.772169
O O7 0.967578 0.287064 0.635577
O O8 0.659700 0.635814 0.979240
O O9 0.749196 0.656463 0.191011
O O10 0.818826 0.411069 0.096859
O O11 0.377723 0.880016 0.318302
O O12 0.033141 0.126781 0.160102
O O13 0.230181 0.101131 0.024583
O O14 0.996883 0.891047 0.584634
O O15 0.414054 0.033086 0.770205
O O16 0.500000 0.000000 0.000000
O O17 0.500000 0.000000 0.500000
#
# Coordination Sequence:
#
# PCOD8035093 Si02
#       8
#     2   2   2   2   2   2   2   2
#     4  11  24  48  69  99 135 177 220 275 346 395
#     4  12  24  44  68  95 137 180 223 275 329 398
#     4  12  23  42  68  95 136 179 218 276 329 389
#     4  12  24  45  72  96 138 181 220 273 342 395
#     4  11  26  44  72 101 134 170 225 285 328 404
#     4  12  25  42  69  99 133 179 223 273 329 389
#     4  12  25  43  64  97 136 179 224 272 328 390
#     4  12  24  43  69 101 131 175 224 272 340 394
#
# _framework density 20.801697999999998
#
# number of rings (size 3 to 8) (size 9 to 14) (size 15 to 20)
#    0.000    0.250    6.250    3.375    0.000    1.500 
#    0.000    0.625    0.000    0.000    0.000    0.000 
#    0.000    0.000    0.000    0.000    0.000    0.000 
#
# Total GULP energy -198504.993637 kJ/mol
# GULP energy per Si atom -12406.562102 kJ/mol
# Density = 2.075435 g / cm^3
# Si number density = 20.801698 Si / 1000 Ang^3
#
#
#
# Elastic Constant Matrix: (Units=GPa)
#
#
# Indices 1 2 3 4 5 6 
#
# 1 -191.3038 -149.1293 -370.8524 -522.9360 -4.0104 149.0827
# 2 -149.1293 20.8316 -213.5286 -317.2413 -11.2699 91.4035
# 3 -370.8524 -213.5286 -467.0727 -755.9683 -12.6868 222.4547
# 4 -522.9360 -317.2413 -755.9683 -923.8783 13.5350 281.3386
# 5 -4.0104 -11.2699 -12.6868 13.5350 27.8906 -2.4453
# 6 149.0827 91.4035 222.4547 281.3386 -2.4453 -47.1914
#
#
#
# Elastic Compliance Matrix: (Units=1/GPa)
#
#
# Indices 1 2 3 4 5 6 
#
# 1 0.012446 -0.001285 -0.004040 -0.002596 0.000891 0.002260
# 2 -0.001285 0.009024 -0.001758 -0.000768 0.003069 0.000393
# 3 -0.004040 -0.001758 0.009515 -0.004701 0.005352 0.000379
# 4 -0.002596 -0.000768 -0.004701 0.006371 -0.005352 0.006410
# 5 0.000891 0.003069 0.005352 -0.005352 0.042244 -0.000112
# 6 0.002260 0.000393 0.000379 0.006410 -0.000112 0.026718
#
#
# Mechanical properties :
#
#
# Convention : Reuss Voigt Hill
#
# Bulk Modulus (GPa) = 59.46007 -233.84060 -87.19027
# Shear Modulus (GPa) = 39.65437 -182.23813 -71.29188
#
# Velocity S-wave (km/s) = 4.37086 -9.37003 -5.86059
# Velocity P-wave (km/s) = 7.35655 15.15657 9.37024
#
# Compressibility (1/GPa) = 0.01681801
#
# Stress axis : x y z
#
# Youngs Moduli (GPa) = 80.34963 110.81883 105.10040
#
# Poissons Ratio (x) = 0.14245 0.42459
# Poissons Ratio (y) = 0.10329 0.18474
# Poissons Ratio (z) = 0.32460 0.19479
#
# Static dielectric constant tensor:
#      x y z
#    x 3.767320 0.009560 -0.021020 
#    y 0.009560 3.917140 -0.050250 
#    z -0.021020 -0.050250 3.780320 
# 
# 
# High freq. dielectric constant tensor:
#      x y z
#    x 1.818210 0.000910 -0.001980 
#    y 0.000910 1.831970 0.003730 
#    z -0.001980 0.003730 1.822360 
# 
# From -- ./inp_files/315446.got.cif
#   From: 2010.06.25/outbox.cif.g09.slc.cpg/sg2_158_cif.got.tgz:315446.got - 2010.06.27 13:26:56.
