data_PCOD8035871
_publ_section_title
;
Structure prediction by ZEFSAII (Michael W. Deem and Ramdas Pophale) SiO2 
 PCOD8035871
Probable space group: P -1
;
_chemical_formula_sum "Si O2"
_cell_formula_units_Z 16
_cell_length_a 15.094211
_cell_length_b 8.968664
_cell_length_c 5.223656
_cell_angle_alpha 107.744876
_cell_angle_beta 92.593871
_cell_angle_gamma 97.652489
_cell_volume 664.743631
_symmetry_space_group_name_H-M "P -1"
_symmetry_group_IT_number 2
_symmetry_cell_setting 'triclinic'
loop_
_space_group_symop_operation_xyz
x,y,z
-x,-y,-z
loop_
_atom_site_type_symbol
_atom_site_label
_atom_site_fract_x
_atom_site_fract_y
_atom_site_fract_z
Si Si1 0.976351 0.112865 0.276235
Si Si2 0.856445 0.835826 0.386344
Si Si3 0.396980 0.924571 0.900501
Si Si4 0.466337 0.365916 0.626566
Si Si5 0.669507 0.932162 0.557201
Si Si6 0.185210 0.489781 0.009669
Si Si7 0.098276 0.587394 0.554442
Si Si8 0.619906 0.382191 0.998037
O O1 0.907503 0.233279 0.262911
O O2 0.071012 0.220627 0.436181
O O3 0.916638 0.000846 0.409365
O O4 0.000000 0.000000 0.000000
O O5 0.765588 0.874459 0.522708
O O6 0.831496 0.704315 0.087879
O O7 0.357990 0.989703 0.670472
O O8 0.387030 0.731342 0.807840
O O9 0.500000 0.000000 0.000000
O O10 0.331648 0.948157 0.144565
O O11 0.500000 0.500000 0.500000
O O12 0.403150 0.213910 0.428844
O O13 0.548623 0.297283 0.737069
O O14 0.406481 0.445646 0.861457
O O15 0.163008 0.523501 0.730751
O O16 0.130519 0.567903 0.257108
O O17 0.285753 0.575311 0.108848
O O18 0.000000 0.500000 0.500000
#
# Coordination Sequence:
#
# PCOD8035871 Si02
#       8
#     2   2   2   2   2   2   2   2
#     4  11  27  48  77 105 150 195 243 305 381 439
#     4  11  27  48  73 108 147 196 245 311 366 446
#     4  12  27  48  73 106 153 197 243 310 368 435
#     4  11  25  47  76 105 149 198 248 303 363 444
#     4  12  28  47  76 111 146 198 254 298 371 444
#     4  12  28  47  75 112 149 193 250 305 370 443
#     4  12  27  48  77 109 147 193 246 307 372 444
#     4  11  27  45  71 110 148 197 247 304 370 432
#
# _framework density 24.069427999999998
#
# number of rings (size 3 to 8) (size 9 to 14) (size 15 to 20)
#    0.000    0.500    3.750    2.250   14.000    0.000 
#    0.000    0.000    0.000    0.000    0.000    0.000 
#    0.000    0.000    0.000    0.000    0.000    0.000 
#
# Total GULP energy -198260.302872 kJ/mol
# GULP energy per Si atom -12391.268929 kJ/mol
# Density = 2.401465 g / cm^3
# Si number density = 24.069428 Si / 1000 Ang^3
#
#
#
# Elastic Constant Matrix: (Units=GPa)
#
#
# Indices 1 2 3 4 5 6 
#
# 1 138.3828 43.0722 30.2134 3.6188 -8.2850 11.9629
# 2 43.0722 104.4330 22.9833 -2.3103 1.8490 2.0571
# 3 30.2134 22.9833 97.5836 -4.5519 -19.4236 -1.9435
# 4 3.6188 -2.3103 -4.5519 42.3689 -4.6391 -0.3377
# 5 -8.2850 1.8490 -19.4236 -4.6391 34.2443 5.4603
# 6 11.9629 2.0571 -1.9435 -0.3377 5.4603 39.3301
#
#
#
# Elastic Compliance Matrix: (Units=1/GPa)
#
#
# Indices 1 2 3 4 5 6 
#
# 1 0.009028 -0.003326 -0.001780 -0.000982 0.001684 -0.002902
# 2 -0.003326 0.011470 -0.002181 0.000383 -0.002719 0.000685
# 3 -0.001780 -0.002181 0.012861 0.002209 0.007233 0.000306
# 4 -0.000982 0.000383 0.002209 0.024415 0.004302 0.000000
# 5 0.001684 -0.002719 0.007233 0.004302 0.035217 -0.004865
# 6 -0.002902 0.000685 0.000306 0.000000 -0.004865 0.026963
#
#
# Mechanical properties :
#
#
# Convention : Reuss Voigt Hill
#
# Bulk Modulus (GPa) = 53.23635 59.21526 56.22580
# Shear Modulus (GPa) = 35.51347 39.46402 37.48875
#
# Velocity S-wave (km/s) = 3.84534 4.05358 3.95083
# Velocity P-wave (km/s) = 6.47158 6.82378 6.65001
#
# Compressibility (1/GPa) = 0.01878416
#
# Stress axis : x y z
#
# Youngs Moduli (GPa) = 110.77157 87.18054 77.75225
#
# Poissons Ratio (x) = 0.28995 0.13842
# Poissons Ratio (y) = 0.36842 0.16961
# Poissons Ratio (z) = 0.19720 0.19018
#
# Static dielectric constant tensor:
#      x y z
#    x 8.336450 -1.725050 0.974390 
#    y -1.725050 7.345930 -0.367240 
#    z 0.974390 -0.367240 4.249750 
# 
# 
# High freq. dielectric constant tensor:
#      x y z
#    x 1.971190 -0.001150 -0.009360 
#    y -0.001150 1.970890 0.011640 
#    z -0.009360 0.011640 1.943880 
# 
# From -- ./inp_files/90982.got.cif
#   From: 2010.06.25/outbox.cif.g09.slc.cpg/sg2_46_cif.got.tgz:90982.got - 2010.06.27 13:26:56.
