data_PCOD8035152
_publ_section_title
;
Structure prediction by ZEFSAII (Michael W. Deem and Ramdas Pophale) SiO2 
 PCOD8035152
Probable space group: P -1
;
_chemical_formula_sum "Si O2"
_cell_formula_units_Z 16
_cell_length_a 14.450994
_cell_length_b 12.213873
_cell_length_c 10.070864
_cell_angle_alpha 36.960474
_cell_angle_beta 85.705405
_cell_angle_gamma 110.001005
_cell_volume 790.930450
_symmetry_space_group_name_H-M "P -1"
_symmetry_group_IT_number 2
_symmetry_cell_setting 'triclinic'
loop_
_space_group_symop_operation_xyz
x,y,z
-x,-y,-z
loop_
_atom_site_type_symbol
_atom_site_label
_atom_site_fract_x
_atom_site_fract_y
_atom_site_fract_z
Si Si1 0.275815 0.525670 0.228193
Si Si2 0.294910 0.670433 0.357092
Si Si3 0.450526 0.048698 0.582112
Si Si4 0.854801 0.792896 0.692142
Si Si5 0.679078 0.889422 0.661977
Si Si6 0.281666 0.660752 0.658470
Si Si7 0.491668 0.527036 0.246302
Si Si8 0.552945 0.804059 0.227638
O O1 0.218383 0.477256 0.430008
O O2 0.165600 0.316706 0.346179
O O3 0.384010 0.518458 0.219074
O O4 0.339130 0.797670 0.911587
O O5 0.223260 0.571438 0.601994
O O6 0.426856 0.744865 0.274016
O O7 0.322776 0.914717 0.078593
O O8 0.398763 0.172681 0.406083
O O9 0.576173 0.226643 0.485548
O O10 0.500000 0.000000 0.500000
O O11 0.797348 0.919374 0.586576
O O12 0.796671 0.574479 0.012907
O O13 0.000000 0.000000 0.500000
O O14 0.723209 0.138185 0.481782
O O15 0.594863 0.657630 0.994086
O O16 0.561255 0.665578 0.243750
O O17 0.435904 0.255340 0.560955
#
# Coordination Sequence:
#
# PCOD8035152 Si02
#       8
#     2   2   2   2   2   2   2   2
#     4  11  21  38  58  92 128 154 192 248 303 361
#     4  10  19  33  58  84 125 166 185 240 301 359
#     4  10  17  35  62  94 124 152 189 242 304 370
#     4  12  28  44  61  84 117 164 216 259 293 344
#     4  11  21  37  65  88 118 164 200 245 304 355
#     4  11  20  42  64  93 125 155 198 242 306 370
#     4  10  17  31  54  96 126 150 192 237 298 376
#     4   9  17  27  51  89 135 158 178 223 302 381
#
# _framework density 20.229337999999998
#
# number of rings (size 3 to 8) (size 9 to 14) (size 15 to 20)
#    0.000    1.500    6.250    2.250    0.000    4.500 
#    0.000    0.625    0.000    0.750    0.000    0.000 
#    0.000    0.000    0.000    0.000    0.000    0.000 
#
# Total GULP energy -198291.693632 kJ/mol
# GULP energy per Si atom -12393.230852 kJ/mol
# Density = 2.018329 g / cm^3
# Si number density = 20.229338 Si / 1000 Ang^3
#
#
#
# Elastic Constant Matrix: (Units=GPa)
#
#
# Indices 1 2 3 4 5 6 
#
# 1 85.1002 35.4940 50.2433 -4.4306 11.4074 6.8495
# 2 35.4940 141.1702 56.1639 13.6913 -4.4803 14.9553
# 3 50.2433 56.1639 74.1803 1.1238 21.2268 9.3258
# 4 -4.4306 13.6913 1.1238 30.5528 7.9053 5.6803
# 5 11.4074 -4.4803 21.2268 7.9053 26.3794 -4.4407
# 6 6.8495 14.9553 9.3258 5.6803 -4.4407 21.9167
#
#
#
# Elastic Compliance Matrix: (Units=1/GPa)
#
#
# Indices 1 2 3 4 5 6 
#
# 1 0.020033 0.000755 -0.014818 0.002580 0.002509 -0.000631
# 2 0.000755 0.016467 -0.020293 -0.013726 0.023848 0.005552
# 3 -0.014818 -0.020293 0.056514 0.022725 -0.053063 -0.022210
# 4 0.002580 -0.013726 0.022725 0.053579 -0.041738 -0.023453
# 5 0.002509 0.023848 -0.053063 -0.041738 0.102320 0.037071
# 6 -0.000631 0.005552 -0.022210 -0.023453 0.037071 0.065076
#
#
# Mechanical properties :
#
#
# Convention : Reuss Voigt Hill
#
# Bulk Modulus (GPa) = 41.15029 64.91702 53.03365
# Shear Modulus (GPa) = 12.79415 26.33974 19.56694
#
# Velocity S-wave (km/s) = 2.51759 3.61232 3.11345
# Velocity P-wave (km/s) = 5.37002 7.03979 6.26082
#
# Compressibility (1/GPa) = 0.02430116
#
# Stress axis : x y z
#
# Youngs Moduli (GPa) = 49.91641 60.72612 17.69488
#
# Poissons Ratio (x) = -0.04582 0.26220
# Poissons Ratio (y) = -0.03767 0.35908
# Poissons Ratio (z) = 0.73967 1.23232
#
# Static dielectric constant tensor:
#      x y z
#    x 3.560020 -0.068270 0.525510 
#    y -0.068270 4.399600 0.217100 
#    z 0.525510 0.217100 3.652510 
# 
# 
# High freq. dielectric constant tensor:
#      x y z
#    x 1.745970 -0.022540 0.052750 
#    y -0.022540 1.827000 0.021480 
#    z 0.052750 0.021480 1.773910 
# 
# From -- ./inp_files/454369.got.cif
#   From: 2010.06.25/outbox.cif.g09.slc.cpg/sg2_228_cif.got.tgz:454369.got - 2010.06.27 13:26:56.
