data_PCOD8035827
_publ_section_title
;
Structure prediction by ZEFSAII (Michael W. Deem and Ramdas Pophale) SiO2 
 PCOD8035827
Probable space group: P -1
;
_chemical_formula_sum "Si O2"
_cell_formula_units_Z 16
_cell_length_a 14.130030
_cell_length_b 12.620684
_cell_length_c 18.500300
_cell_angle_alpha 151.574211
_cell_angle_beta 31.634486
_cell_angle_gamma 128.384325
_cell_volume 707.564289
_symmetry_space_group_name_H-M "P -1"
_symmetry_group_IT_number 2
_symmetry_cell_setting 'triclinic'
loop_
_space_group_symop_operation_xyz
x,y,z
-x,-y,-z
loop_
_atom_site_type_symbol
_atom_site_label
_atom_site_fract_x
_atom_site_fract_y
_atom_site_fract_z
Si Si1 0.265373 0.208844 0.581584
Si Si2 0.288937 0.194210 0.884654
Si Si3 0.098828 0.472569 0.568593
Si Si4 0.394096 0.515126 0.905587
Si Si5 0.187192 0.828474 0.644817
Si Si6 0.856659 0.304491 0.961809
Si Si7 0.820162 0.904702 0.830873
Si Si8 0.633337 0.949665 0.739977
O O1 0.172484 0.509300 0.840877
O O2 0.274119 0.200238 0.484487
O O3 0.491076 0.026003 0.359580
O O4 0.100673 0.132218 0.674808
O O5 0.309618 0.418384 0.967239
O O6 0.195632 0.071911 0.816598
O O7 0.133168 0.330662 0.134247
O O8 0.218154 0.632097 0.572431
O O9 0.074591 0.369691 0.444218
O O10 0.233720 0.239002 0.394870
O O11 0.640529 0.314998 0.615486
O O12 0.281440 0.512098 0.903568
O O13 0.340104 0.802700 0.130951
O O14 0.963783 0.924051 0.810359
O O15 0.772257 0.117806 0.928294
O O16 0.607937 0.962644 0.041949
#
# Coordination Sequence:
#
# PCOD8035827 Si02
#       8
#     2   2   2   2   2   2   2   2
#     4  11  27  46  71 107 141 185 234 287 351 415
#     4  12  28  46  71 107 144 185 231 291 351 413
#     4  12  26  47  71 105 143 184 235 288 350 415
#     4  12  25  47  74 101 144 185 235 288 349 415
#     4  12  26  47  72 103 142 188 231 288 354 414
#     4  11  25  47  73 102 142 185 237 286 346 419
#     4  12  26  46  74 104 139 190 233 287 351 413
#     4  12  27  47  73 105 140 187 235 291 345 413
#
# _framework density 22.612784999999999
#
# number of rings (size 3 to 8) (size 9 to 14) (size 15 to 20)
#    0.000    0.250    3.750    4.500    8.750    2.000 
#    0.000    0.000    0.000    0.000    0.000    0.000 
#    0.000    0.000    0.000    0.000    0.000    0.000 
#
# Total GULP energy -198511.007419 kJ/mol
# GULP energy per Si atom -12406.937964 kJ/mol
# Density = 2.256132 g / cm^3
# Si number density = 22.612785 Si / 1000 Ang^3
#
#
#
# Elastic Constant Matrix: (Units=GPa)
#
#
# Indices 1 2 3 4 5 6 
#
# 1 112.1846 29.2767 44.2702 -7.6115 0.4775 5.1738
# 2 29.2767 129.9463 37.1730 -6.3010 7.4580 7.5080
# 3 44.2702 37.1730 126.4288 -22.2270 12.8663 4.6509
# 4 -7.6115 -6.3010 -22.2270 26.5151 -10.3301 -1.5241
# 5 0.4775 7.4580 12.8663 -10.3301 36.2752 -5.6683
# 6 5.1738 7.5080 4.6509 -1.5241 -5.6683 27.5647
#
#
#
# Elastic Compliance Matrix: (Units=1/GPa)
#
#
# Indices 1 2 3 4 5 6 
#
# 1 0.010671 -0.001462 -0.003348 0.000390 0.001343 -0.000742
# 2 -0.001462 0.008765 -0.001948 -0.000732 -0.001638 -0.002162
# 3 -0.003348 -0.001948 0.011109 0.007257 -0.001527 -0.000628
# 4 0.000390 -0.000732 0.007257 0.048672 0.012068 0.004075
# 5 0.001343 -0.001638 -0.001527 0.012068 0.033103 0.007926
# 6 -0.000742 -0.002162 -0.000628 0.004075 0.007926 0.038968
#
#
# Mechanical properties :
#
#
# Convention : Reuss Voigt Hill
#
# Bulk Modulus (GPa) = 58.71560 65.55552 62.13556
# Shear Modulus (GPa) = 29.32891 35.26032 32.29462
#
# Velocity S-wave (km/s) = 3.60530 3.95309 3.78320
# Velocity P-wave (km/s) = 6.58430 7.06324 6.82797
#
# Compressibility (1/GPa) = 0.01703125
#
# Stress axis : x y z
#
# Youngs Moduli (GPa) = 93.70845 114.08382 90.01791
#
# Poissons Ratio (x) = 0.16678 0.30134
# Poissons Ratio (y) = 0.13699 0.17534
# Poissons Ratio (z) = 0.31370 0.22221
#
# Static dielectric constant tensor:
#      x y z
#    x 3.986980 0.065120 0.063650 
#    y 0.065120 4.318900 -0.114890 
#    z 0.063650 -0.114890 4.090780 
# 
# 
# High freq. dielectric constant tensor:
#      x y z
#    x 1.894370 0.001020 0.000700 
#    y 0.001020 1.908660 -0.004720 
#    z 0.000700 -0.004720 1.900740 
# 
# From -- ./inp_files/392752.got.cif
#   From: 2010.06.25/outbox.cif.g09.slc.cpg/sg2_197_cif.got.tgz:392752.got - 2010.06.27 13:26:56.
