data_PCOD8035811
_publ_section_title
;
Structure prediction by ZEFSAII (Michael W. Deem and Ramdas Pophale) SiO2 
 PCOD8035811
Probable space group: P -1
;
_chemical_formula_sum "Si O2"
_cell_formula_units_Z 16
_cell_length_a 12.748355
_cell_length_b 9.104228
_cell_length_c 19.574252
_cell_angle_alpha 47.390385
_cell_angle_beta 153.299255
_cell_angle_gamma 124.466691
_cell_volume 746.094669
_symmetry_space_group_name_H-M "P -1"
_symmetry_group_IT_number 2
_symmetry_cell_setting 'triclinic'
loop_
_space_group_symop_operation_xyz
x,y,z
-x,-y,-z
loop_
_atom_site_type_symbol
_atom_site_label
_atom_site_fract_x
_atom_site_fract_y
_atom_site_fract_z
Si Si1 0.800139 0.039987 0.428085
Si Si2 0.094736 0.615501 0.377328
Si Si3 0.736777 0.360536 0.029952
Si Si4 0.639161 0.444330 0.165500
Si Si5 0.886052 0.894075 0.288650
Si Si6 0.005786 0.703368 0.143295
Si Si7 0.650614 0.102796 0.808889
Si Si8 0.519623 0.672626 0.233490
O O1 0.605896 0.216288 0.233031
O O2 0.893051 0.109664 0.531642
O O3 0.621206 0.872414 0.385875
O O4 0.000000 0.000000 0.500000
O O5 0.112546 0.694672 0.285186
O O6 0.339649 0.509873 0.584013
O O7 0.918004 0.447300 0.322074
O O8 0.980681 0.790748 0.305958
O O9 0.909782 0.496517 0.126959
O O10 0.808271 0.126151 0.155838
O O11 0.471563 0.402281 0.890743
O O12 0.689675 0.411020 0.906385
O O13 0.500000 0.500000 0.000000
O O14 0.687787 0.784919 0.246040
O O15 0.220730 0.736670 0.208758
O O16 0.796993 0.883351 0.958026
O O17 0.624290 0.164764 0.852930
#
# Coordination Sequence:
#
# PCOD8035811 Si02
#       8
#     2   2   2   2   2   2   2   2
#     4  12  22  40  67 103 131 171 222 282 339 387
#     4  12  24  43  66 103 138 172 222 275 341 393
#     4  12  25  40  67 100 134 176 220 271 338 393
#     4  12  21  35  65  97 135 169 219 276 330 396
#     4  12  25  39  68 105 136 169 219 282 343 389
#     4  11  27  47  69  94 134 187 226 269 321 414
#     4  11  25  47  71  93 134 180 232 267 334 394
#     4  12  25  42  68 102 137 171 217 288 333 393
#
# _framework density 21.445
#
# number of rings (size 3 to 8) (size 9 to 14) (size 15 to 20)
#    0.000    0.250    6.250    3.000    3.500    1.000 
#    0.000    0.625    0.000    0.000    0.000    0.000 
#    0.000    0.000    0.000    0.000    0.000    0.000 
#
# Total GULP energy -198235.439568 kJ/mol
# GULP energy per Si atom -12389.714973 kJ/mol
# Density = 2.139619 g / cm^3
# Si number density = 21.445000 Si / 1000 Ang^3
#
#
#
# Elastic Constant Matrix: (Units=GPa)
#
#
# Indices 1 2 3 4 5 6 
#
# 1 116.1981 57.5886 50.8950 20.0507 -5.8144 -10.2579
# 2 57.5886 80.3737 44.6757 2.8808 -6.3761 -14.9171
# 3 50.8950 44.6757 105.3627 0.9338 -12.9025 1.6138
# 4 20.0507 2.8808 0.9338 37.3050 -7.0786 -1.7657
# 5 -5.8144 -6.3761 -12.9025 -7.0786 38.5775 4.8050
# 6 -10.2579 -14.9171 1.6138 -1.7657 4.8050 36.0526
#
#
#
# Elastic Compliance Matrix: (Units=1/GPa)
#
#
# Indices 1 2 3 4 5 6 
#
# 1 0.016388 -0.009050 -0.004279 -0.008357 -0.002112 0.000982
# 2 -0.009050 0.023338 -0.005628 0.003622 0.000346 0.007464
# 3 -0.004279 -0.005628 0.014529 0.002988 0.004410 -0.004638
# 4 -0.008357 0.003622 0.002988 0.032119 0.006266 -0.000275
# 5 -0.002112 0.000346 0.004410 0.006266 0.028807 -0.004188
# 6 0.000982 0.007464 -0.004638 -0.000275 -0.004188 0.031857
#
#
# Mechanical properties :
#
#
# Convention : Reuss Voigt Hill
#
# Bulk Modulus (GPa) = 61.19431 67.58367 64.38899
# Shear Modulus (GPa) = 26.26068 32.30536 29.28302
#
# Velocity S-wave (km/s) = 3.50317 3.88548 3.69927
# Velocity P-wave (km/s) = 6.70525 7.19115 6.95244
#
# Compressibility (1/GPa) = 0.01634139
#
# Stress axis : x y z
#
# Youngs Moduli (GPa) = 61.01947 42.84932 68.82851
#
# Poissons Ratio (x) = 0.38778 0.29449
# Poissons Ratio (y) = 0.55221 0.38738
# Poissons Ratio (z) = 0.26108 0.24116
#
# Static dielectric constant tensor:
#      x y z
#    x 3.737290 -0.444470 -0.431240 
#    y -0.444470 3.540780 -0.317240 
#    z -0.431240 -0.317240 3.495150 
# 
# 
# High freq. dielectric constant tensor:
#      x y z
#    x 1.835750 -0.023410 -0.003320 
#    y -0.023410 1.844140 0.003270 
#    z -0.003320 0.003270 1.855090 
# 
# From -- ./inp_files/273882.got.cif
#   From: 2010.06.25/outbox.cif.g09.slc.cpg/sg2_137_cif.got.tgz:273882.got - 2010.06.27 13:26:56.
