data_PCOD8035979
_publ_section_title
;
Structure prediction by ZEFSAII (Michael W. Deem and Ramdas Pophale) SiO2 
 PCOD8035979
Probable space group: P -1
;
_chemical_formula_sum "Si O2"
_cell_formula_units_Z 10
_cell_length_a 7.892868
_cell_length_b 8.363920
_cell_length_c 9.180425
_cell_angle_alpha 131.277795
_cell_angle_beta 74.153084
_cell_angle_gamma 80.005602
_cell_volume 382.131042
_symmetry_space_group_name_H-M "P -1"
_symmetry_group_IT_number 2
_symmetry_cell_setting 'triclinic'
loop_
_space_group_symop_operation_xyz
x,y,z
-x,-y,-z
loop_
_atom_site_type_symbol
_atom_site_label
_atom_site_fract_x
_atom_site_fract_y
_atom_site_fract_z
Si Si1 0.934353 0.372427 0.561281
Si Si2 0.489791 0.735357 0.228178
Si Si3 0.500372 0.782650 0.950494
Si Si4 0.073583 0.887741 0.075310
Si Si5 0.837889 0.787472 0.294637
O O1 0.691647 0.518521 0.716524
O O2 0.000000 0.500000 0.500000
O O3 0.023264 0.369249 0.697829
O O4 0.017242 0.098131 0.331365
O O5 0.683132 0.681823 0.247703
O O6 0.282272 0.917512 0.470746
O O7 0.500000 0.500000 0.000000
O O8 0.491765 0.885961 0.176935
O O9 0.317074 0.730739 0.920370
O O10 0.500000 0.000000 0.000000
O O11 0.971441 0.738064 0.083822
O O12 0.000000 0.000000 0.000000
#
# Coordination Sequence:
#
# PCOD8035979 Si02
#       5
#     2   2   2   2   2
#     4  12  26  48  79 112 158 205 260 320 383 466
#     4  11  25  48  81 113 152 202 262 319 387 467
#     4  12  25  47  75 110 158 201 258 319 387 459
#     4  12  27  48  77 114 158 204 257 322 386 460
#     4  11  26  50  78 115 158 205 259 320 388 461
#
# _framework density 26.169035999999998
#
# number of rings (size 3 to 8) (size 9 to 14) (size 15 to 20)
#    0.000    0.400    4.000    3.000    2.800    4.800 
#    0.000    0.000    0.000    0.000    0.000    0.000 
#    0.000    0.000    0.000    0.000    0.000    0.000 
#
# Total GULP energy -123908.433112 kJ/mol
# GULP energy per Si atom -12390.843311 kJ/mol
# Density = 2.610947 g / cm^3
# Si number density = 26.169036 Si / 1000 Ang^3
#
#
#
# Elastic Constant Matrix: (Units=GPa)
#
#
# Indices 1 2 3 4 5 6 
#
# 1 178.6730 60.9465 68.0226 -1.3181 -27.7527 -29.8200
# 2 60.9465 144.9827 20.8527 -35.9085 -5.6371 -13.5677
# 3 68.0226 20.8527 129.0320 3.5053 -13.4754 -12.0618
# 4 -1.3181 -35.9085 3.5053 54.1514 1.4488 0.7139
# 5 -27.7527 -5.6371 -13.4754 1.4488 57.2874 1.2416
# 6 -29.8200 -13.5677 -12.0618 0.7139 1.2416 51.6040
#
#
#
# Elastic Compliance Matrix: (Units=1/GPa)
#
#
# Indices 1 2 3 4 5 6 
#
# 1 0.009187 -0.003363 -0.003578 -0.001908 0.003250 0.003537
# 2 -0.003363 0.009961 -0.000047 0.006541 -0.000838 0.000595
# 3 -0.003578 -0.000047 0.009742 -0.000766 0.000569 0.000194
# 4 -0.001908 0.006541 -0.000766 0.022833 -0.001042 0.000147
# 5 0.003250 -0.000838 0.000569 -0.001042 0.019079 0.001346
# 6 0.003537 0.000595 0.000194 0.000147 0.001346 0.021589
#
#
# Mechanical properties :
#
#
# Convention : Reuss Voigt Hill
#
# Bulk Modulus (GPa) = 67.04499 83.59237 75.31868
# Shear Modulus (GPa) = 44.90877 52.79962 48.85420
#
# Velocity S-wave (km/s) = 4.14708 4.49668 4.32542
# Velocity P-wave (km/s) = 6.97185 7.67938 7.33415
#
# Compressibility (1/GPa) = 0.01491536
#
# Stress axis : x y z
#
# Youngs Moduli (GPa) = 108.85087 100.39495 102.64709
#
# Poissons Ratio (x) = 0.33759 0.36726
# Poissons Ratio (y) = 0.36602 0.00479
# Poissons Ratio (z) = 0.38945 0.00469
#
# Static dielectric constant tensor:
#      x y z
#    x 5.175800 0.291460 -0.039470 
#    y 0.291460 5.666640 -0.377670 
#    z -0.039470 -0.377670 5.685440 
# 
# 
# High freq. dielectric constant tensor:
#      x y z
#    x 2.055320 0.001100 -0.014940 
#    y 0.001100 2.075860 0.000690 
#    z -0.014940 0.000690 2.063590 
# 
# From -- ./inp_files/156319.got.cif
#   From: 2010.06.25/outbox.cif.g09.slc.cpg/sg2_79_cif.got.tgz:156319.got - 2010.06.27 13:26:56.
