data_PCOD8035493
_publ_section_title
;
Structure prediction by ZEFSAII (Michael W. Deem and Ramdas Pophale) SiO2 
 PCOD8035493
Probable space group: P -1
;
_chemical_formula_sum "Si O2"
_cell_formula_units_Z 16
_cell_length_a 8.736181
_cell_length_b 12.232416
_cell_length_c 11.653523
_cell_angle_alpha 58.288444
_cell_angle_beta 130.408637
_cell_angle_gamma 130.021396
_cell_volume 713.433226
_symmetry_space_group_name_H-M "P -1"
_symmetry_group_IT_number 2
_symmetry_cell_setting 'triclinic'
loop_
_space_group_symop_operation_xyz
x,y,z
-x,-y,-z
loop_
_atom_site_type_symbol
_atom_site_label
_atom_site_fract_x
_atom_site_fract_y
_atom_site_fract_z
Si Si1 0.167336 0.679289 0.179392
Si Si2 0.573745 0.130951 0.598450
Si Si3 0.201099 0.214718 0.295990
Si Si4 0.559946 0.183514 0.217774
Si Si5 0.719318 0.135310 0.079568
Si Si6 0.235222 0.412118 0.409840
Si Si7 0.309504 0.347243 0.036882
Si Si8 0.083625 0.652719 0.520265
O O1 0.377784 0.795218 0.293439
O O2 0.132231 0.517731 0.263801
O O3 0.223883 0.725494 0.049219
O O4 0.936549 0.679172 0.109387
O O5 0.352621 0.133864 0.434859
O O6 0.801904 0.218765 0.586749
O O7 0.525072 0.965483 0.670489
O O8 0.172679 0.286446 0.358147
O O9 0.317200 0.335400 0.186154
O O10 0.937414 0.103058 0.197842
O O11 0.681477 0.176188 0.165569
O O12 0.350367 0.217537 0.072909
O O13 0.733377 0.318735 0.305280
O O14 0.500000 0.000000 0.000000
O O15 0.500000 0.500000 0.500000
O O16 0.131801 0.345332 0.521904
O O17 0.500000 0.500000 0.000000
O O18 0.000000 0.500000 0.500000
#
# Coordination Sequence:
#
# PCOD8035493 Si02
#       8
#     2   2   2   2   2   2   2   2
#     4  11  25  45  71 105 149 188 247 308 360 442
#     4  12  25  48  75 111 150 186 249 314 367 439
#     4  11  25  45  75 107 145 189 249 305 366 438
#     4  12  26  49  75 104 150 198 247 302 383 426
#     4  11  25  49  71 103 150 194 245 292 367 451
#     4  12  24  44  72 109 144 191 241 303 374 424
#     4  11  27  45  71 103 146 196 247 301 365 445
#     4  12  24  45  75 108 146 187 246 307 364 436
#
# _framework density 22.426766000000001
#
# number of rings (size 3 to 8) (size 9 to 14) (size 15 to 20)
#    0.000    0.500    6.250    1.125    1.750    2.000 
#    2.250    0.000    0.000    0.000    0.000    0.000 
#    0.000    0.000    0.000    0.000    0.000    0.000 
#
# Total GULP energy -198378.103431 kJ/mol
# GULP energy per Si atom -12398.631464 kJ/mol
# Density = 2.237572 g / cm^3
# Si number density = 22.426766 Si / 1000 Ang^3
#
#
#
# Elastic Constant Matrix: (Units=GPa)
#
#
# Indices 1 2 3 4 5 6 
#
# 1 166.0389 57.4612 56.3710 -14.6662 -4.9476 23.4370
# 2 57.4612 123.2765 49.2658 -7.0163 3.6570 11.1046
# 3 56.3710 49.2658 109.2018 -11.2932 9.0369 14.9308
# 4 -14.6662 -7.0163 -11.2932 41.8829 -6.1010 0.1774
# 5 -4.9476 3.6570 9.0369 -6.1010 47.0290 2.1970
# 6 23.4370 11.1046 14.9308 0.1774 2.1970 37.9284
#
#
#
# Elastic Compliance Matrix: (Units=1/GPa)
#
#
# Indices 1 2 3 4 5 6 
#
# 1 0.008592 -0.002517 -0.002753 0.002163 0.002078 -0.003619
# 2 -0.002517 0.010698 -0.003475 -0.000089 -0.000432 -0.000183
# 3 -0.002753 -0.003475 0.012792 0.001596 -0.002168 -0.002199
# 4 0.002163 -0.000089 0.001596 0.025546 0.003347 -0.002252
# 5 0.002078 -0.000432 -0.002168 0.003347 0.022442 -0.001620
# 6 -0.003619 -0.000183 -0.002199 -0.002252 -0.001620 0.029625
#
#
# Mechanical properties :
#
#
# Convention : Reuss Voigt Hill
#
# Bulk Modulus (GPa) = 68.53850 80.52368 74.53109
# Shear Modulus (GPa) = 37.86400 41.06269 39.46335
#
# Velocity S-wave (km/s) = 4.11340 4.28362 4.19937
# Velocity P-wave (km/s) = 7.29297 7.77490 7.53779
#
# Compressibility (1/GPa) = 0.01459034
#
# Stress axis : x y z
#
# Youngs Moduli (GPa) = 116.38134 93.47210 78.17609
#
# Poissons Ratio (x) = 0.23530 0.21524
# Poissons Ratio (y) = 0.29297 0.27170
# Poissons Ratio (z) = 0.32044 0.32486
#
# Static dielectric constant tensor:
#      x y z
#    x 4.532590 0.218750 -0.028020 
#    y 0.218750 3.837320 0.001250 
#    z -0.028020 0.001250 4.171190 
# 
# 
# High freq. dielectric constant tensor:
#      x y z
#    x 1.906450 0.014930 -0.007260 
#    y 0.014930 1.871980 0.006600 
#    z -0.007260 0.006600 1.886320 
# 
# From -- ./inp_files/274302.got.cif
#   From: 2010.06.25/outbox.cif.g09.slc.cpg/sg2_138_cif.got.tgz:274302.got - 2010.06.27 13:26:56.
