data_PCOD8035523
_publ_section_title
;
Structure prediction by ZEFSAII (Michael W. Deem and Ramdas Pophale) SiO2 
 PCOD8035523
Probable space group: P -1
;
_chemical_formula_sum "Si O2"
_cell_formula_units_Z 14
_cell_length_a 10.761925
_cell_length_b 11.962840
_cell_length_c 8.678196
_cell_angle_alpha 132.128762
_cell_angle_beta 59.878089
_cell_angle_gamma 137.422982
_cell_volume 560.547370
_symmetry_space_group_name_H-M "P -1"
_symmetry_group_IT_number 2
_symmetry_cell_setting 'triclinic'
loop_
_space_group_symop_operation_xyz
x,y,z
-x,-y,-z
loop_
_atom_site_type_symbol
_atom_site_label
_atom_site_fract_x
_atom_site_fract_y
_atom_site_fract_z
Si Si1 0.675531 0.044269 0.568640
Si Si2 0.322676 0.548382 0.572260
Si Si3 0.636215 0.727722 0.101773
Si Si4 0.630588 0.754187 0.797368
Si Si5 0.982685 0.151759 0.963025
Si Si6 0.724823 0.200176 0.362665
Si Si7 0.984548 0.665101 0.190554
O O1 0.755765 0.206589 0.533885
O O2 0.821326 0.135371 0.698314
O O3 0.629319 0.844352 0.352257
O O4 0.487566 0.987615 0.705254
O O5 0.488292 0.730175 0.738834
O O6 0.394478 0.442592 0.353075
O O7 0.249366 0.613279 0.545808
O O8 0.161885 0.394093 0.643517
O O9 0.500000 0.500000 0.000000
O O10 0.584817 0.781819 0.025177
O O11 0.847400 0.812562 0.021053
O O12 0.838141 0.934084 0.787970
O O13 0.871559 0.192305 0.179257
O O14 0.075410 0.297898 0.897171
O O15 0.000000 0.500000 0.000000
#
# Coordination Sequence:
#
# PCOD8035523 Si02
#       7
#     2   2   2   2   2   2   2
#     4  11  27  48  72 109 152 190 243 299 368 433
#     4  11  25  45  72 109 146 189 247 296 365 434
#     4  12  26  48  75 106 148 193 246 298 365 436
#     4  11  25  45  74 103 146 194 240 299 363 436
#     4  12  26  46  77 104 146 195 241 300 366 430
#     4  11  25  47  74 109 143 195 240 305 361 429
#     4  12  27  44  71 108 147 189 240 301 357 432
#
# _framework density 24.975584999999999
#
# number of rings (size 3 to 8) (size 9 to 14) (size 15 to 20)
#    0.000    0.571    2.857    3.857    4.000    9.714 
#    0.000    0.000    0.000    0.000    0.000    0.000 
#    0.000    0.000    0.000    0.000    0.000    0.000 
#
# Total GULP energy -173604.093941 kJ/mol
# GULP energy per Si atom -12400.292424 kJ/mol
# Density = 2.491874 g / cm^3
# Si number density = 24.975585 Si / 1000 Ang^3
#
#
#
# Elastic Constant Matrix: (Units=GPa)
#
#
# Indices 1 2 3 4 5 6 
#
# 1 64.8778 0.6229 6.8525 5.4218 -11.7962 9.3283
# 2 0.6229 100.3490 2.5137 -2.8551 -1.5343 2.3278
# 3 6.8525 2.5137 69.0377 12.0948 -6.5784 7.5247
# 4 5.4218 -2.8551 12.0948 46.7084 4.5205 0.4120
# 5 -11.7962 -1.5343 -6.5784 4.5205 33.8919 -0.0898
# 6 9.3283 2.3278 7.5247 0.4120 -0.0898 56.0462
#
#
#
# Elastic Compliance Matrix: (Units=1/GPa)
#
#
# Indices 1 2 3 4 5 6 
#
# 1 0.017194 -0.000008 -0.000375 -0.002478 0.006235 -0.002783
# 2 -0.000008 0.010008 -0.000420 0.000698 0.000275 -0.000363
# 3 -0.000375 -0.000420 0.015864 -0.004412 0.003513 -0.002012
# 4 -0.002478 0.000698 -0.004412 0.023340 -0.004798 0.000797
# 5 0.006235 0.000275 0.003513 -0.004798 0.033006 -0.001433
# 6 -0.002783 -0.000363 -0.002012 0.000797 -0.001433 0.018583
#
#
# Mechanical properties :
#
#
# Convention : Reuss Voigt Hill
#
# Bulk Modulus (GPa) = 24.11924 28.24921 26.18422
# Shear Modulus (GPa) = 37.47525 42.28098 39.87811
#
# Velocity S-wave (km/s) = 3.87780 4.11894 4.00019
# Velocity P-wave (km/s) = 5.45233 5.82719 5.64287
#
# Compressibility (1/GPa) = 0.04146068
#
# Stress axis : x y z
#
# Youngs Moduli (GPa) = 58.15966 99.91739 63.03421
#
# Poissons Ratio (x) = 0.00080 0.02363
# Poissons Ratio (y) = 0.00046 0.02649
# Poissons Ratio (z) = 0.02180 0.04199
#
# Static dielectric constant tensor:
#      x y z
#    x 4.614510 0.001150 0.024080 
#    y 0.001150 4.719100 -0.108180 
#    z 0.024080 -0.108180 4.383850 
# 
# 
# High freq. dielectric constant tensor:
#      x y z
#    x 2.000180 -0.003270 -0.000460 
#    y -0.003270 2.008530 -0.004720 
#    z -0.000460 -0.004720 1.987770 
# 
# From -- ./inp_files/245377.got.cif
#   From: 2010.06.25/outbox.cif.g09.slc.cpg/sg2_123_cif.got.tgz:245377.got - 2010.06.27 13:26:56.
