data_PCOD8035182
_publ_section_title
;
Structure prediction by ZEFSAII (Michael W. Deem and Ramdas Pophale) SiO2 
 PCOD8035182
Probable space group: P -1
;
_chemical_formula_sum "Si O2"
_cell_formula_units_Z 14
_cell_length_a 9.079338
_cell_length_b 28.470273
_cell_length_c 5.279966
_cell_angle_alpha 70.088687
_cell_angle_beta 122.630333
_cell_angle_gamma 147.748260
_cell_volume 592.784926
_symmetry_space_group_name_H-M "P -1"
_symmetry_group_IT_number 2
_symmetry_cell_setting 'triclinic'
loop_
_space_group_symop_operation_xyz
x,y,z
-x,-y,-z
loop_
_atom_site_type_symbol
_atom_site_label
_atom_site_fract_x
_atom_site_fract_y
_atom_site_fract_z
Si Si1 0.790546 0.000180 0.799530
Si Si2 0.209334 0.334815 0.587598
Si Si3 0.848322 0.485632 0.131825
Si Si4 0.843113 0.173464 0.233376
Si Si5 0.987238 0.892099 0.694142
Si Si6 0.770930 0.576853 0.910117
Si Si7 0.291727 0.766605 0.305677
O O1 0.859788 0.042889 0.519942
O O2 0.411857 0.899477 0.647295
O O3 0.855904 0.052557 0.000524
O O4 0.000000 0.000000 0.000000
O O5 0.369032 0.423849 0.452789
O O6 0.155870 0.275135 0.458888
O O7 0.860003 0.265553 0.496781
O O8 0.465166 0.382511 0.958999
O O9 0.000000 0.500000 0.500000
O O10 0.938560 0.564881 0.031682
O O11 0.000000 0.500000 0.000000
O O12 0.961055 0.154286 0.216632
O O13 0.658132 0.165902 0.881771
O O14 0.615342 0.813529 0.525440
O O15 0.500000 0.500000 0.000000
O O16 0.044939 0.679184 0.063713
#
# Coordination Sequence:
#
# PCOD8035182 Si02
#       7
#     2   2   2   2   2   2   2
#     4  12  25  50  78 108 153 200 249 302 376 445
#     4  11  26  48  76 104 151 201 248 315 380 449
#     4  12  28  46  74 110 145 191 252 313 373 445
#     4  11  27  47  74 111 150 195 251 311 369 450
#     4  12  28  47  77 112 149 200 247 309 372 446
#     4  11  24  49  72 103 144 202 250 303 382 450
#     4  11  26  45  75 105 150 196 245 311 376 442
#
# _framework density 23.617334
#
# number of rings (size 3 to 8) (size 9 to 14) (size 15 to 20)
#    0.000    0.571    2.857    3.429   12.000    0.000 
#    0.000    0.000    0.000    0.000    0.000    0.000 
#    0.000    0.000    0.000    0.000    0.000    0.000 
#
# Total GULP energy -173568.358086 kJ/mol
# GULP energy per Si atom -12397.739863 kJ/mol
# Density = 2.356358 g / cm^3
# Si number density = 23.617334 Si / 1000 Ang^3
#
#
#
# Elastic Constant Matrix: (Units=GPa)
#
#
# Indices 1 2 3 4 5 6 
#
# 1 173.9133 64.7410 44.9228 -6.0075 4.9663 -14.8602
# 2 64.7410 115.2239 40.6651 -8.6593 10.3303 6.7269
# 3 44.9228 40.6651 104.5301 0.4410 2.1232 2.7789
# 4 -6.0075 -8.6593 0.4410 26.0476 10.8790 -1.9606
# 5 4.9663 10.3303 2.1232 10.8790 37.9963 -5.6182
# 6 -14.8602 6.7269 2.7789 -1.9606 -5.6182 56.0637
#
#
#
# Elastic Compliance Matrix: (Units=1/GPa)
#
#
# Indices 1 2 3 4 5 6 
#
# 1 0.007967 -0.003923 -0.001980 0.000621 0.000363 0.002739
# 2 -0.003923 0.013001 -0.003225 0.005249 -0.004749 -0.002732
# 3 -0.001980 -0.003225 0.011679 -0.002201 0.001011 -0.000693
# 4 0.000621 0.005249 -0.002201 0.046447 -0.014714 -0.000206
# 5 0.000363 -0.004749 0.001011 -0.014714 0.032211 0.003329
# 6 0.002739 -0.002732 -0.000693 -0.000206 0.003329 0.019251
#
#
# Mechanical properties :
#
#
# Convention : Reuss Voigt Hill
#
# Bulk Modulus (GPa) = 69.49012 77.14725 73.31868
# Shear Modulus (GPa) = 32.54982 40.24407 36.39694
#
# Velocity S-wave (km/s) = 3.71646 4.13244 3.92996
# Velocity P-wave (km/s) = 6.92122 7.45022 7.19059
#
# Compressibility (1/GPa) = 0.01439054
#
# Stress axis : x y z
#
# Youngs Moduli (GPa) = 125.51496 76.91722 85.62058
#
# Poissons Ratio (x) = 0.30177 0.16957
# Poissons Ratio (y) = 0.49244 0.27610
# Poissons Ratio (z) = 0.24858 0.24804
#
# Static dielectric constant tensor:
#      x y z
#    x 4.191630 0.878160 -0.169770 
#    y 0.878160 2.065530 0.545470 
#    z -0.169770 0.545470 4.273610 
# 
# 
# High freq. dielectric constant tensor:
#      x y z
#    x 1.953920 -0.007570 -0.006670 
#    y -0.007570 1.947950 0.002430 
#    z -0.006670 0.002430 1.936000 
# 
# From -- ./inp_files/56375.got.cif
#   From: 2010.06.25/outbox.cif.g09.slc.cpg/sg2_29_cif.got.tgz:56375.got - 2010.06.27 13:26:56.
