data_PCOD8035794
_publ_section_title
;
Structure prediction by ZEFSAII (Michael W. Deem and Ramdas Pophale) SiO2 
 PCOD8035794
Probable space group: P -1
;
_chemical_formula_sum "Si O2"
_cell_formula_units_Z 16
_cell_length_a 9.092020
_cell_length_b 9.855782
_cell_length_c 10.922709
_cell_angle_alpha 98.027408
_cell_angle_beta 52.408851
_cell_angle_gamma 92.121238
_cell_volume 766.515401
_symmetry_space_group_name_H-M "P -1"
_symmetry_group_IT_number 2
_symmetry_cell_setting 'triclinic'
loop_
_space_group_symop_operation_xyz
x,y,z
-x,-y,-z
loop_
_atom_site_type_symbol
_atom_site_label
_atom_site_fract_x
_atom_site_fract_y
_atom_site_fract_z
Si Si1 0.299336 0.257175 0.150177
Si Si2 0.372545 0.130456 0.546599
Si Si3 0.993998 0.890583 0.149623
Si Si4 0.032023 0.794562 0.846282
Si Si5 0.796297 0.465553 0.641561
Si Si6 0.297084 0.778656 0.173274
Si Si7 0.208989 0.039985 0.371034
Si Si8 0.628768 0.373205 0.465689
O O1 0.160876 0.268945 0.105007
O O2 0.302079 0.393706 0.245589
O O3 0.230944 0.133360 0.251847
O O4 0.507856 0.242282 0.995122
O O5 0.203624 0.165298 0.727851
O O6 0.294124 0.121373 0.448645
O O7 0.495731 0.253802 0.517317
O O8 0.500000 0.000000 0.500000
O O9 0.149086 0.841517 0.160326
O O10 0.052453 0.823341 0.982810
O O11 0.960752 0.055471 0.199133
O O12 0.192773 0.679450 0.712527
O O13 0.787058 0.355969 0.742722
O O14 0.690280 0.404756 0.574738
O O15 0.000000 0.500000 0.500000
O O16 0.324927 0.894560 0.276574
O O17 0.000000 0.000000 0.500000
O O18 0.500000 0.500000 0.500000
#
# Coordination Sequence:
#
# PCOD8035794 Si02
#       8
#     2   2   2   2   2   2   2   2
#     4  12  26  46  72 104 144 191 234 298 356 425
#     4  12  25  43  71 104 141 184 237 296 347 421
#     4  11  26  44  72 108 148 181 234 298 360 426
#     4  11  25  47  70 107 148 185 231 297 363 422
#     4  12  27  50  73  98 146 191 244 301 351 425
#     4  12  27  44  74 109 139 190 241 292 363 423
#     4  12  24  44  75 104 139 186 245 294 348 420
#     4  12  28  47  72 105 139 190 240 291 361 425
#
# _framework density 20.873684000000001
#
# number of rings (size 3 to 8) (size 9 to 14) (size 15 to 20)
#    0.000    0.250    5.000    3.000    8.750    0.000 
#    0.000    1.250    0.000    0.000    0.000    0.000 
#    0.000    0.000    0.000    0.000    0.000    0.000 
#
# Total GULP energy -198333.156586 kJ/mol
# GULP energy per Si atom -12395.822287 kJ/mol
# Density = 2.082617 g / cm^3
# Si number density = 20.873684 Si / 1000 Ang^3
#
#
#
# Elastic Constant Matrix: (Units=GPa)
#
#
# Indices 1 2 3 4 5 6 
#
# 1 128.8463 47.3328 53.8205 -3.5246 -14.4761 9.5962
# 2 47.3328 135.9498 70.2411 2.1719 -11.4886 4.4127
# 3 53.8205 70.2411 147.4593 8.8718 -19.7941 -4.8500
# 4 -3.5246 2.1719 8.8718 45.7888 -0.7078 0.7288
# 5 -14.4761 -11.4886 -19.7941 -0.7078 35.4710 6.9347
# 6 9.5962 4.4127 -4.8500 0.7288 6.9347 41.9858
#
#
#
# Elastic Compliance Matrix: (Units=1/GPa)
#
#
# Indices 1 2 3 4 5 6 
#
# 1 0.010093 -0.001866 -0.002623 0.001460 0.002643 -0.002876
# 2 -0.001866 0.010245 -0.004190 0.000209 0.000460 -0.001214
# 3 -0.002623 -0.004190 0.010307 -0.001983 0.002936 0.001780
# 4 0.001460 0.000209 -0.001983 0.022345 0.000199 -0.001006
# 5 0.002643 0.000460 0.002936 0.000199 0.032163 -0.005629
# 6 -0.002876 -0.001214 0.001780 -0.001006 -0.005629 0.025755
#
#
# Mechanical properties :
#
#
# Convention : Reuss Voigt Hill
#
# Bulk Modulus (GPa) = 75.25571 83.89379 79.57475
# Shear Modulus (GPa) = 37.68070 40.70653 39.19361
#
# Velocity S-wave (km/s) = 4.25335 4.42083 4.33789
# Velocity P-wave (km/s) = 7.76225 8.14473 7.95579
#
# Compressibility (1/GPa) = 0.01328803
#
# Stress axis : x y z
#
# Youngs Moduli (GPa) = 99.07716 97.60927 97.02418
#
# Poissons Ratio (x) = 0.18210 0.25449
# Poissons Ratio (y) = 0.18483 0.40652
# Poissons Ratio (z) = 0.25987 0.40897
#
# Static dielectric constant tensor:
#      x y z
#    x 4.033540 0.043400 0.013640 
#    y 0.043400 4.101080 0.117820 
#    z 0.013640 0.117820 3.800470 
# 
# 
# High freq. dielectric constant tensor:
#      x y z
#    x 1.833820 0.009740 -0.000740 
#    y 0.009740 1.825100 0.009000 
#    z -0.000740 0.009000 1.833030 
# 
# From -- ./inp_files/188532.got.cif
#   From: 2010.06.25/outbox.cif.g09.slc.cpg/sg2_95_cif.got.tgz:188532.got - 2010.06.27 13:26:56.
