data_PCOD8035030
_publ_section_title
;
Structure prediction by ZEFSAII (Michael W. Deem and Ramdas Pophale) SiO2 
 PCOD8035030
Probable space group: P -1
;
_chemical_formula_sum "Si O2"
_cell_formula_units_Z 16
_cell_length_a 6.790531
_cell_length_b 21.184671
_cell_length_c 9.525230
_cell_angle_alpha 127.535394
_cell_angle_beta 46.123730
_cell_angle_gamma 131.193457
_cell_volume 713.169790
_symmetry_space_group_name_H-M "P -1"
_symmetry_group_IT_number 2
_symmetry_cell_setting 'triclinic'
loop_
_space_group_symop_operation_xyz
x,y,z
-x,-y,-z
loop_
_atom_site_type_symbol
_atom_site_label
_atom_site_fract_x
_atom_site_fract_y
_atom_site_fract_z
Si Si1 0.788438 0.322999 0.680022
Si Si2 0.359950 0.418417 0.354407
Si Si3 0.811323 0.166009 0.031558
Si Si4 0.123434 0.039471 0.637614
Si Si5 0.716348 0.148551 0.378775
Si Si6 0.931999 0.410368 0.997721
Si Si7 0.758997 0.631310 0.958364
Si Si8 0.158221 0.079871 0.136059
O O1 0.632906 0.221623 0.590896
O O2 0.940416 0.341273 0.784576
O O3 0.038801 0.356227 0.482793
O O4 0.553442 0.366161 0.839416
O O5 0.500000 0.500000 0.500000
O O6 0.300981 0.431158 0.234994
O O7 0.596976 0.374340 0.179642
O O8 0.673186 0.147236 0.230793
O O9 0.521459 0.122657 0.012659
O O10 0.987816 0.270271 0.059033
O O11 0.033270 0.118732 0.834283
O O12 0.477965 0.067234 0.473865
O O13 0.000000 0.000000 0.500000
O O14 0.978237 0.957575 0.698595
O O15 0.051275 0.156379 0.253829
O O16 0.000000 0.500000 0.000000
O O17 0.157385 0.418460 0.023910
O O18 0.000000 0.000000 0.000000
#
# Coordination Sequence:
#
# PCOD8035030 Si02
#       8
#     2   2   2   2   2   2   2   2
#     4  11  25  46  70 105 141 184 241 294 352 425
#     4  11  24  47  73 108 140 182 236 290 353 430
#     4  12  25  46  68 106 142 183 241 296 351 425
#     4  12  24  45  70  99 142 185 237 292 352 420
#     4  12  25  45  72 101 145 184 241 296 354 423
#     4  11  26  48  70 109 145 180 236 298 351 431
#     4  11  27  45  76 102 146 191 234 295 364 416
#     4  12  26  43  73 105 141 191 235 297 360 413
#
# _framework density 22.43505
#
# number of rings (size 3 to 8) (size 9 to 14) (size 15 to 20)
#    0.000    0.500    6.250    1.500    1.750    6.500 
#    0.000    0.000    0.000    0.000    0.000    0.000 
#    0.000    0.000    0.000    0.000    0.000    0.000 
#
# Total GULP energy -198216.889609 kJ/mol
# GULP energy per Si atom -12388.555601 kJ/mol
# Density = 2.238399 g / cm^3
# Si number density = 22.435050 Si / 1000 Ang^3
#
#
#
# Elastic Constant Matrix: (Units=GPa)
#
#
# Indices 1 2 3 4 5 6 
#
# 1 149.9820 24.9364 50.7492 1.1825 9.0692 -0.9839
# 2 24.9364 67.6471 20.9873 -6.0785 2.4033 2.0191
# 3 50.7492 20.9873 132.3527 1.0583 12.2066 0.3422
# 4 1.1825 -6.0785 1.0583 41.8059 14.6973 -0.6876
# 5 9.0692 2.4033 12.2066 14.6973 46.0536 -2.0460
# 6 -0.9839 2.0191 0.3422 -0.6876 -2.0460 33.3888
#
#
#
# Elastic Compliance Matrix: (Units=1/GPa)
#
#
# Indices 1 2 3 4 5 6 
#
# 1 0.007962 -0.002118 -0.002655 -0.000226 -0.000666 0.000344
# 2 -0.002118 0.016414 -0.001725 0.002797 -0.000921 -0.001036
# 3 -0.002655 -0.001725 0.009017 0.000249 -0.001864 -0.000175
# 4 -0.000226 0.002797 0.000249 0.027467 -0.008940 -0.000161
# 5 -0.000666 -0.000921 -0.001864 -0.008940 0.025304 0.001422
# 6 0.000344 -0.001036 -0.000175 -0.000161 0.001422 0.030109
#
#
# Mechanical properties :
#
#
# Convention : Reuss Voigt Hill
#
# Bulk Modulus (GPa) = 49.02754 60.36971 54.69863
# Shear Modulus (GPa) = 36.74619 41.13691 38.94155
#
# Velocity S-wave (km/s) = 4.05148 4.28670 4.17075
# Velocity P-wave (km/s) = 6.61714 7.17413 6.90126
#
# Compressibility (1/GPa) = 0.02039670
#
# Stress axis : x y z
#
# Youngs Moduli (GPa) = 125.59191 60.92481 110.89559
#
# Poissons Ratio (x) = 0.12906 0.29440
# Poissons Ratio (y) = 0.26605 0.19132
# Poissons Ratio (z) = 0.33342 0.10511
#
# Static dielectric constant tensor:
#      x y z
#    x 4.235260 0.184640 0.042630 
#    y 0.184640 3.938610 0.131580 
#    z 0.042630 0.131580 4.127080 
# 
# 
# High freq. dielectric constant tensor:
#      x y z
#    x 1.886670 0.020450 0.006180 
#    y 0.020450 1.875920 -0.009620 
#    z 0.006180 -0.009620 1.905740 
# 
# From -- ./inp_files/53015.got.cif
#   From: 2010.06.25/outbox.cif.g09.slc.cpg/sg2_27_cif.got.tgz:53015.got - 2010.06.27 13:26:56.
