data_PCOD8035883
_publ_section_title
;
Structure prediction by ZEFSAII (Michael W. Deem and Ramdas Pophale) SiO2 
 PCOD8035883
Probable space group: P -1
;
_chemical_formula_sum "Si O2"
_cell_formula_units_Z 16
_cell_length_a 10.289225
_cell_length_b 15.475599
_cell_length_c 8.390099
_cell_angle_alpha 71.296183
_cell_angle_beta 117.692526
_cell_angle_gamma 145.898174
_cell_volume 657.676180
_symmetry_space_group_name_H-M "P -1"
_symmetry_group_IT_number 2
_symmetry_cell_setting 'triclinic'
loop_
_space_group_symop_operation_xyz
x,y,z
-x,-y,-z
loop_
_atom_site_type_symbol
_atom_site_label
_atom_site_fract_x
_atom_site_fract_y
_atom_site_fract_z
Si Si1 0.949531 0.595840 0.018498
Si Si2 0.043593 0.158879 0.574257
Si Si3 0.028418 0.451398 0.295031
Si Si4 0.546327 0.567806 0.155268
Si Si5 0.663619 0.123980 0.381505
Si Si6 0.052033 0.063686 0.169284
Si Si7 0.283818 0.935744 0.020168
Si Si8 0.558319 0.654614 0.586573
O O1 0.045993 0.621331 0.881168
O O2 0.650239 0.449898 0.925328
O O3 0.002025 0.547543 0.214395
O O4 0.073626 0.753953 0.048655
O O5 0.172700 0.254771 0.760261
O O6 0.241999 0.242383 0.500673
O O7 0.839456 0.129777 0.413306
O O8 0.927505 0.003953 0.645035
O O9 0.310966 0.581475 0.434012
O O10 0.843498 0.304175 0.400370
O O11 0.506705 0.481783 0.333606
O O12 0.500000 0.500000 0.000000
O O13 0.500000 0.000000 0.500000
O O14 0.437189 0.045575 0.193455
O O15 0.327859 0.246980 0.240176
O O16 0.851120 0.039130 0.129534
O O17 0.000000 0.000000 0.000000
O O18 0.500000 0.000000 0.000000
#
# Coordination Sequence:
#
# PCOD8035883 Si02
#       8
#     2   2   2   2   2   2   2   2
#     4  11  25  47  77 112 146 192 250 315 378 445
#     4  12  26  46  75 108 146 198 256 312 370 451
#     4  11  25  48  78 113 145 193 255 311 373 451
#     4  12  25  45  73 105 150 191 242 312 381 439
#     4  12  27  46  69 107 155 195 240 309 379 444
#     4  12  28  48  72 110 156 198 250 314 384 449
#     4  12  26  46  76 104 151 200 246 298 380 457
#     4  12  24  48  77 106 143 194 261 311 367 450
#
# _framework density 24.328081000000001
#
# number of rings (size 3 to 8) (size 9 to 14) (size 15 to 20)
#    0.000    0.250    5.000    3.750    7.000    0.000 
#    2.250    1.250    0.000    0.000    0.000    0.000 
#    0.000    0.000    0.000    0.000    0.000    0.000 
#
# Total GULP energy -198237.369436 kJ/mol
# GULP energy per Si atom -12389.835590 kJ/mol
# Density = 2.427271 g / cm^3
# Si number density = 24.328081 Si / 1000 Ang^3
#
#
#
# Elastic Constant Matrix: (Units=GPa)
#
#
# Indices 1 2 3 4 5 6 
#
# 1 60.5457 25.3613 21.7518 -5.4431 20.7768 -10.1939
# 2 25.3613 106.2575 30.9793 -1.5012 21.5859 -0.9606
# 3 21.7518 30.9793 104.5109 6.9916 36.8737 -4.2232
# 4 -5.4431 -1.5012 6.9916 54.2490 -5.3910 -0.6362
# 5 20.7768 21.5859 36.8737 -5.3910 57.0552 -3.4809
# 6 -10.1939 -0.9606 -4.2232 -0.6362 -3.4809 30.5441
#
#
#
# Elastic Compliance Matrix: (Units=1/GPa)
#
#
# Indices 1 2 3 4 5 6 
#
# 1 0.021493 -0.003600 -0.001542 0.001842 -0.004908 0.006326
# 2 -0.003600 0.011193 -0.002027 0.000026 -0.001692 -0.001322
# 3 -0.001542 -0.002027 0.013337 -0.002673 -0.007522 0.000353
# 4 0.001842 0.000026 -0.002673 0.019266 0.002927 0.000981
# 5 -0.004908 -0.001692 -0.007522 0.002927 0.025104 0.000191
# 6 0.006326 -0.001322 0.000353 0.000981 0.000191 0.034900
#
#
# Mechanical properties :
#
#
# Convention : Reuss Voigt Hill
#
# Bulk Modulus (GPa) = 31.55966 47.49986 39.52976
# Shear Modulus (GPa) = 33.29016 41.25111 37.27063
#
# Velocity S-wave (km/s) = 3.70318 4.12225 3.91832
# Velocity P-wave (km/s) = 5.59334 6.49803 6.06258
#
# Compressibility (1/GPa) = 0.03168602
#
# Stress axis : x y z
#
# Youngs Moduli (GPa) = 46.52575 89.33792 74.97795
#
# Poissons Ratio (x) = 0.32162 0.11563
# Poissons Ratio (y) = 0.16750 0.15197
# Poissons Ratio (z) = 0.07175 0.18107
#
# Static dielectric constant tensor:
#      x y z
#    x 4.261040 -0.046880 0.233090 
#    y -0.046880 4.776070 0.045720 
#    z 0.233090 0.045720 4.454970 
# 
# 
# High freq. dielectric constant tensor:
#      x y z
#    x 1.949760 -0.004670 0.015400 
#    y -0.004670 1.979840 0.004050 
#    z 0.015400 0.004050 1.984470 
# 
# From -- ./inp_files/279244.got.cif
#   From: 2010.06.25/outbox.cif.g09.slc.cpg/sg2_140_cif.got.tgz:279244.got - 2010.06.27 13:26:56.
