data_PCOD8035024
_publ_section_title
;
Structure prediction by ZEFSAII (Michael W. Deem and Ramdas Pophale) SiO2 
 PCOD8035024
Probable space group: P -1
;
_chemical_formula_sum "Si O2"
_cell_formula_units_Z 14
_cell_length_a 7.731285
_cell_length_b 8.860714
_cell_length_c 11.355458
_cell_angle_alpha 116.513451
_cell_angle_beta 53.438210
_cell_angle_gamma 96.332879
_cell_volume 545.847786
_symmetry_space_group_name_H-M "P -1"
_symmetry_group_IT_number 2
_symmetry_cell_setting 'triclinic'
loop_
_space_group_symop_operation_xyz
x,y,z
-x,-y,-z
loop_
_atom_site_type_symbol
_atom_site_label
_atom_site_fract_x
_atom_site_fract_y
_atom_site_fract_z
Si Si1 0.774166 0.386594 0.600985
Si Si2 0.970887 0.455980 0.861253
Si Si3 0.414735 0.945943 0.778976
Si Si4 0.538487 0.700180 0.109531
Si Si5 0.893351 0.833608 0.461382
Si Si6 0.095149 0.728527 0.741012
Si Si7 0.379174 0.225922 0.137410
O O1 0.637436 0.296717 0.716918
O O2 0.755761 0.325062 0.454304
O O3 0.703080 0.591347 0.700282
O O4 0.023032 0.314263 0.523731
O O5 0.041009 0.254187 0.725079
O O6 0.107609 0.562757 0.761987
O O7 0.709134 0.515981 0.960773
O O8 0.000000 0.500000 0.000000
O O9 0.629858 0.878931 0.587907
O O10 0.210555 0.860337 0.808799
O O11 0.493143 0.917740 0.874563
O O12 0.330791 0.149567 0.856298
O O13 0.450576 0.752109 0.030061
O O14 0.000000 0.000000 0.500000
O O15 0.843753 0.821743 0.843011
#
# Coordination Sequence:
#
# PCOD8035024 Si02
#       7
#     2   2   2   2   2   2   2
#     4  12  23  46  76 103 148 198 248 318 369 460
#     4  11  28  50  73 112 158 202 249 321 387 450
#     4  12  27  45  78 113 148 203 251 310 375 457
#     4  11  26  46  74 111 148 197 251 308 387 442
#     4  12  25  47  77 112 152 201 259 307 381 454
#     4  11  26  46  74 108 152 195 254 306 380 453
#     4  11  24  47  73 105 150 195 248 312 377 445
#
# _framework density 25.648177
#
# number of rings (size 3 to 8) (size 9 to 14) (size 15 to 20)
#    0.000    0.571    5.714    2.143    4.000    5.143 
#    2.571    0.000    0.000    0.000    0.000    0.000 
#    0.000    0.000    0.000    0.000    0.000    0.000 
#
# Total GULP energy -173512.495070 kJ/mol
# GULP energy per Si atom -12393.749648 kJ/mol
# Density = 2.558980 g / cm^3
# Si number density = 25.648177 Si / 1000 Ang^3
#
#
#
# Elastic Constant Matrix: (Units=GPa)
#
#
# Indices 1 2 3 4 5 6 
#
# 1 89.4476 34.6733 39.6405 -14.8373 19.8660 16.6973
# 2 34.6733 119.7570 52.8134 -8.1658 3.4023 14.4480
# 3 39.6405 52.8134 157.4761 -19.4244 24.1775 -2.1579
# 4 -14.8373 -8.1658 -19.4244 39.6762 -1.0815 5.6798
# 5 19.8660 3.4023 24.1775 -1.0815 46.6912 -1.3883
# 6 16.6973 14.4480 -2.1579 5.6798 -1.3883 39.6921
#
#
#
# Elastic Compliance Matrix: (Units=1/GPa)
#
#
# Indices 1 2 3 4 5 6 
#
# 1 0.016587 -0.002599 -0.001778 0.005656 -0.006029 -0.007149
# 2 -0.002599 0.010882 -0.003320 0.000125 0.001945 -0.002998
# 3 -0.001778 -0.003320 0.008783 0.002580 -0.003432 0.001945
# 4 0.005656 0.000125 0.002580 0.029466 -0.003266 -0.006615
# 5 -0.006029 0.001945 -0.003432 -0.003266 0.025631 0.003005
# 6 -0.007149 -0.002998 0.001945 -0.006615 0.003005 0.030450
#
#
# Mechanical properties :
#
#
# Convention : Reuss Voigt Hill
#
# Bulk Modulus (GPa) = 47.94381 68.99279 58.46830
# Shear Modulus (GPa) = 34.68741 41.18212 37.93477
#
# Velocity S-wave (km/s) = 3.68153 4.01141 3.85001
# Velocity P-wave (km/s) = 6.06671 6.95797 6.52757
#
# Compressibility (1/GPa) = 0.02085775
#
# Stress axis : x y z
#
# Youngs Moduli (GPa) = 60.28868 91.89875 113.85767
#
# Poissons Ratio (x) = 0.23882 0.20249
# Poissons Ratio (y) = 0.15667 0.37796
# Poissons Ratio (z) = 0.10722 0.30507
#
# Static dielectric constant tensor:
#      x y z
#    x 4.375460 -0.081760 -0.049470 
#    y -0.081760 4.768490 0.100460 
#    z -0.049470 0.100460 5.101630 
# 
# 
# High freq. dielectric constant tensor:
#      x y z
#    x 1.990020 0.005050 0.003570 
#    y 0.005050 2.038730 0.003550 
#    z 0.003570 0.003550 2.059940 
# 
# From -- ./inp_files/383095.got.cif
#   From: 2010.06.25/outbox.cif.g09.slc.cpg/sg2_192_cif.got.tgz:383095.got - 2010.06.27 13:26:56.
