data_PCOD8035322
_publ_section_title
;
Structure prediction by ZEFSAII (Michael W. Deem and Ramdas Pophale) SiO2 
 PCOD8035322
Probable space group: P -1
;
_chemical_formula_sum "Si O2"
_cell_formula_units_Z 14
_cell_length_a 15.634454
_cell_length_b 12.299598
_cell_length_c 8.993191
_cell_angle_alpha 56.648799
_cell_angle_beta 29.913737
_cell_angle_gamma 45.771660
_cell_volume 610.670105
_symmetry_space_group_name_H-M "P -1"
_symmetry_group_IT_number 2
_symmetry_cell_setting 'triclinic'
loop_
_space_group_symop_operation_xyz
x,y,z
-x,-y,-z
loop_
_atom_site_type_symbol
_atom_site_label
_atom_site_fract_x
_atom_site_fract_y
_atom_site_fract_z
Si Si1 0.654928 0.759545 0.020267
Si Si2 0.591000 0.370250 0.081741
Si Si3 0.851483 0.449908 0.829039
Si Si4 0.908093 0.036105 0.776196
Si Si5 0.766694 0.953111 0.539429
Si Si6 0.233363 0.358974 0.744280
Si Si7 0.144694 0.185589 0.792902
O O1 0.670845 0.604464 0.060018
O O2 0.800703 0.796902 0.678328
O O3 0.718780 0.747317 0.104158
O O4 0.429602 0.894687 0.220627
O O5 0.402020 0.404726 0.445654
O O6 0.500000 0.500000 0.000000
O O7 0.761300 0.385077 0.897359
O O8 0.697493 0.200811 0.974122
O O9 0.000000 0.500000 0.500000
O O10 0.944644 0.324350 0.913725
O O11 0.045847 0.036628 0.700873
O O12 0.000000 0.000000 0.500000
O O13 0.888254 0.893024 0.956140
O O14 0.739677 0.944848 0.408979
O O15 0.266949 0.259008 0.620100
O O16 0.000000 0.500000 0.000000
#
# Coordination Sequence:
#
# PCOD8035322 Si02
#       7
#     2   2   2   2   2   2   2
#     4  11  25  43  73 104 145 192 252 298 378 435
#     4  12  30  47  78 111 154 199 253 307 384 447
#     4  12  24  47  77 108 148 199 249 310 371 448
#     4  12  28  47  73 110 152 192 255 316 373 444
#     4  11  25  45  73 104 145 195 248 310 369 445
#     4  12  28  47  73 112 153 194 251 312 368 444
#     4  12  25  46  79  98 151 198 242 307 382 429
#
# _framework density 22.925636000000001
#
# number of rings (size 3 to 8) (size 9 to 14) (size 15 to 20)
#    0.000    0.286    4.286    3.000    8.000    4.000 
#    0.000    0.000    0.000    0.000    0.000    0.000 
#    0.000    0.000    0.000    0.000    0.000    0.000 
#
# Total GULP energy -173565.029952 kJ/mol
# GULP energy per Si atom -12397.502139 kJ/mol
# Density = 2.287346 g / cm^3
# Si number density = 22.925636 Si / 1000 Ang^3
#
#
#
# Elastic Constant Matrix: (Units=GPa)
#
#
# Indices 1 2 3 4 5 6 
#
# 1 116.5044 31.0415 33.3286 -13.6572 9.5534 1.9754
# 2 31.0415 149.3504 39.9892 1.9379 1.1450 -14.0282
# 3 33.3286 39.9892 117.8143 -10.2261 0.9536 -2.4305
# 4 -13.6572 1.9379 -10.2261 36.2612 -3.2923 8.5803
# 5 9.5534 1.1450 0.9536 -3.2923 41.9580 -4.5406
# 6 1.9754 -14.0282 -2.4305 8.5803 -4.5406 49.9684
#
#
#
# Elastic Compliance Matrix: (Units=1/GPa)
#
#
# Indices 1 2 3 4 5 6 
#
# 1 0.010269 -0.001802 -0.001998 0.003638 -0.002156 -0.001830
# 2 -0.001802 0.007975 -0.002350 -0.002359 0.000346 0.002632
# 3 -0.001998 -0.002350 0.010042 0.002352 0.000426 -0.000458
# 4 0.003638 -0.002359 0.002352 0.031239 0.000988 -0.005966
# 5 -0.002156 0.000346 0.000426 0.000988 0.024629 0.002271
# 6 -0.001830 0.002632 -0.000458 -0.005966 0.002271 0.022033
#
#
# Mechanical properties :
#
#
# Convention : Reuss Voigt Hill
#
# Bulk Modulus (GPa) = 62.55624 65.82085 64.18854
# Shear Modulus (GPa) = 40.38283 44.25818 42.32051
#
# Velocity S-wave (km/s) = 4.20154 4.39852 4.30116
# Velocity P-wave (km/s) = 7.13324 7.38708 7.26127
#
# Compressibility (1/GPa) = 0.01598562
#
# Stress axis : x y z
#
# Youngs Moduli (GPa) = 97.37745 125.39651 99.57992
#
# Poissons Ratio (x) = 0.22596 0.19896
# Poissons Ratio (y) = 0.17547 0.23405
# Poissons Ratio (z) = 0.19456 0.29472
#
# Static dielectric constant tensor:
#      x y z
#    x 5.250640 -0.041000 -0.424110 
#    y -0.041000 4.494770 0.060760 
#    z -0.424110 0.060760 4.532320 
# 
# 
# High freq. dielectric constant tensor:
#      x y z
#    x 1.911360 -0.003230 0.004720 
#    y -0.003230 1.931060 0.001820 
#    z 0.004720 0.001820 1.896830 
# 
# From -- ./inp_files/166519.got.cif
#   From: 2010.06.25/outbox.cif.g09.slc.cpg/sg2_84_cif.got.tgz:166519.got - 2010.06.27 13:26:56.
