data_PCOD8035195
_publ_section_title
;
Structure prediction by ZEFSAII (Michael W. Deem and Ramdas Pophale) SiO2 
 PCOD8035195
Probable space group: P -1
;
_chemical_formula_sum "Si O2"
_cell_formula_units_Z 12
_cell_length_a 15.502022
_cell_length_b 5.145752
_cell_length_c 13.026238
_cell_angle_alpha 93.921415
_cell_angle_beta 150.075909
_cell_angle_gamma 101.050766
_cell_volume 446.586828
_symmetry_space_group_name_H-M "P -1"
_symmetry_group_IT_number 2
_symmetry_cell_setting 'triclinic'
loop_
_space_group_symop_operation_xyz
x,y,z
-x,-y,-z
loop_
_atom_site_type_symbol
_atom_site_label
_atom_site_fract_x
_atom_site_fract_y
_atom_site_fract_z
Si Si1 0.482064 0.066587 0.832059
Si Si2 0.159661 0.171596 0.439256
Si Si3 0.786724 0.221410 0.802817
Si Si4 0.216716 0.561296 0.696507
Si Si5 0.649878 0.578675 0.548648
Si Si6 0.275133 0.103425 0.068076
O O1 0.330082 0.080109 0.593123
O O2 0.332776 0.870289 0.762902
O O3 0.604730 0.924048 0.904783
O O4 0.648936 0.393249 0.061574
O O5 0.191929 0.292054 0.591685
O O6 0.216908 0.416040 0.412599
O O7 0.928685 0.911164 0.180903
O O8 0.631610 0.323604 0.604549
O O9 0.754955 0.916406 0.708610
O O10 0.772498 0.167427 0.908884
O O11 0.000000 0.500000 0.000000
O O12 0.000000 0.500000 0.500000
O O13 0.415092 0.434464 0.271582
#
# Coordination Sequence:
#
# PCOD8035195 Si02
#       6
#     2   2   2   2   2   2
#     4  11  26  48  75 113 158 201 269 323 403 479
#     4  12  26  47  79 115 156 206 267 327 403 470
#     4  12  27  52  80 118 165 214 269 332 401 477
#     4  11  24  49  76 111 156 203 260 337 396 480
#     4  12  27  52  78 119 163 214 271 329 399 485
#     4  12  26  50  80 116 160 212 267 329 397 478
#
# _framework density 26.870473
#
# number of rings (size 3 to 8) (size 9 to 14) (size 15 to 20)
#    0.000    0.333    5.000    3.000    0.000    3.333 
#    3.000    0.000    0.000    0.000    0.000    0.000 
#    0.000    0.000    0.000    0.000    0.000    0.000 
#
# Total GULP energy -148703.371959 kJ/mol
# GULP energy per Si atom -12391.947663 kJ/mol
# Density = 2.680931 g / cm^3
# Si number density = 26.870473 Si / 1000 Ang^3
#
#
#
# Elastic Constant Matrix: (Units=GPa)
#
#
# Indices 1 2 3 4 5 6 
#
# 1 128.9994 15.2264 39.7458 -2.4084 17.5327 8.3370
# 2 15.2264 90.8457 53.3564 6.7155 -5.4761 -9.1419
# 3 39.7458 53.3564 222.6875 -16.2624 23.0456 -10.3958
# 4 -2.4084 6.7155 -16.2624 38.7221 -3.1502 5.9979
# 5 17.5327 -5.4761 23.0456 -3.1502 47.6465 6.0465
# 6 8.3370 -9.1419 -10.3958 5.9979 6.0465 24.7338
#
#
#
# Elastic Compliance Matrix: (Units=1/GPa)
#
#
# Indices 1 2 3 4 5 6 
#
# 1 0.008821 -0.001371 -0.001116 0.000672 -0.002371 -0.003532
# 2 -0.001371 0.014349 -0.003624 -0.004564 0.003020 0.004611
# 3 -0.001116 -0.003624 0.006143 0.002627 -0.003022 0.001720
# 4 0.000672 -0.004564 0.002627 0.029088 0.000907 -0.008085
# 5 -0.002371 0.003020 -0.003022 0.000907 0.024433 -0.005548
# 6 -0.003532 0.004611 0.001720 -0.008085 -0.005548 0.047365
#
#
# Mechanical properties :
#
#
# Convention : Reuss Voigt Hill
#
# Bulk Modulus (GPa) = 58.51110 73.24332 65.87721
# Shear Modulus (GPa) = 33.75675 44.50076 39.12875
#
# Velocity S-wave (km/s) = 3.54824 4.07396 3.82016
# Velocity P-wave (km/s) = 6.21363 7.03183 6.63536
#
# Compressibility (1/GPa) = 0.01709077
#
# Stress axis : x y z
#
# Youngs Moduli (GPa) = 113.36850 69.68931 162.78606
#
# Poissons Ratio (x) = 0.09553 0.18174
# Poissons Ratio (y) = 0.15540 0.58994
# Poissons Ratio (z) = 0.12657 0.25256
#
# Static dielectric constant tensor:
#      x y z
#    x 5.166580 0.369550 -0.185640 
#    y 0.369550 4.593880 -0.242300 
#    z -0.185640 -0.242300 5.640960 
# 
# 
# High freq. dielectric constant tensor:
#      x y z
#    x 2.102320 0.016740 0.005960 
#    y 0.016740 2.042860 0.001250 
#    z 0.005960 0.001250 2.111690 
# 
# From -- ./inp_files/535954.got.cif
#   From: 2010.06.25/outbox.cif.g09.slc.cpg/sg2_268_cif.got.tgz:535954.got - 2010.06.27 13:26:56.
