data_PCOD8035517
_publ_section_title
;
Structure prediction by ZEFSAII (Michael W. Deem and Ramdas Pophale) SiO2 
 PCOD8035517
Probable space group: P -1
;
_chemical_formula_sum "Si O2"
_cell_formula_units_Z 16
_cell_length_a 15.582877
_cell_length_b 9.420722
_cell_length_c 11.470094
_cell_angle_alpha 51.798650
_cell_angle_beta 73.481582
_cell_angle_gamma 115.894419
_cell_volume 738.607960
_symmetry_space_group_name_H-M "P -1"
_symmetry_group_IT_number 2
_symmetry_cell_setting 'triclinic'
loop_
_space_group_symop_operation_xyz
x,y,z
-x,-y,-z
loop_
_atom_site_type_symbol
_atom_site_label
_atom_site_fract_x
_atom_site_fract_y
_atom_site_fract_z
Si Si1 0.400624 0.328707 0.009845
Si Si2 0.042633 0.704284 0.480030
Si Si3 0.580837 0.324237 0.809959
Si Si4 0.363081 0.415765 0.591784
Si Si5 0.096268 0.704443 0.036341
Si Si6 0.619736 0.353587 0.294613
Si Si7 0.108159 0.444064 0.980540
Si Si8 0.914401 0.861352 0.480515
O O1 0.224565 0.009255 0.275833
O O2 0.500000 0.500000 0.000000
O O3 0.456838 0.259368 0.941146
O O4 0.424773 0.552128 0.816616
O O5 0.000000 0.500000 0.500000
O O6 0.953274 0.498119 0.734180
O O7 0.975384 0.787078 0.424619
O O8 0.638016 0.476808 0.582740
O O9 0.729416 0.554943 0.720344
O O10 0.500000 0.000000 0.000000
O O11 0.500000 0.500000 0.500000
O O12 0.376388 0.583691 0.603961
O O13 0.207443 0.047774 0.857910
O O14 0.180621 0.711577 0.905511
O O15 0.941305 0.535457 0.128222
O O16 0.500000 0.000000 0.500000
O O17 0.782506 0.542557 0.096490
O O18 0.955968 0.111796 0.268303
O O19 0.000000 0.000000 0.500000
#
# Coordination Sequence:
#
# PCOD8035517 Si02
#       8
#     2   2   2   2   2   2   2   2
#     4  12  28  47  72 110 151 188 246 304 365 440
#     4  12  26  46  73 104 146 188 240 298 364 433
#     4  12  29  48  75 109 147 200 244 300 377 438
#     4  12  26  49  73 105 150 189 244 307 368 447
#     4  11  26  45  75 103 143 191 241 301 367 432
#     4  12  28  46  74 107 147 195 246 302 374 440
#     4  11  25  45  72 106 139 189 249 297 361 438
#     4  12  24  46  72 107 144 190 245 298 359 442
#
# _framework density 21.662369999999999
#
# number of rings (size 3 to 8) (size 9 to 14) (size 15 to 20)
#    0.000    0.250    5.000    3.000    5.250    1.500 
#    0.000    0.000    0.000    0.000    0.000    0.000 
#    0.000    0.000    0.000    0.000    0.000    0.000 
#
# Total GULP energy -198484.309487 kJ/mol
# GULP energy per Si atom -12405.269343 kJ/mol
# Density = 2.161307 g / cm^3
# Si number density = 21.662370 Si / 1000 Ang^3
#
#
#
# Elastic Constant Matrix: (Units=GPa)
#
#
# Indices 1 2 3 4 5 6 
#
# 1 120.8014 41.0614 30.3132 0.6574 1.6169 -11.7214
# 2 41.0614 132.3120 35.2146 -9.6197 4.4616 -9.9906
# 3 30.3132 35.2146 111.0464 -16.6996 3.8512 0.9363
# 4 0.6574 -9.6197 -16.6996 38.1701 -0.5326 2.2481
# 5 1.6169 4.4616 3.8512 -0.5326 40.5721 2.3541
# 6 -11.7214 -9.9906 0.9363 2.2481 2.3541 46.3759
#
#
#
# Elastic Compliance Matrix: (Units=1/GPa)
#
#
# Indices 1 2 3 4 5 6 
#
# 1 0.009884 -0.002452 -0.002220 -0.001884 -0.000061 0.002109
# 2 -0.002452 0.009075 -0.001987 0.001370 -0.000772 0.001348
# 3 -0.002220 -0.001987 0.010934 0.004395 -0.000592 -0.001393
# 4 -0.001884 0.001370 0.004395 0.028596 -0.000021 -0.001655
# 5 -0.000061 -0.000772 -0.000592 -0.000021 0.024874 -0.001431
# 6 0.002109 0.001348 -0.001393 -0.001655 -0.001431 0.022567
#
#
# Mechanical properties :
#
#
# Convention : Reuss Voigt Hill
#
# Bulk Modulus (GPa) = 60.32822 64.14870 62.23846
# Shear Modulus (GPa) = 40.07215 42.19500 41.13358
#
# Velocity S-wave (km/s) = 4.30566 4.41823 4.36231
# Velocity P-wave (km/s) = 7.25452 7.46357 7.35979
#
# Compressibility (1/GPa) = 0.01657599
#
# Stress axis : x y z
#
# Youngs Moduli (GPa) = 101.17005 110.18989 91.45373
#
# Poissons Ratio (x) = 0.27024 0.20299
# Poissons Ratio (y) = 0.24812 0.18172
# Poissons Ratio (z) = 0.22455 0.21895
#
# Static dielectric constant tensor:
#      x y z
#    x 4.438100 -0.194730 -0.220890 
#    y -0.194730 4.074400 -0.200930 
#    z -0.220890 -0.200930 4.251790 
# 
# 
# High freq. dielectric constant tensor:
#      x y z
#    x 1.865840 -0.006290 0.006480 
#    y -0.006290 1.865640 -0.007230 
#    z 0.006480 -0.007230 1.856870 
# 
# From -- ./inp_files/207086.got.cif
#   From: 2010.06.25/outbox.cif.g09.slc.cpg/sg2_104_cif.got.tgz:207086.got - 2010.06.27 13:26:56.
