data_PCOD8035805
_publ_section_title
;
Structure prediction by ZEFSAII (Michael W. Deem and Ramdas Pophale) SiO2 
 PCOD8035805
Probable space group: P -1
;
_chemical_formula_sum "Si O2"
_cell_formula_units_Z 12
_cell_length_a 5.342633
_cell_length_b 8.853559
_cell_length_c 18.547830
_cell_angle_alpha 141.362350
_cell_angle_beta 123.857283
_cell_angle_gamma 72.131077
_cell_volume 440.756603
_symmetry_space_group_name_H-M "P -1"
_symmetry_group_IT_number 2
_symmetry_cell_setting 'triclinic'
loop_
_space_group_symop_operation_xyz
x,y,z
-x,-y,-z
loop_
_atom_site_type_symbol
_atom_site_label
_atom_site_fract_x
_atom_site_fract_y
_atom_site_fract_z
Si Si1 0.215457 0.631527 0.497334
Si Si2 0.680861 0.637579 0.997329
Si Si3 0.455301 0.650522 0.684522
Si Si4 0.137529 0.847091 0.022347
Si Si5 0.247545 0.153138 0.764522
Si Si6 0.247418 0.754932 0.387176
O O1 0.482223 0.551567 0.566914
O O2 0.235629 0.772704 0.478021
O O3 0.899407 0.415578 0.369408
O O4 0.197120 0.856081 0.635164
O O5 0.329664 0.675936 0.948906
O O6 0.870030 0.787258 0.151896
O O7 0.864598 0.703152 0.977217
O O8 0.608499 0.333264 0.885086
O O9 0.649873 0.502719 0.710972
O O10 0.595008 0.946985 0.816449
O O11 0.000000 0.000000 0.000000
O O12 0.064106 0.252565 0.708080
O O13 0.500000 0.000000 0.500000
#
# Coordination Sequence:
#
# PCOD8035805 Si02
#       6
#     2   2   2   2   2   2
#     4  11  25  47  71 106 147 191 243 309 372 439
#     4  11  28  49  75 110 147 202 243 310 367 445
#     4  11  26  45  72 105 146 192 245 306 376 436
#     4  12  27  48  78 108 150 197 251 304 370 443
#     4  11  25  48  73 106 148 191 250 303 373 439
#     4  12  26  41  73 110 142 193 242 309 368 444
#
# _framework density 27.225912000000001
#
# number of rings (size 3 to 8) (size 9 to 14) (size 15 to 20)
#    0.000    0.667    3.333    2.500    7.000    4.000 
#    0.000    0.000    0.000    0.000    0.000    0.000 
#    0.000    0.000    0.000    0.000    0.000    0.000 
#
# Total GULP energy -148677.837502 kJ/mol
# GULP energy per Si atom -12389.819792 kJ/mol
# Density = 2.716394 g / cm^3
# Si number density = 27.225912 Si / 1000 Ang^3
#
#
#
# Elastic Constant Matrix: (Units=GPa)
#
#
# Indices 1 2 3 4 5 6 
#
# 1 125.7304 45.0558 12.8249 -0.2214 6.4381 37.6027
# 2 45.0558 121.1471 11.7870 -0.8548 -1.2424 18.3435
# 3 12.8249 11.7870 94.7413 24.4694 7.5773 18.3156
# 4 -0.2214 -0.8548 24.4694 66.7906 7.1318 16.0531
# 5 6.4381 -1.2424 7.5773 7.1318 24.7399 7.9212
# 6 37.6027 18.3435 18.3156 16.0531 7.9212 50.8195
#
#
#
# Elastic Compliance Matrix: (Units=1/GPa)
#
#
# Indices 1 2 3 4 5 6 
#
# 1 0.011459 -0.003071 -0.000092 0.002033 -0.001199 -0.007793
# 2 -0.003071 0.009710 -0.000810 0.000553 0.001824 -0.001399
# 3 -0.000092 -0.000810 0.012273 -0.003680 -0.001880 -0.002607
# 4 0.002033 0.000553 -0.003680 0.017981 -0.002756 -0.005628
# 5 -0.001199 0.001824 -0.001880 -0.002756 0.043812 -0.005052
# 6 -0.007793 -0.001399 -0.002607 -0.005628 -0.005052 0.029454
#
#
# Mechanical properties :
#
#
# Convention : Reuss Voigt Hill
#
# Bulk Modulus (GPa) = 39.22225 53.43933 46.33079
# Shear Modulus (GPa) = 35.42754 46.60004 41.01379
#
# Velocity S-wave (km/s) = 3.61119 4.14164 3.88548
# Velocity P-wave (km/s) = 5.64137 6.52240 6.09782
#
# Compressibility (1/GPa) = 0.02549573
#
# Stress axis : x y z
#
# Youngs Moduli (GPa) = 87.26870 102.98858 81.47883
#
# Poissons Ratio (x) = 0.31625 0.00749
# Poissons Ratio (y) = 0.26798 0.06603
# Poissons Ratio (z) = 0.00802 0.08346
#
# Static dielectric constant tensor:
#      x y z
#    x 5.083520 -0.457800 -0.346380 
#    y -0.457800 5.755580 -0.149490 
#    z -0.346380 -0.149490 5.811260 
# 
# 
# High freq. dielectric constant tensor:
#      x y z
#    x 2.083520 -0.013940 -0.005970 
#    y -0.013940 2.161520 -0.003570 
#    z -0.005970 -0.003570 2.121790 
# 
# From -- ./inp_files/23104.got.cif
#   From: 2010.06.25/outbox.cif.g09.slc.cpg/sg2_12_cif.got.tgz:23104.got - 2010.06.27 13:26:56.
