data_PCOD8035671
_publ_section_title
;
Structure prediction by ZEFSAII (Michael W. Deem and Ramdas Pophale) SiO2 
 PCOD8035671
Probable space group: P -1
;
_chemical_formula_sum "Si O2"
_cell_formula_units_Z 14
_cell_length_a 9.129133
_cell_length_b 9.266034
_cell_length_c 12.556852
_cell_angle_alpha 60.343257
_cell_angle_beta 132.483835
_cell_angle_gamma 96.946581
_cell_volume 641.934943
_symmetry_space_group_name_H-M "P -1"
_symmetry_group_IT_number 2
_symmetry_cell_setting 'triclinic'
loop_
_space_group_symop_operation_xyz
x,y,z
-x,-y,-z
loop_
_atom_site_type_symbol
_atom_site_label
_atom_site_fract_x
_atom_site_fract_y
_atom_site_fract_z
Si Si1 0.284793 0.318661 0.686110
Si Si2 0.715988 0.993397 0.557239
Si Si3 0.061248 0.168075 0.953352
Si Si4 0.443421 0.654875 0.002098
Si Si5 0.881847 0.302309 0.590221
Si Si6 0.062480 0.668812 0.954463
Si Si7 0.552209 0.026208 0.235239
O O1 0.355916 0.340664 0.833327
O O2 0.274235 0.495577 0.551772
O O3 0.056599 0.294232 0.589116
O O4 0.439930 0.146579 0.765829
O O5 0.897474 0.826028 0.751910
O O6 0.500000 0.000000 0.500000
O O7 0.756394 0.174139 0.539945
O O8 0.699043 0.970813 0.430886
O O9 0.996173 0.251015 0.776829
O O10 0.309706 0.129982 0.109122
O O11 0.916362 0.289107 0.927847
O O12 0.000000 0.000000 0.000000
O O13 0.500000 0.500000 0.000000
O O14 0.281939 0.622474 0.018468
O O15 0.353355 0.844559 0.831486
O O16 0.000000 0.500000 0.000000
#
# Coordination Sequence:
#
# PCOD8035671 Si02
#       7
#     2   2   2   2   2   2   2
#     4  11  26  43  75 108 141 185 243 301 353 421
#     4  12  26  48  70 107 148 191 236 301 357 426
#     4  12  23  47  70 101 142 190 230 290 355 427
#     4  12  26  47  75 106 147 188 241 301 357 430
#     4  11  25  46  72 103 148 186 242 293 359 422
#     4  12  28  44  73 105 143 188 239 290 362 423
#     4  12  25  45  75 104 143 187 242 292 361 422
#
# _framework density 21.809063999999999
#
# number of rings (size 3 to 8) (size 9 to 14) (size 15 to 20)
#    0.000    0.286    4.286    3.857    4.000    3.429 
#    0.000    2.143    0.000    0.000    0.000    0.000 
#    0.000    0.000    0.000    0.000    0.000    0.000 
#
# Total GULP energy -173603.802925 kJ/mol
# GULP energy per Si atom -12400.271637 kJ/mol
# Density = 2.175943 g / cm^3
# Si number density = 21.809064 Si / 1000 Ang^3
#
#
#
# Elastic Constant Matrix: (Units=GPa)
#
#
# Indices 1 2 3 4 5 6 
#
# 1 117.3456 58.8834 5.8489 -0.7303 -1.8830 7.1029
# 2 58.8834 186.2457 47.2901 -9.1523 -11.0246 1.9371
# 3 5.8489 47.2901 92.7959 -2.6159 -20.3017 1.6129
# 4 -0.7303 -9.1523 -2.6159 45.4642 4.1794 -6.7053
# 5 -1.8830 -11.0246 -20.3017 4.1794 32.6660 -1.8624
# 6 7.1029 1.9371 1.6129 -6.7053 -1.8624 47.4941
#
#
#
# Elastic Compliance Matrix: (Units=1/GPa)
#
#
# Indices 1 2 3 4 5 6 
#
# 1 0.010356 -0.003594 0.001217 -0.000728 0.000146 -0.001541
# 2 -0.003594 0.007466 -0.003559 0.001324 -0.000038 0.000539
# 3 0.001217 -0.003559 0.014198 -0.000638 0.007757 -0.000305
# 4 -0.000728 0.001324 -0.000638 0.022939 -0.002744 0.003207
# 5 0.000146 -0.000038 0.007757 -0.002744 0.035822 0.000734
# 6 -0.001541 0.000539 -0.000305 0.003207 0.000734 0.021756
#
#
# Mechanical properties :
#
#
# Convention : Reuss Voigt Hill
#
# Bulk Modulus (GPa) = 49.63275 68.93687 59.28481
# Shear Modulus (GPa) = 38.13176 44.08252 41.10714
#
# Velocity S-wave (km/s) = 4.18597 4.50076 4.34621
# Velocity P-wave (km/s) = 6.79488 7.66074 7.24076
#
# Compressibility (1/GPa) = 0.02014799
#
# Stress axis : x y z
#
# Youngs Moduli (GPa) = 96.56425 133.93311 70.43444
#
# Poissons Ratio (x) = 0.48139 -0.08572
# Poissons Ratio (y) = 0.34707 0.25066
# Poissons Ratio (z) = -0.11752 0.47663
#
# Static dielectric constant tensor:
#      x y z
#    x 4.088400 0.139290 -0.017380 
#    y 0.139290 4.072840 -0.109540 
#    z -0.017380 -0.109540 4.358040 
# 
# 
# High freq. dielectric constant tensor:
#      x y z
#    x 1.863660 0.010080 -0.012060 
#    y 0.010080 1.875240 -0.002060 
#    z -0.012060 -0.002060 1.865000 
# 
# From -- ./inp_files/156581.got.cif
#   From: 2010.06.25/outbox.cif.g09.slc.cpg/sg2_79_cif.got.tgz:156581.got - 2010.06.27 13:26:56.
