data_PCOD8035508
_publ_section_title
;
Structure prediction by ZEFSAII (Michael W. Deem and Ramdas Pophale) SiO2 
 PCOD8035508
Probable space group: P -1
;
_chemical_formula_sum "Si O2"
_cell_formula_units_Z 12
_cell_length_a 14.320915
_cell_length_b 11.909805
_cell_length_c 5.271342
_cell_angle_alpha 105.533113
_cell_angle_beta 92.812610
_cell_angle_gamma 136.245914
_cell_volume 557.975361
_symmetry_space_group_name_H-M "P -1"
_symmetry_group_IT_number 2
_symmetry_cell_setting 'triclinic'
loop_
_space_group_symop_operation_xyz
x,y,z
-x,-y,-z
loop_
_atom_site_type_symbol
_atom_site_label
_atom_site_fract_x
_atom_site_fract_y
_atom_site_fract_z
Si Si1 0.622313 0.114339 0.382252
Si Si2 0.051606 0.613758 0.325347
Si Si3 0.565293 0.618202 0.824822
Si Si4 0.140132 0.211494 0.134079
Si Si5 0.846803 0.626458 0.256970
Si Si6 0.558481 0.248787 0.117794
O O1 0.775220 0.213937 0.564748
O O2 0.637876 0.263131 0.377363
O O3 0.500000 0.000000 0.500000
O O4 0.563038 0.962177 0.088561
O O5 0.000000 0.500000 0.500000
O O6 0.984711 0.678509 0.369252
O O7 0.000000 0.500000 0.000000
O O8 0.500000 0.500000 0.500000
O O9 0.535352 0.725471 0.846224
O O10 0.500000 0.500000 0.000000
O O11 0.735579 0.758025 0.923362
O O12 0.176278 0.306354 0.468454
O O13 0.883264 0.718454 0.049541
O O14 0.000000 0.000000 0.000000
O O15 0.697044 0.411237 0.056594
#
# Coordination Sequence:
#
# PCOD8035508 Si02
#       6
#     2   2   2   2   2   2
#     4  11  27  45  73 108 145 188 243 302 347 431
#     4  12  26  46  73 104 143 188 238 286 363 425
#     4  12  25  45  74 104 136 190 239 289 356 427
#     4  12  27  47  70 106 143 183 240 296 362 422
#     4  12  25  47  74 101 145 192 229 299 361 430
#     4  11  25  45  72 103 147 184 245 287 364 413
#
# _framework density 21.506329000000001
#
# number of rings (size 3 to 8) (size 9 to 14) (size 15 to 20)
#    0.000    0.333    5.000    2.500    9.333    1.333 
#    0.000    0.000    0.000    0.000    0.000    0.000 
#    0.000    0.000    0.000    0.000    0.000    0.000 
#
# Total GULP energy -148698.882841 kJ/mol
# GULP energy per Si atom -12391.573570 kJ/mol
# Density = 2.145738 g / cm^3
# Si number density = 21.506329 Si / 1000 Ang^3
#
#
#
# Elastic Constant Matrix: (Units=GPa)
#
#
# Indices 1 2 3 4 5 6 
#
# 1 189.8866 56.5923 32.1648 11.3441 12.2042 3.8141
# 2 56.5923 150.7680 50.0344 2.4698 11.5339 5.1302
# 3 32.1648 50.0344 103.7701 -11.0629 5.7568 -0.2281
# 4 11.3441 2.4698 -11.0629 38.7242 9.0877 7.3389
# 5 12.2042 11.5339 5.7568 9.0877 36.9485 6.1682
# 6 3.8141 5.1302 -0.2281 7.3389 6.1682 53.3084
#
#
#
# Elastic Compliance Matrix: (Units=1/GPa)
#
#
# Indices 1 2 3 4 5 6 
#
# 1 0.006176 -0.001835 -0.001180 -0.001847 -0.000843 0.000081
# 2 -0.001835 0.008640 -0.003596 -0.000647 -0.001292 -0.000477
# 3 -0.001180 -0.003596 0.012292 0.004430 -0.001500 0.000047
# 4 -0.001847 -0.000647 0.004430 0.029834 -0.006695 -0.003119
# 5 -0.000843 -0.001292 -0.001500 -0.006695 0.030023 -0.002374
# 6 0.000081 -0.000477 0.000047 -0.003119 -0.002374 0.019503
#
#
# Mechanical properties :
#
#
# Convention : Reuss Voigt Hill
#
# Bulk Modulus (GPa) = 72.00632 80.22307 76.11469
# Shear Modulus (GPa) = 40.21969 46.17178 43.19574
#
# Velocity S-wave (km/s) = 4.32919 4.63848 4.48651
# Velocity P-wave (km/s) = 7.65136 8.12837 7.89347
#
# Compressibility (1/GPa) = 0.01388767
#
# Stress axis : x y z
#
# Youngs Moduli (GPa) = 161.92301 115.73574 81.35605
#
# Poissons Ratio (x) = 0.21234 0.09597
# Poissons Ratio (y) = 0.29708 0.29254
# Poissons Ratio (z) = 0.19100 0.41616
#
# Static dielectric constant tensor:
#      x y z
#    x 2.955430 0.004210 0.656320 
#    y 0.004210 3.741970 -0.400960 
#    z 0.656320 -0.400960 3.187100 
# 
# 
# High freq. dielectric constant tensor:
#      x y z
#    x 1.869270 0.001200 0.010240 
#    y 0.001200 1.855540 -0.002890 
#    z 0.010240 -0.002890 1.845560 
# 
# From -- ./inp_files/93921.got.cif
#   From: 2010.06.25/outbox.cif.g09.slc.cpg/sg2_47_cif.got.tgz:93921.got - 2010.06.27 13:26:56.
