data_PCOD8035992
_publ_section_title
;
Structure prediction by ZEFSAII (Michael W. Deem and Ramdas Pophale) SiO2 
 PCOD8035992
Probable space group: P -1
;
_chemical_formula_sum "Si O2"
_cell_formula_units_Z 16
_cell_length_a 10.692115
_cell_length_b 13.115546
_cell_length_c 15.015807
_cell_angle_alpha 126.934760
_cell_angle_beta 141.582820
_cell_angle_gamma 34.917064
_cell_volume 743.815580
_symmetry_space_group_name_H-M "P -1"
_symmetry_group_IT_number 2
_symmetry_cell_setting 'triclinic'
loop_
_space_group_symop_operation_xyz
x,y,z
-x,-y,-z
loop_
_atom_site_type_symbol
_atom_site_label
_atom_site_fract_x
_atom_site_fract_y
_atom_site_fract_z
Si Si1 0.108386 0.917563 0.614604
Si Si2 0.842250 0.437846 0.901106
Si Si3 0.757928 0.837417 0.449666
Si Si4 0.354212 0.461791 0.337101
Si Si5 0.861993 0.805562 0.696408
Si Si6 0.766746 0.955924 0.091988
Si Si7 0.092648 0.460036 0.743627
Si Si8 0.593661 0.270273 0.050737
O O1 0.435019 0.738112 0.688912
O O2 0.929180 0.881463 0.533691
O O3 0.085459 0.039485 0.738986
O O4 0.000000 0.000000 0.500000
O O5 0.757864 0.414054 0.746578
O O6 0.568001 0.580913 0.883782
O O7 0.031471 0.240314 0.944951
O O8 0.000000 0.500000 0.000000
O O9 0.812454 0.789669 0.558604
O O10 0.877547 0.659417 0.376743
O O11 0.427476 0.002848 0.328485
O O12 0.500000 0.500000 0.500000
O O13 0.096162 0.505067 0.262172
O O14 0.935306 0.649216 0.712248
O O15 0.113549 0.793153 0.842689
O O16 0.669359 0.094864 0.033222
O O17 0.500000 0.000000 0.000000
O O18 0.401041 0.355967 0.900087
#
# Coordination Sequence:
#
# PCOD8035992 Si02
#       8
#     2   2   2   2   2   2   2   2
#     4  12  24  42  69 106 142 176 227 290 354 418
#     4  12  23  44  67 102 140 179 222 281 357 425
#     4  11  25  49  72 101 142 178 243 293 342 418
#     4  12  22  41  68 105 142 173 229 287 349 420
#     4  11  26  50  70  98 140 189 242 292 340 408
#     4  12  24  41  69  99 141 184 217 277 355 413
#     4  12  26  44  74 103 139 189 234 288 352 416
#     4  12  26  47  70 104 144 183 238 285 346 430
#
# _framework density 21.510708000000001
#
# number of rings (size 3 to 8) (size 9 to 14) (size 15 to 20)
#    0.000    0.250    6.250    2.250    1.750    2.500 
#    0.000    0.000    0.000    0.000    0.000    0.000 
#    0.000    0.000    0.000    0.000    0.000    0.000 
#
# Total GULP energy -198427.257351 kJ/mol
# GULP energy per Si atom -12401.703584 kJ/mol
# Density = 2.146175 g / cm^3
# Si number density = 21.510708 Si / 1000 Ang^3
#
#
#
# Elastic Constant Matrix: (Units=GPa)
#
#
# Indices 1 2 3 4 5 6 
#
# 1 40.8902 26.4071 6.9449 -8.3146 -3.0494 5.0984
# 2 26.4071 126.1693 5.7404 -10.3015 6.8099 7.1430
# 3 6.9449 5.7404 89.7442 -10.5234 6.8082 8.5529
# 4 -8.3146 -10.3015 -10.5234 35.7381 1.3898 -0.5880
# 5 -3.0494 6.8099 6.8082 1.3898 39.4882 -10.8341
# 6 5.0984 7.1430 8.5529 -0.5880 -10.8341 38.2023
#
#
#
# Elastic Compliance Matrix: (Units=1/GPa)
#
#
# Indices 1 2 3 4 5 6 
#
# 1 0.029872 -0.005869 -0.001453 0.004689 0.002950 -0.001655
# 2 -0.005869 0.009515 0.000412 0.001574 -0.002724 -0.001836
# 3 -0.001453 0.000412 0.012226 0.003454 -0.003380 -0.003526
# 4 0.004689 0.001574 0.003454 0.030594 -0.002079 -0.001812
# 5 0.002950 -0.002724 -0.003380 -0.002079 0.029179 0.009115
# 6 -0.001655 -0.001836 -0.003526 -0.001812 0.009115 0.030087
#
#
# Mechanical properties :
#
#
# Convention : Reuss Voigt Hill
#
# Bulk Modulus (GPa) = 26.45886 37.22093 31.83989
# Shear Modulus (GPa) = 29.78122 37.19982 33.49052
#
# Velocity S-wave (km/s) = 3.72490 4.16307 3.95007
# Velocity P-wave (km/s) = 5.55220 6.35997 5.96976
#
# Compressibility (1/GPa) = 0.03779452
#
# Stress axis : x y z
#
# Youngs Moduli (GPa) = 33.47581 105.09695 81.79053
#
# Poissons Ratio (x) = 0.61680 0.11881
# Poissons Ratio (y) = 0.19646 -0.03369
# Poissons Ratio (z) = 0.04863 -0.04328
#
# Static dielectric constant tensor:
#      x y z
#    x 4.016350 0.164540 -0.060560 
#    y 0.164540 4.677970 0.295340 
#    z -0.060560 0.295340 4.576770 
# 
# 
# High freq. dielectric constant tensor:
#      x y z
#    x 1.845040 -0.000940 -0.001200 
#    y -0.000940 1.859210 -0.008500 
#    z -0.001200 -0.008500 1.859340 
# 
# From -- ./inp_files/522447.got.cif
#   From: 2010.06.25/outbox.cif.g09.slc.cpg/sg2_262_cif.got.tgz:522447.got - 2010.06.27 13:26:56.
