data_PCOD8035424
_publ_section_title
;
Structure prediction by ZEFSAII (Michael W. Deem and Ramdas Pophale) SiO2 
 PCOD8035424
Probable space group: P -1
;
_chemical_formula_sum "Si O2"
_cell_formula_units_Z 16
_cell_length_a 8.593725
_cell_length_b 12.542794
_cell_length_c 9.690359
_cell_angle_alpha 46.940937
_cell_angle_beta 95.775543
_cell_angle_gamma 80.894412
_cell_volume 721.346713
_symmetry_space_group_name_H-M "P -1"
_symmetry_group_IT_number 2
_symmetry_cell_setting 'triclinic'
loop_
_space_group_symop_operation_xyz
x,y,z
-x,-y,-z
loop_
_atom_site_type_symbol
_atom_site_label
_atom_site_fract_x
_atom_site_fract_y
_atom_site_fract_z
Si Si1 0.665923 0.538946 0.508927
Si Si2 0.394578 0.102997 0.779972
Si Si3 0.574888 0.918241 0.716119
Si Si4 0.928524 0.906522 0.380192
Si Si5 0.149720 0.505558 0.173113
Si Si6 0.937966 0.829711 0.762704
Si Si7 0.625047 0.588015 0.973628
Si Si8 0.131421 0.592669 0.619381
O O1 0.500000 0.500000 0.500000
O O2 0.629109 0.721020 0.345992
O O3 0.725739 0.463306 0.730680
O O4 0.812173 0.469076 0.473746
O O5 0.219039 0.077159 0.756066
O O6 0.504646 0.048651 0.705085
O O7 0.500000 0.000000 0.000000
O O8 0.770131 0.868126 0.797297
O O9 0.526908 0.760363 0.864829
O O10 0.500000 0.000000 0.500000
O O11 0.891717 0.857036 0.573999
O O12 0.093199 0.777398 0.452994
O O13 0.957480 0.069544 0.252383
O O14 0.256824 0.396937 0.157355
O O15 0.038972 0.429154 0.322634
O O16 0.042786 0.654334 0.950849
O O17 0.500000 0.500000 0.000000
O O18 0.723219 0.489802 0.193809
#
# Coordination Sequence:
#
# PCOD8035424 Si02
#       8
#     2   2   2   2   2   2   2   2
#     4  12  29  48  69 102 146 190 237 292 354 420
#     4  12  28  46  69 100 147 187 229 286 359 423
#     4  12  25  43  68 100 142 182 227 287 352 416
#     4  11  25  45  72 106 141 180 234 296 353 416
#     4  12  24  46  74 102 136 184 242 291 346 418
#     4  11  25  44  74 108 137 181 235 298 352 416
#     4  12  26  41  73 106 137 181 235 289 352 415
#     4  12  24  47  71  98 140 186 237 291 346 416
#
# _framework density 22.180734999999999
#
# number of rings (size 3 to 8) (size 9 to 14) (size 15 to 20)
#    0.000    0.250    5.000    3.750    7.000    0.000 
#    0.000    1.250    0.000    0.000    0.000    0.000 
#    0.000    0.000    0.000    0.000    0.000    0.000 
#
# Total GULP energy -198380.214613 kJ/mol
# GULP energy per Si atom -12398.763413 kJ/mol
# Density = 2.213025 g / cm^3
# Si number density = 22.180735 Si / 1000 Ang^3
#
#
#
# Elastic Constant Matrix: (Units=GPa)
#
#
# Indices 1 2 3 4 5 6 
#
# 1 57.6805 18.8934 10.4816 -13.5555 5.6086 14.8152
# 2 18.8934 119.8655 14.2567 0.9438 -2.7490 -18.5383
# 3 10.4816 14.2567 77.8997 8.3344 19.7059 4.8395
# 4 -13.5555 0.9438 8.3344 32.7097 2.7946 9.2333
# 5 5.6086 -2.7490 19.7059 2.7946 39.4537 9.6467
# 6 14.8152 -18.5383 4.8395 9.2333 9.6467 40.7443
#
#
#
# Elastic Compliance Matrix: (Units=1/GPa)
#
#
# Indices 1 2 3 4 5 6 
#
# 1 0.028932 -0.006972 -0.003491 0.017976 0.000121 -0.017380
# 2 -0.006972 0.010995 -0.001188 -0.005430 0.000591 0.008769
# 3 -0.003491 -0.001188 0.015904 -0.005337 -0.007604 0.001850
# 4 0.017976 -0.005430 -0.005337 0.044742 0.001156 -0.018786
# 5 0.000121 0.000591 -0.007604 0.001156 0.030649 -0.006391
# 6 -0.017380 0.008769 0.001850 -0.018786 -0.006391 0.040403
#
#
# Mechanical properties :
#
#
# Convention : Reuss Voigt Hill
#
# Bulk Modulus (GPa) = 30.74084 38.07880 34.40982
# Shear Modulus (GPa) = 24.29906 36.70246 30.50076
#
# Velocity S-wave (km/s) = 3.31343 4.07221 3.71226
# Velocity P-wave (km/s) = 5.34114 6.27019 5.82422
#
# Compressibility (1/GPa) = 0.03253002
#
# Stress axis : x y z
#
# Youngs Moduli (GPa) = 34.56436 90.94711 62.87799
#
# Poissons Ratio (x) = 0.63405 0.21951
# Poissons Ratio (y) = 0.24097 0.07467
# Poissons Ratio (z) = 0.12067 0.10801
#
# Static dielectric constant tensor:
#      x y z
#    x 4.117400 -0.123090 0.107160 
#    y -0.123090 4.333620 -0.028120 
#    z 0.107160 -0.028120 4.139590 
# 
# 
# High freq. dielectric constant tensor:
#      x y z
#    x 1.878100 0.000450 0.019330 
#    y 0.000450 1.893540 -0.004260 
#    z 0.019330 -0.004260 1.873090 
# 
# From -- ./inp_files/184221.got.cif
#   From: 2010.06.25/outbox.cif.g09.slc.cpg/sg2_93_cif.got.tgz:184221.got - 2010.06.27 13:26:56.
