data_PCOD8035169
_publ_section_title
;
Structure prediction by ZEFSAII (Michael W. Deem and Ramdas Pophale) SiO2 
 PCOD8035169
Probable space group: P -1
;
_chemical_formula_sum "Si O2"
_cell_formula_units_Z 16
_cell_length_a 9.239647
_cell_length_b 20.246196
_cell_length_c 11.494441
_cell_angle_alpha 43.980272
_cell_angle_beta 125.784175
_cell_angle_gamma 151.891562
_cell_volume 695.228641
_symmetry_space_group_name_H-M "P -1"
_symmetry_group_IT_number 2
_symmetry_cell_setting 'triclinic'
loop_
_space_group_symop_operation_xyz
x,y,z
-x,-y,-z
loop_
_atom_site_type_symbol
_atom_site_label
_atom_site_fract_x
_atom_site_fract_y
_atom_site_fract_z
Si Si1 0.078400 0.672106 0.514339
Si Si2 0.244643 0.536836 0.748736
Si Si3 0.949635 0.872394 0.678214
Si Si4 0.415507 0.964932 0.642088
Si Si5 0.621564 0.229800 0.971211
Si Si6 0.201824 0.518989 0.150876
Si Si7 0.241827 0.963886 0.944583
Si Si8 0.282764 0.392657 0.760686
O O1 0.162486 0.607555 0.575375
O O2 0.030595 0.633763 0.676727
O O3 0.774466 0.586494 0.420264
O O4 0.360174 0.868915 0.388413
O O5 0.592041 0.690201 0.770788
O O6 0.233540 0.458196 0.739618
O O7 0.990545 0.388876 0.910241
O O8 0.074333 0.856754 0.653521
O O9 0.134876 0.950418 0.786093
O O10 0.000000 0.000000 0.500000
O O11 0.500000 0.000000 0.500000
O O12 0.441487 0.870453 0.825892
O O13 0.549999 0.305178 0.887900
O O14 0.397632 0.116945 0.898481
O O15 0.382396 0.510686 0.185834
O O16 0.000000 0.500000 0.000000
O O17 0.962733 0.797987 0.095658
O O18 0.500000 0.000000 0.000000
#
# Coordination Sequence:
#
# PCOD8035169 Si02
#       8
#     2   2   2   2   2   2   2   2
#     4  11  24  49  68 107 149 189 248 305 375 440
#     4  11  26  44  82 109 143 194 253 312 371 435
#     4  12  27  46  73 113 148 190 255 306 376 440
#     4  12  25  45  73 103 153 197 238 307 375 442
#     4  11  25  50  75 106 150 199 247 304 375 437
#     4  11  28  46  71 107 155 194 251 307 366 451
#     4  12  24  46  76 106 148 192 252 314 366 438
#     4  12  25  45  79 104 146 198 248 307 377 441
#
# _framework density 23.014011
#
# number of rings (size 3 to 8) (size 9 to 14) (size 15 to 20)
#    0.000    0.500    5.000    1.500    7.000    4.500 
#    2.250    0.000    0.000    0.000    0.000    0.000 
#    0.000    0.000    0.000    0.000    0.000    0.000 
#
# Total GULP energy -198317.498298 kJ/mol
# GULP energy per Si atom -12394.843644 kJ/mol
# Density = 2.296163 g / cm^3
# Si number density = 23.014011 Si / 1000 Ang^3
#
#
#
# Elastic Constant Matrix: (Units=GPa)
#
#
# Indices 1 2 3 4 5 6 
#
# 1 118.3063 33.1110 39.8207 3.3850 4.4376 5.7222
# 2 33.1110 113.8014 51.5777 0.9294 -1.6696 -1.6713
# 3 39.8207 51.5777 139.1920 10.3431 -8.9160 7.3672
# 4 3.3850 0.9294 10.3431 50.5053 -3.8174 7.8242
# 5 4.4376 -1.6696 -8.9160 -3.8174 35.5678 2.4673
# 6 5.7222 -1.6713 7.3672 7.8242 2.4673 36.9566
#
#
#
# Elastic Compliance Matrix: (Units=1/GPa)
#
#
# Indices 1 2 3 4 5 6 
#
# 1 0.009838 -0.001929 -0.002149 -0.000161 -0.001803 -0.001028
# 2 -0.001929 0.011019 -0.003654 0.000435 -0.000212 0.001447
# 3 -0.002149 -0.003654 0.009492 -0.001298 0.002449 -0.001613
# 4 -0.000161 0.000435 -0.001298 0.020901 0.002255 -0.004272
# 5 -0.001803 -0.000212 0.002449 0.002255 0.029370 -0.002657
# 6 -0.001028 0.001447 -0.001613 -0.004272 -0.002657 0.028687
#
#
# Mechanical properties :
#
#
# Convention : Reuss Voigt Hill
#
# Bulk Modulus (GPa) = 67.17864 68.92428 68.05146
# Shear Modulus (GPa) = 38.54140 41.05862 39.80001
#
# Velocity S-wave (km/s) = 4.09674 4.22841 4.16310
# Velocity P-wave (km/s) = 7.18550 7.33847 7.26239
#
# Compressibility (1/GPa) = 0.01488568
#
# Stress axis : x y z
#
# Youngs Moduli (GPa) = 101.65068 90.75256 105.35559
#
# Poissons Ratio (x) = 0.17503 0.22640
# Poissons Ratio (y) = 0.19604 0.38495
# Poissons Ratio (z) = 0.21843 0.33159
#
# Static dielectric constant tensor:
#      x y z
#    x 4.361120 -0.065020 0.140290 
#    y -0.065020 4.356630 -0.200890 
#    z 0.140290 -0.200890 4.214870 
# 
# 
# High freq. dielectric constant tensor:
#      x y z
#    x 1.911750 -0.007850 0.003990 
#    y -0.007850 1.912650 -0.012330 
#    z 0.003990 -0.012330 1.919610 
# 
# From -- ./inp_files/405442.got.cif
#   From: 2010.06.25/outbox.cif.g09.slc.cpg/sg2_203_cif.got.tgz:405442.got - 2010.06.27 13:26:56.
