data_PCOD8035820
_publ_section_title
;
Structure prediction by ZEFSAII (Michael W. Deem and Ramdas Pophale) SiO2 
 PCOD8035820
Probable space group: P -1
;
_chemical_formula_sum "Si O2"
_cell_formula_units_Z 14
_cell_length_a 15.324656
_cell_length_b 9.108926
_cell_length_c 11.686167
_cell_angle_alpha 116.521925
_cell_angle_beta 123.893998
_cell_angle_gamma 27.444401
_cell_volume 619.074020
_symmetry_space_group_name_H-M "P -1"
_symmetry_group_IT_number 2
_symmetry_cell_setting 'triclinic'
loop_
_space_group_symop_operation_xyz
x,y,z
-x,-y,-z
loop_
_atom_site_type_symbol
_atom_site_label
_atom_site_fract_x
_atom_site_fract_y
_atom_site_fract_z
Si Si1 0.377225 0.825917 0.341011
Si Si2 0.217996 0.132808 0.563889
Si Si3 0.982223 0.937963 0.846026
Si Si4 0.048971 0.176371 0.851543
Si Si5 0.373910 0.192438 0.857112
Si Si6 0.827248 0.097055 0.392927
Si Si7 0.292533 0.098637 0.144531
O O1 0.607216 0.476462 0.350561
O O2 0.366720 0.931332 0.492009
O O3 0.296438 0.061431 0.269363
O O4 0.241078 0.843825 0.255211
O O5 0.339201 0.062839 0.728740
O O6 0.000000 0.500000 0.500000
O O7 0.173260 0.009255 0.529598
O O8 0.150469 0.569041 0.842283
O O9 0.012755 0.033905 0.804219
O O10 0.000000 0.000000 0.000000
O O11 0.844835 0.556356 0.855953
O O12 0.125455 0.081751 0.743916
O O13 0.218662 0.030583 0.006207
O O14 0.487770 0.158554 0.839748
O O15 0.500000 0.000000 0.000000
O O16 0.000000 0.000000 0.500000
#
# Coordination Sequence:
#
# PCOD8035820 Si02
#       7
#     2   2   2   2   2   2   2
#     4  12  27  48  73 107 143 194 237 298 366 431
#     4  12  27  50  74 102 151 190 241 298 361 436
#     4  12  25  45  74 107 149 186 239 297 364 429
#     4  11  25  47  72 106 146 186 240 299 355 425
#     4  12  28  46  77 108 143 194 245 296 361 424
#     4  12  29  47  73 105 145 188 243 297 363 427
#     4  11  26  45  75 106 142 189 241 296 358 424
#
# _framework density 22.614419000000002
#
# number of rings (size 3 to 8) (size 9 to 14) (size 15 to 20)
#    0.000    0.286    2.857    4.714   12.000    1.714 
#    0.000    0.000    0.000    0.000    0.000    0.000 
#    0.000    0.000    0.000    0.000    0.000    0.000 
#
# Total GULP energy -173688.629126 kJ/mol
# GULP energy per Si atom -12406.330652 kJ/mol
# Density = 2.256295 g / cm^3
# Si number density = 22.614419 Si / 1000 Ang^3
#
#
#
# Elastic Constant Matrix: (Units=GPa)
#
#
# Indices 1 2 3 4 5 6 
#
# 1 135.8301 21.7471 50.3508 -5.5772 1.4432 1.1476
# 2 21.7471 86.1027 42.5422 1.4788 14.7491 -12.4992
# 3 50.3508 42.5422 150.2306 8.2389 0.0206 -7.5647
# 4 -5.5772 1.4788 8.2389 37.0927 -9.0038 -4.6997
# 5 1.4432 14.7491 0.0206 -9.0038 46.0914 -1.5321
# 6 1.1476 -12.4992 -7.5647 -4.6997 -1.5321 45.2085
#
#
#
# Elastic Compliance Matrix: (Units=1/GPa)
#
#
# Indices 1 2 3 4 5 6 
#
# 1 0.008627 -0.001038 -0.002742 0.001955 0.000420 -0.000747
# 2 -0.001038 0.015020 -0.003700 -0.000675 -0.004794 0.003327
# 3 -0.002742 -0.003700 0.008747 -0.001947 0.000897 0.000338
# 4 0.001955 -0.000675 -0.001947 0.029515 0.006011 0.002710
# 5 0.000420 -0.004794 0.000897 0.006011 0.024400 0.000266
# 6 -0.000747 0.003327 0.000338 0.002710 0.000266 0.023406
#
#
# Mechanical properties :
#
#
# Convention : Reuss Voigt Hill
#
# Bulk Modulus (GPa) = 57.36270 66.82708 62.09489
# Shear Modulus (GPa) = 38.31782 42.84674 40.58228
#
# Velocity S-wave (km/s) = 4.12077 4.35750 4.24079
# Velocity P-wave (km/s) = 6.93265 7.41160 7.17612
#
# Compressibility (1/GPa) = 0.01743293
#
# Stress axis : x y z
#
# Youngs Moduli (GPa) = 115.91496 66.57696 114.32378
#
# Poissons Ratio (x) = 0.06911 0.31352
# Poissons Ratio (y) = 0.12033 0.42303
# Poissons Ratio (z) = 0.31788 0.24635
#
# Static dielectric constant tensor:
#      x y z
#    x 4.550030 0.214490 -0.015730 
#    y 0.214490 4.291420 0.117960 
#    z -0.015730 0.117960 4.281510 
# 
# 
# High freq. dielectric constant tensor:
#      x y z
#    x 1.907640 -0.004870 -0.005480 
#    y -0.004870 1.896070 0.004290 
#    z -0.005480 0.004290 1.905500 
# 
# From -- ./inp_files/156627.got.cif
#   From: 2010.06.25/outbox.cif.g09.slc.cpg/sg2_79_cif.got.tgz:156627.got - 2010.06.27 13:26:56.
