data_PCOD8035608
_publ_section_title
;
Structure prediction by ZEFSAII (Michael W. Deem and Ramdas Pophale) SiO2 
 PCOD8035608
Probable space group: P -1
;
_chemical_formula_sum "Si O2"
_cell_formula_units_Z 12
_cell_length_a 9.270733
_cell_length_b 9.851521
_cell_length_c 9.779610
_cell_angle_alpha 138.594983
_cell_angle_beta 67.396876
_cell_angle_gamma 111.101277
_cell_volume 541.577508
_symmetry_space_group_name_H-M "P -1"
_symmetry_group_IT_number 2
_symmetry_cell_setting 'triclinic'
loop_
_space_group_symop_operation_xyz
x,y,z
-x,-y,-z
loop_
_atom_site_type_symbol
_atom_site_label
_atom_site_fract_x
_atom_site_fract_y
_atom_site_fract_z
Si Si1 0.953598 0.483558 0.160522
Si Si2 0.842881 0.444306 0.606621
Si Si3 0.666010 0.989148 0.360142
Si Si4 0.297130 0.871653 0.048126
Si Si5 0.171472 0.115960 0.516523
Si Si6 0.384417 0.221076 0.065436
O O1 0.838763 0.656197 0.367690
O O2 0.107714 0.512715 0.221566
O O3 0.860302 0.259750 0.047318
O O4 0.000000 0.500000 0.000000
O O5 0.760021 0.209673 0.446649
O O6 0.712737 0.590488 0.718966
O O7 0.000000 0.500000 0.500000
O O8 0.500000 0.000000 0.500000
O O9 0.765741 0.874191 0.344848
O O10 0.642086 0.837336 0.126377
O O11 0.279456 0.999324 0.289399
O O12 0.334169 0.020078 0.020382
O O13 0.430712 0.721717 0.921771
O O14 0.000000 0.000000 0.500000
#
# Coordination Sequence:
#
# PCOD8035608 Si02
#       6
#     2   2   2   2   2   2
#     4  12  24  41  70 100 131 177 224 275 337 401
#     4  12  27  46  70 103 135 180 231 280 343 403
#     4  12  26  46  69 105 138 178 229 281 345 401
#     4  11  25  46  65 101 136 180 225 275 348 398
#     4  12  23  44  69  99 140 175 225 281 335 411
#     4  11  27  45  70  96 141 179 225 286 336 412
#
# _framework density 22.157492000000001
#
# number of rings (size 3 to 8) (size 9 to 14) (size 15 to 20)
#    0.000    0.333    5.000    3.000    2.333    2.000 
#    0.000    4.167    0.000    0.000    0.000    0.000 
#    0.000    0.000    0.000    0.000    0.000    0.000 
#
# Total GULP energy -148796.030385 kJ/mol
# GULP energy per Si atom -12399.669199 kJ/mol
# Density = 2.210706 g / cm^3
# Si number density = 22.157492 Si / 1000 Ang^3
#
#
#
# Elastic Constant Matrix: (Units=GPa)
#
#
# Indices 1 2 3 4 5 6 
#
# 1 87.9847 12.7154 5.3919 -3.0574 -9.3384 -16.5404
# 2 12.7154 50.9880 7.7840 -8.5948 -1.7309 1.5706
# 3 5.3919 7.7840 60.8350 -5.0072 -12.2491 -4.6459
# 4 -3.0574 -8.5948 -5.0072 41.1024 -2.3391 -1.2825
# 5 -9.3384 -1.7309 -12.2491 -2.3391 46.2252 2.6448
# 6 -16.5404 1.5706 -4.6459 -1.2825 2.6448 49.7430
#
#
#
# Elastic Compliance Matrix: (Units=1/GPa)
#
#
# Indices 1 2 3 4 5 6 
#
# 1 0.012890 -0.003188 0.000102 0.000569 0.002295 0.004289
# 2 -0.003188 0.021471 -0.002315 0.003904 -0.000150 -0.001846
# 3 0.000102 -0.002315 0.017961 0.002029 0.004705 0.001587
# 4 0.000569 0.003904 0.002029 0.025577 0.002047 0.000806
# 5 0.002295 -0.000150 0.004705 0.002047 0.023441 0.000014
# 6 0.004289 -0.001846 0.001587 0.000806 0.000014 0.021756
#
#
# Mechanical properties :
#
#
# Convention : Reuss Voigt Hill
#
# Bulk Modulus (GPa) = 24.08510 27.95447 26.01979
# Shear Modulus (GPa) = 33.84405 39.00855 36.42630
#
# Velocity S-wave (km/s) = 3.91248 4.20040 4.05899
# Velocity P-wave (km/s) = 5.59495 6.01399 5.80825
#
# Compressibility (1/GPa) = 0.04151944
#
# Stress axis : x y z
#
# Youngs Moduli (GPa) = 77.58087 46.57485 55.67759
#
# Poissons Ratio (x) = 0.14850 -0.00568
# Poissons Ratio (y) = 0.24735 0.12887
# Poissons Ratio (z) = -0.00791 0.10780
#
# Static dielectric constant tensor:
#      x y z
#    x 4.325880 0.162670 -0.153910 
#    y 0.162670 4.004850 -0.554410 
#    z -0.153910 -0.554410 4.083670 
# 
# 
# High freq. dielectric constant tensor:
#      x y z
#    x 1.889190 -0.006200 0.001130 
#    y -0.006200 1.878590 -0.006750 
#    z 0.001130 -0.006750 1.875160 
# 
# From -- ./inp_files/26043.got.cif
#   From: 2010.06.25/outbox.cif.g09.slc.cpg/sg2_14_cif.got.tgz:26043.got - 2010.06.27 13:26:56.
