data_PCOD8035486
_publ_section_title
;
Structure prediction by ZEFSAII (Michael W. Deem and Ramdas Pophale) SiO2 
 PCOD8035486
Probable space group: P -1
;
_chemical_formula_sum "Si O2"
_cell_formula_units_Z 10
_cell_length_a 5.317577
_cell_length_b 14.308867
_cell_length_c 12.592168
_cell_angle_alpha 31.531322
_cell_angle_beta 65.731905
_cell_angle_gamma 53.686412
_cell_volume 393.629097
_symmetry_space_group_name_H-M "P -1"
_symmetry_group_IT_number 2
_symmetry_cell_setting 'triclinic'
loop_
_space_group_symop_operation_xyz
x,y,z
-x,-y,-z
loop_
_atom_site_type_symbol
_atom_site_label
_atom_site_fract_x
_atom_site_fract_y
_atom_site_fract_z
Si Si1 0.140752 0.192456 0.868983
Si Si2 0.690093 0.249977 0.080323
Si Si3 0.247424 0.155735 0.489155
Si Si4 0.864800 0.389747 0.519930
Si Si5 0.228820 0.705310 0.745292
O O1 0.053514 0.429072 0.668681
O O2 0.037716 0.197596 0.759509
O O3 0.930116 0.165563 0.020762
O O4 0.500000 0.000000 0.000000
O O5 0.862598 0.272035 0.135725
O O6 0.571754 0.086085 0.276598
O O7 0.371362 0.471329 0.903557
O O8 0.497476 0.234154 0.376852
O O9 0.945069 0.290053 0.486757
O O10 0.094284 0.157825 0.398239
O O11 0.500000 0.500000 0.500000
#
# Coordination Sequence:
#
# PCOD8035486 Si02
#       5
#     2   2   2   2   2
#     4  11  25  46  71 106 143 191 245 298 368 434
#     4  11  25  46  76 104 146 192 244 293 370 432
#     4  12  26  47  76 105 151 185 244 301 367 424
#     4  11  25  45  71 103 150 189 242 308 359 431
#     4  11  27  49  71 112 145 191 240 306 355 438
#
# _framework density 25.404627999999999
#
# number of rings (size 3 to 8) (size 9 to 14) (size 15 to 20)
#    0.000    0.800    2.000    3.600    5.600    9.600 
#    3.600    0.000    0.000    0.000    0.000    0.000 
#    0.000    0.000    0.000    0.000    0.000    0.000 
#
# Total GULP energy -123930.617159 kJ/mol
# GULP energy per Si atom -12393.061716 kJ/mol
# Density = 2.534681 g / cm^3
# Si number density = 25.404628 Si / 1000 Ang^3
#
#
#
# Elastic Constant Matrix: (Units=GPa)
#
#
# Indices 1 2 3 4 5 6 
#
# 1 86.2161 -0.9396 48.0357 7.5708 -4.7934 6.0992
# 2 -0.9396 141.7711 28.3880 9.5153 8.8058 6.7827
# 3 48.0357 28.3880 155.7353 -7.0609 14.1374 -6.5604
# 4 7.5708 9.5153 -7.0609 41.5044 2.8430 10.8319
# 5 -4.7934 8.8058 14.1374 2.8430 24.0846 1.5904
# 6 6.0992 6.7827 -6.5604 10.8319 1.5904 24.0607
#
#
#
# Elastic Compliance Matrix: (Units=1/GPa)
#
#
# Indices 1 2 3 4 5 6 
#
# 1 0.016166 0.001396 -0.006261 -0.003492 0.007131 -0.005098
# 2 0.001396 0.007733 -0.001913 -0.001700 -0.001080 -0.002219
# 3 -0.006261 -0.001913 0.009603 0.002632 -0.006759 0.004007
# 4 -0.003492 -0.001700 0.002632 0.028606 -0.004301 -0.010512
# 5 0.007131 -0.001080 -0.006759 -0.004301 0.048112 -0.004590
# 6 -0.005098 -0.002219 0.004007 -0.010512 -0.004590 0.049608
#
#
# Mechanical properties :
#
#
# Convention : Reuss Voigt Hill
#
# Bulk Modulus (GPa) = 50.13448 59.41008 54.77228
# Shear Modulus (GPa) = 27.77262 38.47917 33.12589
#
# Velocity S-wave (km/s) = 3.30996 3.89607 3.61492
# Velocity P-wave (km/s) = 5.86387 6.60874 6.24742
#
# Compressibility (1/GPa) = 0.01994635
#
# Stress axis : x y z
#
# Youngs Moduli (GPa) = 61.85701 129.31245 104.13674
#
# Poissons Ratio (x) = -0.18055 0.65204
# Poissons Ratio (y) = -0.08637 0.19920
# Poissons Ratio (z) = 0.38731 0.24736
#
# Static dielectric constant tensor:
#      x y z
#    x 4.043090 0.204830 0.055490 
#    y 0.204830 4.930940 0.076310 
#    z 0.055490 0.076310 4.966780 
# 
# 
# High freq. dielectric constant tensor:
#      x y z
#    x 1.989400 0.003200 -0.003310 
#    y 0.003200 2.044220 -0.005730 
#    z -0.003310 -0.005730 2.040860 
# 
# From -- ./inp_files/30488.got.cif
#   From: 2010.06.25/outbox.cif.g09.slc.cpg/sg2_16_cif.got.tgz:30488.got - 2010.06.27 13:26:56.
