data_PCOD8035057
_publ_section_title
;
Structure prediction by ZEFSAII (Michael W. Deem and Ramdas Pophale) SiO2 
 PCOD8035057
Probable space group: P -1
;
_chemical_formula_sum "Si O2"
_cell_formula_units_Z 14
_cell_length_a 9.880826
_cell_length_b 7.534546
_cell_length_c 12.959394
_cell_angle_alpha 102.623475
_cell_angle_beta 49.200480
_cell_angle_gamma 71.590450
_cell_volume 558.715881
_symmetry_space_group_name_H-M "P -1"
_symmetry_group_IT_number 2
_symmetry_cell_setting 'triclinic'
loop_
_space_group_symop_operation_xyz
x,y,z
-x,-y,-z
loop_
_atom_site_type_symbol
_atom_site_label
_atom_site_fract_x
_atom_site_fract_y
_atom_site_fract_z
Si Si1 0.426199 0.457367 0.375475
Si Si2 0.937394 0.594096 0.426458
Si Si3 0.339076 0.852584 0.970933
Si Si4 0.308973 0.931198 0.488268
Si Si5 0.638964 0.736864 0.975088
Si Si6 0.174232 0.951893 0.776379
Si Si7 0.753579 0.727763 0.132430
O O1 0.271185 0.403500 0.501125
O O2 0.275801 0.734269 0.476141
O O3 0.653053 0.324392 0.319252
O O4 0.495369 0.364758 0.212944
O O5 0.000000 0.500000 0.500000
O O6 0.142909 0.428850 0.226286
O O7 0.846338 0.860008 0.490651
O O8 0.403075 0.023489 0.951634
O O9 0.423110 0.763882 0.036944
O O10 0.078363 0.966198 0.096151
O O11 0.235709 0.029277 0.653483
O O12 0.576352 0.799488 0.320999
O O13 0.674990 0.653579 0.064360
O O14 0.213712 0.071065 0.867515
O O15 0.000000 0.500000 0.000000
#
# Coordination Sequence:
#
# PCOD8035057 Si02
#       7
#     2   2   2   2   2   2   2
#     4  12  25  48  79 115 150 200 258 315 379 455
#     4  12  26  51  76 109 156 202 252 315 387 452
#     4  11  24  47  76 111 150 201 257 306 380 453
#     4  12  28  48  73 115 154 196 257 313 381 453
#     4  11  25  47  77 107 155 202 248 315 380 450
#     4  12  25  48  77 113 155 198 255 318 375 453
#     4  12  26  46  77 111 152 199 253 317 381 446
#
# _framework density 25.057459999999999
#
# number of rings (size 3 to 8) (size 9 to 14) (size 15 to 20)
#    0.000    0.286    4.286    3.857    6.000    0.571 
#    2.571    2.143    0.000    0.000    0.000    0.000 
#    0.000    0.000    0.000    0.000    0.000    0.000 
#
# Total GULP energy -173477.555122 kJ/mol
# GULP energy per Si atom -12391.253937 kJ/mol
# Density = 2.500043 g / cm^3
# Si number density = 25.057460 Si / 1000 Ang^3
#
#
#
# Elastic Constant Matrix: (Units=GPa)
#
#
# Indices 1 2 3 4 5 6 
#
# 1 121.0018 10.0661 18.6937 -3.6801 -6.9803 -10.1141
# 2 10.0661 133.4727 19.8499 14.0926 6.8833 -8.9712
# 3 18.6937 19.8499 94.8481 1.8928 -2.9457 4.2479
# 4 -3.6801 14.0926 1.8928 38.3117 0.3327 -2.4815
# 5 -6.9803 6.8833 -2.9457 0.3327 29.6330 -2.6164
# 6 -10.1141 -8.9712 4.2479 -2.4815 -2.6164 26.7980
#
#
#
# Elastic Compliance Matrix: (Units=1/GPa)
#
#
# Indices 1 2 3 4 5 6 
#
# 1 0.009090 -0.000414 -0.001834 0.001351 0.002388 0.003941
# 2 -0.000414 0.008356 -0.001782 -0.002849 -0.001966 0.002468
# 3 -0.001834 -0.001782 0.011446 -0.000291 0.000854 -0.003047
# 4 0.001351 -0.002849 -0.000291 0.027430 0.000839 0.002224
# 5 0.002388 -0.001966 0.000854 0.000839 0.035160 0.003618
# 6 0.003941 0.002468 -0.003047 0.002224 0.003618 0.040672
#
#
# Mechanical properties :
#
#
# Convention : Reuss Voigt Hill
#
# Bulk Modulus (GPa) = 48.00030 49.61577 48.80803
# Shear Modulus (GPa) = 33.97646 38.99606 36.48626
#
# Velocity S-wave (km/s) = 3.68631 3.94923 3.82003
# Velocity P-wave (km/s) = 6.10869 6.37488 6.24320
#
# Compressibility (1/GPa) = 0.02083320
#
# Stress axis : x y z
#
# Youngs Moduli (GPa) = 110.00592 119.66844 87.36321
#
# Poissons Ratio (x) = 0.04949 0.16026
# Poissons Ratio (y) = 0.04550 0.15569
# Poissons Ratio (z) = 0.20179 0.21326
#
# Static dielectric constant tensor:
#      x y z
#    x -4.311410 0.140580 -3.131570 
#    y 0.140580 4.917950 0.205890 
#    z -3.131570 0.205890 3.480670 
# 
# 
# High freq. dielectric constant tensor:
#      x y z
#    x 2.002180 -0.012010 0.006760 
#    y -0.012010 1.996040 0.007960 
#    z 0.006760 0.007960 2.011590 
# 
# From -- ./inp_files/382838.got.cif
#   From: 2010.06.25/outbox.cif.g09.slc.cpg/sg2_192_cif.got.tgz:382838.got - 2010.06.27 13:26:56.
