data_PCOD8035209
_publ_section_title
;
Structure prediction by ZEFSAII (Michael W. Deem and Ramdas Pophale) SiO2 
 PCOD8035209
Probable space group: P -1
;
_chemical_formula_sum "Si O2"
_cell_formula_units_Z 16
_cell_length_a 9.308715
_cell_length_b 14.694338
_cell_length_c 9.294973
_cell_angle_alpha 113.883155
_cell_angle_beta 69.153830
_cell_angle_gamma 139.930426
_cell_volume 746.061565
_symmetry_space_group_name_H-M "P -1"
_symmetry_group_IT_number 2
_symmetry_cell_setting 'triclinic'
loop_
_space_group_symop_operation_xyz
x,y,z
-x,-y,-z
loop_
_atom_site_type_symbol
_atom_site_label
_atom_site_fract_x
_atom_site_fract_y
_atom_site_fract_z
Si Si1 0.981037 0.889729 0.847287
Si Si2 0.760678 0.149077 0.139042
Si Si3 0.480239 0.410357 0.077021
Si Si4 0.904027 0.530909 0.662452
Si Si5 0.036634 0.122397 0.499242
Si Si6 0.737592 0.123209 0.805360
Si Si7 0.209716 0.622588 0.105551
Si Si8 0.472126 0.428567 0.608552
O O1 0.775321 0.725638 0.871071
O O2 0.986310 0.899028 0.678335
O O3 0.201565 0.934115 0.840297
O O4 0.000000 0.000000 0.000000
O O5 0.899232 0.303590 0.255814
O O6 0.497347 0.044821 0.191405
O O7 0.844440 0.175131 0.960405
O O8 0.624466 0.531866 0.226952
O O9 0.500000 0.500000 0.000000
O O10 0.578481 0.346864 0.986217
O O11 0.839422 0.428494 0.748014
O O12 0.696977 0.491277 0.639602
O O13 0.000000 0.500000 0.500000
O O14 0.292941 0.259465 0.538434
O O15 0.877478 0.129969 0.637120
O O16 0.000000 0.000000 0.500000
O O17 0.714796 0.227194 0.831455
O O18 0.000000 0.500000 0.000000
O O19 0.500000 0.500000 0.500000
#
# Coordination Sequence:
#
# PCOD8035209 Si02
#       8
#     2   2   2   2   2   2   2   2
#     4  12  26  47  72 104 144 189 241 298 366 436
#     4  11  24  50  69 104 145 193 238 297 368 430
#     4  12  25  46  75 106 143 190 244 299 360 434
#     4  12  28  45  72 106 148 190 240 302 362 433
#     4  12  29  47  74 108 142 194 246 303 365 434
#     4  11  27  46  75 104 147 189 242 302 363 440
#     4  12  25  44  72 109 141 189 241 296 364 432
#     4  12  26  48  74 107 144 191 245 305 362 430
#
# _framework density 21.445951000000001
#
# number of rings (size 3 to 8) (size 9 to 14) (size 15 to 20)
#    0.000    0.250    5.000    2.250   10.500    2.500 
#    0.000    0.000    0.000    0.000    0.000    0.000 
#    0.000    0.000    0.000    0.000    0.000    0.000 
#
# Total GULP energy -198247.811575 kJ/mol
# GULP energy per Si atom -12390.488223 kJ/mol
# Density = 2.139714 g / cm^3
# Si number density = 21.445951 Si / 1000 Ang^3
#
#
#
# Elastic Constant Matrix: (Units=GPa)
#
#
# Indices 1 2 3 4 5 6 
#
# 1 122.2377 58.2866 74.3635 1.0347 7.8887 -18.9573
# 2 58.2866 137.4774 72.8596 6.4176 9.3104 -17.5191
# 3 74.3635 72.8596 200.0065 6.9108 6.0692 -10.0867
# 4 1.0347 6.4176 6.9108 39.6311 -6.9210 1.3738
# 5 7.8887 9.3104 6.0692 -6.9210 46.3980 -1.5399
# 6 -18.9573 -17.5191 -10.0867 1.3738 -1.5399 40.9150
#
#
#
# Elastic Compliance Matrix: (Units=1/GPa)
#
#
# Indices 1 2 3 4 5 6 
#
# 1 0.012168 -0.002942 -0.003264 0.000454 -0.000867 0.003526
# 2 -0.002942 0.010287 -0.002437 -0.001491 -0.001387 0.002439
# 3 -0.003264 -0.002437 0.007087 -0.000732 -0.000018 -0.000785
# 4 0.000454 -0.001491 -0.000732 0.026371 0.004207 -0.001335
# 5 -0.000867 -0.001387 -0.000018 0.004207 0.022599 -0.000291
# 6 0.003526 0.002439 -0.000785 -0.001335 -0.000291 0.026959
#
#
# Mechanical properties :
#
#
# Convention : Reuss Voigt Hill
#
# Bulk Modulus (GPa) = 81.59066 96.74901 89.16984
# Shear Modulus (GPa) = 39.41868 42.33628 40.87748
#
# Velocity S-wave (km/s) = 4.29190 4.44790 4.37059
# Velocity P-wave (km/s) = 7.91757 8.46104 8.19381
#
# Compressibility (1/GPa) = 0.01225630
#
# Stress axis : x y z
#
# Youngs Moduli (GPa) = 82.18065 97.20831 141.09545
#
# Poissons Ratio (x) = 0.28603 0.46053
# Poissons Ratio (y) = 0.24181 0.34383
# Poissons Ratio (z) = 0.26823 0.23689
#
# Static dielectric constant tensor:
#      x y z
#    x 4.211670 0.007730 -0.060070 
#    y 0.007730 3.962490 -0.047810 
#    z -0.060070 -0.047810 4.258890 
# 
# 
# High freq. dielectric constant tensor:
#      x y z
#    x 1.851170 -0.007550 0.005120 
#    y -0.007550 1.858770 0.002950 
#    z 0.005120 0.002950 1.862280 
# 
# From -- ./inp_files/208247.got.cif
#   From: 2010.06.25/outbox.cif.g09.slc.cpg/sg2_105_cif.got.tgz:208247.got - 2010.06.27 13:26:56.
