data_PCOD8035836
_publ_section_title
;
Structure prediction by ZEFSAII (Michael W. Deem and Ramdas Pophale) SiO2 
 PCOD8035836
Probable space group: P -1
;
_chemical_formula_sum "Si O2"
_cell_formula_units_Z 14
_cell_length_a 15.234250
_cell_length_b 8.573082
_cell_length_c 9.619598
_cell_angle_alpha 57.432525
_cell_angle_beta 142.531832
_cell_angle_gamma 104.919715
_cell_volume 607.753268
_symmetry_space_group_name_H-M "P -1"
_symmetry_group_IT_number 2
_symmetry_cell_setting 'triclinic'
loop_
_space_group_symop_operation_xyz
x,y,z
-x,-y,-z
loop_
_atom_site_type_symbol
_atom_site_label
_atom_site_fract_x
_atom_site_fract_y
_atom_site_fract_z
Si Si1 0.558443 0.930166 0.952537
Si Si2 0.336164 0.577297 0.435514
Si Si3 0.967041 0.185940 0.460444
Si Si4 0.651406 0.288584 0.913298
Si Si5 0.632624 0.041947 0.561574
Si Si6 0.960718 0.847044 0.124439
Si Si7 0.840165 0.565229 0.515288
O O1 0.414585 0.942049 0.667771
O O2 0.646624 0.080494 0.948385
O O3 0.677445 0.710987 0.185934
O O4 0.500000 0.000000 0.000000
O O5 0.497662 0.406739 0.745502
O O6 0.315910 0.603664 0.233328
O O7 0.334789 0.765946 0.433114
O O8 0.197227 0.501675 0.346373
O O9 0.044039 0.102595 0.743461
O O10 0.034036 0.329669 0.388962
O O11 0.783243 0.278714 0.195474
O O12 0.000000 0.000000 0.500000
O O13 0.500000 0.000000 0.500000
O O14 0.789113 0.856103 0.862200
O O15 0.089102 0.633746 0.386943
O O16 0.000000 0.000000 0.000000
#
# Coordination Sequence:
#
# PCOD8035836 Si02
#       7
#     2   2   2   2   2   2   2
#     4  12  26  47  74 111 144 194 247 305 369 441
#     4  11  25  47  73 113 143 199 249 305 372 447
#     4  12  27  48  75 107 153 194 243 310 377 438
#     4  11  25  47  74 109 152 189 253 307 371 444
#     4  12  26  48  78 101 148 197 247 301 367 447
#     4  12  29  50  73 113 151 196 250 309 376 441
#     4  12  27  47  75 108 154 188 254 303 379 439
#
# _framework density 23.035663
#
# number of rings (size 3 to 8) (size 9 to 14) (size 15 to 20)
#    0.000    0.286    5.714    2.143    6.000    1.143 
#    0.000    0.000    0.000    0.000    0.000    0.000 
#    0.000    0.000    0.000    0.000    0.000    0.000 
#
# Total GULP energy -173508.133373 kJ/mol
# GULP energy per Si atom -12393.438098 kJ/mol
# Density = 2.298323 g / cm^3
# Si number density = 23.035663 Si / 1000 Ang^3
#
#
#
# Elastic Constant Matrix: (Units=GPa)
#
#
# Indices 1 2 3 4 5 6 
#
# 1 137.2434 49.5489 47.3054 0.7872 0.8381 10.6554
# 2 49.5489 105.8545 53.1603 -11.3311 -6.0051 1.9116
# 3 47.3054 53.1603 159.0850 4.9089 17.5491 -15.5408
# 4 0.7872 -11.3311 4.9089 42.5895 -4.7121 1.2654
# 5 0.8381 -6.0051 17.5491 -4.7121 35.0862 -3.2466
# 6 10.6554 1.9116 -15.5408 1.2654 -3.2466 47.3776
#
#
#
# Elastic Compliance Matrix: (Units=1/GPa)
#
#
# Indices 1 2 3 4 5 6 
#
# 1 0.009395 -0.003560 -0.001795 -0.000870 -0.000289 -0.002555
# 2 -0.003560 0.014262 -0.004557 0.005012 0.005383 -0.001035
# 3 -0.001795 -0.004557 0.009371 -0.002969 -0.005511 0.003363
# 4 -0.000870 0.005012 -0.002969 0.025842 0.005716 -0.001279
# 5 -0.000289 0.005383 -0.005511 0.005716 0.032967 0.000146
# 6 -0.002555 -0.001035 0.003363 -0.001279 0.000146 0.022871
#
#
# Mechanical properties :
#
#
# Convention : Reuss Voigt Hill
#
# Bulk Modulus (GPa) = 75.73037 78.02358 76.87698
# Shear Modulus (GPa) = 35.98856 41.82187 38.90522
#
# Velocity S-wave (km/s) = 3.95688 4.26552 4.11410
# Velocity P-wave (km/s) = 7.33638 7.62915 7.48420
#
# Compressibility (1/GPa) = 0.01320474
#
# Stress axis : x y z
#
# Youngs Moduli (GPa) = 106.43590 70.11567 106.71660
#
# Poissons Ratio (x) = 0.24959 0.19157
# Poissons Ratio (y) = 0.37888 0.48629
# Poissons Ratio (z) = 0.19107 0.31951
#
# Static dielectric constant tensor:
#      x y z
#    x 4.255280 0.039140 -0.413470 
#    y 0.039140 3.997560 -0.875480 
#    z -0.413470 -0.875480 1.049430 
# 
# 
# High freq. dielectric constant tensor:
#      x y z
#    x 1.930620 0.006060 0.009300 
#    y 0.006060 1.901190 -0.018830 
#    z 0.009300 -0.018830 1.916510 
# 
# From -- ./inp_files/297730.got.cif
#   From: 2010.06.25/outbox.cif.g09.slc.cpg/sg2_149_cif.got.tgz:297730.got - 2010.06.27 13:26:56.
