data_PCOD8035668
_publ_section_title
;
Structure prediction by ZEFSAII (Michael W. Deem and Ramdas Pophale) SiO2 
 PCOD8035668
Probable space group: P -1
;
_chemical_formula_sum "Si O2"
_cell_formula_units_Z 16
_cell_length_a 18.824696
_cell_length_b 15.424317
_cell_length_c 5.446681
_cell_angle_alpha 67.249700
_cell_angle_beta 103.062283
_cell_angle_gamma 151.093308
_cell_volume 682.160983
_symmetry_space_group_name_H-M "P -1"
_symmetry_group_IT_number 2
_symmetry_cell_setting 'triclinic'
loop_
_space_group_symop_operation_xyz
x,y,z
-x,-y,-z
loop_
_atom_site_type_symbol
_atom_site_label
_atom_site_fract_x
_atom_site_fract_y
_atom_site_fract_z
Si Si1 0.002398 0.662727 0.712750
Si Si2 0.685966 0.244293 0.082523
Si Si3 0.407725 0.040738 0.958798
Si Si4 0.064655 0.838119 0.070568
Si Si5 0.618749 0.606748 0.776828
Si Si6 0.931955 0.882525 0.827597
Si Si7 0.618367 0.776462 0.273939
Si Si8 0.834940 0.294659 0.493427
O O1 0.828668 0.429218 0.816277
O O2 0.014383 0.747509 0.399702
O O3 0.129675 0.725886 0.702898
O O4 0.042426 0.742053 0.930059
O O5 0.607226 0.056428 0.151668
O O6 0.566113 0.194111 0.055077
O O7 0.749924 0.295466 0.351442
O O8 0.266968 0.881757 0.210824
O O9 0.418098 0.158600 0.729794
O O10 0.956332 0.799651 0.945933
O O11 0.243288 0.066443 0.985656
O O12 0.754304 0.702415 0.897796
O O13 0.679618 0.774542 0.532315
O O14 0.538386 0.445567 0.699287
O O15 0.500000 0.500000 0.000000
O O16 0.000000 0.000000 0.500000
O O17 0.000000 0.000000 0.000000
O O18 0.000000 0.500000 0.500000
#
# Coordination Sequence:
#
# PCOD8035668 Si02
#       8
#     2   2   2   2   2   2   2   2
#     4  12  26  44  76 107 151 192 257 305 368 441
#     4  11  26  44  68 108 150 195 247 316 366 444
#     4  11  25  46  72 102 149 195 251 302 384 437
#     4  12  26  46  76 113 147 198 253 307 371 456
#     4  11  27  47  75 107 149 193 244 313 377 451
#     4  12  26  49  79 110 151 193 247 315 378 442
#     4  11  25  46  72 105 146 192 250 302 379 449
#     4  12  23  44  71 102 145 201 251 310 367 442
#
# _framework density 23.454877
#
# number of rings (size 3 to 8) (size 9 to 14) (size 15 to 20)
#    0.000    0.500    3.750    3.750    5.250    2.000 
#    0.000    0.000    0.000    0.000    0.000    0.000 
#    0.000    0.000    0.000    0.000    0.000    0.000 
#
# Total GULP energy -198319.630675 kJ/mol
# GULP energy per Si atom -12394.976917 kJ/mol
# Density = 2.340149 g / cm^3
# Si number density = 23.454877 Si / 1000 Ang^3
#
#
#
# Elastic Constant Matrix: (Units=GPa)
#
#
# Indices 1 2 3 4 5 6 
#
# 1 120.6682 45.8108 14.0406 -7.9258 21.1269 15.6961
# 2 45.8108 104.3793 30.6630 -0.3656 11.5348 19.3121
# 3 14.0406 30.6630 107.8535 -5.3616 17.3303 -2.7030
# 4 -7.9258 -0.3656 -5.3616 37.4077 -2.0084 1.3551
# 5 21.1269 11.5348 17.3303 -2.0084 48.0737 4.7794
# 6 15.6961 19.3121 -2.7030 1.3551 4.7794 44.4858
#
#
#
# Elastic Compliance Matrix: (Units=1/GPa)
#
#
# Indices 1 2 3 4 5 6 
#
# 1 0.010812 -0.004152 0.000426 0.002175 -0.003653 -0.001660
# 2 -0.004152 0.013200 -0.003424 -0.001064 0.000292 -0.004472
# 3 0.000426 -0.003424 0.010871 0.001345 -0.003460 0.002327
# 4 0.002175 -0.001064 0.001345 0.027418 0.000066 -0.001066
# 5 -0.003653 0.000292 -0.003460 0.000066 0.023746 -0.001601
# 6 -0.001660 -0.004472 0.002327 -0.001066 -0.001601 0.025352
#
#
# Mechanical properties :
#
#
# Convention : Reuss Voigt Hill
#
# Bulk Modulus (GPa) = 48.58229 57.10331 52.84280
# Shear Modulus (GPa) = 37.71851 42.15255 39.93553
#
# Velocity S-wave (km/s) = 4.01450 4.24391 4.13080
# Velocity P-wave (km/s) = 6.49972 6.95796 6.73274
#
# Compressibility (1/GPa) = 0.02058363
#
# Stress axis : x y z
#
# Youngs Moduli (GPa) = 92.48662 75.75657 91.98805
#
# Poissons Ratio (x) = 0.31455 -0.03923
# Poissons Ratio (y) = 0.38402 0.31499
# Poissons Ratio (z) = -0.03944 0.25941
#
# Static dielectric constant tensor:
#      x y z
#    x 6.212010 1.768620 0.259270 
#    y 1.768620 6.974280 -0.002360 
#    z 0.259270 -0.002360 4.139320 
# 
# 
# High freq. dielectric constant tensor:
#      x y z
#    x 1.937160 0.015180 0.012120 
#    y 0.015180 1.936000 -0.001060 
#    z 0.012120 -0.001060 1.929770 
# 
# From -- ./inp_files/39486.got.cif
#   From: 2010.06.25/outbox.cif.g09.slc.cpg/sg2_20_cif.got.tgz:39486.got - 2010.06.27 13:26:56.
