data_PCOD8035546
_publ_section_title
;
Structure prediction by ZEFSAII (Michael W. Deem and Ramdas Pophale) SiO2 
 PCOD8035546
Probable space group: P -1
;
_chemical_formula_sum "Si O2"
_cell_formula_units_Z 16
_cell_length_a 21.296046
_cell_length_b 9.676923
_cell_length_c 18.145736
_cell_angle_alpha 141.065992
_cell_angle_beta 160.964015
_cell_angle_gamma 38.968922
_cell_volume 750.088138
_symmetry_space_group_name_H-M "P -1"
_symmetry_group_IT_number 2
_symmetry_cell_setting 'triclinic'
loop_
_space_group_symop_operation_xyz
x,y,z
-x,-y,-z
loop_
_atom_site_type_symbol
_atom_site_label
_atom_site_fract_x
_atom_site_fract_y
_atom_site_fract_z
Si Si1 0.602627 0.287164 0.379422
Si Si2 0.198443 0.060783 0.217214
Si Si3 0.028661 0.959191 0.395811
Si Si4 0.636861 0.965109 0.886634
Si Si5 0.011512 0.644278 0.376946
Si Si6 0.806700 0.650754 0.813367
Si Si7 0.609277 0.694420 0.339842
Si Si8 0.665783 0.401848 0.893508
O O1 0.448924 0.186707 0.214400
O O2 0.655893 0.488198 0.568449
O O3 0.487572 0.386391 0.220277
O O4 0.796439 0.104530 0.495861
O O5 0.148247 0.237329 0.167327
O O6 0.303286 0.164632 0.442465
O O7 0.339267 0.827117 0.251811
O O8 0.000000 0.000000 0.000000
O O9 0.076111 0.155868 0.581490
O O10 0.016496 0.738869 0.338934
O O11 0.822037 0.046145 0.161686
O O12 0.708513 0.842386 0.839464
O O13 0.456287 0.168639 0.750745
O O14 0.230367 0.525781 0.595236
O O15 0.882668 0.453464 0.156953
O O16 0.000000 0.500000 0.000000
O O17 0.410375 0.625929 0.120213
#
# Coordination Sequence:
#
# PCOD8035546 Si02
#       8
#     2   2   2   2   2   2   2   2
#     4  12  25  43  72 100 137 178 224 271 339 403
#     4  12  25  41  70 102 140 177 219 274 339 407
#     4  11  25  47  68 102 135 172 235 283 323 398
#     4  12  27  44  69 101 142 176 220 278 342 396
#     4  11  25  45  73  98 132 180 229 282 330 391
#     4  12  25  42  68 101 142 177 217 277 338 402
#     4  12  25  46  69 102 139 176 221 278 336 403
#     4  12  23  43  71  99 131 181 223 270 335 403
#
# _framework density 21.330825000000001
#
# number of rings (size 3 to 8) (size 9 to 14) (size 15 to 20)
#    0.000    0.250    7.500    1.500    3.500    3.000 
#    0.000    1.250    0.000    0.000    0.000    0.000 
#    0.000    0.000    0.000    0.000    0.000    0.000 
#
# Total GULP energy -198468.325667 kJ/mol
# GULP energy per Si atom -12404.270354 kJ/mol
# Density = 2.128227 g / cm^3
# Si number density = 21.330825 Si / 1000 Ang^3
#
#
#
# Elastic Constant Matrix: (Units=GPa)
#
#
# Indices 1 2 3 4 5 6 
#
# 1 46.3609 12.4621 19.0755 -1.5903 -0.2048 4.2556
# 2 12.4621 96.1858 21.4815 -18.1725 -4.8047 7.4786
# 3 19.0755 21.4815 70.3726 -13.8045 2.2856 4.2539
# 4 -1.5903 -18.1725 -13.8045 38.2150 2.2877 -3.1632
# 5 -0.2048 -4.8047 2.2856 2.2877 32.7062 -4.8007
# 6 4.2556 7.4786 4.2539 -3.1632 -4.8007 24.6931
#
#
#
# Elastic Compliance Matrix: (Units=1/GPa)
#
#
# Indices 1 2 3 4 5 6 
#
# 1 0.024955 -0.002037 -0.006462 -0.002506 0.000061 -0.002880
# 2 -0.002037 0.012268 -0.002183 0.004706 0.001300 -0.002133
# 3 -0.006462 -0.002183 0.017770 0.005153 -0.002116 -0.001038
# 4 -0.002506 0.004706 0.005153 0.030398 -0.001560 0.001710
# 5 0.000061 0.001300 -0.002116 -0.001560 0.031899 0.005962
# 6 -0.002880 -0.002133 -0.001038 0.001710 0.005962 0.043196
#
#
# Mechanical properties :
#
#
# Convention : Reuss Voigt Hill
#
# Bulk Modulus (GPa) = 29.73564 35.43971 32.58767
# Shear Modulus (GPa) = 25.89882 29.78288 27.84085
#
# Velocity S-wave (km/s) = 3.48825 3.74068 3.61667
# Velocity P-wave (km/s) = 5.49493 5.94199 5.72283
#
# Compressibility (1/GPa) = 0.03362968
#
# Stress axis : x y z
#
# Youngs Moduli (GPa) = 40.07225 81.51415 56.27337
#
# Poissons Ratio (x) = 0.16601 0.36366
# Poissons Ratio (y) = 0.08161 0.12284
# Poissons Ratio (z) = 0.25896 0.17794
#
# Static dielectric constant tensor:
#      x y z
#    x 3.873930 0.107470 0.194210 
#    y 0.107470 4.722990 0.277530 
#    z 0.194210 0.277530 4.162370 
# 
# 
# High freq. dielectric constant tensor:
#      x y z
#    x 1.834460 0.001840 0.011260 
#    y 0.001840 1.844310 -0.008240 
#    z 0.011260 -0.008240 1.841040 
# 
# From -- ./inp_files/207515.got.cif
#   From: 2010.06.25/outbox.cif.g09.slc.cpg/sg2_104_cif.got.tgz:207515.got - 2010.06.27 13:26:56.
