data_PCOD8035686
_publ_section_title
;
Structure prediction by ZEFSAII (Michael W. Deem and Ramdas Pophale) SiO2 
 PCOD8035686
Probable space group: P -1
;
_chemical_formula_sum "Si O2"
_cell_formula_units_Z 16
_cell_length_a 8.421547
_cell_length_b 12.989861
_cell_length_c 9.291530
_cell_angle_alpha 58.283577
_cell_angle_beta 121.767895
_cell_angle_gamma 96.575759
_cell_volume 716.373408
_symmetry_space_group_name_H-M "P -1"
_symmetry_group_IT_number 2
_symmetry_cell_setting 'triclinic'
loop_
_space_group_symop_operation_xyz
x,y,z
-x,-y,-z
loop_
_atom_site_type_symbol
_atom_site_label
_atom_site_fract_x
_atom_site_fract_y
_atom_site_fract_z
Si Si1 0.162400 0.378202 0.680243
Si Si2 0.479893 0.518701 0.148251
Si Si3 0.472841 0.252889 0.418528
Si Si4 0.219666 0.954840 0.176412
Si Si5 0.845922 0.256928 0.119831
Si Si6 0.816801 0.785041 0.919315
Si Si7 0.834990 0.791960 0.466100
Si Si8 0.687679 0.047596 0.086278
O O1 0.365098 0.410494 0.773960
O O2 0.171182 0.300984 0.596748
O O3 0.000000 0.500000 0.500000
O O4 0.112038 0.299838 0.847456
O O5 0.505839 0.391377 0.344712
O O6 0.500000 0.500000 0.000000
O O7 0.274269 0.601803 0.037639
O O8 0.684603 0.158328 0.586761
O O9 0.358786 0.255554 0.212797
O O10 0.344202 0.210878 0.513053
O O11 0.280659 0.075621 0.178671
O O12 0.289060 0.899323 0.097282
O O13 0.000000 0.000000 0.000000
O O14 0.699992 0.162082 0.114646
O O15 0.996566 0.225645 0.083742
O O16 0.962100 0.244320 0.332318
O O17 0.837499 0.928073 0.305486
O O18 0.500000 0.000000 0.000000
#
# Coordination Sequence:
#
# PCOD8035686 Si02
#       8
#     2   2   2   2   2   2   2   2
#     4  12  27  45  74 106 144 192 242 295 359 429
#     4  12  27  49  73 106 142 187 241 300 360 434
#     4  11  27  46  73 105 144 193 241 294 366 424
#     4  12  25  44  74 107 145 185 242 300 357 425
#     4  11  27  46  75 105 146 190 240 295 363 428
#     4  11  25  49  72 106 146 192 237 297 359 429
#     4  11  25  46  72 107 144 193 240 299 355 433
#     4  12  23  45  71 106 147 185 240 293 360 422
#
# _framework density 22.334723
#
# number of rings (size 3 to 8) (size 9 to 14) (size 15 to 20)
#    0.000    0.500    5.000    2.250    3.500    2.500 
#    4.500    0.000    0.000    0.000    0.000    0.000 
#    0.000    0.000    0.000    0.000    0.000    0.000 
#
# Total GULP energy -198229.371287 kJ/mol
# GULP energy per Si atom -12389.335705 kJ/mol
# Density = 2.228389 g / cm^3
# Si number density = 22.334723 Si / 1000 Ang^3
#
#
#
# Elastic Constant Matrix: (Units=GPa)
#
#
# Indices 1 2 3 4 5 6 
#
# 1 47.3189 29.7002 43.3210 5.4359 19.5380 5.0275
# 2 29.7002 153.6182 72.2146 -1.7501 4.6905 1.5003
# 3 43.3210 72.2146 136.6135 -10.0966 27.2081 -13.8875
# 4 5.4359 -1.7501 -10.0966 56.9278 -6.1099 7.2583
# 5 19.5380 4.6905 27.2081 -6.1099 35.5804 3.5404
# 6 5.0275 1.5003 -13.8875 7.2583 3.5404 33.8352
#
#
#
# Elastic Compliance Matrix: (Units=1/GPa)
#
#
# Indices 1 2 3 4 5 6 
#
# 1 0.038329 -0.002769 -0.008962 -0.006036 -0.014222 -0.006468
# 2 -0.002769 0.009414 -0.005273 0.000471 0.004668 -0.002760
# 3 -0.008962 -0.005273 0.015199 0.001651 -0.006532 0.008133
# 4 -0.006036 0.000471 0.001651 0.019466 0.005652 -0.003214
# 5 -0.014222 0.004668 -0.006532 0.005652 0.041899 -0.006372
# 6 -0.006468 -0.002760 0.008133 -0.003214 -0.006372 0.035333
#
#
# Mechanical properties :
#
#
# Convention : Reuss Voigt Hill
#
# Bulk Modulus (GPa) = 34.56219 69.78024 52.17121
# Shear Modulus (GPa) = 24.59511 38.08967 31.34239
#
# Velocity S-wave (km/s) = 3.32204 4.13413 3.75013
# Velocity P-wave (km/s) = 5.49753 7.35519 6.49314
#
# Compressibility (1/GPa) = 0.02893335
#
# Stress axis : x y z
#
# Youngs Moduli (GPa) = 26.09017 106.22692 65.79356
#
# Poissons Ratio (x) = 0.29413 0.58962
# Poissons Ratio (y) = 0.07224 0.34696
# Poissons Ratio (z) = 0.23381 0.56019
#
# Static dielectric constant tensor:
#      x y z
#    x 3.811960 -0.063600 0.306380 
#    y -0.063600 4.935800 -0.591820 
#    z 0.306380 -0.591820 5.156950 
# 
# 
# High freq. dielectric constant tensor:
#      x y z
#    x 1.871040 0.002980 0.010340 
#    y 0.002980 1.897670 0.006170 
#    z 0.010340 0.006170 1.901160 
# 
# From -- ./inp_files/185357.got.cif
#   From: 2010.06.25/outbox.cif.g09.slc.cpg/sg2_93_cif.got.tgz:185357.got - 2010.06.27 13:26:56.
