data_PCOD8035315
_publ_section_title
;
Structure prediction by ZEFSAII (Michael W. Deem and Ramdas Pophale) SiO2 
 PCOD8035315
Probable space group: P -1
;
_chemical_formula_sum "Si O2"
_cell_formula_units_Z 16
_cell_length_a 14.760873
_cell_length_b 8.293810
_cell_length_c 9.158046
_cell_angle_alpha 99.506826
_cell_angle_beta 39.413916
_cell_angle_gamma 90.360749
_cell_volume 688.771137
_symmetry_space_group_name_H-M "P -1"
_symmetry_group_IT_number 2
_symmetry_cell_setting 'triclinic'
loop_
_space_group_symop_operation_xyz
x,y,z
-x,-y,-z
loop_
_atom_site_type_symbol
_atom_site_label
_atom_site_fract_x
_atom_site_fract_y
_atom_site_fract_z
Si Si1 0.018785 0.671487 0.071970
Si Si2 0.348294 0.161014 0.070282
Si Si3 0.183191 0.746393 0.624172
Si Si4 0.481160 0.715983 0.347866
Si Si5 0.732754 0.917478 0.533040
Si Si6 0.154822 0.512457 0.365317
Si Si7 0.706278 0.398802 0.069771
Si Si8 0.542486 0.112584 0.312045
O O1 0.869799 0.764418 0.345845
O O2 0.058711 0.787878 0.908524
O O3 0.147949 0.635901 0.022852
O O4 0.000000 0.500000 0.000000
O O5 0.357348 0.065988 0.199253
O O6 0.221218 0.318199 0.267069
O O7 0.491623 0.229057 0.846227
O O8 0.333217 0.034434 0.934939
O O9 0.329299 0.653982 0.514918
O O10 0.140624 0.609598 0.549244
O O11 0.204199 0.915580 0.546376
O O12 0.611633 0.584753 0.237190
O O13 0.462698 0.881063 0.501188
O O14 0.618518 0.885954 0.549243
O O15 0.000000 0.500000 0.500000
O O16 0.244187 0.613012 0.162533
O O17 0.594470 0.280855 0.225864
#
# Coordination Sequence:
#
# PCOD8035315 Si02
#       8
#     2   2   2   2   2   2   2   2
#     4  12  26  48  72 103 143 190 235 291 352 422
#     4  11  25  44  72 101 141 185 230 292 350 417
#     4  12  26  47  72 105 144 183 240 287 358 420
#     4  11  25  43  71 107 140 185 231 297 347 415
#     4  12  27  45  72 107 145 187 234 292 354 421
#     4  11  26  47  70 103 142 190 238 292 355 422
#     4  11  25  43  73 104 140 188 237 290 355 417
#     4  12  24  44  70 108 144 180 242 288 357 417
#
# _framework density 23.229776000000001
#
# number of rings (size 3 to 8) (size 9 to 14) (size 15 to 20)
#    0.000    0.500    2.500    5.250    5.250    3.000 
#    0.000    2.500    0.000    0.000    0.000    0.000 
#    0.000    0.000    0.000    0.000    0.000    0.000 
#
# Total GULP energy -198278.987688 kJ/mol
# GULP energy per Si atom -12392.436730 kJ/mol
# Density = 2.317690 g / cm^3
# Si number density = 23.229776 Si / 1000 Ang^3
#
#
#
# Elastic Constant Matrix: (Units=GPa)
#
#
# Indices 1 2 3 4 5 6 
#
# 1 121.5647 37.1227 46.5037 5.8656 4.8914 12.5642
# 2 37.1227 101.5540 33.4006 7.1131 -2.1759 3.5522
# 3 46.5037 33.4006 135.1218 -6.3225 17.3819 -4.0465
# 4 5.8656 7.1131 -6.3225 37.2488 -1.8822 7.4672
# 5 4.8914 -2.1759 17.3819 -1.8822 38.6871 -6.5464
# 6 12.5642 3.5522 -4.0465 7.4672 -6.5464 34.4823
#
#
#
# Elastic Compliance Matrix: (Units=1/GPa)
#
#
# Indices 1 2 3 4 5 6 
#
# 1 0.010718 -0.002723 -0.003070 -0.000941 -0.000842 -0.003941
# 2 -0.002723 0.011792 -0.002328 -0.002189 0.002008 0.000359
# 3 -0.003070 -0.002328 0.009654 0.002112 -0.003754 0.001321
# 4 -0.000941 -0.002189 0.002112 0.028854 -0.000484 -0.005524
# 5 -0.000842 0.002008 -0.003754 -0.000484 0.028610 0.005196
# 6 -0.003941 0.000359 0.001321 -0.005524 0.005196 0.032737
#
#
# Mechanical properties :
#
#
# Convention : Reuss Voigt Hill
#
# Bulk Modulus (GPa) = 62.79865 65.81049 64.30457
# Shear Modulus (GPa) = 34.74330 38.16456 36.45393
#
# Velocity S-wave (km/s) = 3.87154 4.05769 3.96571
# Velocity P-wave (km/s) = 6.86130 7.09541 6.97934
#
# Compressibility (1/GPa) = 0.01592391
#
# Stress axis : x y z
#
# Youngs Moduli (GPa) = 93.29742 84.80659 103.58619
#
# Poissons Ratio (x) = 0.23091 0.31797
# Poissons Ratio (y) = 0.25402 0.24110
# Poissons Ratio (z) = 0.28639 0.19739
#
# Static dielectric constant tensor:
#      x y z
#    x 3.840960 0.345610 0.398800 
#    y 0.345610 0.080710 0.212810 
#    z 0.398800 0.212810 4.472160 
# 
# 
# High freq. dielectric constant tensor:
#      x y z
#    x 1.905030 -0.009160 0.008760 
#    y -0.009160 1.935650 -0.012860 
#    z 0.008760 -0.012860 1.946310 
# 
# From -- ./inp_files/299055.got.cif
#   From: 2010.06.25/outbox.cif.g09.slc.cpg/sg2_150_cif.got.tgz:299055.got - 2010.06.27 13:26:56.
