data_PCOD8035536
_publ_section_title
;
Structure prediction by ZEFSAII (Michael W. Deem and Ramdas Pophale) SiO2 
 PCOD8035536
Probable space group: P -1
;
_chemical_formula_sum "Si O2"
_cell_formula_units_Z 14
_cell_length_a 9.746549
_cell_length_b 15.140775
_cell_length_c 5.025639
_cell_angle_alpha 71.186845
_cell_angle_beta 107.505796
_cell_angle_gamma 117.306320
_cell_volume 613.397096
_symmetry_space_group_name_H-M "P -1"
_symmetry_group_IT_number 2
_symmetry_cell_setting 'triclinic'
loop_
_space_group_symop_operation_xyz
x,y,z
-x,-y,-z
loop_
_atom_site_type_symbol
_atom_site_label
_atom_site_fract_x
_atom_site_fract_y
_atom_site_fract_z
Si Si1 0.533359 0.946242 0.317730
Si Si2 0.727544 0.786319 0.053639
Si Si3 0.575125 0.468347 0.328065
Si Si4 0.068035 0.621124 0.942851
Si Si5 0.892751 0.635939 0.329238
Si Si6 0.829004 0.917464 0.476619
Si Si7 0.421161 0.724914 0.251017
O O1 0.717910 0.976087 0.410137
O O2 0.437922 0.823827 0.340592
O O3 0.500000 0.000000 0.500000
O O4 0.500000 0.000000 0.000000
O O5 0.784953 0.698136 0.238066
O O6 0.817562 0.879535 0.207395
O O7 0.542731 0.751310 0.047810
O O8 0.777561 0.823490 0.745320
O O9 0.500000 0.500000 0.500000
O O10 0.765323 0.519669 0.388993
O O11 0.538233 0.348361 0.446287
O O12 0.500000 0.500000 0.000000
O O13 0.029512 0.663167 0.602873
O O14 0.252585 0.670500 0.065088
O O15 0.000000 0.500000 0.000000
O O16 0.977401 0.656413 0.077122
O O17 0.000000 0.000000 0.500000
#
# Coordination Sequence:
#
# PCOD8035536 Si02
#       7
#     2   2   2   2   2   2   2
#     4  11  26  47  72 106 142 192 249 300 371 444
#     4  11  25  45  73 107 135 190 244 294 371 441
#     4  12  26  42  75 110 147 194 249 303 366 437
#     4  12  27  46  66 106 155 199 244 302 369 436
#     4  12  26  45  69 106 148 192 249 296 360 449
#     4  11  25  47  74 102 141 177 239 317 370 426
#     4  11  27  48  76 108 153 201 247 308 369 442
#
# _framework density 22.823713999999999
#
# number of rings (size 3 to 8) (size 9 to 14) (size 15 to 20)
#    0.000    0.571    2.857    4.286    4.000    8.000 
#    0.000    0.000    0.000    0.000    0.000    0.000 
#    0.000    0.000    0.000    0.000    0.000    0.000 
#
# Total GULP energy -173550.158876 kJ/mol
# GULP energy per Si atom -12396.439920 kJ/mol
# Density = 2.277177 g / cm^3
# Si number density = 22.823714 Si / 1000 Ang^3
#
#
#
# Elastic Constant Matrix: (Units=GPa)
#
#
# Indices 1 2 3 4 5 6 
#
# 1 128.6905 77.5354 38.0036 16.7036 12.0774 15.8791
# 2 77.5354 140.0564 48.5290 -2.7216 18.6602 -2.3167
# 3 38.0036 48.5290 144.2581 -2.3371 10.2168 -4.4085
# 4 16.7036 -2.7216 -2.3371 39.7118 1.3868 1.4855
# 5 12.0774 18.6602 10.2168 1.3868 35.4553 8.6094
# 6 15.8791 -2.3167 -4.4085 1.4855 8.6094 55.8197
#
#
#
# Elastic Compliance Matrix: (Units=1/GPa)
#
#
# Indices 1 2 3 4 5 6 
#
# 1 0.014068 -0.007609 -0.001452 -0.006393 0.000952 -0.004409
# 2 -0.007609 0.012701 -0.001789 0.004005 -0.004496 0.003137
# 3 -0.001452 -0.001789 0.008051 0.000961 -0.001197 0.001134
# 4 -0.006393 0.004005 0.000961 0.028202 -0.001692 0.001571
# 5 0.000952 -0.004496 -0.001197 -0.001692 0.031978 -0.005439
# 6 -0.004409 0.003137 0.001134 0.001571 -0.005439 0.020186
#
#
# Mechanical properties :
#
#
# Convention : Reuss Voigt Hill
#
# Bulk Modulus (GPa) = 76.21781 82.34899 79.28340
# Shear Modulus (GPa) = 35.39574 42.79316 39.09445
#
# Velocity S-wave (km/s) = 3.94233 4.33476 4.14319
# Velocity P-wave (km/s) = 7.36134 7.82383 7.59610
#
# Compressibility (1/GPa) = 0.01312029
#
# Stress axis : x y z
#
# Youngs Moduli (GPa) = 71.08198 78.73481 124.20239
#
# Poissons Ratio (x) = 0.59909 0.18036
# Poissons Ratio (y) = 0.54086 0.22219
# Poissons Ratio (z) = 0.10322 0.14085
#
# Static dielectric constant tensor:
#      x y z
#    x 4.256890 -0.073240 0.108700 
#    y -0.073240 4.222980 0.010880 
#    z 0.108700 0.010880 4.301770 
# 
# 
# High freq. dielectric constant tensor:
#      x y z
#    x 1.914270 -0.005240 0.004130 
#    y -0.005240 1.904930 0.006150 
#    z 0.004130 0.006150 1.916050 
# 
# From -- ./inp_files/34820.got.cif
#   From: 2010.06.25/outbox.cif.g09.slc.cpg/sg2_18_cif.got.tgz:34820.got - 2010.06.27 13:26:56.
