data_PCOD8035210
_publ_section_title
;
Structure prediction by ZEFSAII (Michael W. Deem and Ramdas Pophale) SiO2 
 PCOD8035210
Probable space group: P -1
;
_chemical_formula_sum "Si O2"
_cell_formula_units_Z 14
_cell_length_a 6.660085
_cell_length_b 17.362064
_cell_length_c 8.816008
_cell_angle_alpha 130.935515
_cell_angle_beta 56.779510
_cell_angle_gamma 121.516396
_cell_volume 622.247023
_symmetry_space_group_name_H-M "P -1"
_symmetry_group_IT_number 2
_symmetry_cell_setting 'triclinic'
loop_
_space_group_symop_operation_xyz
x,y,z
-x,-y,-z
loop_
_atom_site_type_symbol
_atom_site_label
_atom_site_fract_x
_atom_site_fract_y
_atom_site_fract_z
Si Si1 0.760234 0.103921 0.715333
Si Si2 0.454208 0.566817 0.465395
Si Si3 0.325300 0.132934 0.473533
Si Si4 0.071577 0.394909 0.878669
Si Si5 0.695203 0.229594 0.193602
Si Si6 0.429115 0.748302 0.196840
Si Si7 0.179045 0.374172 0.163539
O O1 0.546073 0.139926 0.755334
O O2 0.041332 0.138508 0.573746
O O3 0.668783 0.978685 0.603229
O O4 0.771037 0.157487 0.942701
O O5 0.500000 0.500000 0.500000
O O6 0.674318 0.608314 0.309775
O O7 0.398090 0.670263 0.696850
O O8 0.229451 0.491289 0.364502
O O9 0.485891 0.151510 0.278428
O O10 0.473582 0.227211 0.641760
O O11 0.862957 0.301752 0.768629
O O12 0.097580 0.380583 0.029814
O O13 0.000000 0.500000 0.000000
O O14 0.960545 0.290303 0.238237
O O15 0.576688 0.668097 0.965684
#
# Coordination Sequence:
#
# PCOD8035210 Si02
#       7
#     2   2   2   2   2   2   2
#     4  11  24  50  70 100 137 178 234 292 349 409
#     4  12  26  42  67 106 141 184 231 278 341 419
#     4  11  26  45  75 100 132 183 233 291 351 407
#     4  12  25  43  71  99 141 190 231 276 342 414
#     4  12  24  45  69 100 141 178 227 283 347 405
#     4  12  22  45  71 100 138 180 230 283 353 407
#     4  12  25  45  67 101 145 183 222 286 342 414
#
# _framework density 22.499101
#
# number of rings (size 3 to 8) (size 9 to 14) (size 15 to 20)
#    0.000    0.286    4.286    5.143    4.000    0.000 
#    2.571    0.714    0.000    0.000    0.000    0.000 
#    0.000    0.000    0.000    0.000    0.000    0.000 
#
# Total GULP energy -173482.988060 kJ/mol
# GULP energy per Si atom -12391.642004 kJ/mol
# Density = 2.244789 g / cm^3
# Si number density = 22.499101 Si / 1000 Ang^3
#
#
#
# Elastic Constant Matrix: (Units=GPa)
#
#
# Indices 1 2 3 4 5 6 
#
# 1 85.6088 39.3869 12.3005 1.8328 -8.5463 -0.9109
# 2 39.3869 102.8318 30.0491 -15.7985 -4.3720 15.6032
# 3 12.3005 30.0491 60.3690 -2.4136 -10.5463 12.1496
# 4 1.8328 -15.7985 -2.4136 42.8918 2.4959 -7.0862
# 5 -8.5463 -4.3720 -10.5463 2.4959 35.6684 5.7544
# 6 -0.9109 15.6032 12.1496 -7.0862 5.7544 40.7506
#
#
#
# Elastic Compliance Matrix: (Units=1/GPa)
#
#
# Indices 1 2 3 4 5 6 
#
# 1 0.014942 -0.006355 0.000109 -0.002825 0.002731 0.001858
# 2 -0.006355 0.014978 -0.005518 0.005017 -0.001154 -0.003196
# 3 0.000109 -0.005518 0.021519 -0.002151 0.006771 -0.005631
# 4 -0.002825 0.005017 -0.002151 0.025938 -0.003094 0.003604
# 5 0.002731 -0.001154 0.006771 -0.003094 0.031824 -0.006548
# 6 0.001858 -0.003196 -0.005631 0.003604 -0.006548 0.029035
#
#
# Mechanical properties :
#
#
# Convention : Reuss Voigt Hill
#
# Bulk Modulus (GPa) = 35.82765 45.80918 40.81841
# Shear Modulus (GPa) = 29.22815 35.00038 32.11426
#
# Velocity S-wave (km/s) = 3.60819 3.94843 3.78214
# Velocity P-wave (km/s) = 5.77211 6.41806 6.10364
#
# Compressibility (1/GPa) = 0.02791140
#
# Stress axis : x y z
#
# Youngs Moduli (GPa) = 66.92547 66.76523 46.46950
#
# Poissons Ratio (x) = 0.42427 -0.00506
# Poissons Ratio (y) = 0.42529 0.25643
# Poissons Ratio (z) = -0.00729 0.36842
#
# Static dielectric constant tensor:
#      x y z
#    x 4.201900 0.041470 -0.284690 
#    y 0.041470 4.333440 0.187900 
#    z -0.284690 0.187900 4.213020 
# 
# 
# High freq. dielectric constant tensor:
#      x y z
#    x 1.887750 0.005990 -0.017670 
#    y 0.005990 1.897850 0.016090 
#    z -0.017670 0.016090 1.893990 
# 
# From -- ./inp_files/38329.got.cif
#   From: 2010.06.25/outbox.cif.g09.slc.cpg/sg2_20_cif.got.tgz:38329.got - 2010.06.27 13:26:56.
