data_PCOD8035585
_publ_section_title
;
Structure prediction by ZEFSAII (Michael W. Deem and Ramdas Pophale) SiO2 
 PCOD8035585
Probable space group: P -1
;
_chemical_formula_sum "Si O2"
_cell_formula_units_Z 16
_cell_length_a 15.266272
_cell_length_b 10.653759
_cell_length_c 20.860483
_cell_angle_alpha 147.604193
_cell_angle_beta 152.869580
_cell_angle_gamma 47.402905
_cell_volume 789.314453
_symmetry_space_group_name_H-M "P -1"
_symmetry_group_IT_number 2
_symmetry_cell_setting 'triclinic'
loop_
_space_group_symop_operation_xyz
x,y,z
-x,-y,-z
loop_
_atom_site_type_symbol
_atom_site_label
_atom_site_fract_x
_atom_site_fract_y
_atom_site_fract_z
Si Si1 0.222475 0.668546 0.079353
Si Si2 0.305318 0.197670 0.370690
Si Si3 0.644909 0.000948 0.000949
Si Si4 0.510440 0.717345 0.664741
Si Si5 0.285046 0.793274 0.316033
Si Si6 0.520837 0.377215 0.163025
Si Si7 0.212577 0.556175 0.301331
Si Si8 0.887418 0.783859 0.623333
O O1 0.181390 0.673796 0.131291
O O2 0.403287 0.556099 0.133484
O O3 0.255459 0.941033 0.187245
O O4 0.011573 0.495675 0.838424
O O5 0.382938 0.440518 0.484702
O O6 0.473175 0.155887 0.512555
O O7 0.122276 0.214797 0.304492
O O8 0.522657 0.177075 0.024117
O O9 0.881040 0.150662 0.218570
O O10 0.556154 0.919563 0.837263
O O11 0.602278 0.758204 0.912884
O O12 0.366179 0.771355 0.538061
O O13 0.716726 0.692444 0.757651
O O14 0.218960 0.612386 0.254725
O O15 0.213138 0.023430 0.389074
O O16 0.752165 0.518797 0.394124
#
# Coordination Sequence:
#
# PCOD8035585 Si02
#       8
#     2   2   2   2   2   2   2   2
#     4  11  18  33  54  86 109 140 183 227 287 317
#     4  10  18  31  58  78 117 141 168 240 277 318
#     4  11  23  35  58  81 115 152 178 225 277 328
#     4  10  20  39  50  81 118 145 187 223 268 335
#     4  10  17  31  55  83 113 136 170 243 275 319
#     4  11  21  37  56  86 115 140 186 231 270 331
#     4  10  21  32  58  81 108 152 182 225 280 328
#     4  11  18  35  59  86 111 142 181 229 285 321
#
# _framework density 20.270754
#
# number of rings (size 3 to 8) (size 9 to 14) (size 15 to 20)
#    0.000    1.500    3.750    4.500    0.000    0.500 
#    0.000    1.875    0.000    0.750    0.000    0.000 
#    0.000    0.000    0.000    0.000    0.000    0.000 
#
# Total GULP energy -198248.484976 kJ/mol
# GULP energy per Si atom -12390.530311 kJ/mol
# Density = 2.022462 g / cm^3
# Si number density = 20.270754 Si / 1000 Ang^3
#
#
#
# Elastic Constant Matrix: (Units=GPa)
#
#
# Indices 1 2 3 4 5 6 
#
# 1 51.3669 13.6045 31.7115 -3.9175 2.9531 -16.4022
# 2 13.6045 45.9381 21.0708 4.8133 2.1394 -8.1418
# 3 31.7115 21.0708 106.2810 -3.6240 6.4629 -13.9508
# 4 -3.9175 4.8133 -3.6240 22.0697 -8.4105 0.3372
# 5 2.9531 2.1394 6.4629 -8.4105 35.1393 2.3005
# 6 -16.4022 -8.1418 -13.9508 0.3372 2.3005 20.1766
#
#
#
# Elastic Compliance Matrix: (Units=1/GPa)
#
#
# Indices 1 2 3 4 5 6 
#
# 1 0.030532 -0.003356 -0.005616 0.004325 -0.001583 0.019691
# 2 -0.003356 0.026450 -0.003554 -0.008192 -0.003026 0.005970
# 3 -0.005616 -0.003554 0.012263 0.001198 -0.001452 0.002625
# 4 0.004325 -0.008192 0.001198 0.052907 0.012663 -0.001289
# 5 -0.001583 -0.003026 -0.001452 0.012663 0.032560 -0.007436
# 6 0.019691 0.005970 0.002625 -0.001289 -0.007436 0.070663
#
#
# Mechanical properties :
#
#
# Convention : Reuss Voigt Hill
#
# Bulk Modulus (GPa) = 22.62803 37.37328 30.00065
# Shear Modulus (GPa) = 18.85660 24.62375 21.74017
#
# Velocity S-wave (km/s) = 3.05329 3.48910 3.27844
# Velocity P-wave (km/s) = 4.85975 5.89142 5.40028
#
# Compressibility (1/GPa) = 0.04419299
#
# Stress axis : x y z
#
# Youngs Moduli (GPa) = 32.75216 37.80746 81.54514
#
# Poissons Ratio (x) = 0.12686 0.45798
# Poissons Ratio (y) = 0.10990 0.28984
# Poissons Ratio (z) = 0.18395 0.13438
#
# Static dielectric constant tensor:
#      x y z
#    x 3.515200 0.024650 0.145980 
#    y 0.024650 3.553670 -0.070780 
#    z 0.145980 -0.070780 3.777540 
# 
# 
# High freq. dielectric constant tensor:
#      x y z
#    x 1.776150 0.002110 0.016320 
#    y 0.002110 1.766320 -0.003930 
#    z 0.016320 -0.003930 1.793800 
# 
# From -- ./inp_files/382973.got.cif
#   From: 2010.06.25/outbox.cif.g09.slc.cpg/sg2_192_cif.got.tgz:382973.got - 2010.06.27 13:26:56.
