data_PCOD8035111
_publ_section_title
;
Structure prediction by ZEFSAII (Michael W. Deem and Ramdas Pophale) SiO2 
 PCOD8035111
Probable space group: P -1
;
_chemical_formula_sum "Si O2"
_cell_formula_units_Z 14
_cell_length_a 11.652393
_cell_length_b 9.204262
_cell_length_c 17.049910
_cell_angle_alpha 29.502328
_cell_angle_beta 42.518559
_cell_angle_gamma 52.532961
_cell_volume 605.568906
_symmetry_space_group_name_H-M "P -1"
_symmetry_group_IT_number 2
_symmetry_cell_setting 'triclinic'
loop_
_space_group_symop_operation_xyz
x,y,z
-x,-y,-z
loop_
_atom_site_type_symbol
_atom_site_label
_atom_site_fract_x
_atom_site_fract_y
_atom_site_fract_z
Si Si1 0.634085 0.917473 0.291576
Si Si2 0.443549 0.594608 0.680669
Si Si3 0.647028 0.988199 0.080012
Si Si4 0.568526 0.596892 0.783891
Si Si5 0.058372 0.136741 0.489458
Si Si6 0.975668 0.776675 0.246301
Si Si7 0.911884 0.190848 0.221332
O O1 0.536019 0.694370 0.506818
O O2 0.835137 0.893576 0.205559
O O3 0.576827 0.846169 0.264415
O O4 0.595165 0.253210 0.172539
O O5 0.575458 0.617154 0.675975
O O6 0.292354 0.798344 0.679409
O O7 0.367802 0.255202 0.866586
O O8 0.538159 0.255309 0.985189
O O9 0.842874 0.112954 0.933646
O O10 0.739350 0.763715 0.656614
O O11 0.955053 0.418183 0.429449
O O12 0.017505 0.874931 0.696807
O O13 0.000000 0.000000 0.500000
O O14 0.953725 0.911790 0.279780
O O15 0.000000 0.500000 0.000000
#
# Coordination Sequence:
#
# PCOD8035111 Si02
#       7
#     2   2   2   2   2   2   2
#     4  12  24  44  73 102 146 188 235 296 353 415
#     4  12  24  46  74 106 142 188 237 290 360 426
#     4  11  26  44  70 109 145 184 237 291 359 423
#     4  11  24  48  72 102 144 187 237 293 355 425
#     4  11  27  48  73 105 146 187 242 297 357 421
#     4  11  25  46  73 107 145 192 239 288 354 432
#     4  12  24  46  76 106 145 192 239 287 356 437
#
# _framework density 23.118756999999999
#
# number of rings (size 3 to 8) (size 9 to 14) (size 15 to 20)
#    0.000    0.571    4.286    3.429    2.000    4.571 
#    5.143    0.000    0.000    0.000    0.000    0.000 
#    0.000    0.000    0.000    0.000    0.000    0.000 
#
# Total GULP energy -173639.395597 kJ/mol
# GULP energy per Si atom -12402.813971 kJ/mol
# Density = 2.306614 g / cm^3
# Si number density = 23.118757 Si / 1000 Ang^3
#
#
#
# Elastic Constant Matrix: (Units=GPa)
#
#
# Indices 1 2 3 4 5 6 
#
# 1 162.9756 69.4318 60.0790 -11.7609 23.0427 13.1964
# 2 69.4318 123.4465 37.8740 -27.4490 4.9430 -3.7211
# 3 60.0790 37.8740 82.6798 -13.0426 9.8310 7.1630
# 4 -11.7609 -27.4490 -13.0426 39.6270 3.4633 3.0649
# 5 23.0427 4.9430 9.8310 3.4633 30.3971 2.7954
# 6 13.1964 -3.7211 7.1630 3.0649 2.7954 52.2807
#
#
#
# Elastic Compliance Matrix: (Units=1/GPa)
#
#
# Indices 1 2 3 4 5 6 
#
# 1 0.010848 -0.004599 -0.005104 -0.001007 -0.005525 -0.002012
# 2 -0.004599 0.012703 -0.001716 0.006634 0.001049 0.001855
# 3 -0.005104 -0.001716 0.017430 0.003288 -0.001742 -0.001322
# 4 -0.001007 0.006634 0.003288 0.031134 -0.004807 -0.001292
# 5 -0.005525 0.001049 -0.001742 -0.004807 0.038031 -0.000044
# 6 -0.002012 0.001855 -0.001322 -0.001292 -0.000044 0.020026
#
#
# Mechanical properties :
#
#
# Convention : Reuss Voigt Hill
#
# Bulk Modulus (GPa) = 55.11649 78.20794 66.66221
# Shear Modulus (GPa) = 31.43533 37.90878 34.67205
#
# Velocity S-wave (km/s) = 3.69146 4.05376 3.87684
# Velocity P-wave (km/s) = 6.48548 7.47080 6.99551
#
# Compressibility (1/GPa) = 0.01814339
#
# Stress axis : x y z
#
# Youngs Moduli (GPa) = 92.18366 78.72238 57.37313
#
# Poissons Ratio (x) = 0.36204 0.29281
# Poissons Ratio (y) = 0.42395 0.09846
# Poissons Ratio (z) = 0.47047 0.13509
#
# Static dielectric constant tensor:
#      x y z
#    x 4.265470 -0.174490 0.144640 
#    y -0.174490 4.332840 -0.124260 
#    z 0.144640 -0.124260 4.057710 
# 
# 
# High freq. dielectric constant tensor:
#      x y z
#    x 1.918640 -0.002470 0.012780 
#    y -0.002470 1.926810 -0.010370 
#    z 0.012780 -0.010370 1.906950 
# 
# From -- ./inp_files/209574.got.cif
#   From: 2010.06.25/outbox.cif.g09.slc.cpg/sg2_105_cif.got.tgz:209574.got - 2010.06.27 13:26:56.
