data_PCOD8035589
_publ_section_title
;
Structure prediction by ZEFSAII (Michael W. Deem and Ramdas Pophale) SiO2 
 PCOD8035589
Probable space group: P -1
;
_chemical_formula_sum "Si O2"
_cell_formula_units_Z 16
_cell_length_a 12.197246
_cell_length_b 9.222060
_cell_length_c 13.245868
_cell_angle_alpha 105.217817
_cell_angle_beta 60.768117
_cell_angle_gamma 55.104738
_cell_volume 696.747630
_symmetry_space_group_name_H-M "P -1"
_symmetry_group_IT_number 2
_symmetry_cell_setting 'triclinic'
loop_
_space_group_symop_operation_xyz
x,y,z
-x,-y,-z
loop_
_atom_site_type_symbol
_atom_site_label
_atom_site_fract_x
_atom_site_fract_y
_atom_site_fract_z
Si Si1 0.792561 0.782132 0.203129
Si Si2 0.277090 0.372487 0.222418
Si Si3 0.998513 0.099085 0.291441
Si Si4 0.112781 0.118170 0.628331
Si Si5 0.546997 0.745356 0.254982
Si Si6 0.538369 0.674389 0.669784
Si Si7 0.361073 0.961136 0.160640
Si Si8 0.794989 0.205737 0.055792
O O1 0.886684 0.761193 0.259287
O O2 0.624337 0.809171 0.300911
O O3 0.659138 0.042714 0.248782
O O4 0.000000 0.500000 0.000000
O O5 0.350099 0.337729 0.295872
O O6 0.263781 0.205698 0.194375
O O7 0.027303 0.678187 0.365839
O O8 0.438026 0.290180 0.050773
O O9 0.162216 0.035954 0.277177
O O10 0.743511 0.419323 0.457050
O O11 0.991541 0.936276 0.303100
O O12 0.123099 0.979693 0.106525
O O13 0.361679 0.844716 0.423326
O O14 0.744762 0.427488 0.085905
O O15 0.461571 0.893647 0.213460
O O16 0.428305 0.638502 0.763875
O O17 0.000000 0.000000 0.000000
#
# Coordination Sequence:
#
# PCOD8035589 Si02
#       8
#     2   2   2   2   2   2   2   2
#     4  12  27  50  73 105 149 197 245 300 366 435
#     4  11  25  47  73 111 141 193 247 302 363 435
#     4  12  27  46  76 110 148 192 238 307 368 431
#     4  12  28  45  74 110 149 191 246 300 366 440
#     4  12  26  48  72 108 147 193 246 305 363 433
#     4  12  26  48  76 110 148 190 249 300 361 443
#     4  11  25  45  77 106 146 189 247 301 369 431
#     4  12  27  47  74 107 149 195 243 299 368 436
#
# _framework density 22.963837999999999
#
# number of rings (size 3 to 8) (size 9 to 14) (size 15 to 20)
#    0.000    0.250    3.750    4.875    7.000    5.000 
#    0.000    0.000    0.000    0.000    0.000    0.000 
#    0.000    0.000    0.000    0.000    0.000    0.000 
#
# Total GULP energy -198426.710792 kJ/mol
# GULP energy per Si atom -12401.669424 kJ/mol
# Density = 2.291157 g / cm^3
# Si number density = 22.963838 Si / 1000 Ang^3
#
#
#
# Elastic Constant Matrix: (Units=GPa)
#
#
# Indices 1 2 3 4 5 6 
#
# 1 108.3054 38.5363 23.4448 2.7724 -13.3369 10.7550
# 2 38.5363 98.0490 34.9015 19.2544 -7.3572 3.7425
# 3 23.4448 34.9015 113.5442 7.4245 -2.9401 11.5283
# 4 2.7724 19.2544 7.4245 37.3836 4.6918 -4.7267
# 5 -13.3369 -7.3572 -2.9401 4.6918 32.5799 -2.8043
# 6 10.7550 3.7425 11.5283 -4.7267 -2.8043 37.7916
#
#
#
# Elastic Compliance Matrix: (Units=1/GPa)
#
#
# Indices 1 2 3 4 5 6 
#
# 1 0.011469 -0.003984 -0.000867 0.000657 0.003427 -0.002268
# 2 -0.003984 0.014371 -0.003089 -0.006786 0.002311 -0.000024
# 3 -0.000867 -0.003089 0.010246 -0.000686 -0.000260 -0.002678
# 4 0.000657 -0.006786 -0.000686 0.031559 -0.005506 0.004233
# 5 0.003427 0.002311 -0.000260 -0.005506 0.033445 0.000668
# 6 -0.002268 -0.000024 -0.002678 0.004233 0.000668 0.028505
#
#
# Mechanical properties :
#
#
# Convention : Reuss Voigt Hill
#
# Bulk Modulus (GPa) = 49.49190 57.07374 53.28282
# Shear Modulus (GPa) = 32.84927 36.41875 34.63401
#
# Velocity S-wave (km/s) = 3.78627 3.98668 3.88777
# Velocity P-wave (km/s) = 6.38070 6.78964 6.58834
#
# Compressibility (1/GPa) = 0.02020532
#
# Stress axis : x y z
#
# Youngs Moduli (GPa) = 87.19173 69.58318 97.60239
#
# Poissons Ratio (x) = 0.27723 0.08466
# Poissons Ratio (y) = 0.34738 0.30147
# Poissons Ratio (z) = 0.07563 0.21493
#
# Static dielectric constant tensor:
#      x y z
#    x 5.679500 0.582880 0.095420 
#    y 0.582880 4.019940 0.174540 
#    z 0.095420 0.174540 4.252880 
# 
# 
# High freq. dielectric constant tensor:
#      x y z
#    x 1.917430 0.005470 -0.005730 
#    y 0.005470 1.904070 0.004510 
#    z -0.005730 0.004510 1.921390 
# 
# From -- ./inp_files/274478.got.cif
#   From: 2010.06.25/outbox.cif.g09.slc.cpg/sg2_138_cif.got.tgz:274478.got - 2010.06.27 13:26:56.
