data_PCOD8035259
_publ_section_title
;
Structure prediction by ZEFSAII (Michael W. Deem and Ramdas Pophale) SiO2 
 PCOD8035259
Probable space group: P -1
;
_chemical_formula_sum "Si O2"
_cell_formula_units_Z 12
_cell_length_a 6.177304
_cell_length_b 12.045082
_cell_length_c 8.802367
_cell_angle_alpha 60.546845
_cell_angle_beta 69.137291
_cell_angle_gamma 89.492884
_cell_volume 521.667824
_symmetry_space_group_name_H-M "P -1"
_symmetry_group_IT_number 2
_symmetry_cell_setting 'triclinic'
loop_
_space_group_symop_operation_xyz
x,y,z
-x,-y,-z
loop_
_atom_site_type_symbol
_atom_site_label
_atom_site_fract_x
_atom_site_fract_y
_atom_site_fract_z
Si Si1 0.759205 0.442730 0.220776
Si Si2 0.966005 0.387564 0.705196
Si Si3 0.293591 0.268237 0.509341
Si Si4 0.190238 0.335266 0.147190
Si Si5 0.502418 0.809078 0.018137
Si Si6 0.270013 0.039033 0.854048
O O1 0.539863 0.365249 0.423980
O O2 0.922201 0.555684 0.202959
O O3 0.910054 0.335991 0.199822
O O4 0.678572 0.520112 0.043788
O O5 0.689582 0.325590 0.834480
O O6 0.000000 0.500000 0.500000
O O7 0.100179 0.280398 0.677203
O O8 0.233343 0.307669 0.330115
O O9 0.302864 0.115950 0.631841
O O10 0.269500 0.220681 0.108008
O O11 0.579518 0.862912 0.128083
O O12 0.385306 0.913421 0.886002
O O13 0.000000 0.000000 0.000000
#
# Coordination Sequence:
#
# PCOD8035259 Si02
#       6
#     2   2   2   2   2   2
#     4  11  25  42  68 101 146 177 213 273 348 400
#     4  12  22  41  71 101 133 177 223 273 334 402
#     4  12  24  43  70 100 136 177 232 272 329 402
#     4  11  26  42  67 103 140 176 218 278 343 401
#     4  11  26  45  70  98 136 176 227 279 338 394
#     4  11  25  48  72  95 131 182 231 280 330 395
#
# _framework density 23.003145
#
# number of rings (size 3 to 8) (size 9 to 14) (size 15 to 20)
#    0.000    0.667    3.333    4.000    4.667    0.667 
#    0.000    1.667    0.000    0.000    0.000    0.000 
#    0.000    0.000    0.000    0.000    0.000    0.000 
#
# Total GULP energy -148744.703044 kJ/mol
# GULP energy per Si atom -12395.391920 kJ/mol
# Density = 2.295079 g / cm^3
# Si number density = 23.003145 Si / 1000 Ang^3
#
#
#
# Elastic Constant Matrix: (Units=GPa)
#
#
# Indices 1 2 3 4 5 6 
#
# 1 92.0598 43.0347 45.7945 -9.2870 17.5167 -9.3939
# 2 43.0347 94.1597 35.2815 1.4446 9.0386 -25.8837
# 3 45.7945 35.2815 132.5932 -20.6975 26.6866 -1.3442
# 4 -9.2870 1.4446 -20.6975 41.6825 -11.5385 -5.1340
# 5 17.5167 9.0386 26.6866 -11.5385 33.9616 -11.0005
# 6 -9.3939 -25.8837 -1.3442 -5.1340 -11.0005 49.4927
#
#
#
# Elastic Compliance Matrix: (Units=1/GPa)
#
#
# Indices 1 2 3 4 5 6 
#
# 1 0.015971 -0.006132 -0.002857 0.001000 -0.004385 -0.001124
# 2 -0.006132 0.016469 -0.003082 -0.001601 0.003222 0.007915
# 3 -0.002857 -0.003082 0.011045 0.002817 -0.006395 -0.002983
# 4 0.001000 -0.001601 0.002817 0.028655 0.008847 0.004368
# 5 -0.004385 0.003222 -0.006395 0.008847 0.042453 0.011033
# 6 -0.001124 0.007915 -0.002983 0.004368 0.011033 0.026956
#
#
# Mechanical properties :
#
#
# Convention : Reuss Voigt Hill
#
# Bulk Modulus (GPa) = 51.70121 63.00376 57.35249
# Shear Modulus (GPa) = 29.04622 38.00749 33.52685
#
# Velocity S-wave (km/s) = 3.55731 4.06923 3.82185
# Velocity P-wave (km/s) = 6.27671 7.03753 6.66798
#
# Compressibility (1/GPa) = 0.01934191
#
# Stress axis : x y z
#
# Youngs Moduli (GPa) = 62.61440 60.71991 90.53598
#
# Poissons Ratio (x) = 0.37235 0.25866
# Poissons Ratio (y) = 0.38396 0.27907
# Poissons Ratio (z) = 0.17889 0.18716
#
# Static dielectric constant tensor:
#      x y z
#    x 4.508440 -0.527490 0.069450 
#    y -0.527490 4.631040 0.146660 
#    z 0.069450 0.146660 4.348210 
# 
# 
# High freq. dielectric constant tensor:
#      x y z
#    x 1.921390 -0.023660 0.008600 
#    y -0.023660 1.891140 -0.005360 
#    z 0.008600 -0.005360 1.917660 
# 
# From -- ./inp_files/28500.got.cif
#   From: 2010.06.25/outbox.cif.g09.slc.cpg/sg2_15_cif.got.tgz:28500.got - 2010.06.27 13:26:56.
