data_PCOD8035713
_publ_section_title
;
Structure prediction by ZEFSAII (Michael W. Deem and Ramdas Pophale) SiO2 
 PCOD8035713
Probable space group: P -1
;
_chemical_formula_sum "Si O2"
_cell_formula_units_Z 12
_cell_length_a 6.737586
_cell_length_b 9.776170
_cell_length_c 19.660722
_cell_angle_alpha 41.855666
_cell_angle_beta 133.772892
_cell_angle_gamma 133.646009
_cell_volume 581.383048
_symmetry_space_group_name_H-M "P -1"
_symmetry_group_IT_number 2
_symmetry_cell_setting 'triclinic'
loop_
_space_group_symop_operation_xyz
x,y,z
-x,-y,-z
loop_
_atom_site_type_symbol
_atom_site_label
_atom_site_fract_x
_atom_site_fract_y
_atom_site_fract_z
Si Si1 0.824872 0.666980 0.312794
Si Si2 0.641261 0.751050 0.961031
Si Si3 0.519549 0.283176 0.553896
Si Si4 0.767264 0.925043 0.072609
Si Si5 0.743352 0.988603 0.280992
Si Si6 0.381444 0.195455 0.406454
O O1 0.837078 0.789552 0.199757
O O2 0.612208 0.415645 0.346979
O O3 0.148486 0.675759 0.405491
O O4 0.705797 0.776003 0.305086
O O5 0.417224 0.871398 0.846621
O O6 0.500000 0.500000 0.000000
O O7 0.697801 0.767478 0.048975
O O8 0.947123 0.857405 0.953699
O O9 0.500000 0.500000 0.500000
O O10 0.320638 0.223529 0.461120
O O11 0.402771 0.085490 0.652880
O O12 0.500000 0.000000 0.000000
O O13 0.083033 0.141843 0.313135
O O14 0.500000 0.000000 0.500000
#
# Coordination Sequence:
#
# PCOD8035713 Si02
#       6
#     2   2   2   2   2   2
#     4  12  25  46  70 102 140 179 230 281 340 408
#     4  11  27  45  71 106 135 173 234 285 340 408
#     4  12  24  45  71  97 140 182 225 282 335 399
#     4  11  25  46  73  99 136 181 224 282 351 404
#     4  12  25  45  69 102 139 181 228 281 343 405
#     4  12  26  43  70 104 137 181 233 278 337 402
#
# _framework density 20.640436000000001
#
# number of rings (size 3 to 8) (size 9 to 14) (size 15 to 20)
#    0.000    0.333    6.667    2.000    2.333    4.667 
#    0.000    0.000    0.000    0.000    0.000    0.000 
#    0.000    0.000    0.000    0.000    0.000    0.000 
#
# Total GULP energy -148894.761742 kJ/mol
# GULP energy per Si atom -12407.896812 kJ/mol
# Density = 2.059346 g / cm^3
# Si number density = 20.640436 Si / 1000 Ang^3
#
#
#
# Elastic Constant Matrix: (Units=GPa)
#
#
# Indices 1 2 3 4 5 6 
#
# 1 109.3089 51.5646 30.5191 -3.7849 3.6264 4.4923
# 2 51.5646 147.8335 28.1871 -5.4744 1.9215 4.3520
# 3 30.5191 28.1871 71.6960 7.8535 1.4195 -2.9011
# 4 -3.7849 -5.4744 7.8535 34.4362 -0.8396 3.9325
# 5 3.6264 1.9215 1.4195 -0.8396 53.6864 2.7406
# 6 4.4923 4.3520 -2.9011 3.9325 2.7406 40.8534
#
#
#
# Elastic Compliance Matrix: (Units=1/GPa)
#
#
# Indices 1 2 3 4 5 6 
#
# 1 0.011968 -0.003285 -0.004055 0.001866 -0.000483 -0.001401
# 2 -0.003285 0.008393 -0.002106 0.001550 0.000044 -0.000835
# 3 -0.004055 -0.002106 0.017149 -0.004971 -0.000304 0.002387
# 4 0.001866 0.001550 -0.004971 0.031069 0.000628 -0.003756
# 5 -0.000483 0.000044 -0.000304 0.000628 0.018741 -0.001291
# 6 -0.001401 -0.000835 0.002387 -0.003756 -0.001291 0.025338
#
#
# Mechanical properties :
#
#
# Convention : Reuss Voigt Hill
#
# Bulk Modulus (GPa) = 53.70757 61.04222 57.37489
# Shear Modulus (GPa) = 36.29609 40.36638 38.33124
#
# Velocity S-wave (km/s) = 4.19799 4.42712 4.31408
# Velocity P-wave (km/s) = 7.04092 7.46799 7.25759
#
# Compressibility (1/GPa) = 0.01861935
#
# Stress axis : x y z
#
# Youngs Moduli (GPa) = 83.55444 119.14665 58.31304
#
# Poissons Ratio (x) = 0.39137 0.23644
# Poissons Ratio (y) = 0.27446 0.12280
# Poissons Ratio (z) = 0.33879 0.25091
#
# Static dielectric constant tensor:
#      x y z
#    x 3.967700 0.121180 -0.058520 
#    y 0.121180 2.653730 0.200880 
#    z -0.058520 0.200880 3.771150 
# 
# 
# High freq. dielectric constant tensor:
#      x y z
#    x 1.820400 0.000520 -0.003300 
#    y 0.000520 1.814870 0.005670 
#    z -0.003300 0.005670 1.822450 
# 
# From -- ./inp_files/3035.got.cif
#   From: 2010.06.25/outbox.cif.g09.slc.cpg/sg2_2_cif.got.tgz:3035.got - 2010.06.27 13:26:56.
