data_PCOD8035573
_publ_section_title
;
Structure prediction by ZEFSAII (Michael W. Deem and Ramdas Pophale) SiO2 
 PCOD8035573
Probable space group: P -1
;
_chemical_formula_sum "Si O2"
_cell_formula_units_Z 14
_cell_length_a 23.044435
_cell_length_b 8.214793
_cell_length_c 10.000353
_cell_angle_alpha 45.595203
_cell_angle_beta 143.709383
_cell_angle_gamma 148.791574
_cell_volume 580.261094
_symmetry_space_group_name_H-M "P -1"
_symmetry_group_IT_number 2
_symmetry_cell_setting 'triclinic'
loop_
_space_group_symop_operation_xyz
x,y,z
-x,-y,-z
loop_
_atom_site_type_symbol
_atom_site_label
_atom_site_fract_x
_atom_site_fract_y
_atom_site_fract_z
Si Si1 0.077443 0.423852 0.493956
Si Si2 0.321326 0.814115 0.368385
Si Si3 0.552109 0.838899 0.867416
Si Si4 0.915709 0.085142 0.835643
Si Si5 0.044107 0.198481 0.265591
Si Si6 0.645027 0.232926 0.069129
Si Si7 0.658277 0.724915 0.690720
O O1 0.030368 0.610164 0.321602
O O2 0.039228 0.295738 0.346386
O O3 0.239715 0.673565 0.671094
O O4 0.995147 0.133260 0.610614
O O5 0.432077 0.823873 0.629539
O O6 0.188474 0.446168 0.316367
O O7 0.359441 0.008334 0.191187
O O8 0.287661 0.954142 0.332512
O O9 0.500000 0.500000 0.000000
O O10 0.643441 0.077457 0.021488
O O11 0.749781 0.812278 0.677154
O O12 0.938260 0.157393 0.996203
O O13 0.000000 0.000000 0.000000
O O14 0.682090 0.554037 0.931842
O O15 0.500000 0.000000 0.000000
O O16 0.500000 0.500000 0.500000
#
# Coordination Sequence:
#
# PCOD8035573 Si02
#       7
#     2   2   2   2   2   2   2
#     4  11  25  47  73 107 149 198 254 309 373 457
#     4  11  25  45  75 105 149 199 247 313 377 448
#     4  11  26  47  72 114 149 192 252 315 382 447
#     4  12  28  47  76 111 150 201 250 315 385 449
#     4  11  25  46  73 105 148 197 254 301 380 447
#     4  12  24  45  77 110 148 197 253 312 379 451
#     4  12  24  48  76 107 148 194 254 308 377 452
#
# _framework density 24.127071999999998
#
# number of rings (size 3 to 8) (size 9 to 14) (size 15 to 20)
#    0.000    0.571    4.286    3.000    2.000    2.857 
#    0.000    0.000    0.000    0.000    0.000    0.000 
#    0.000    0.000    0.000    0.000    0.000    0.000 
#
# Total GULP energy -173524.426954 kJ/mol
# GULP energy per Si atom -12394.601925 kJ/mol
# Density = 2.407216 g / cm^3
# Si number density = 24.127072 Si / 1000 Ang^3
#
#
#
# Elastic Constant Matrix: (Units=GPa)
#
#
# Indices 1 2 3 4 5 6 
#
# 1 85.4824 42.0961 31.0664 -7.9507 26.1559 8.3476
# 2 42.0961 149.4725 59.0940 -27.9222 18.1210 22.9130
# 3 31.0664 59.0940 114.2295 -27.7219 10.6784 -8.0053
# 4 -7.9507 -27.9222 -27.7219 57.8927 -0.8961 -5.5611
# 5 26.1559 18.1210 10.6784 -0.8961 41.6919 1.6224
# 6 8.3476 22.9130 -8.0053 -5.5611 1.6224 41.6253
#
#
#
# Elastic Compliance Matrix: (Units=1/GPa)
#
#
# Indices 1 2 3 4 5 6 
#
# 1 0.016683 -0.002249 -0.002858 -0.000526 -0.008675 -0.002390
# 2 -0.002249 0.010680 -0.004685 0.001996 -0.001755 -0.005994
# 3 -0.002858 -0.004685 0.013443 0.004395 0.000235 0.006315
# 4 -0.000526 0.001996 0.004395 0.020502 -0.001326 0.002643
# 5 -0.008675 -0.001755 0.000235 -0.001326 0.030048 0.001403
# 6 -0.002390 -0.005994 0.006315 0.002643 0.001403 0.029315
#
#
# Mechanical properties :
#
#
# Convention : Reuss Voigt Hill
#
# Bulk Modulus (GPa) = 47.12046 68.18858 57.65452
# Shear Modulus (GPa) = 33.93761 42.70386 38.32074
#
# Velocity S-wave (km/s) = 3.75456 4.21165 3.98966
# Velocity P-wave (km/s) = 6.19420 7.20932 6.72095
#
# Compressibility (1/GPa) = 0.02122221
#
# Stress axis : x y z
#
# Youngs Moduli (GPa) = 59.94004 93.63020 74.39036
#
# Poissons Ratio (x) = 0.21056 0.21261
# Poissons Ratio (y) = 0.13479 0.34854
# Poissons Ratio (z) = 0.17131 0.43868
#
# Static dielectric constant tensor:
#      x y z
#    x 4.165070 -0.222310 -0.237150 
#    y -0.222310 3.021970 -0.429780 
#    z -0.237150 -0.429780 4.649760 
# 
# 
# High freq. dielectric constant tensor:
#      x y z
#    x 1.944930 0.010710 -0.001500 
#    y 0.010710 1.978150 -0.009980 
#    z -0.001500 -0.009980 1.973780 
# 
# From -- ./inp_files/476373.got.cif
#   From: 2010.06.25/outbox.cif.g09.slc.cpg/sg2_239_cif.got.tgz:476373.got - 2010.06.27 13:26:56.
