data_PCOD8035041
_publ_section_title
;
Structure prediction by ZEFSAII (Michael W. Deem and Ramdas Pophale) SiO2 
 PCOD8035041
Probable space group: P -1
;
_chemical_formula_sum "Si O2"
_cell_formula_units_Z 16
_cell_length_a 9.006132
_cell_length_b 18.172609
_cell_length_c 5.617485
_cell_angle_alpha 103.697319
_cell_angle_beta 122.409428
_cell_angle_gamma 57.629669
_cell_volume 653.943106
_symmetry_space_group_name_H-M "P -1"
_symmetry_group_IT_number 2
_symmetry_cell_setting 'triclinic'
loop_
_space_group_symop_operation_xyz
x,y,z
-x,-y,-z
loop_
_atom_site_type_symbol
_atom_site_label
_atom_site_fract_x
_atom_site_fract_y
_atom_site_fract_z
Si Si1 0.233081 0.633364 0.468831
Si Si2 0.855371 0.754678 0.496149
Si Si3 0.347578 0.076531 0.256904
Si Si4 0.673363 0.517625 0.250750
Si Si5 0.002993 0.391165 0.130598
Si Si6 0.586113 0.654280 0.630502
Si Si7 0.879022 0.016492 0.159965
Si Si8 0.498554 0.171708 0.123152
O O1 0.240492 0.544792 0.492101
O O2 0.454862 0.624527 0.656844
O O3 0.082895 0.716324 0.561820
O O4 0.133586 0.645557 0.132274
O O5 0.806169 0.842661 0.653965
O O6 0.851980 0.683314 0.612607
O O7 0.697356 0.772412 0.163629
O O8 0.476684 0.102169 0.213697
O O9 0.500000 0.000000 0.500000
O O10 0.214964 0.047388 0.964560
O O11 0.589857 0.617775 0.336295
O O12 0.856718 0.485685 0.194671
O O13 0.500000 0.500000 0.000000
O O14 0.176037 0.394123 0.116627
O O15 0.478066 0.759554 0.633192
O O16 0.697082 0.117374 0.087557
O O17 0.000000 0.000000 0.500000
O O18 0.000000 0.000000 0.000000
#
# Coordination Sequence:
#
# PCOD8035041 Si02
#       8
#     2   2   2   2   2   2   2   2
#     4  11  25  47  72 107 152 196 250 322 380 457
#     4  11  24  47  74 106 148 194 259 316 394 465
#     4  12  25  50  82 104 154 207 258 327 401 486
#     4  11  25  47  72 106 153 203 254 313 389 459
#     4  11  24  48  70 107 146 199 255 316 386 462
#     4  12  25  46  75 106 152 196 256 315 382 470
#     4  12  30  50  78 120 158 203 268 329 402 489
#     4  12  27  49  76 111 151 202 262 319 407 467
#
# _framework density 24.466958000000002
#
# number of rings (size 3 to 8) (size 9 to 14) (size 15 to 20)
#    0.000    0.500    5.000    1.875    3.500    2.500 
#    0.000    0.000    0.000    0.000    0.000    0.000 
#    0.000    0.000    0.000    0.000    0.000    0.000 
#
# Total GULP energy -198300.006503 kJ/mol
# GULP energy per Si atom -12393.750406 kJ/mol
# Density = 2.441127 g / cm^3
# Si number density = 24.466958 Si / 1000 Ang^3
#
#
#
# Elastic Constant Matrix: (Units=GPa)
#
#
# Indices 1 2 3 4 5 6 
#
# 1 169.8845 60.2275 44.7886 16.3807 5.2333 -31.0251
# 2 60.2275 129.0145 59.0888 40.6948 -1.8547 -31.8590
# 3 44.7886 59.0888 123.6277 16.6605 5.0024 -1.4707
# 4 16.3807 40.6948 16.6605 57.2255 0.6160 -8.6927
# 5 5.2333 -1.8547 5.0024 0.6160 40.0896 6.6963
# 6 -31.0251 -31.8590 -1.4707 -8.6927 6.6963 48.4454
#
#
#
# Elastic Compliance Matrix: (Units=1/GPa)
#
#
# Indices 1 2 3 4 5 6 
#
# 1 0.007793 -0.001953 -0.001821 0.000300 -0.001539 0.003918
# 2 -0.001953 0.015454 -0.005577 -0.007707 0.000568 0.007282
# 3 -0.001821 -0.005577 0.011318 0.000548 -0.000724 -0.004292
# 4 0.000300 -0.007707 0.000548 0.022610 -0.000693 -0.000707
# 5 -0.001539 0.000568 -0.000724 -0.000693 0.025999 -0.004352
# 6 0.003918 0.007282 -0.004292 -0.000707 -0.004352 0.028284
#
#
# Mechanical properties :
#
#
# Convention : Reuss Voigt Hill
#
# Bulk Modulus (GPa) = 63.03746 83.41518 73.22632
# Shear Modulus (GPa) = 36.91421 46.38023 41.64722
#
# Velocity S-wave (km/s) = 3.88846 4.35860 4.13023
# Velocity P-wave (km/s) = 6.78089 7.71342 7.26214
#
# Compressibility (1/GPa) = 0.01586358
#
# Stress axis : x y z
#
# Youngs Moduli (GPa) = 128.32231 64.70648 88.35145
#
# Poissons Ratio (x) = 0.12639 0.16091
# Poissons Ratio (y) = 0.25064 0.49270
# Poissons Ratio (z) = 0.23371 0.36084
#
# Static dielectric constant tensor:
#      x y z
#    x 4.722490 -0.197850 -0.128880 
#    y -0.197850 4.735940 0.014330 
#    z -0.128880 0.014330 4.499830 
# 
# 
# High freq. dielectric constant tensor:
#      x y z
#    x 1.982410 -0.023140 0.000570 
#    y -0.023140 1.975010 0.016720 
#    z 0.000570 0.016720 1.972910 
# 
# From -- ./inp_files/48744.got.cif
#   From: 2010.06.25/outbox.cif.g09.slc.cpg/sg2_25_cif.got.tgz:48744.got - 2010.06.27 13:26:56.
