data_PCOD8035985
_publ_section_title
;
Structure prediction by ZEFSAII (Michael W. Deem and Ramdas Pophale) SiO2 
 PCOD8035985
Probable space group: P -1
;
_chemical_formula_sum "Si O2"
_cell_formula_units_Z 16
_cell_length_a 8.342529
_cell_length_b 9.438655
_cell_length_c 12.234737
_cell_angle_alpha 102.062009
_cell_angle_beta 126.936955
_cell_angle_gamma 72.753999
_cell_volume 734.816101
_symmetry_space_group_name_H-M "P -1"
_symmetry_group_IT_number 2
_symmetry_cell_setting 'triclinic'
loop_
_space_group_symop_operation_xyz
x,y,z
-x,-y,-z
loop_
_atom_site_type_symbol
_atom_site_label
_atom_site_fract_x
_atom_site_fract_y
_atom_site_fract_z
Si Si1 0.348423 0.407744 0.879112
Si Si2 0.036638 0.840606 0.032415
Si Si3 0.038797 0.841902 0.381046
Si Si4 0.684807 0.456463 0.647410
Si Si5 0.533996 0.266932 0.717512
Si Si6 0.297516 0.130194 0.922906
Si Si7 0.974937 0.662808 0.770013
Si Si8 0.164231 0.139842 0.468609
O O1 0.420473 0.306335 0.789563
O O2 0.344553 0.291476 0.954654
O O3 0.135943 0.515772 0.774835
O O4 0.500000 0.500000 0.000000
O O5 0.067141 0.728317 0.924420
O O6 0.836765 0.835995 0.018450
O O7 0.237498 0.829030 0.187392
O O8 0.000000 0.000000 0.000000
O O9 0.149220 0.686796 0.348468
O O10 0.829032 0.909939 0.239901
O O11 0.984865 0.808820 0.479413
O O12 0.184041 0.961153 0.444755
O O13 0.500000 0.500000 0.500000
O O14 0.572951 0.418280 0.704784
O O15 0.777833 0.602704 0.720934
O O16 0.391216 0.176054 0.577351
O O17 0.500000 0.000000 0.000000
O O18 0.932945 0.778205 0.669792
#
# Coordination Sequence:
#
# PCOD8035985 Si02
#       8
#     2   2   2   2   2   2   2   2
#     4  12  26  44  73 107 141 186 240 290 357 423
#     4  12  27  46  73 106 143 183 241 295 355 421
#     4  11  25  49  70 104 143 189 238 292 354 427
#     4  12  26  45  69 105 142 185 233 294 361 418
#     4  12  24  46  72 103 143 183 235 300 351 419
#     4  12  26  49  74 101 146 190 238 293 353 423
#     4  12  26  47  72 107 143 191 233 294 361 424
#     4  11  26  46  75 101 144 188 237 289 359 427
#
# _framework density 21.774155
#
# number of rings (size 3 to 8) (size 9 to 14) (size 15 to 20)
#    0.000    0.250    6.250    1.500    5.250    3.500 
#    2.250    0.000    0.000    0.000    0.000    0.000 
#    0.000    0.000    0.000    0.000    0.000    0.000 
#
# Total GULP energy -198278.395485 kJ/mol
# GULP energy per Si atom -12392.399718 kJ/mol
# Density = 2.172460 g / cm^3
# Si number density = 21.774155 Si / 1000 Ang^3
#
#
#
# Elastic Constant Matrix: (Units=GPa)
#
#
# Indices 1 2 3 4 5 6 
#
# 1 111.1057 40.5656 34.2506 -14.1385 -2.2902 19.6283
# 2 40.5656 112.8861 32.6050 -9.4713 4.4558 28.0850
# 3 34.2506 32.6050 112.0985 -15.2064 12.7832 9.7680
# 4 -14.1385 -9.4713 -15.2064 46.2211 4.2902 3.6584
# 5 -2.2902 4.4558 12.7832 4.2902 43.2880 -4.5128
# 6 19.6283 28.0850 9.7680 3.6584 -4.5128 53.0796
#
#
#
# Elastic Compliance Matrix: (Units=1/GPa)
#
#
# Indices 1 2 3 4 5 6 
#
# 1 0.011439 -0.002684 -0.002315 0.002281 0.001084 -0.002449
# 2 -0.002684 0.011815 -0.001779 0.001565 -0.001527 -0.005169
# 3 -0.002315 -0.001779 0.011014 0.002939 -0.003560 -0.000734
# 4 0.002281 0.001565 0.002939 0.024302 -0.003756 -0.004207
# 5 0.001084 -0.001527 -0.003560 -0.003756 0.025099 0.003455
# 6 -0.002449 -0.005169 -0.000734 -0.004207 0.003455 0.023199
#
#
# Mechanical properties :
#
#
# Convention : Reuss Voigt Hill
#
# Bulk Modulus (GPa) = 48.28470 61.21474 54.74972
# Shear Modulus (GPa) = 39.26807 43.76234 41.51521
#
# Velocity S-wave (km/s) = 4.25128 4.48798 4.37123
# Velocity P-wave (km/s) = 6.80597 7.41825 7.11870
#
# Compressibility (1/GPa) = 0.02071049
#
# Stress axis : x y z
#
# Youngs Moduli (GPa) = 87.41725 84.64132 90.79033
#
# Poissons Ratio (x) = 0.22719 0.21021
# Poissons Ratio (y) = 0.23464 0.16156
# Poissons Ratio (z) = 0.20240 0.15061
#
# Static dielectric constant tensor:
#      x y z
#    x 4.137660 0.636540 0.409370 
#    y 0.636540 -1.327240 -2.765170 
#    z 0.409370 -2.765170 2.637500 
# 
# 
# High freq. dielectric constant tensor:
#      x y z
#    x 1.870560 0.021360 0.000970 
#    y 0.021360 1.864030 -0.002960 
#    z 0.000970 -0.002960 1.864020 
# 
# From -- ./inp_files/382436.got.cif
#   From: 2010.06.25/outbox.cif.g09.slc.cpg/sg2_192_cif.got.tgz:382436.got - 2010.06.27 13:26:56.
