data_PCOD8035976
_publ_section_title
;
Structure prediction by ZEFSAII (Michael W. Deem and Ramdas Pophale) SiO2 
 PCOD8035976
Probable space group: P -1
;
_chemical_formula_sum "Si O2"
_cell_formula_units_Z 6
_cell_length_a 9.266090
_cell_length_b 6.622146
_cell_length_c 5.196518
_cell_angle_alpha 72.260868
_cell_angle_beta 93.439892
_cell_angle_gamma 47.648994
_cell_volume 207.900432
_symmetry_space_group_name_H-M "P -1"
_symmetry_group_IT_number 2
_symmetry_cell_setting 'triclinic'
loop_
_space_group_symop_operation_xyz
x,y,z
-x,-y,-z
loop_
_atom_site_type_symbol
_atom_site_label
_atom_site_fract_x
_atom_site_fract_y
_atom_site_fract_z
Si Si1 0.009592 0.345472 0.803891
Si Si2 0.411979 0.986777 0.747061
Si Si3 0.654512 0.377778 0.793976
O O1 0.823247 0.377916 0.728239
O O2 0.149576 0.300758 0.576995
O O3 0.000000 0.500000 0.000000
O O4 0.224089 0.971441 0.000889
O O5 0.505179 0.646167 0.896144
O O6 0.500000 0.000000 0.500000
O O7 0.500000 0.000000 0.000000
O O8 0.500000 0.500000 0.500000
#
# Coordination Sequence:
#
# PCOD8035976 Si02
#       3
#     2   2   2
#     4  11  25  48  79 117 154 212 267 327 401 480
#     4  12  26  50  80 116 162 212 264 332 404 482
#     4  11  26  51  79 116 160 208 267 333 399 478
#
# _framework density 28.859964999999999
#
# number of rings (size 3 to 8) (size 9 to 14) (size 15 to 20)
#    0.000    0.667    3.333    3.000    0.000    2.667 
#   12.000    0.000    0.000    0.000    0.000    0.000 
#    0.000    0.000    0.000    0.000    0.000    0.000 
#
# Total GULP energy -74368.992484 kJ/mol
# GULP energy per Si atom -12394.832081 kJ/mol
# Density = 2.879428 g / cm^3
# Si number density = 28.859965 Si / 1000 Ang^3
#
#
#
# Elastic Constant Matrix: (Units=GPa)
#
#
# Indices 1 2 3 4 5 6 
#
# 1 246.2979 143.9528 98.0047 -0.4517 11.1567 -19.4488
# 2 143.9528 330.2490 115.2166 5.1129 0.9638 -27.5710
# 3 98.0047 115.2166 161.0628 27.8133 7.8938 -2.8308
# 4 -0.4517 5.1129 27.8133 62.2191 10.5441 11.9550
# 5 11.1567 0.9638 7.8938 10.5441 74.0531 -10.0848
# 6 -19.4488 -27.5710 -2.8308 11.9550 -10.0848 80.1615
#
#
#
# Elastic Compliance Matrix: (Units=1/GPa)
#
#
# Indices 1 2 3 4 5 6 
#
# 1 0.006255 -0.001739 -0.002767 0.001457 -0.000763 0.000509
# 2 -0.001739 0.004701 -0.002373 0.000350 0.000558 0.001129
# 3 -0.002767 -0.002373 0.010335 -0.004333 -0.000103 -0.000489
# 4 0.001457 0.000350 -0.004333 0.019029 -0.002863 -0.002877
# 5 -0.000763 0.000558 -0.000103 -0.002863 0.014334 0.002233
# 6 0.000509 0.001129 -0.000489 -0.002877 0.002233 0.013679
#
#
# Mechanical properties :
#
#
# Convention : Reuss Voigt Hill
#
# Bulk Modulus (GPa) = 132.75457 161.32865 147.04161
# Shear Modulus (GPa) = 59.09947 68.64909 63.87428
#
# Velocity S-wave (km/s) = 4.53017 4.88248 4.70962
# Velocity P-wave (km/s) = 8.57104 9.37052 8.97968
#
# Compressibility (1/GPa) = 0.00753270
#
# Stress axis : x y z
#
# Youngs Moduli (GPa) = 159.87108 212.72069 96.75965
#
# Poissons Ratio (x) = 0.36990 0.26778
# Poissons Ratio (y) = 0.27800 0.22959
# Poissons Ratio (z) = 0.44244 0.50473
#
# Static dielectric constant tensor:
#      x y z
#    x 6.724120 0.150790 -0.691030 
#    y 0.150790 8.306280 -2.599700 
#    z -0.691030 -2.599700 6.605820 
# 
# 
# High freq. dielectric constant tensor:
#      x y z
#    x 2.258450 -0.026000 -0.040840 
#    y -0.026000 2.265130 -0.061220 
#    z -0.040840 -0.061220 2.225320 
# 
# From -- ./inp_files/1198.got.cif
#   From: 2010.06.25/outbox.cif.g09.slc.cpg/sg2_1_cif.got.tgz:1198.got - 2010.06.27 13:26:56.
