data_PCOD8035410
_publ_section_title
;
Structure prediction by ZEFSAII (Michael W. Deem and Ramdas Pophale) SiO2 
 PCOD8035410
Probable space group: P -1
;
_chemical_formula_sum "Si O2"
_cell_formula_units_Z 14
_cell_length_a 6.571556
_cell_length_b 11.685641
_cell_length_c 15.058249
_cell_angle_alpha 47.741812
_cell_angle_beta 43.092069
_cell_angle_gamma 64.968506
_cell_volume 579.389025
_symmetry_space_group_name_H-M "P -1"
_symmetry_group_IT_number 2
_symmetry_cell_setting 'triclinic'
loop_
_space_group_symop_operation_xyz
x,y,z
-x,-y,-z
loop_
_atom_site_type_symbol
_atom_site_label
_atom_site_fract_x
_atom_site_fract_y
_atom_site_fract_z
Si Si1 0.804405 0.558023 0.108632
Si Si2 0.834179 0.386718 0.539015
Si Si3 0.202642 0.963283 0.535029
Si Si4 0.805391 0.900967 0.867654
Si Si5 0.137870 0.917581 0.077116
Si Si6 0.843866 0.605474 0.262108
Si Si7 0.611078 0.753521 0.570724
O O1 0.987502 0.573634 0.136635
O O2 0.510168 0.426848 0.278060
O O3 0.719023 0.724136 0.021583
O O4 0.000000 0.500000 0.000000
O O5 0.832314 0.450553 0.405266
O O6 0.479853 0.345624 0.693048
O O7 0.000000 0.500000 0.500000
O O8 0.024071 0.238357 0.562564
O O9 0.414861 0.826532 0.517344
O O10 0.995281 0.905301 0.715343
O O11 0.421720 0.125373 0.401019
O O12 0.000000 0.000000 0.500000
O O13 0.975866 0.013657 0.830258
O O14 0.489450 0.962649 0.923662
O O15 0.028162 0.733787 0.199013
O O16 0.000000 0.000000 0.000000
#
# Coordination Sequence:
#
# PCOD8035410 Si02
#       7
#     2   2   2   2   2   2   2
#     4  12  24  47  74 104 147 190 238 301 361 433
#     4  11  25  44  74 105 146 184 242 307 359 429
#     4  11  28  48  72 104 143 199 243 293 369 439
#     4  11  26  47  73 106 148 190 241 308 363 431
#     4  11  25  44  73 105 141 186 241 299 366 433
#     4  11  26  44  72 114 139 195 245 294 376 429
#     4  11  26  47  73 104 145 190 246 300 360 432
#
# _framework density 24.163387
#
# number of rings (size 3 to 8) (size 9 to 14) (size 15 to 20)
#    0.000    0.857    4.286    0.857    6.000    3.429 
#    0.000    2.143    0.000    0.000    0.000    0.000 
#    0.000    0.000    0.000    0.000    0.000    0.000 
#
# Total GULP energy -173448.483112 kJ/mol
# GULP energy per Si atom -12389.177365 kJ/mol
# Density = 2.410839 g / cm^3
# Si number density = 24.163387 Si / 1000 Ang^3
#
#
#
# Elastic Constant Matrix: (Units=GPa)
#
#
# Indices 1 2 3 4 5 6 
#
# 1 160.0381 57.4145 45.0212 7.5763 14.1088 -13.7106
# 2 57.4145 119.2813 31.6598 -0.5296 6.6891 -3.2432
# 3 45.0212 31.6598 76.1563 -5.7314 11.3167 8.7169
# 4 7.5763 -0.5296 -5.7314 42.4595 4.7975 -9.2661
# 5 14.1088 6.6891 11.3167 4.7975 42.6816 -3.2430
# 6 -13.7106 -3.2432 8.7169 -9.2661 -3.2430 51.8515
#
#
#
# Elastic Compliance Matrix: (Units=1/GPa)
#
#
# Indices 1 2 3 4 5 6 
#
# 1 0.008918 -0.003042 -0.004271 -0.001539 -0.000972 0.002550
# 2 -0.003042 0.010549 -0.002603 0.000400 0.000025 0.000366
# 3 -0.004271 -0.002603 0.017928 0.002666 -0.003541 -0.004051
# 4 -0.001539 0.000400 0.002666 0.025278 -0.002835 0.003510
# 5 -0.000972 0.000025 -0.003541 -0.002835 0.025111 0.001404
# 6 0.002550 0.000366 -0.004051 0.003510 0.001404 0.021379
#
#
# Mechanical properties :
#
#
# Convention : Reuss Voigt Hill
#
# Bulk Modulus (GPa) = 56.93336 69.29629 63.11482
# Shear Modulus (GPa) = 37.07849 42.15719 39.61784
#
# Velocity S-wave (km/s) = 3.92151 4.18146 4.05357
# Velocity P-wave (km/s) = 6.64208 7.21480 6.93435
#
# Compressibility (1/GPa) = 0.01756439
#
# Stress axis : x y z
#
# Youngs Moduli (GPa) = 112.12766 94.79638 55.77824
#
# Poissons Ratio (x) = 0.28839 0.23822
# Poissons Ratio (y) = 0.34111 0.14516
# Poissons Ratio (z) = 0.47888 0.24671
#
# Static dielectric constant tensor:
#      x y z
#    x 4.541030 -0.429570 0.064390 
#    y -0.429570 4.483780 0.196060 
#    z 0.064390 0.196060 4.327700 
# 
# 
# High freq. dielectric constant tensor:
#      x y z
#    x 1.968860 -0.003620 0.001940 
#    y -0.003620 1.971430 -0.010230 
#    z 0.001940 -0.010230 1.948460 
# 
# From -- ./inp_files/411343.got.cif
#   From: 2010.06.25/outbox.cif.g09.slc.cpg/sg2_206_cif.got.tgz:411343.got - 2010.06.27 13:26:56.
