data_PCOD8035993
_publ_section_title
;
Structure prediction by ZEFSAII (Michael W. Deem and Ramdas Pophale) SiO2 
 PCOD8035993
Probable space group: P -1
;
_chemical_formula_sum "Si O2"
_cell_formula_units_Z 16
_cell_length_a 17.828250
_cell_length_b 11.843318
_cell_length_c 8.177187
_cell_angle_alpha 133.342005
_cell_angle_beta 50.969687
_cell_angle_gamma 150.209836
_cell_volume 621.075669
_symmetry_space_group_name_H-M "P -1"
_symmetry_group_IT_number 2
_symmetry_cell_setting 'triclinic'
loop_
_space_group_symop_operation_xyz
x,y,z
-x,-y,-z
loop_
_atom_site_type_symbol
_atom_site_label
_atom_site_fract_x
_atom_site_fract_y
_atom_site_fract_z
Si Si1 0.881034 0.233220 0.316042
Si Si2 0.261534 0.450973 0.394541
Si Si3 0.419810 0.053423 0.422258
Si Si4 0.866204 0.969683 0.612351
Si Si5 0.376400 0.077763 0.151612
Si Si6 0.942852 0.787280 0.123520
Si Si7 0.853790 0.378057 0.172972
Si Si8 0.666265 0.403563 0.910363
O O1 0.728982 0.023316 0.420946
O O2 0.827933 0.234634 0.218677
O O3 0.000000 0.500000 0.500000
O O4 0.952566 0.148873 0.104604
O O5 0.221708 0.250645 0.356684
O O6 0.142103 0.439181 0.590403
O O7 0.252769 0.410341 0.169398
O O8 0.436371 0.714700 0.442063
O O9 0.374534 0.823158 0.305645
O O10 0.456713 0.121160 0.248972
O O11 0.748467 0.943259 0.672256
O O12 0.944950 0.974763 0.355846
O O13 0.997800 0.217212 0.790070
O O14 0.512102 0.303342 0.071277
O O15 0.294008 0.823785 0.939378
O O16 0.772506 0.532985 0.055253
O O17 0.000000 0.500000 0.000000
#
# Coordination Sequence:
#
# PCOD8035993 Si02
#       8
#     2   2   2   2   2   2   2   2
#     4  12  22  44  72 108 142 181 246 299 359 420
#     4  12  26  46  73 107 147 186 240 306 364 423
#     4  12  25  44  76 110 141 183 246 308 358 416
#     4  11  28  50  70 105 151 196 238 288 363 445
#     4  12  27  46  73 104 143 197 241 287 362 433
#     4  11  25  49  72 104 151 192 240 294 359 437
#     4  12  24  40  74 106 141 189 243 302 354 421
#     4  12  25  47  76 108 142 185 245 309 355 422
#
# _framework density 25.761755999999998
#
# number of rings (size 3 to 8) (size 9 to 14) (size 15 to 20)
#    0.000    0.250    5.000    3.750    3.500    3.000 
#    2.250    0.000    0.000    0.000    0.000    0.000 
#    0.000    0.000    0.000    0.000    0.000    0.000 
#
# Total GULP energy -198268.445279 kJ/mol
# GULP energy per Si atom -12391.777830 kJ/mol
# Density = 2.570312 g / cm^3
# Si number density = 25.761756 Si / 1000 Ang^3
#
#
#
# Elastic Constant Matrix: (Units=GPa)
#
#
# Indices 1 2 3 4 5 6 
#
# 1 89.6144 16.7726 25.8519 2.8236 8.7029 10.4240
# 2 16.7726 63.6664 24.9189 4.0261 18.4044 16.0688
# 3 25.8519 24.9189 138.4774 -9.9953 -0.4183 15.3171
# 4 2.8236 4.0261 -9.9953 42.7264 6.0372 -0.6121
# 5 8.7029 18.4044 -0.4183 6.0372 41.3665 -3.4764
# 6 10.4240 16.0688 15.3171 -0.6121 -3.4764 55.6947
#
#
#
# Elastic Compliance Matrix: (Units=1/GPa)
#
#
# Indices 1 2 3 4 5 6 
#
# 1 0.012393 -0.001509 -0.001947 -0.000878 -0.001952 -0.001480
# 2 -0.001509 0.021632 -0.003108 -0.001389 -0.009616 -0.005720
# 3 -0.001947 -0.003108 0.008408 0.002166 0.001483 -0.000935
# 4 -0.000878 -0.001389 0.002166 0.024489 -0.002744 0.000067
# 5 -0.001952 -0.009616 0.001483 -0.002744 0.029661 0.004553
# 6 -0.001480 -0.005720 -0.000935 0.000067 0.004553 0.020424
#
#
# Mechanical properties :
#
#
# Convention : Reuss Voigt Hill
#
# Bulk Modulus (GPa) = 34.12485 47.42722 40.77603
# Shear Modulus (GPa) = 35.73882 42.90520 39.32201
#
# Velocity S-wave (km/s) = 3.72866 4.08543 3.91112
# Velocity P-wave (km/s) = 5.64024 6.37999 6.02149
#
# Compressibility (1/GPa) = 0.02930416
#
# Stress axis : x y z
#
# Youngs Moduli (GPa) = 80.69370 46.22797 118.92887
#
# Poissons Ratio (x) = 0.06977 0.23161
# Poissons Ratio (y) = 0.12179 0.36957
# Poissons Ratio (z) = 0.15715 0.14365
#
# Static dielectric constant tensor:
#      x y z
#    x 4.311950 0.280540 -0.202820 
#    y 0.280540 4.700060 -0.118200 
#    z -0.202820 -0.118200 4.911780 
# 
# 
# High freq. dielectric constant tensor:
#      x y z
#    x 2.029420 0.021970 0.003200 
#    y 0.021970 2.030460 -0.014250 
#    z 0.003200 -0.014250 2.043890 
# 
# From -- ./inp_files/333707.got.cif
#   From: 2010.06.25/outbox.cif.g09.slc.cpg/sg2_167_cif.got.tgz:333707.got - 2010.06.27 13:26:56.
