data_PCOD8035515
_publ_section_title
;
Structure prediction by ZEFSAII (Michael W. Deem and Ramdas Pophale) SiO2 
 PCOD8035515
Probable space group: P -1
;
_chemical_formula_sum "Si O2"
_cell_formula_units_Z 14
_cell_length_a 8.021178
_cell_length_b 4.877997
_cell_length_c 18.322437
_cell_angle_alpha 68.935809
_cell_angle_beta 105.269648
_cell_angle_gamma 126.489954
_cell_volume 536.673888
_symmetry_space_group_name_H-M "P -1"
_symmetry_group_IT_number 2
_symmetry_cell_setting 'triclinic'
loop_
_space_group_symop_operation_xyz
x,y,z
-x,-y,-z
loop_
_atom_site_type_symbol
_atom_site_label
_atom_site_fract_x
_atom_site_fract_y
_atom_site_fract_z
Si Si1 0.033560 0.819370 0.088425
Si Si2 0.577388 0.240719 0.714317
Si Si3 0.142691 0.339220 0.414802
Si Si4 0.317062 0.450596 0.816211
Si Si5 0.718989 0.517259 0.852532
Si Si6 0.261698 0.813192 0.512565
Si Si7 0.802856 0.730697 0.335079
O O1 0.808564 0.556254 0.126335
O O2 0.847369 0.355135 0.913049
O O3 0.174966 0.093712 0.140888
O O4 0.000000 0.000000 0.000000
O O5 0.696580 0.309566 0.645753
O O6 0.737556 0.515240 0.767494
O O7 0.421627 0.352700 0.667795
O O8 0.471364 0.846922 0.768142
O O9 0.101502 0.514007 0.462649
O O10 0.226044 0.126747 0.484996
O O11 0.961958 0.087971 0.361932
O O12 0.470031 0.312927 0.864408
O O13 0.157237 0.226300 0.752581
O O14 0.212802 0.619786 0.604372
O O15 0.500000 0.000000 0.500000
#
# Coordination Sequence:
#
# PCOD8035515 Si02
#       7
#     2   2   2   2   2   2   2
#     4  12  28  50  80 114 150 194 244 299 369 451
#     4  11  25  45  72 105 145 194 244 304 362 439
#     4  12  27  43  70  97 145 188 245 312 363 427
#     4  11  27  48  78 109 153 194 249 307 367 449
#     4  11  26  50  74 112 153 192 246 297 373 435
#     4  12  25  46  66  99 142 189 247 308 368 430
#     4  11  26  43  71 103 140 196 248 302 374 434
#
# _framework density 26.086607000000001
#
# number of rings (size 3 to 8) (size 9 to 14) (size 15 to 20)
#    0.000    0.571    2.857    3.429   12.000    1.143 
#    0.000    0.000    0.000    0.000    0.000    0.000 
#    0.000    0.000    0.000    0.000    0.000    0.000 
#
# Total GULP energy -173512.076324 kJ/mol
# GULP energy per Si atom -12393.719737 kJ/mol
# Density = 2.602723 g / cm^3
# Si number density = 26.086607 Si / 1000 Ang^3
#
#
#
# Elastic Constant Matrix: (Units=GPa)
#
#
# Indices 1 2 3 4 5 6 
#
# 1 130.0731 30.3552 57.6631 -14.4532 13.5792 -7.9672
# 2 30.3552 101.6759 28.0008 -4.9086 -5.3166 -5.2276
# 3 57.6631 28.0008 108.7271 -18.2463 -3.7897 16.6194
# 4 -14.4532 -4.9086 -18.2463 35.8597 -1.2845 -2.4382
# 5 13.5792 -5.3166 -3.7897 -1.2845 45.9683 1.5724
# 6 -7.9672 -5.2276 16.6194 -2.4382 1.5724 31.2819
#
#
#
# Elastic Compliance Matrix: (Units=1/GPa)
#
#
# Indices 1 2 3 4 5 6 
#
# 1 0.012250 -0.001516 -0.007092 0.001432 -0.004577 0.006976
# 2 -0.001516 0.011173 -0.002452 -0.000094 0.001443 0.002704
# 3 -0.007092 -0.002452 0.016073 0.004394 0.003622 -0.010595
# 4 0.001432 -0.000094 0.004394 0.030739 0.000775 0.000372
# 5 -0.004577 0.001443 0.003622 0.000775 0.023730 -0.003981
# 6 0.006976 0.002704 -0.010595 0.000372 -0.003981 0.040054
#
#
# Mechanical properties :
#
#
# Convention : Reuss Voigt Hill
#
# Bulk Modulus (GPa) = 57.55065 63.61270 60.58168
# Shear Modulus (GPa) = 30.87733 37.58576 34.23154
#
# Velocity S-wave (km/s) = 3.44415 3.79991 3.62640
# Velocity P-wave (km/s) = 6.15837 6.60989 6.38812
#
# Compressibility (1/GPa) = 0.01737600
#
# Stress axis : x y z
#
# Youngs Moduli (GPa) = 81.63333 89.50161 62.21539
#
# Poissons Ratio (x) = 0.13565 0.44123
# Poissons Ratio (y) = 0.12373 0.15258
# Poissons Ratio (z) = 0.57894 0.21949
#
# Static dielectric constant tensor:
#      x y z
#    x 5.247160 0.038750 0.185630 
#    y 0.038750 4.748940 0.277480 
#    z 0.185630 0.277480 4.710060 
# 
# 
# High freq. dielectric constant tensor:
#      x y z
#    x 2.071870 0.000370 0.013680 
#    y 0.000370 2.045200 0.017020 
#    z 0.013680 0.017020 2.036670 
# 
# From -- ./inp_files/39604.got.cif
#   From: 2010.06.25/outbox.cif.g09.slc.cpg/sg2_20_cif.got.tgz:39604.got - 2010.06.27 13:26:56.
