data_PCOD8035481
_publ_section_title
;
Structure prediction by ZEFSAII (Michael W. Deem and Ramdas Pophale) SiO2 
 PCOD8035481
Probable space group: P -1
;
_chemical_formula_sum "Si O2"
_cell_formula_units_Z 12
_cell_length_a 8.700485
_cell_length_b 10.772908
_cell_length_c 11.302439
_cell_angle_alpha 47.389723
_cell_angle_beta 121.763569
_cell_angle_gamma 137.173898
_cell_volume 529.055694
_symmetry_space_group_name_H-M "P -1"
_symmetry_group_IT_number 2
_symmetry_cell_setting 'triclinic'
loop_
_space_group_symop_operation_xyz
x,y,z
-x,-y,-z
loop_
_atom_site_type_symbol
_atom_site_label
_atom_site_fract_x
_atom_site_fract_y
_atom_site_fract_z
Si Si1 0.915924 0.625940 0.330899
Si Si2 0.663869 0.297716 0.960688
Si Si3 0.697111 0.151437 0.833257
Si Si4 0.941327 0.044416 0.630595
Si Si5 0.765517 0.067512 0.307727
Si Si6 0.556716 0.586707 0.835150
O O1 0.663330 0.465391 0.284822
O O2 0.000000 0.500000 0.500000
O O3 0.077368 0.770541 0.195022
O O4 0.917752 0.768390 0.340261
O O5 0.404795 0.078225 0.001784
O O6 0.817260 0.278885 0.130562
O O7 0.758214 0.320287 0.852101
O O8 0.665834 0.495266 0.863814
O O9 0.505409 0.122164 0.686859
O O10 0.110534 0.008013 0.665099
O O11 0.840962 0.112425 0.445413
O O12 0.737100 0.838215 0.749420
O O13 0.500000 0.500000 0.000000
#
# Coordination Sequence:
#
# PCOD8035481 Si02
#       6
#     2   2   2   2   2   2
#     4  12  28  44  69 102 141 182 219 281 347 401
#     4   9  21  42  69  98 133 176 229 274 337 391
#     4   9  20  41  70  96 136 174 226 278 329 400
#     4  11  25  45  70  98 142 173 234 276 335 407
#     4   9  21  43  71  96 133 187 217 286 331 395
#     4  12  28  43  70 106 135 181 226 277 342 406
#
# _framework density 22.681922
#
# number of rings (size 3 to 8) (size 9 to 14) (size 15 to 20)
#    1.000    0.667    0.000    3.000    4.667    6.000 
#    0.000    5.833    0.000    0.000    0.000    0.000 
#    0.000    0.000    0.000    0.000    0.000    0.000 
#
# Total GULP energy -148810.515350 kJ/mol
# GULP energy per Si atom -12400.876279 kJ/mol
# Density = 2.263030 g / cm^3
# Si number density = 22.681922 Si / 1000 Ang^3
#
#
#
# Elastic Constant Matrix: (Units=GPa)
#
#
# Indices 1 2 3 4 5 6 
#
# 1 69.9102 5.4326 9.6855 6.2911 -0.4153 -9.7760
# 2 5.4326 67.0959 2.6478 7.0285 7.4147 -6.5632
# 3 9.6855 2.6478 77.1138 11.8207 10.3751 -7.1348
# 4 6.2911 7.0285 11.8207 25.6097 0.8092 -1.0729
# 5 -0.4153 7.4147 10.3751 0.8092 43.1389 7.5384
# 6 -9.7760 -6.5632 -7.1348 -1.0729 7.5384 29.9179
#
#
#
# Elastic Compliance Matrix: (Units=1/GPa)
#
#
# Indices 1 2 3 4 5 6 
#
# 1 0.015395 -0.000401 -0.000984 -0.003012 -0.000307 0.004677
# 2 -0.000401 0.016223 0.001112 -0.004561 -0.003756 0.004476
# 3 -0.000984 0.001112 0.015091 -0.006703 -0.004475 0.004408
# 4 -0.003012 -0.004561 -0.006703 0.043966 0.001980 -0.002505
# 5 -0.000307 -0.003756 -0.004475 0.001980 0.026359 -0.008562
# 6 0.004677 0.004476 0.004408 -0.002505 -0.008562 0.039054
#
#
# Mechanical properties :
#
#
# Convention : Reuss Voigt Hill
#
# Bulk Modulus (GPa) = 21.66225 27.73907 24.70066
# Shear Modulus (GPa) = 29.06630 32.82356 30.94493
#
# Velocity S-wave (km/s) = 3.58365 3.80824 3.69765
# Velocity P-wave (km/s) = 5.16668 5.62077 5.39850
#
# Compressibility (1/GPa) = 0.04616325
#
# Stress axis : x y z
#
# Youngs Moduli (GPa) = 64.95698 61.63956 66.26633
#
# Poissons Ratio (x) = 0.02470 0.06521
# Poissons Ratio (y) = 0.02603 -0.07369
# Poissons Ratio (z) = 0.06392 -0.06854
#
# Static dielectric constant tensor:
#      x y z
#    x 4.020500 0.018060 -0.054180 
#    y 0.018060 4.035260 0.186690 
#    z -0.054180 0.186690 4.094310 
# 
# 
# High freq. dielectric constant tensor:
#      x y z
#    x 1.898470 0.002090 -0.003060 
#    y 0.002090 1.890820 0.012190 
#    z -0.003060 0.012190 1.893380 
# 
# From -- ./inp_files/231857.got.cif
#   From: 2010.06.25/outbox.cif.g09.slc.cpg/sg2_116_cif.got.tgz:231857.got - 2010.06.27 13:26:56.
