data_PCOD8035833
_publ_section_title
;
Structure prediction by ZEFSAII (Michael W. Deem and Ramdas Pophale) SiO2 
 PCOD8035833
Probable space group: P -1
;
_chemical_formula_sum "Si O2"
_cell_formula_units_Z 14
_cell_length_a 11.600255
_cell_length_b 5.863171
_cell_length_c 11.896084
_cell_angle_alpha 112.578325
_cell_angle_beta 129.882223
_cell_angle_gamma 72.067578
_cell_volume 571.112251
_symmetry_space_group_name_H-M "P -1"
_symmetry_group_IT_number 2
_symmetry_cell_setting 'triclinic'
loop_
_space_group_symop_operation_xyz
x,y,z
-x,-y,-z
loop_
_atom_site_type_symbol
_atom_site_label
_atom_site_fract_x
_atom_site_fract_y
_atom_site_fract_z
Si Si1 0.983672 0.037240 0.320354
Si Si2 0.705316 0.215153 0.867417
Si Si3 0.245553 0.908354 0.632845
Si Si4 0.810521 0.779641 0.689504
Si Si5 0.964441 0.537904 0.112709
Si Si6 0.541932 0.541142 0.404911
Si Si7 0.513079 0.802150 0.077708
O O1 0.911803 0.814434 0.169174
O O2 0.128321 0.946493 0.467212
O O3 0.848779 0.178319 0.334461
O O4 0.045703 0.210491 0.299138
O O5 0.599516 0.379268 0.745864
O O6 0.614004 0.105363 0.892507
O O7 0.792303 0.998854 0.808977
O O8 0.828945 0.374714 0.031222
O O9 0.378746 0.703622 0.647681
O O10 0.323662 0.161505 0.758250
O O11 0.657263 0.756549 0.519892
O O12 0.869320 0.529266 0.742439
O O13 0.000000 0.500000 0.000000
O O14 0.500000 0.500000 0.500000
O O15 0.500000 0.500000 0.000000
O O16 0.500000 0.000000 0.000000
#
# Coordination Sequence:
#
# PCOD8035833 Si02
#       7
#     2   2   2   2   2   2   2
#     4  11  25  47  73 109 146 199 253 318 387 471
#     4  12  26  45  75 113 152 202 261 331 392 468
#     4  11  25  48  75 108 155 197 256 318 388 470
#     4  12  25  45  76 105 146 196 259 312 394 459
#     4  12  25  47  73 111 153 194 258 319 393 466
#     4  12  24  47  78 112 153 201 261 323 395 475
#     4  12  28  50  76 111 159 209 264 324 404 475
#
# _framework density 24.513573000000001
#
# number of rings (size 3 to 8) (size 9 to 14) (size 15 to 20)
#    0.000    0.286    2.857    6.000    2.000    1.714 
#    2.571    0.000    0.000    0.000    0.000    0.000 
#    0.000    0.000    0.000    0.000    0.000    0.000 
#
# Total GULP energy -173473.406784 kJ/mol
# GULP energy per Si atom -12390.957627 kJ/mol
# Density = 2.445778 g / cm^3
# Si number density = 24.513573 Si / 1000 Ang^3
#
#
#
# Elastic Constant Matrix: (Units=GPa)
#
#
# Indices 1 2 3 4 5 6 
#
# 1 166.5833 37.1162 38.1569 -2.1740 -13.2575 4.2999
# 2 37.1162 84.2043 25.7872 6.0531 -11.9004 1.3871
# 3 38.1569 25.7872 107.4558 16.2142 2.6838 4.6350
# 4 -2.1740 6.0531 16.2142 44.0896 8.5466 7.7725
# 5 -13.2575 -11.9004 2.6838 8.5466 47.0218 6.8207
# 6 4.2999 1.3871 4.6350 7.7725 6.8207 35.6868
#
#
#
# Elastic Compliance Matrix: (Units=1/GPa)
#
#
# Indices 1 2 3 4 5 6 
#
# 1 0.007195 -0.002380 -0.002184 0.001392 0.001453 -0.001072
# 2 -0.002380 0.014276 -0.002381 -0.001830 0.003442 -0.000218
# 3 -0.002184 -0.002381 0.011240 -0.003671 -0.001181 -0.000079
# 4 0.001392 -0.001830 -0.003671 0.025906 -0.003915 -0.004514
# 5 0.001453 0.003442 -0.001181 -0.003915 0.023888 -0.003868
# 6 -0.001072 -0.000218 -0.000079 -0.004514 -0.003868 0.029892
#
#
# Mechanical properties :
#
#
# Convention : Reuss Voigt Hill
#
# Bulk Modulus (GPa) = 53.13201 62.26268 57.69735
# Shear Modulus (GPa) = 37.71894 42.50518 40.11206
#
# Velocity S-wave (km/s) = 3.92688 4.16858 4.04953
# Velocity P-wave (km/s) = 6.50247 6.97308 6.74188
#
# Compressibility (1/GPa) = 0.01882105
#
# Stress axis : x y z
#
# Youngs Moduli (GPa) = 138.98661 70.04916 88.96806
#
# Poissons Ratio (x) = 0.16669 0.19430
# Poissons Ratio (y) = 0.33073 0.21186
# Poissons Ratio (z) = 0.30353 0.16681
#
# Static dielectric constant tensor:
#      x y z
#    x 4.999320 0.037980 0.282160 
#    y 0.037980 4.362180 -0.052460 
#    z 0.282160 -0.052460 5.306350 
# 
# 
# High freq. dielectric constant tensor:
#      x y z
#    x 2.000430 -0.001360 0.001360 
#    y -0.001360 1.954490 0.007750 
#    z 0.001360 0.007750 1.999240 
# 
# From -- ./inp_files/68951.got.cif
#   From: 2010.06.25/outbox.cif.g09.slc.cpg/sg2_35_cif.got.tgz:68951.got - 2010.06.27 13:26:56.
