data_PCOD8035896
_publ_section_title
;
Structure prediction by ZEFSAII (Michael W. Deem and Ramdas Pophale) SiO2 
 PCOD8035896
Probable space group: P -1
;
_chemical_formula_sum "Si O2"
_cell_formula_units_Z 16
_cell_length_a 8.457874
_cell_length_b 9.706286
_cell_length_c 13.523042
_cell_angle_alpha 141.424968
_cell_angle_beta 119.947130
_cell_angle_gamma 59.565259
_cell_volume 585.753141
_symmetry_space_group_name_H-M "P -1"
_symmetry_group_IT_number 2
_symmetry_cell_setting 'triclinic'
loop_
_space_group_symop_operation_xyz
x,y,z
-x,-y,-z
loop_
_atom_site_type_symbol
_atom_site_label
_atom_site_fract_x
_atom_site_fract_y
_atom_site_fract_z
Si Si1 0.878577 0.721099 0.177255
Si Si2 0.405641 0.846655 0.596167
Si Si3 0.236496 0.902072 0.369396
Si Si4 0.722598 0.781014 0.964343
Si Si5 0.678912 0.206932 0.082257
Si Si6 0.111420 0.435029 0.598367
Si Si7 0.260022 0.425860 0.348423
Si Si8 0.700132 0.339679 0.955023
O O1 0.067407 0.801973 0.308083
O O2 0.697465 0.911279 0.258768
O O3 0.880098 0.672373 0.031625
O O4 0.858656 0.489429 0.094031
O O5 0.396619 0.849887 0.474739
O O6 0.311420 0.665394 0.522427
O O7 0.624780 0.773878 0.655968
O O8 0.308233 0.786651 0.222917
O O9 0.175322 0.168938 0.484211
O O10 0.532434 0.823927 0.991998
O O11 0.691391 0.617631 0.775588
O O12 0.792549 0.999687 0.066919
O O13 0.712808 0.444157 0.269093
O O14 0.739458 0.169510 0.965008
O O15 0.000000 0.500000 0.500000
O O16 0.961531 0.547332 0.696870
O O17 0.500000 0.500000 0.000000
#
# Coordination Sequence:
#
# PCOD8035896 Si02
#       8
#     2   2   2   2   2   2   2   2
#     4  12  24  50  83 115 157 207 263 326 397 475
#     4  11  25  47  80 114 157 208 261 312 397 483
#     4  12  28  51  81 116 161 210 256 327 405 471
#     4  11  25  49  79 108 155 213 260 314 402 466
#     4  11  26  48  75 110 157 204 258 328 385 470
#     4  12  29  49  76 120 162 199 267 331 398 462
#     4  11  27  46  80 116 154 209 265 322 389 480
#     4  12  28  48  75 118 154 201 266 326 389 463
#
# _framework density 27.315259000000001
#
# number of rings (size 3 to 8) (size 9 to 14) (size 15 to 20)
#    0.000    0.500    2.500    4.500    8.750    0.500 
#    0.000    1.875    0.000    0.000    0.000    0.000 
#    0.000    0.000    0.000    0.000    0.000    0.000 
#
# Total GULP energy -198377.272498 kJ/mol
# GULP energy per Si atom -12398.579531 kJ/mol
# Density = 2.725309 g / cm^3
# Si number density = 27.315259 Si / 1000 Ang^3
#
#
#
# Elastic Constant Matrix: (Units=GPa)
#
#
# Indices 1 2 3 4 5 6 
#
# 1 92.7366 53.3835 48.0045 12.6486 -12.3935 20.0624
# 2 53.3835 168.7562 60.3760 -11.4486 -4.2961 20.0146
# 3 48.0045 60.3760 139.1347 -7.1780 -4.8121 13.0293
# 4 12.6486 -11.4486 -7.1780 51.7088 12.1523 -0.1457
# 5 -12.3935 -4.2961 -4.8121 12.1523 40.6827 4.3494
# 6 20.0624 20.0146 13.0293 -0.1457 4.3494 45.7248
#
#
#
# Elastic Compliance Matrix: (Units=1/GPa)
#
#
# Indices 1 2 3 4 5 6 
#
# 1 0.018740 -0.004017 -0.004300 -0.007916 0.007783 -0.006005
# 2 -0.004017 0.008191 -0.001962 0.002829 -0.001315 -0.001130
# 3 -0.004300 -0.001962 0.009588 0.002196 -0.001052 0.000120
# 4 -0.007916 0.002829 0.002196 0.024429 -0.009426 0.002584
# 5 0.007783 -0.001315 -0.001052 -0.009426 0.030084 -0.005431
# 6 -0.006005 -0.001130 0.000120 0.002584 -0.005431 0.025490
#
#
# Mechanical properties :
#
#
# Convention : Reuss Voigt Hill
#
# Bulk Modulus (GPa) = 62.65014 80.46170 71.55592
# Shear Modulus (GPa) = 35.11259 43.54751 39.33005
#
# Velocity S-wave (km/s) = 3.58922 3.99714 3.79866
# Velocity P-wave (km/s) = 6.33738 7.12906 6.74485
#
# Compressibility (1/GPa) = 0.01596166
#
# Stress axis : x y z
#
# Youngs Moduli (GPa) = 53.36243 122.08887 104.29863
#
# Poissons Ratio (x) = 0.49037 0.44844
# Poissons Ratio (y) = 0.21433 0.20466
# Poissons Ratio (z) = 0.22944 0.23957
#
# Static dielectric constant tensor:
#      x y z
#    x 5.235230 0.131980 -0.049570 
#    y 0.131980 5.473810 -0.147410 
#    z -0.049570 -0.147410 5.010700 
# 
# 
# High freq. dielectric constant tensor:
#      x y z
#    x 2.098660 0.007920 -0.001130 
#    y 0.007920 2.118240 -0.002740 
#    z -0.001130 -0.002740 2.109320 
# 
# From -- ./inp_files/380695.got.cif
#   From: 2010.06.25/outbox.cif.g09.slc.cpg/sg2_191_cif.got.tgz:380695.got - 2010.06.27 13:26:56.
