data_PCOD8035511
_publ_section_title
;
Structure prediction by ZEFSAII (Michael W. Deem and Ramdas Pophale) SiO2 
 PCOD8035511
Probable space group: P -1
;
_chemical_formula_sum "Si O2"
_cell_formula_units_Z 12
_cell_length_a 10.651273
_cell_length_b 6.024492
_cell_length_c 13.913737
_cell_angle_alpha 90.597991
_cell_angle_beta 36.299952
_cell_angle_gamma 79.590367
_cell_volume 500.844224
_symmetry_space_group_name_H-M "P -1"
_symmetry_group_IT_number 2
_symmetry_cell_setting 'triclinic'
loop_
_space_group_symop_operation_xyz
x,y,z
-x,-y,-z
loop_
_atom_site_type_symbol
_atom_site_label
_atom_site_fract_x
_atom_site_fract_y
_atom_site_fract_z
Si Si1 0.930199 0.946047 0.439437
Si Si2 0.180265 0.199399 0.799400
Si Si3 0.087732 0.440509 0.669266
Si Si4 0.446939 0.620650 0.370359
Si Si5 0.713178 0.184669 0.122089
Si Si6 0.738204 0.921306 0.905340
O O1 0.677355 0.120650 0.589924
O O2 0.098486 0.984763 0.257306
O O3 0.930519 0.678674 0.423503
O O4 0.000000 0.000000 0.500000
O O5 0.147151 0.217214 0.704514
O O6 0.312803 0.384399 0.736835
O O7 0.313629 0.946467 0.761798
O O8 0.933702 0.265017 0.997427
O O9 0.284599 0.557330 0.547932
O O10 0.850317 0.637913 0.842860
O O11 0.502585 0.423436 0.250676
O O12 0.713589 0.025846 0.028549
O O13 0.500000 0.000000 0.000000
#
# Coordination Sequence:
#
# PCOD8035511 Si02
#       6
#     2   2   2   2   2   2
#     4  11  27  48  71 101 141 187 236 286 345 416
#     4  11  25  45  72 104 147 183 230 285 354 416
#     4  11  26  48  70 106 140 184 234 287 348 419
#     4  11  26  43  74 103 143 185 231 286 351 411
#     4  11  26  44  72 109 141 182 232 290 348 416
#     4  11  28  46  73 103 139 185 235 288 350 410
#
# _framework density 23.959544000000001
#
# number of rings (size 3 to 8) (size 9 to 14) (size 15 to 20)
#    0.000    1.000    1.667    2.000   14.000    4.667 
#    0.000    0.000    0.000    0.000    0.000    0.000 
#    0.000    0.000    0.000    0.000    0.000    0.000 
#
# Total GULP energy -148664.337947 kJ/mol
# GULP energy per Si atom -12388.694829 kJ/mol
# Density = 2.390501 g / cm^3
# Si number density = 23.959544 Si / 1000 Ang^3
#
#
#
# Elastic Constant Matrix: (Units=GPa)
#
#
# Indices 1 2 3 4 5 6 
#
# 1 135.5141 63.6777 59.2917 9.2229 -6.6779 7.5681
# 2 63.6777 115.1139 68.2496 20.6299 -2.6641 10.2873
# 3 59.2917 68.2496 102.4972 25.0390 -11.1335 8.3661
# 4 9.2229 20.6299 25.0390 58.1804 5.2079 6.1878
# 5 -6.6779 -2.6641 -11.1335 5.2079 33.3616 -2.5189
# 6 7.5681 10.2873 8.3661 6.1878 -2.5189 25.3603
#
#
#
# Elastic Compliance Matrix: (Units=1/GPa)
#
#
# Indices 1 2 3 4 5 6 
#
# 1 0.010889 -0.003833 -0.004005 0.001406 0.000265 -0.000690
# 2 -0.003833 0.016077 -0.008264 -0.001054 -0.002274 -0.002620
# 3 -0.004005 -0.008264 0.019526 -0.005366 0.005893 0.000000
# 4 0.001406 -0.001054 -0.005366 0.020499 -0.005075 -0.003727
# 5 0.000265 -0.002274 0.005893 -0.005075 0.032862 0.003402
# 6 -0.000690 -0.002620 0.000000 -0.003727 0.003402 0.041948
#
#
# Mechanical properties :
#
#
# Convention : Reuss Voigt Hill
#
# Bulk Modulus (GPa) = 69.98223 81.72924 75.85573
# Shear Modulus (GPa) = 27.96942 34.17422 31.07182
#
# Velocity S-wave (km/s) = 3.42037 3.78078 3.60508
# Velocity P-wave (km/s) = 6.69854 7.29688 7.00410
#
# Compressibility (1/GPa) = 0.01428934
#
# Stress axis : x y z
#
# Youngs Moduli (GPa) = 91.83925 62.19963 51.21270
#
# Poissons Ratio (x) = 0.23841 0.20510
# Poissons Ratio (y) = 0.35203 0.42320
# Poissons Ratio (z) = 0.36780 0.51399
#
# Static dielectric constant tensor:
#      x y z
#    x 4.168160 -0.099220 -0.317880 
#    y -0.099220 4.395460 -0.056290 
#    z -0.317880 -0.056290 4.186710 
# 
# 
# High freq. dielectric constant tensor:
#      x y z
#    x 1.938030 0.011740 -0.010510 
#    y 0.011740 1.953820 -0.002130 
#    z -0.010510 -0.002130 1.962190 
# 
# From -- ./inp_files/21483.got.cif
#   From: 2010.06.25/outbox.cif.g09.slc.cpg/sg2_11_cif.got.tgz:21483.got - 2010.06.27 13:26:56.
