data_PCOD8035938
_publ_section_title
;
Structure prediction by ZEFSAII (Michael W. Deem and Ramdas Pophale) SiO2 
 PCOD8035938
Probable space group: P -1
;
_chemical_formula_sum "Si O2"
_cell_formula_units_Z 16
_cell_length_a 13.350194
_cell_length_b 5.962952
_cell_length_c 14.458703
_cell_angle_alpha 97.653421
_cell_angle_beta 134.763806
_cell_angle_gamma 104.527452
_cell_volume 706.171541
_symmetry_space_group_name_H-M "P -1"
_symmetry_group_IT_number 2
_symmetry_cell_setting 'triclinic'
loop_
_space_group_symop_operation_xyz
x,y,z
-x,-y,-z
loop_
_atom_site_type_symbol
_atom_site_label
_atom_site_fract_x
_atom_site_fract_y
_atom_site_fract_z
Si Si1 0.410960 0.130209 0.842579
Si Si2 0.644277 0.030896 0.874484
Si Si3 0.524810 0.842266 0.588853
Si Si4 0.068080 0.793517 0.515374
Si Si5 0.996766 0.453019 0.102371
Si Si6 0.992159 0.174862 0.726151
Si Si7 0.347728 0.290118 0.992680
Si Si8 0.226902 0.305855 0.339077
O O1 0.532105 0.032881 0.883725
O O2 0.374045 0.102401 0.926886
O O3 0.251508 0.959794 0.671811
O O4 0.491669 0.433419 0.887132
O O5 0.565663 0.994854 0.720652
O O6 0.812243 0.290711 0.003701
O O7 0.675217 0.801317 0.919739
O O8 0.358782 0.578198 0.482661
O O9 0.677496 0.808508 0.662013
O O10 0.500000 0.000000 0.500000
O O11 0.055097 0.739926 0.394743
O O12 0.000000 0.500000 0.500000
O O13 0.000000 0.000000 0.500000
O O14 0.066309 0.714914 0.220870
O O15 0.106136 0.321086 0.186867
O O16 0.000000 0.500000 0.000000
O O17 0.183762 0.284332 0.853914
O O18 0.882928 0.865151 0.655400
#
# Coordination Sequence:
#
# PCOD8035938 Si02
#       8
#     2   2   2   2   2   2   2   2
#     4  11  27  47  74 109 151 193 250 318 379 464
#     4  12  26  43  76 103 146 195 250 311 389 451
#     4  11  27  48  70 107 145 197 249 315 382 460
#     4  12  31  51  81 115 158 209 262 319 396 471
#     4  12  27  46  74 110 148 197 256 320 386 463
#     4  12  26  47  75 110 151 201 253 318 386 466
#     4  11  25  48  74 107 150 196 252 308 390 456
#     4  11  26  47  74 100 155 191 252 310 389 459
#
# _framework density 22.657385999999999
#
# number of rings (size 3 to 8) (size 9 to 14) (size 15 to 20)
#    0.000    0.500    3.750    2.625   12.250    2.000 
#    0.000    0.000    0.000    0.000    0.000    0.000 
#    0.000    0.000    0.000    0.000    0.000    0.000 
#
# Total GULP energy -198260.342099 kJ/mol
# GULP energy per Si atom -12391.271381 kJ/mol
# Density = 2.260582 g / cm^3
# Si number density = 22.657386 Si / 1000 Ang^3
#
#
#
# Elastic Constant Matrix: (Units=GPa)
#
#
# Indices 1 2 3 4 5 6 
#
# 1 97.6670 45.5562 63.7264 -1.4712 5.5975 2.0376
# 2 45.5562 130.2054 73.4941 -6.9257 -0.5461 18.2050
# 3 63.7264 73.4941 165.7317 -5.8887 2.4929 15.7544
# 4 -1.4712 -6.9257 -5.8887 40.9075 9.8710 -3.1122
# 5 5.5975 -0.5461 2.4929 9.8710 48.5165 2.6900
# 6 2.0376 18.2050 15.7544 -3.1122 2.6900 38.1756
#
#
#
# Elastic Compliance Matrix: (Units=1/GPa)
#
#
# Indices 1 2 3 4 5 6 
#
# 1 0.014603 -0.002915 -0.004546 -0.000034 -0.001621 0.002598
# 2 -0.002915 0.011240 -0.003488 0.000848 0.000677 -0.003744
# 3 -0.004546 -0.003488 0.009534 0.000464 0.000011 -0.001992
# 4 -0.000034 0.000848 0.000464 0.026110 -0.005429 0.001917
# 5 -0.001621 0.000677 0.000011 -0.005429 0.022034 -0.002236
# 6 0.002598 -0.003744 -0.001992 0.001917 -0.002236 0.028977
#
#
# Mechanical properties :
#
#
# Convention : Reuss Voigt Hill
#
# Bulk Modulus (GPa) = 74.18749 84.35084 79.26917
# Shear Modulus (GPa) = 35.99953 39.57509 37.78731
#
# Velocity S-wave (km/s) = 3.99038 4.18386 4.08826
# Velocity P-wave (km/s) = 7.35154 7.78776 7.57279
#
# Compressibility (1/GPa) = 0.01347936
#
# Stress axis : x y z
#
# Youngs Moduli (GPa) = 68.47828 88.96678 104.88507
#
# Poissons Ratio (x) = 0.25935 0.47683
# Poissons Ratio (y) = 0.19962 0.36581
# Poissons Ratio (z) = 0.31132 0.31029
#
# Static dielectric constant tensor:
#      x y z
#    x 4.136580 -0.046560 0.114550 
#    y -0.046560 4.586680 -0.086080 
#    z 0.114550 -0.086080 4.245800 
# 
# 
# High freq. dielectric constant tensor:
#      x y z
#    x 1.900680 0.007580 0.009280 
#    y 0.007580 1.900230 0.000810 
#    z 0.009280 0.000810 1.910680 
# 
# From -- ./inp_files/101776.got.cif
#   From: 2010.06.25/outbox.cif.g09.slc.cpg/sg2_51_cif.got.tgz:101776.got - 2010.06.27 13:26:56.
