data_PCOD8035532
_publ_section_title
;
Structure prediction by ZEFSAII (Michael W. Deem and Ramdas Pophale) SiO2 
 PCOD8035532
Probable space group: P -1
;
_chemical_formula_sum "Si O2"
_cell_formula_units_Z 14
_cell_length_a 8.157156
_cell_length_b 12.073930
_cell_length_c 8.633193
_cell_angle_alpha 43.122887
_cell_angle_beta 100.529131
_cell_angle_gamma 101.551400
_cell_volume 568.595605
_symmetry_space_group_name_H-M "P -1"
_symmetry_group_IT_number 2
_symmetry_cell_setting 'triclinic'
loop_
_space_group_symop_operation_xyz
x,y,z
-x,-y,-z
loop_
_atom_site_type_symbol
_atom_site_label
_atom_site_fract_x
_atom_site_fract_y
_atom_site_fract_z
Si Si1 0.779293 0.790880 0.160820
Si Si2 0.046721 0.818323 0.684264
Si Si3 0.540581 0.597585 0.094482
Si Si4 0.898115 0.313042 0.841059
Si Si5 0.792584 0.619929 0.639983
Si Si6 0.359352 0.894916 0.181084
Si Si7 0.362273 0.720429 0.666757
O O1 0.614389 0.698942 0.148302
O O2 0.755765 0.763166 0.369269
O O3 0.944089 0.724219 0.193072
O O4 0.783114 0.983400 0.930405
O O5 0.193345 0.794519 0.611858
O O6 0.885919 0.697699 0.728005
O O7 0.108881 0.777925 0.904665
O O8 0.000000 0.000000 0.500000
O O9 0.371381 0.488477 0.221847
O O10 0.671383 0.472427 0.186047
O O11 0.501188 0.727550 0.820927
O O12 0.907084 0.505496 0.678561
O O13 0.727401 0.256532 0.776832
O O14 0.433940 0.825710 0.423202
O O15 0.500000 0.000000 0.000000
#
# Coordination Sequence:
#
# PCOD8035532 Si02
#       7
#     2   2   2   2   2   2   2
#     4  12  25  44  72 103 143 186 233 290 356 413
#     4  12  26  46  72 105 144 184 234 291 353 417
#     4  11  25  45  73 106 139 185 241 287 345 422
#     4  12  25  45  70 103 141 184 242 285 350 421
#     4  12  24  46  73 103 140 187 238 289 345 417
#     4  12  26  47  70 104 141 184 234 296 356 416
#     4  11  25  47  71  99 145 181 237 284 357 413
#
# _framework density 24.622070999999998
#
# number of rings (size 3 to 8) (size 9 to 14) (size 15 to 20)
#    0.000    0.286    1.429    7.714    4.000    0.571 
#    0.000    0.000    0.000    0.000    0.000    0.000 
#    0.000    0.000    0.000    0.000    0.000    0.000 
#
# Total GULP energy -173637.168366 kJ/mol
# GULP energy per Si atom -12402.654883 kJ/mol
# Density = 2.456603 g / cm^3
# Si number density = 24.622071 Si / 1000 Ang^3
#
#
#
# Elastic Constant Matrix: (Units=GPa)
#
#
# Indices 1 2 3 4 5 6 
#
# 1 96.7081 42.9291 37.3669 5.9451 -3.5743 -0.0525
# 2 42.9291 99.0074 27.5384 -8.2387 3.4697 -2.7774
# 3 37.3669 27.5384 158.9095 17.8176 4.4152 -8.0565
# 4 5.9451 -8.2387 17.8176 50.1222 -12.3989 3.6912
# 5 -3.5743 3.4697 4.4152 -12.3989 36.3181 -6.3828
# 6 -0.0525 -2.7774 -8.0565 3.6912 -6.3828 34.2200
#
#
#
# Elastic Compliance Matrix: (Units=1/GPa)
#
#
# Indices 1 2 3 4 5 6 
#
# 1 0.013797 -0.005551 -0.002204 -0.001329 0.001614 -0.000504
# 2 -0.005551 0.013155 -0.001294 0.003128 -0.000522 0.000320
# 3 -0.002204 -0.001294 0.007529 -0.003198 -0.001806 0.001672
# 4 -0.001329 0.003128 -0.003198 0.023809 0.007804 -0.001614
# 5 0.001614 -0.000522 -0.001806 0.007804 0.031427 0.004555
# 6 -0.000504 0.000320 0.001672 -0.001614 0.004555 0.030665
#
#
# Mechanical properties :
#
#
# Convention : Reuss Voigt Hill
#
# Bulk Modulus (GPa) = 61.03977 63.36598 62.20288
# Shear Modulus (GPa) = 34.73649 40.58476 37.66062
#
# Velocity S-wave (km/s) = 3.76012 4.06434 3.91519
# Velocity P-wave (km/s) = 6.61028 6.91494 6.76433
#
# Compressibility (1/GPa) = 0.01638276
#
# Stress axis : x y z
#
# Youngs Moduli (GPa) = 72.48002 76.01917 132.82097
#
# Poissons Ratio (x) = 0.42195 0.29270
# Poissons Ratio (y) = 0.40231 0.17194
# Poissons Ratio (z) = 0.15973 0.09841
#
# Static dielectric constant tensor:
#      x y z
#    x 4.651590 -0.422080 0.672550 
#    y -0.422080 4.901670 -0.161700 
#    z 0.672550 -0.161700 5.075780 
# 
# 
# High freq. dielectric constant tensor:
#      x y z
#    x 1.978410 -0.016510 0.014590 
#    y -0.016510 1.988190 0.007330 
#    z 0.014590 0.007330 1.993060 
# 
# From -- ./inp_files/183834.got.cif
#   From: 2010.06.25/outbox.cif.g09.slc.cpg/sg2_92_cif.got.tgz:183834.got - 2010.06.27 13:26:56.
