data_PCOD8035366
_publ_section_title
;
Structure prediction by ZEFSAII (Michael W. Deem and Ramdas Pophale) SiO2 
 PCOD8035366
Probable space group: P -1
;
_chemical_formula_sum "Si O2"
_cell_formula_units_Z 16
_cell_length_a 12.949552
_cell_length_b 21.753041
_cell_length_c 8.660876
_cell_angle_alpha 40.813912
_cell_angle_beta 51.449596
_cell_angle_gamma 27.971167
_cell_volume 739.727741
_symmetry_space_group_name_H-M "P -1"
_symmetry_group_IT_number 2
_symmetry_cell_setting 'triclinic'
loop_
_space_group_symop_operation_xyz
x,y,z
-x,-y,-z
loop_
_atom_site_type_symbol
_atom_site_label
_atom_site_fract_x
_atom_site_fract_y
_atom_site_fract_z
Si Si1 0.840968 0.188528 0.633338
Si Si2 0.609896 0.314493 0.298271
Si Si3 0.286697 0.897766 0.608517
Si Si4 0.841277 0.351488 0.863868
Si Si5 0.293839 0.100631 0.110047
Si Si6 0.668286 0.828867 0.743535
Si Si7 0.508147 0.714678 0.040194
Si Si8 0.891531 0.352679 0.455323
O O1 0.673373 0.309620 0.420470
O O2 0.729909 0.175218 0.873080
O O3 0.902447 0.248808 0.550068
O O4 0.053768 0.017302 0.684727
O O5 0.702009 0.158871 0.461515
O O6 0.340423 0.467938 0.252146
O O7 0.724108 0.318151 0.061067
O O8 0.332433 0.980258 0.386591
O O9 0.479624 0.741336 0.832007
O O10 0.900269 0.327471 0.675974
O O11 0.063575 0.235907 0.975305
O O12 0.289260 0.179883 0.098259
O O13 0.500000 0.000000 0.000000
O O14 0.898367 0.703586 0.674856
O O15 0.500000 0.000000 0.500000
O O16 0.581010 0.772907 0.927893
O O17 0.673029 0.535185 0.265099
#
# Coordination Sequence:
#
# PCOD8035366 Si02
#       8
#     2   2   2   2   2   2   2   2
#     4  12  24  48  71 107 141 184 239 293 352 416
#     4  11  25  44  70 106 145 179 237 295 358 416
#     4  12  26  44  68 105 138 185 233 295 350 419
#     4  11  25  45  72 103 141 190 228 296 356 418
#     4  12  27  46  72  99 142 190 235 287 359 422
#     4  12  25  50  70 103 143 185 237 290 350 422
#     4  12  27  43  73 105 139 186 236 290 353 423
#     4  12  25  47  73 105 142 185 237 289 356 417
#
# _framework density 21.629579
#
# number of rings (size 3 to 8) (size 9 to 14) (size 15 to 20)
#    0.000    0.250    5.000    3.000    7.000    1.000 
#    0.000    1.250    0.000    0.000    0.000    0.000 
#    0.000    0.000    0.000    0.000    0.000    0.000 
#
# Total GULP energy -198453.749852 kJ/mol
# GULP energy per Si atom -12403.359366 kJ/mol
# Density = 2.158035 g / cm^3
# Si number density = 21.629579 Si / 1000 Ang^3
#
#
#
# Elastic Constant Matrix: (Units=GPa)
#
#
# Indices 1 2 3 4 5 6 
#
# 1 102.3834 35.8713 37.5629 0.3840 -0.1127 10.6613
# 2 35.8713 107.1662 20.0870 16.0717 0.5409 1.1005
# 3 37.5629 20.0870 83.8026 11.1693 14.5397 0.0101
# 4 0.3840 16.0717 11.1693 38.8569 -2.9991 -4.4865
# 5 -0.1127 0.5409 14.5397 -2.9991 47.5031 -0.6459
# 6 10.6613 1.1005 0.0101 -4.4865 -0.6459 33.7715
#
#
#
# Elastic Compliance Matrix: (Units=1/GPa)
#
#
# Indices 1 2 3 4 5 6 
#
# 1 0.013690 -0.003874 -0.005945 0.002897 0.002028 -0.003770
# 2 -0.003874 0.011373 -0.000324 -0.004570 -0.000325 0.000239
# 3 -0.005945 -0.000324 0.016220 -0.004742 -0.005259 0.001152
# 4 0.002897 -0.004570 -0.004742 0.029598 0.003423 0.003233
# 5 0.002028 -0.000325 -0.005259 0.003423 0.022889 0.000265
# 6 -0.003770 0.000239 0.001152 0.003233 0.000265 0.031227
#
#
# Mechanical properties :
#
#
# Convention : Reuss Voigt Hill
#
# Bulk Modulus (GPa) = 47.62822 53.37717 50.50269
# Shear Modulus (GPa) = 32.83387 37.34837 35.09112
#
# Velocity S-wave (km/s) = 3.90039 4.15990 4.03223
# Velocity P-wave (km/s) = 6.50783 6.91408 6.71402
#
# Compressibility (1/GPa) = 0.02099596
#
# Stress axis : x y z
#
# Youngs Moduli (GPa) = 73.04829 87.92486 61.65395
#
# Poissons Ratio (x) = 0.34062 0.36654
# Poissons Ratio (y) = 0.28298 0.01999
# Poissons Ratio (z) = 0.43428 0.02851
#
# Static dielectric constant tensor:
#      x y z
#    x 3.922630 -0.101450 0.119250 
#    y -0.101450 4.123080 0.070580 
#    z 0.119250 0.070580 3.993070 
# 
# 
# High freq. dielectric constant tensor:
#      x y z
#    x 1.856620 -0.002110 0.010370 
#    y -0.002110 1.864430 0.004410 
#    z 0.010370 0.004410 1.857050 
# 
# From -- ./inp_files/190797.got.cif
#   From: 2010.06.25/outbox.cif.g09.slc.cpg/sg2_96_cif.got.tgz:190797.got - 2010.06.27 13:26:56.
