data_PCOD8035437
_publ_section_title
;
Structure prediction by ZEFSAII (Michael W. Deem and Ramdas Pophale) SiO2 
 PCOD8035437
Probable space group: P -1
;
_chemical_formula_sum "Si O2"
_cell_formula_units_Z 14
_cell_length_a 8.245310
_cell_length_b 21.110424
_cell_length_c 6.543779
_cell_angle_alpha 115.157987
_cell_angle_beta 97.647225
_cell_angle_gamma 39.361603
_cell_volume 614.725714
_symmetry_space_group_name_H-M "P -1"
_symmetry_group_IT_number 2
_symmetry_cell_setting 'triclinic'
loop_
_space_group_symop_operation_xyz
x,y,z
-x,-y,-z
loop_
_atom_site_type_symbol
_atom_site_label
_atom_site_fract_x
_atom_site_fract_y
_atom_site_fract_z
Si Si1 0.814281 0.499628 0.736731
Si Si2 0.600228 0.770693 0.946068
Si Si3 0.706922 0.289737 0.794981
Si Si4 0.925018 0.715768 0.295394
Si Si5 0.478346 0.086593 0.182056
Si Si6 0.959435 0.074621 0.753932
Si Si7 0.682000 0.609441 0.471111
O O1 0.716691 0.532166 0.525923
O O2 0.906699 0.390892 0.669081
O O3 0.064831 0.470396 0.756085
O O4 0.558205 0.612786 0.977466
O O5 0.758688 0.723298 0.122134
O O6 0.287556 0.859488 0.050999
O O7 0.634508 0.831714 0.916579
O O8 0.714673 0.669642 0.688170
O O9 0.912874 0.163228 0.748830
O O10 0.604339 0.299472 0.567817
O O11 0.862632 0.309756 0.829567
O O12 0.721433 0.835492 0.551070
O O13 0.776000 0.011871 0.182146
O O14 0.500000 0.000000 0.000000
O O15 0.000000 0.000000 0.500000
#
# Coordination Sequence:
#
# PCOD8035437 Si02
#       7
#     2   2   2   2   2   2   2
#     4  11  25  48  70 104 139 178 230 284 343 406
#     4  12  25  48  72 102 137 183 231 282 340 403
#     4  12  27  45  71 103 141 181 226 284 345 402
#     4  12  28  46  69 103 144 180 222 285 350 404
#     4  12  28  46  71 102 140 182 229 282 341 410
#     4  12  25  47  72 101 139 181 233 282 336 405
#     4  11  25  44  77 102 133 181 234 282 335 410
#
# _framework density 22.774384999999999
#
# number of rings (size 3 to 8) (size 9 to 14) (size 15 to 20)
#    0.000    0.286    4.286    3.857    8.000    2.857 
#    0.000    0.000    0.000    0.000    0.000    0.000 
#    0.000    0.000    0.000    0.000    0.000    0.000 
#
# Total GULP energy -173644.836503 kJ/mol
# GULP energy per Si atom -12403.202607 kJ/mol
# Density = 2.272255 g / cm^3
# Si number density = 22.774385 Si / 1000 Ang^3
#
#
#
# Elastic Constant Matrix: (Units=GPa)
#
#
# Indices 1 2 3 4 5 6 
#
# 1 94.8445 27.4598 42.1499 3.0963 -8.9641 10.8381
# 2 27.4598 106.3766 48.1883 5.1919 -5.1012 16.4215
# 3 42.1499 48.1883 97.4326 4.2760 1.2219 7.8476
# 4 3.0963 5.1919 4.2760 32.6191 3.1633 -0.5363
# 5 -8.9641 -5.1012 1.2219 3.1633 39.8212 -2.9573
# 6 10.8381 16.4215 7.8476 -0.5363 -2.9573 35.9681
#
#
#
# Elastic Compliance Matrix: (Units=1/GPa)
#
#
# Indices 1 2 3 4 5 6 
#
# 1 0.013731 -0.000479 -0.005505 -0.000845 0.003082 -0.002477
# 2 -0.000479 0.012984 -0.005813 -0.001479 0.001524 -0.004412
# 3 -0.005505 -0.005813 0.015506 -0.000342 -0.002378 0.000729
# 4 -0.000845 -0.001479 -0.000342 0.031306 -0.002764 0.001244
# 5 0.003082 0.001524 -0.002378 -0.002764 0.026370 0.001022
# 6 -0.002477 -0.004412 0.000729 0.001244 0.001022 0.030507
#
#
# Mechanical properties :
#
#
# Convention : Reuss Voigt Hill
#
# Bulk Modulus (GPa) = 53.68829 59.36107 56.52468
# Shear Modulus (GPa) = 31.20980 33.73874 32.47427
#
# Velocity S-wave (km/s) = 3.70589 3.85312 3.78022
# Velocity P-wave (km/s) = 6.47585 6.77619 6.62772
#
# Compressibility (1/GPa) = 0.01862603
#
# Stress axis : x y z
#
# Youngs Moduli (GPa) = 72.82965 77.01823 64.49053
#
# Poissons Ratio (x) = 0.03692 0.35502
# Poissons Ratio (y) = 0.03491 0.37489
# Poissons Ratio (z) = 0.40093 0.44771
#
# Static dielectric constant tensor:
#      x y z
#    x 3.856730 0.097550 -0.080940 
#    y 0.097550 4.384630 -0.157210 
#    z -0.080940 -0.157210 3.816250 
# 
# 
# High freq. dielectric constant tensor:
#      x y z
#    x 1.894790 0.001790 -0.014170 
#    y 0.001790 1.921000 -0.000130 
#    z -0.014170 -0.000130 1.905500 
# 
# From -- ./inp_files/38711.got.cif
#   From: 2010.06.25/outbox.cif.g09.slc.cpg/sg2_20_cif.got.tgz:38711.got - 2010.06.27 13:26:56.
