data_PCOD8035282
_publ_section_title
;
Structure prediction by ZEFSAII (Michael W. Deem and Ramdas Pophale) SiO2 
 PCOD8035282
Probable space group: P -1
;
_chemical_formula_sum "Si O2"
_cell_formula_units_Z 16
_cell_length_a 11.363569
_cell_length_b 14.172255
_cell_length_c 12.712461
_cell_angle_alpha 51.264791
_cell_angle_beta 117.621148
_cell_angle_gamma 151.270378
_cell_volume 747.619538
_symmetry_space_group_name_H-M "P -1"
_symmetry_group_IT_number 2
_symmetry_cell_setting 'triclinic'
loop_
_space_group_symop_operation_xyz
x,y,z
-x,-y,-z
loop_
_atom_site_type_symbol
_atom_site_label
_atom_site_fract_x
_atom_site_fract_y
_atom_site_fract_z
Si Si1 0.104422 0.487546 0.132722
Si Si2 0.422708 0.817531 0.307672
Si Si3 0.341788 0.292590 0.210846
Si Si4 0.891411 0.328258 0.377508
Si Si5 0.089451 0.873329 0.819149
Si Si6 0.712662 0.797228 0.990069
Si Si7 0.489262 0.157538 0.437177
Si Si8 0.630279 0.963988 0.977198
O O1 0.911426 0.335808 0.254710
O O2 0.105309 0.360935 0.161386
O O3 0.384528 0.746819 0.099960
O O4 0.000000 0.500000 0.000000
O O5 0.466920 0.868754 0.413130
O O6 0.171258 0.544469 0.387412
O O7 0.649380 0.915433 0.282563
O O8 0.387681 0.919467 0.165044
O O9 0.540721 0.554049 0.129960
O O10 0.425459 0.249720 0.353006
O O11 0.055908 0.111579 0.245404
O O12 0.336262 0.233625 0.132792
O O13 0.735300 0.327239 0.347804
O O14 0.750283 0.102303 0.525740
O O15 0.135186 0.860531 0.967110
O O16 0.633841 0.864909 0.958223
O O17 0.000000 0.000000 0.000000
#
# Coordination Sequence:
#
# PCOD8035282 Si02
#       8
#     2   2   2   2   2   2   2   2
#     4  12  22  39  68  99 134 172 217 284 338 384
#     4  12  25  43  70 103 132 176 225 278 337 394
#     4  11  27  44  67  98 137 180 223 269 332 411
#     4  11  25  44  66  98 132 178 228 270 336 391
#     4  12  23  42  64 102 134 169 224 275 337 394
#     4  11  25  43  67 100 134 178 221 273 338 396
#     4  11  27  47  65  96 140 181 222 272 328 407
#     4  12  24  41  71 103 136 168 224 289 335 391
#
# _framework density 21.401260000000001
#
# number of rings (size 3 to 8) (size 9 to 14) (size 15 to 20)
#    0.000    0.500    6.250    1.500    7.000    1.500 
#    0.000    0.625    0.000    0.000    0.000    0.000 
#    0.000    0.000    0.000    0.000    0.000    0.000 
#
# Total GULP energy -198377.061149 kJ/mol
# GULP energy per Si atom -12398.566322 kJ/mol
# Density = 2.135255 g / cm^3
# Si number density = 21.401260 Si / 1000 Ang^3
#
#
#
# Elastic Constant Matrix: (Units=GPa)
#
#
# Indices 1 2 3 4 5 6 
#
# 1 145.1364 32.7998 51.9299 -1.3449 -1.8984 7.7510
# 2 32.7998 114.2171 32.7652 -10.4633 -1.3564 5.9977
# 3 51.9299 32.7652 78.6277 -0.1517 0.5144 2.9683
# 4 -1.3449 -10.4633 -0.1517 29.3528 1.5702 -7.1907
# 5 -1.8984 -1.3564 0.5144 1.5702 29.2196 4.5335
# 6 7.7510 5.9977 2.9683 -7.1907 4.5335 33.6726
#
#
#
# Elastic Compliance Matrix: (Units=1/GPa)
#
#
# Indices 1 2 3 4 5 6 
#
# 1 0.009221 -0.000972 -0.005629 -0.000411 0.000934 -0.001667
# 2 -0.000972 0.010448 -0.003684 0.003488 0.000396 -0.000621
# 3 -0.005629 -0.003684 0.017967 -0.001391 -0.000806 0.000180
# 4 -0.000411 0.003488 -0.001391 0.037411 -0.003092 0.008002
# 5 0.000934 0.000396 -0.000806 -0.003092 0.035357 -0.005635
# 6 -0.001667 -0.000621 0.000180 0.008002 -0.005635 0.032644
#
#
# Mechanical properties :
#
#
# Convention : Reuss Voigt Hill
#
# Bulk Modulus (GPa) = 58.59822 63.66344 61.13083
# Shear Modulus (GPa) = 29.53204 33.14810 31.34007
#
# Velocity S-wave (km/s) = 3.71876 3.93986 3.83090
# Velocity P-wave (km/s) = 6.77341 7.10695 6.94218
#
# Compressibility (1/GPa) = 0.01706536
#
# Stress axis : x y z
#
# Youngs Moduli (GPa) = 108.44454 95.71087 55.65797
#
# Poissons Ratio (x) = 0.09307 0.31330
# Poissons Ratio (y) = 0.10545 0.20505
# Poissons Ratio (z) = 0.61044 0.35261
#
# Static dielectric constant tensor:
#      x y z
#    x 3.879860 -0.086920 -0.136260 
#    y -0.086920 2.647140 0.461800 
#    z -0.136260 0.461800 3.375560 
# 
# 
# High freq. dielectric constant tensor:
#      x y z
#    x 1.850010 -0.001050 -0.017320 
#    y -0.001050 1.859410 -0.001960 
#    z -0.017320 -0.001960 1.816320 
# 
# From -- ./inp_files/432620.got.cif
#   From: 2010.06.25/outbox.cif.g09.slc.cpg/sg2_217_cif.got.tgz:432620.got - 2010.06.27 13:26:56.
