data_PCOD8035292
_publ_section_title
;
Structure prediction by ZEFSAII (Michael W. Deem and Ramdas Pophale) SiO2 
 PCOD8035292
Probable space group: P -1
;
_chemical_formula_sum "Si O2"
_cell_formula_units_Z 14
_cell_length_a 12.543278
_cell_length_b 12.871426
_cell_length_c 9.442249
_cell_angle_alpha 128.228699
_cell_angle_beta 146.142191
_cell_angle_gamma 41.505617
_cell_volume 562.820720
_symmetry_space_group_name_H-M "P -1"
_symmetry_group_IT_number 2
_symmetry_cell_setting 'triclinic'
loop_
_space_group_symop_operation_xyz
x,y,z
-x,-y,-z
loop_
_atom_site_type_symbol
_atom_site_label
_atom_site_fract_x
_atom_site_fract_y
_atom_site_fract_z
Si Si1 0.673198 0.023718 0.841558
Si Si2 0.876091 0.747153 0.325478
Si Si3 0.600908 0.332214 0.897730
Si Si4 0.932587 0.010334 0.594680
Si Si5 0.093677 0.253068 0.329798
Si Si6 0.567596 0.867876 0.829079
Si Si7 0.799640 0.592287 0.658855
O O1 0.700565 0.920878 0.643425
O O2 0.533305 0.004870 0.798932
O O3 0.570864 0.206316 0.848326
O O4 0.932068 0.938729 0.113998
O O5 0.828437 0.714071 0.404930
O O6 0.031868 0.590780 0.274329
O O7 0.011077 0.833281 0.576285
O O8 0.654698 0.871682 0.089659
O O9 0.449738 0.368204 0.621975
O O10 0.500000 0.500000 0.000000
O O11 0.859756 0.259349 0.079691
O O12 0.663678 0.130171 0.418921
O O13 0.000000 0.000000 0.500000
O O14 0.075162 0.380843 0.309742
O O15 0.768286 0.699536 0.848640
#
# Coordination Sequence:
#
# PCOD8035292 Si02
#       7
#     2   2   2   2   2   2   2
#     4  11  25  44  71 103 137 176 232 284 338 401
#     4  12  24  46  69 100 140 182 226 280 341 406
#     4  12  24  41  70 103 137 178 226 282 344 398
#     4  12  25  45  70 101 136 175 233 282 337 411
#     4  11  25  43  69 102 139 180 227 284 335 405
#     4  11  27  46  72 100 137 186 226 281 343 406
#     4  11  26  46  69 102 141 178 230 281 342 404
#
# _framework density 24.874707000000001
#
# number of rings (size 3 to 8) (size 9 to 14) (size 15 to 20)
#    0.000    0.571    4.286    2.571    4.000    1.143 
#    2.571    0.714    0.000    0.000    0.000    0.000 
#    0.000    0.000    0.000    0.000    0.000    0.000 
#
# Total GULP energy -173575.740990 kJ/mol
# GULP energy per Si atom -12398.267214 kJ/mol
# Density = 2.481809 g / cm^3
# Si number density = 24.874707 Si / 1000 Ang^3
#
#
#
# Elastic Constant Matrix: (Units=GPa)
#
#
# Indices 1 2 3 4 5 6 
#
# 1 125.7567 33.8297 18.5945 -8.0499 -3.1276 -9.6144
# 2 33.8297 115.3920 6.0881 0.7727 -8.1174 -14.3677
# 3 18.5945 6.0881 59.1329 -16.5217 -7.5494 5.9951
# 4 -8.0499 0.7727 -16.5217 42.0965 -7.3047 -3.4825
# 5 -3.1276 -8.1174 -7.5494 -7.3047 41.9656 1.3908
# 6 -9.6144 -14.3677 5.9951 -3.4825 1.3908 15.7963
#
#
#
# Elastic Compliance Matrix: (Units=1/GPa)
#
#
# Indices 1 2 3 4 5 6 
#
# 1 0.009395 -0.001951 -0.003030 0.001047 -0.000217 0.005343
# 2 -0.001951 0.010475 -0.001190 -0.000080 0.001366 0.008654
# 3 -0.003030 -0.001190 0.021934 0.008139 0.005235 -0.009918
# 4 0.001047 -0.000080 0.008139 0.028524 0.006386 0.003202
# 5 -0.000217 0.001366 0.005235 0.006386 0.026189 -0.001775
# 6 0.005343 0.008654 -0.009918 0.003202 -0.001775 0.079056
#
#
# Mechanical properties :
#
#
# Convention : Reuss Voigt Hill
#
# Bulk Modulus (GPa) = 33.94290 46.36733 40.15511
# Shear Modulus (GPa) = 25.28612 36.08966 30.68789
#
# Velocity S-wave (km/s) = 3.19178 3.81314 3.51621
# Velocity P-wave (km/s) = 5.22096 6.16989 5.71516
#
# Compressibility (1/GPa) = 0.02946124
#
# Stress axis : x y z
#
# Youngs Moduli (GPa) = 106.43930 95.46404 45.59064
#
# Poissons Ratio (x) = 0.18629 0.13815
# Poissons Ratio (y) = 0.20771 0.05425
# Poissons Ratio (z) = 0.32253 0.11360
#
# Static dielectric constant tensor:
#      x y z
#    x 4.335260 -0.317380 -0.157550 
#    y -0.317380 3.876460 -0.321570 
#    z -0.157550 -0.321570 4.527450 
# 
# 
# High freq. dielectric constant tensor:
#      x y z
#    x 1.995570 -0.012900 -0.003080 
#    y -0.012900 1.995340 -0.003330 
#    z -0.003080 -0.003330 2.009450 
# 
# From -- ./inp_files/263242.got.cif
#   From: 2010.06.25/outbox.cif.g09.slc.cpg/sg2_132_cif.got.tgz:263242.got - 2010.06.27 13:26:56.
