data_PCOD8035208
_publ_section_title
;
Structure prediction by ZEFSAII (Michael W. Deem and Ramdas Pophale) SiO2 
 PCOD8035208
Probable space group: P -1
;
_chemical_formula_sum "Si O2"
_cell_formula_units_Z 14
_cell_length_a 8.015494
_cell_length_b 15.980474
_cell_length_c 6.125366
_cell_angle_alpha 85.138610
_cell_angle_beta 57.234743
_cell_angle_gamma 64.013578
_cell_volume 580.890587
_symmetry_space_group_name_H-M "P -1"
_symmetry_group_IT_number 2
_symmetry_cell_setting 'triclinic'
loop_
_space_group_symop_operation_xyz
x,y,z
-x,-y,-z
loop_
_atom_site_type_symbol
_atom_site_label
_atom_site_fract_x
_atom_site_fract_y
_atom_site_fract_z
Si Si1 0.810893 0.806522 0.701961
Si Si2 0.362146 0.889717 0.803715
Si Si3 0.936124 0.337617 0.813460
Si Si4 0.680482 0.689213 0.145483
Si Si5 0.241704 0.462592 0.233622
Si Si6 0.998470 0.059984 0.288881
Si Si7 0.398463 0.704104 0.725879
O O1 0.612367 0.879246 0.659699
O O2 0.991601 0.720392 0.451127
O O3 0.939190 0.857630 0.713098
O O4 0.692560 0.773165 0.980303
O O5 0.254379 0.896229 0.638171
O O6 0.395227 0.785286 0.877613
O O7 0.190239 0.986015 0.014958
O O8 0.739034 0.443032 0.868128
O O9 0.146793 0.342406 0.767750
O O10 0.845548 0.290101 0.070685
O O11 0.444727 0.721299 0.436010
O O12 0.735082 0.597989 0.984448
O O13 0.423777 0.399874 0.296061
O O14 0.000000 0.500000 0.500000
O O15 0.000000 0.000000 0.500000
#
# Coordination Sequence:
#
# PCOD8035208 Si02
#       7
#     2   2   2   2   2   2   2
#     4  12  25  49  77 106 150 199 237 305 375 433
#     4  11  24  50  68 110 147 186 246 301 366 442
#     4  12  26  45  72 108 147 192 253 298 360 439
#     4  12  24  45  73 102 148 196 239 300 366 436
#     4  12  23  47  69 104 150 193 243 303 361 433
#     4  11  27  45  77 109 144 188 248 306 365 447
#     4  12  26  45  73 104 147 190 245 305 360 437
#
# _framework density 24.100926999999999
#
# number of rings (size 3 to 8) (size 9 to 14) (size 15 to 20)
#    0.000    0.286    5.714    3.000    2.000    4.571 
#    0.000    0.000    0.000    0.000    0.000    0.000 
#    0.000    0.000    0.000    0.000    0.000    0.000 
#
# Total GULP energy -173465.879388 kJ/mol
# GULP energy per Si atom -12390.419956 kJ/mol
# Density = 2.404607 g / cm^3
# Si number density = 24.100927 Si / 1000 Ang^3
#
#
#
# Elastic Constant Matrix: (Units=GPa)
#
#
# Indices 1 2 3 4 5 6 
#
# 1 94.6138 36.3630 28.5157 -2.9174 17.4066 -4.3061
# 2 36.3630 126.4090 57.8755 7.5401 10.8845 3.5319
# 3 28.5157 57.8755 140.6336 -8.6810 5.8880 26.4053
# 4 -2.9174 7.5401 -8.6810 48.4653 9.5648 -0.1712
# 5 17.4066 10.8845 5.8880 9.5648 27.7334 2.7854
# 6 -4.3061 3.5319 26.4053 -0.1712 2.7854 40.0635
#
#
#
# Elastic Compliance Matrix: (Units=1/GPa)
#
#
# Indices 1 2 3 4 5 6 
#
# 1 0.013994 -0.002678 -0.001888 0.002631 -0.008600 0.003594
# 2 -0.002678 0.010855 -0.004348 -0.002428 -0.000987 0.001679
# 3 -0.001888 -0.004348 0.010703 0.002357 0.000499 -0.006898
# 4 0.002631 -0.002428 0.002357 0.023415 -0.009242 -0.000314
# 5 -0.008600 -0.000987 0.000499 -0.009242 0.045362 -0.004359
# 6 0.003594 0.001679 -0.006898 -0.000314 -0.004359 0.030047
#
#
# Mechanical properties :
#
#
# Convention : Reuss Voigt Hill
#
# Bulk Modulus (GPa) = 56.42012 67.46275 61.94144
# Shear Modulus (GPa) = 31.62340 39.17926 35.40133
#
# Velocity S-wave (km/s) = 3.62625 4.03629 3.83675
# Velocity P-wave (km/s) = 6.40263 7.05512 6.73678
#
# Compressibility (1/GPa) = 0.01772417
#
# Stress axis : x y z
#
# Youngs Moduli (GPa) = 71.45740 92.12497 93.43601
#
# Poissons Ratio (x) = 0.24673 0.17638
# Poissons Ratio (y) = 0.19138 0.40625
# Poissons Ratio (z) = 0.13489 0.40055
#
# Static dielectric constant tensor:
#      x y z
#    x 4.897330 -0.504380 -0.840890 
#    y -0.504380 5.314090 0.922740 
#    z -0.840890 0.922740 6.101570 
# 
# 
# High freq. dielectric constant tensor:
#      x y z
#    x 1.964460 -0.006240 -0.001270 
#    y -0.006240 1.971990 0.010700 
#    z -0.001270 0.010700 1.951220 
# 
# From -- ./inp_files/38327.got.cif
#   From: 2010.06.25/outbox.cif.g09.slc.cpg/sg2_20_cif.got.tgz:38327.got - 2010.06.27 13:26:56.
