data_PCOD8035756
_publ_section_title
;
Structure prediction by ZEFSAII (Michael W. Deem and Ramdas Pophale) SiO2 
 PCOD8035756
Probable space group: P -1
;
_chemical_formula_sum "Si O2"
_cell_formula_units_Z 8
_cell_length_a 9.607903
_cell_length_b 17.520569
_cell_length_c 17.012154
_cell_angle_alpha 16.086474
_cell_angle_beta 30.082889
_cell_angle_gamma 24.984022
_cell_volume 334.763710
_symmetry_space_group_name_H-M "P -1"
_symmetry_group_IT_number 2
_symmetry_cell_setting 'triclinic'
loop_
_space_group_symop_operation_xyz
x,y,z
-x,-y,-z
loop_
_atom_site_type_symbol
_atom_site_label
_atom_site_fract_x
_atom_site_fract_y
_atom_site_fract_z
Si Si1 0.785365 0.913915 0.136937
Si Si2 0.390585 0.250394 0.463617
Si Si3 0.611786 0.686148 0.207250
Si Si4 0.354413 0.414659 0.081901
O O1 0.553389 0.863283 0.360097
O O2 0.023498 0.575324 0.308309
O O3 0.567234 0.214191 0.888276
O O4 0.000000 0.000000 0.000000
O O5 0.655201 0.349387 0.216028
O O6 0.414671 0.969005 0.673991
O O7 0.500000 0.500000 0.500000
O O8 0.000128 0.476388 0.210206
O O9 0.500000 0.000000 0.000000
O O10 0.500000 0.500000 0.000000
#
# Coordination Sequence:
#
# PCOD8035756 Si02
#       4
#     2   2   2   2
#     4  11  26  48  78 107 150 197 240 303 369 441
#     4  11  25  46  76 107 146 195 247 294 374 431
#     4  12  30  48  74 109 150 194 249 300 368 437
#     4  12  26  46  74 110 152 193 242 308 367 433
#
# _framework density 23.897452000000001
#
# number of rings (size 3 to 8) (size 9 to 14) (size 15 to 20)
#    0.000    0.500    2.500    3.750   10.500    2.000 
#    0.000    0.000    0.000    0.000    0.000    0.000 
#    0.000    0.000    0.000    0.000    0.000    0.000 
#
# Total GULP energy -99189.225536 kJ/mol
# GULP energy per Si atom -12398.653192 kJ/mol
# Density = 2.384306 g / cm^3
# Si number density = 23.897452 Si / 1000 Ang^3
#
#
#
# Elastic Constant Matrix: (Units=GPa)
#
#
# Indices 1 2 3 4 5 6 
#
# 1 135.2846 72.9600 72.2886 -0.2619 12.6859 -7.8073
# 2 72.9600 176.3209 97.3509 20.9969 1.5454 7.8706
# 3 72.2886 97.3509 203.2288 24.0080 -4.1995 5.0675
# 4 -0.2619 20.9969 24.0080 75.2316 18.5603 -8.7431
# 5 12.6859 1.5454 -4.1995 18.5603 51.6581 -5.3502
# 6 -7.8073 7.8706 5.0675 -8.7431 -5.3502 26.9415
#
#
#
# Elastic Compliance Matrix: (Units=1/GPa)
#
#
# Indices 1 2 3 4 5 6 
#
# 1 0.011739 -0.003865 -0.002968 0.003632 -0.003741 0.005525
# 2 -0.003865 0.009169 -0.002615 -0.002421 0.000927 -0.003908
# 3 -0.002968 -0.002615 0.007609 -0.002450 0.002109 -0.001904
# 4 0.003632 -0.002421 -0.002450 0.017119 -0.006498 0.006486
# 5 -0.003741 0.000927 0.002109 -0.006498 0.022825 0.000672
# 6 0.005525 -0.003908 -0.001904 0.006486 0.000672 0.042457
#
#
# Mechanical properties :
#
#
# Convention : Reuss Voigt Hill
#
# Bulk Modulus (GPa) = 103.93407 111.11480 107.52444
# Shear Modulus (GPa) = 37.58786 48.91522 43.25154
#
# Velocity S-wave (km/s) = 3.97026 4.52915 4.25888
# Velocity P-wave (km/s) = 8.03762 8.59933 8.32322
#
# Compressibility (1/GPa) = 0.00962148
#
# Stress axis : x y z
#
# Youngs Moduli (GPa) = 85.18611 109.06201 131.41532
#
# Poissons Ratio (x) = 0.42152 0.39008
# Poissons Ratio (y) = 0.32924 0.34362
# Poissons Ratio (z) = 0.25286 0.28518
#
# Static dielectric constant tensor:
#      x y z
#    x 3.969230 0.528030 -0.175010 
#    y 0.528030 4.786010 0.687110 
#    z -0.175010 0.687110 4.290000 
# 
# 
# High freq. dielectric constant tensor:
#      x y z
#    x 1.918470 0.027900 -0.007050 
#    y 0.027900 1.966070 0.014210 
#    z -0.007050 0.014210 1.978650 
# 
# From -- ./inp_files/414162.got.cif
#   From: 2010.06.25/outbox.cif.g09.slc.cpg/sg2_208_cif.got.tgz:414162.got - 2010.06.27 13:26:56.
