data_PCOD8035745
_publ_section_title
;
Structure prediction by ZEFSAII (Michael W. Deem and Ramdas Pophale) SiO2 
 PCOD8035745
Probable space group: P -1
;
_chemical_formula_sum "Si O2"
_cell_formula_units_Z 16
_cell_length_a 5.497978
_cell_length_b 13.807178
_cell_length_c 13.718954
_cell_angle_alpha 41.157902
_cell_angle_beta 77.803630
_cell_angle_gamma 66.159602
_cell_volume 619.384331
_symmetry_space_group_name_H-M "P -1"
_symmetry_group_IT_number 2
_symmetry_cell_setting 'triclinic'
loop_
_space_group_symop_operation_xyz
x,y,z
-x,-y,-z
loop_
_atom_site_type_symbol
_atom_site_label
_atom_site_fract_x
_atom_site_fract_y
_atom_site_fract_z
Si Si1 0.222499 0.171842 0.243326
Si Si2 0.213288 0.677836 0.281587
Si Si3 0.602730 0.884758 0.333155
Si Si4 0.002810 0.623731 0.153205
Si Si5 0.644145 0.346495 0.509766
Si Si6 0.657185 0.332339 0.066425
Si Si7 0.558079 0.102348 0.001549
Si Si8 0.062514 0.271280 0.390787
O O1 0.468093 0.232358 0.161386
O O2 0.173922 0.162817 0.369839
O O3 0.934033 0.274704 0.146872
O O4 0.314353 0.000811 0.314361
O O5 0.022198 0.621076 0.272268
O O6 0.508495 0.537889 0.374559
O O7 0.124060 0.709907 0.379433
O O8 0.229436 0.831131 0.111206
O O9 0.563061 0.739772 0.388610
O O10 0.785791 0.824997 0.455974
O O11 0.698793 0.983972 0.169445
O O12 0.061827 0.447175 0.242421
O O13 0.714692 0.754318 0.046118
O O14 0.249966 0.664185 0.056422
O O15 0.758245 0.298243 0.427109
O O16 0.500000 0.500000 0.000000
O O17 0.500000 0.000000 0.000000
#
# Coordination Sequence:
#
# PCOD8035745 Si02
#       8
#     2   2   2   2   2   2   2   2
#     4  12  29  50  81 117 162 208 267 331 398 466
#     4  11  25  46  75 108 150 199 258 323 393 476
#     4  12  27  50  71 115 154 203 257 332 391 469
#     4  12  26  46  79 112 151 207 262 324 397 481
#     4  11  26  45  75 111 150 201 262 319 392 480
#     4  12  27  49  83 118 160 210 269 328 394 479
#     4  12  26  48  75 110 153 197 259 328 401 461
#     4  12  28  46  78 106 153 212 260 321 393 481
#
# _framework density 25.832101000000002
#
# number of rings (size 3 to 8) (size 9 to 14) (size 15 to 20)
#    0.000    0.250    6.250    1.500    7.000    2.500 
#    0.000    0.000    0.000    0.000    0.000    0.000 
#    0.000    0.000    0.000    0.000    0.000    0.000 
#
# Total GULP energy -198289.225177 kJ/mol
# GULP energy per Si atom -12393.076574 kJ/mol
# Density = 2.577331 g / cm^3
# Si number density = 25.832101 Si / 1000 Ang^3
#
#
#
# Elastic Constant Matrix: (Units=GPa)
#
#
# Indices 1 2 3 4 5 6 
#
# 1 76.4439 -7.7704 24.9337 7.5378 2.7099 4.9508
# 2 -7.7704 88.7723 28.7328 14.1254 -5.6601 6.2297
# 3 24.9337 28.7328 147.8549 5.6228 6.2855 0.6187
# 4 7.5378 14.1254 5.6228 45.0042 -0.7542 0.9020
# 5 2.7099 -5.6601 6.2855 -0.7542 36.6386 5.8368
# 6 4.9508 6.2297 0.6187 0.9020 5.8368 39.2447
#
#
#
# Elastic Compliance Matrix: (Units=1/GPa)
#
#
# Indices 1 2 3 4 5 6 
#
# 1 0.014762 0.002879 -0.002933 -0.002962 0.000150 -0.002227
# 2 0.002879 0.013556 -0.003064 -0.004252 0.002762 -0.002780
# 3 -0.002933 -0.003064 0.007908 0.000416 -0.001761 0.000984
# 4 -0.002962 -0.004252 0.000416 0.023987 -0.000096 0.000505
# 5 0.000150 0.002762 -0.001761 -0.000096 0.028759 -0.004705
# 6 -0.002227 -0.002780 0.000984 0.000505 -0.004705 0.026876
#
#
# Mechanical properties :
#
#
# Convention : Reuss Voigt Hill
#
# Bulk Modulus (GPa) = 33.34476 44.98481 39.16478
# Shear Modulus (GPa) = 37.85522 41.98918 39.92220
#
# Velocity S-wave (km/s) = 3.83225 4.03608 3.93549
# Velocity P-wave (km/s) = 5.70244 6.25876 5.98706
#
# Compressibility (1/GPa) = 0.02998972
#
# Stress axis : x y z
#
# Youngs Moduli (GPa) = 67.74212 73.76651 126.44772
#
# Poissons Ratio (x) = -0.21236 0.37090
# Poissons Ratio (y) = -0.19501 0.38743
# Poissons Ratio (z) = 0.19870 0.22602
#
# Static dielectric constant tensor:
#      x y z
#    x 4.422410 -0.217600 0.046570 
#    y -0.217600 5.858540 0.140600 
#    z 0.046570 0.140600 4.886610 
# 
# 
# High freq. dielectric constant tensor:
#      x y z
#    x 2.018560 -0.004250 0.007220 
#    y -0.004250 2.058050 0.003940 
#    z 0.007220 0.003940 2.046790 
# 
# From -- ./inp_files/109321.got.cif
#   From: 2010.06.25/outbox.cif.g09.slc.cpg/sg2_55_cif.got.tgz:109321.got - 2010.06.27 13:26:56.
