data_PCOD8035808
_publ_section_title
;
Structure prediction by ZEFSAII (Michael W. Deem and Ramdas Pophale) SiO2 
 PCOD8035808
Probable space group: P -1
;
_chemical_formula_sum "Si O2"
_cell_formula_units_Z 16
_cell_length_a 5.211645
_cell_length_b 25.143400
_cell_length_c 15.331895
_cell_angle_alpha 19.403992
_cell_angle_beta 82.073819
_cell_angle_gamma 83.557456
_cell_volume 660.115523
_symmetry_space_group_name_H-M "P -1"
_symmetry_group_IT_number 2
_symmetry_cell_setting 'triclinic'
loop_
_space_group_symop_operation_xyz
x,y,z
-x,-y,-z
loop_
_atom_site_type_symbol
_atom_site_label
_atom_site_fract_x
_atom_site_fract_y
_atom_site_fract_z
Si Si1 0.407493 0.316039 0.288273
Si Si2 0.146400 0.802176 0.432548
Si Si3 0.878439 0.350771 0.916390
Si Si4 0.359591 0.431218 0.529172
Si Si5 0.528087 0.157856 0.352121
Si Si6 0.023587 0.965471 0.675960
Si Si7 0.028943 0.135717 0.977352
Si Si8 0.209166 0.640522 0.498495
O O1 0.616366 0.220031 0.479601
O O2 0.394559 0.255152 0.284450
O O3 0.120548 0.291148 0.381398
O O4 0.500000 0.500000 0.000000
O O5 0.231986 0.744202 0.423633
O O6 0.120223 0.993376 0.131862
O O7 0.848434 0.439431 0.686783
O O8 0.018469 0.483780 0.767002
O O9 0.614566 0.285538 0.076360
O O10 0.046372 0.199359 0.117953
O O11 0.500000 0.500000 0.500000
O O12 0.260356 0.248677 0.833346
O O13 0.521159 0.428850 0.434963
O O14 0.294699 0.040459 0.505355
O O15 0.780501 0.074171 0.507498
O O16 0.105242 0.943916 0.807287
O O17 0.858905 0.248109 0.752866
#
# Coordination Sequence:
#
# PCOD8035808 Si02
#       8
#     2   2   2   2   2   2   2   2
#     4  12  26  47  74 107 148 197 238 296 365 436
#     4  12  27  47  75 107 148 188 246 303 363 430
#     4  11  27  45  71 107 146 189 246 301 363 431
#     4  11  26  46  77 105 146 195 242 305 364 435
#     4  12  26  47  73 110 144 193 242 298 365 435
#     4  12  26  46  75 107 147 191 242 299 365 436
#     4  11  25  47  71 109 142 195 244 298 366 432
#     4  11  27  45  73 106 145 193 246 305 358 433
#
# _framework density 24.238181999999998
#
# number of rings (size 3 to 8) (size 9 to 14) (size 15 to 20)
#    0.000    0.500    2.500    3.750   14.000    2.500 
#    0.000    0.000    0.000    0.000    0.000    0.000 
#    0.000    0.000    0.000    0.000    0.000    0.000 
#
# Total GULP energy -198372.898253 kJ/mol
# GULP energy per Si atom -12398.306141 kJ/mol
# Density = 2.418302 g / cm^3
# Si number density = 24.238182 Si / 1000 Ang^3
#
#
#
# Elastic Constant Matrix: (Units=GPa)
#
#
# Indices 1 2 3 4 5 6 
#
# 1 53.8250 -11.5487 -4.5966 -1.7990 -6.2828 -5.6990
# 2 -11.5487 90.1292 17.0219 -11.6253 -5.6716 -1.3285
# 3 -4.5966 17.0219 108.3262 -12.9636 -13.7756 2.7006
# 4 -1.7990 -11.6253 -12.9636 40.7374 1.7708 -4.6923
# 5 -6.2828 -5.6716 -13.7756 1.7708 30.8876 -0.7760
# 6 -5.6990 -1.3285 2.7006 -4.6923 -0.7760 36.0040
#
#
#
# Elastic Compliance Matrix: (Units=1/GPa)
#
#
# Indices 1 2 3 4 5 6 
#
# 1 0.020422 0.003071 0.001241 0.002369 0.005228 0.003674
# 2 0.003071 0.012302 -0.001157 0.003356 0.002213 0.001512
# 3 0.001241 -0.001157 0.010379 0.002813 0.004504 -0.000161
# 4 0.002369 0.003356 0.002813 0.026905 0.000906 0.003814
# 5 0.005228 0.002213 0.004504 0.000906 0.035838 0.001462
# 6 0.003674 0.001512 -0.000161 0.003814 0.001462 0.028953
#
#
# Mechanical properties :
#
#
# Convention : Reuss Voigt Hill
#
# Bulk Modulus (GPa) = 20.23802 28.22595 24.23199
# Shear Modulus (GPa) = 34.49210 38.28606 36.38908
#
# Velocity S-wave (km/s) = 3.77642 3.97870 3.87888
# Velocity P-wave (km/s) = 5.23287 5.72514 5.48453
#
# Compressibility (1/GPa) = 0.04941194
#
# Stress axis : x y z
#
# Youngs Moduli (GPa) = 48.96665 81.28969 96.34591
#
# Poissons Ratio (x) = -0.24965 -0.11954
# Poissons Ratio (y) = -0.15038 0.11151
# Poissons Ratio (z) = -0.06075 0.09408
#
# Static dielectric constant tensor:
#      x y z
#    x 4.360710 -0.107570 -0.098940 
#    y -0.107570 4.460250 -0.118690 
#    z -0.098940 -0.118690 4.582680 
# 
# 
# High freq. dielectric constant tensor:
#      x y z
#    x 1.954640 -0.001790 -0.004240 
#    y -0.001790 1.974650 -0.008440 
#    z -0.004240 -0.008440 1.983890 
# 
# From -- ./inp_files/124314.got.cif
#   From: 2010.06.25/outbox.cif.g09.slc.cpg/sg2_63_cif.got.tgz:124314.got - 2010.06.27 13:26:56.
