data_PCOD8035377
_publ_section_title
;
Structure prediction by ZEFSAII (Michael W. Deem and Ramdas Pophale) SiO2 
 PCOD8035377
Probable space group: P -1
;
_chemical_formula_sum "Si O2"
_cell_formula_units_Z 14
_cell_length_a 4.989045
_cell_length_b 8.848229
_cell_length_c 18.146986
_cell_angle_alpha 127.689080
_cell_angle_beta 60.852986
_cell_angle_gamma 122.553107
_cell_volume 519.112035
_symmetry_space_group_name_H-M "P -1"
_symmetry_group_IT_number 2
_symmetry_cell_setting 'triclinic'
loop_
_space_group_symop_operation_xyz
x,y,z
-x,-y,-z
loop_
_atom_site_type_symbol
_atom_site_label
_atom_site_fract_x
_atom_site_fract_y
_atom_site_fract_z
Si Si1 0.419122 0.176408 0.926615
Si Si2 0.877400 0.180205 0.546760
Si Si3 0.785678 0.067354 0.367578
Si Si4 0.111879 0.242191 0.841138
Si Si5 0.355455 0.601471 0.610545
Si Si6 0.523756 0.260504 0.211289
Si Si7 0.752585 0.612882 0.849113
O O1 0.165032 0.176451 0.897205
O O2 0.801774 0.322826 0.903970
O O3 0.440984 0.956544 0.868289
O O4 0.297531 0.245289 0.037733
O O5 0.958733 0.207149 0.455490
O O6 0.044995 0.409067 0.625060
O O7 0.508543 0.110286 0.604342
O O8 0.000000 0.000000 0.500000
O O9 0.698995 0.204360 0.359207
O O10 0.984467 0.949742 0.259925
O O11 0.455494 0.403125 0.820204
O O12 0.500000 0.500000 0.500000
O O13 0.588843 0.691924 0.677652
O O14 0.253623 0.277964 0.195893
O O15 0.898623 0.417414 0.195968
#
# Coordination Sequence:
#
# PCOD8035377 Si02
#       7
#     2   2   2   2   2   2   2
#     4  12  25  48  74 109 145 193 242 301 371 440
#     4  11  25  44  71 100 139 188 248 290 367 426
#     4  11  26  46  69 105 142 194 237 309 357 443
#     4  12  26  44  77 106 149 187 247 298 376 432
#     4  12  26  46  74 104 146 191 243 302 366 436
#     4  12  27  46  74 108 146 193 246 298 372 433
#     4  12  26  48  75 107 149 190 244 306 362 446
#
# _framework density 26.969128999999999
#
# number of rings (size 3 to 8) (size 9 to 14) (size 15 to 20)
#    0.000    0.286    2.857    5.571    6.000    1.143 
#    0.000    0.000    0.000    0.000    0.000    0.000 
#    0.000    0.000    0.000    0.000    0.000    0.000 
#
# Total GULP energy -173524.381501 kJ/mol
# GULP energy per Si atom -12394.598679 kJ/mol
# Density = 2.690775 g / cm^3
# Si number density = 26.969129 Si / 1000 Ang^3
#
#
#
# Elastic Constant Matrix: (Units=GPa)
#
#
# Indices 1 2 3 4 5 6 
#
# 1 68.3552 -22.0979 16.5019 -13.1587 11.2116 4.2362
# 2 -22.0979 72.4334 15.5069 2.9193 19.0687 0.8963
# 3 16.5019 15.5069 166.4857 -11.8673 23.8903 -14.4003
# 4 -13.1587 2.9193 -11.8673 38.3588 8.4335 12.4540
# 5 11.2116 19.0687 23.8903 8.4335 41.8116 -3.1088
# 6 4.2362 0.8963 -14.4003 12.4540 -3.1088 34.7176
#
#
#
# Elastic Compliance Matrix: (Units=1/GPa)
#
#
# Indices 1 2 3 4 5 6 
#
# 1 0.023877 0.010830 -0.001264 0.013207 -0.014005 -0.009709
# 2 0.010830 0.020705 -0.001099 0.006692 -0.013509 -0.005922
# 3 -0.001264 -0.001099 0.007041 0.001889 -0.003406 0.002121
# 4 0.013207 0.006692 0.001889 0.039866 -0.016965 -0.016821
# 5 -0.014005 -0.013509 -0.003406 -0.016965 0.039968 0.010309
# 6 -0.009709 -0.005922 0.002121 -0.016821 0.010309 0.037978
#
#
# Mechanical properties :
#
#
# Convention : Reuss Voigt Hill
#
# Bulk Modulus (GPa) = 14.58635 36.34399 25.46517
# Shear Modulus (GPa) = 28.51385 42.80184 35.65784
#
# Velocity S-wave (km/s) = 3.25511 3.98812 3.64011
# Velocity P-wave (km/s) = 4.42130 5.89171 5.20865
#
# Compressibility (1/GPa) = 0.06855724
#
# Stress axis : x y z
#
# Youngs Moduli (GPa) = 41.88139 48.29769 142.02524
#
# Poissons Ratio (x) = -0.52306 0.17953
# Poissons Ratio (y) = -0.45357 0.15603
# Poissons Ratio (z) = 0.05294 0.05306
#
# Static dielectric constant tensor:
#      x y z
#    x 5.756570 0.447640 0.021720 
#    y 0.447640 4.980750 -0.518140 
#    z 0.021720 -0.518140 5.121220 
# 
# 
# High freq. dielectric constant tensor:
#      x y z
#    x 2.082320 0.024650 0.009920 
#    y 0.024650 2.103870 -0.007860 
#    z 0.009920 -0.007860 2.109330 
# 
# From -- ./inp_files/46863.got.cif
#   From: 2010.06.25/outbox.cif.g09.slc.cpg/sg2_24_cif.got.tgz:46863.got - 2010.06.27 13:26:56.
