data_PCOD8035895
_publ_section_title
;
Structure prediction by ZEFSAII (Michael W. Deem and Ramdas Pophale) SiO2 
 PCOD8035895
Probable space group: P -1
;
_chemical_formula_sum "Si O2"
_cell_formula_units_Z 10
_cell_length_a 13.038115
_cell_length_b 7.022348
_cell_length_c 4.846199
_cell_angle_alpha 113.544060
_cell_angle_beta 64.094559
_cell_angle_gamma 115.876536
_cell_volume 346.951466
_symmetry_space_group_name_H-M "P -1"
_symmetry_group_IT_number 2
_symmetry_cell_setting 'triclinic'
loop_
_space_group_symop_operation_xyz
x,y,z
-x,-y,-z
loop_
_atom_site_type_symbol
_atom_site_label
_atom_site_fract_x
_atom_site_fract_y
_atom_site_fract_z
Si Si1 0.211410 0.945817 0.080714
Si Si2 0.353288 0.174280 0.528114
Si Si3 0.418366 0.589690 0.347662
Si Si4 0.175210 0.601448 0.520619
Si Si5 0.005827 0.852883 0.643810
O O1 0.085821 0.995229 0.357710
O O2 0.311672 0.995073 0.230153
O O3 0.172417 0.688800 0.890993
O O4 0.261325 0.103582 0.851684
O O5 0.347972 0.405635 0.546736
O O6 0.490268 0.202541 0.477469
O O7 0.319600 0.661799 0.331229
O O8 0.500000 0.500000 0.000000
O O9 0.112786 0.743439 0.492236
O O10 0.113824 0.345116 0.404127
O O11 0.000000 0.000000 0.000000
#
# Coordination Sequence:
#
# PCOD8035895 Si02
#       5
#     2   2   2   2   2
#     4  12  24  51  74 118 152 205 263 319 392 466
#     4  11  25  47  80 111 158 211 250 325 390 458
#     4  11  25  49  78 118 164 205 264 321 386 474
#     4  11  27  48  80 121 154 212 263 318 395 470
#     4  11  26  51  82 116 158 206 261 332 387 463
#
# _framework density 28.822474
#
# number of rings (size 3 to 8) (size 9 to 14) (size 15 to 20)
#    0.000    0.800    4.000    1.800    0.000    5.600 
#    3.600    0.000    0.000    0.000    0.000    0.000 
#    0.000    0.000    0.000    0.000    0.000    0.000 
#
# Total GULP energy -123947.953300 kJ/mol
# GULP energy per Si atom -12394.795330 kJ/mol
# Density = 2.875687 g / cm^3
# Si number density = 28.822474 Si / 1000 Ang^3
#
#
#
# Elastic Constant Matrix: (Units=GPa)
#
#
# Indices 1 2 3 4 5 6 
#
# 1 256.2604 92.0560 103.6067 25.3023 8.3783 28.3909
# 2 92.0560 179.8931 96.8405 12.4128 21.1648 26.4161
# 3 103.6067 96.8405 214.8080 4.9779 12.4055 16.2024
# 4 25.3023 12.4128 4.9779 60.0526 5.9639 19.7282
# 5 8.3783 21.1648 12.4055 5.9639 62.0422 14.7691
# 6 28.3909 26.4161 16.2024 19.7282 14.7691 69.9470
#
#
#
# Elastic Compliance Matrix: (Units=1/GPa)
#
#
# Indices 1 2 3 4 5 6 
#
# 1 0.005463 -0.001644 -0.001825 -0.001588 0.000541 -0.000840
# 2 -0.001644 0.008294 -0.002737 -0.000157 -0.001706 -0.001427
# 3 -0.001825 -0.002737 0.006763 0.000786 -0.000257 0.000040
# 4 -0.001588 -0.000157 0.000786 0.018885 -0.000591 -0.004680
# 5 0.000541 -0.001706 -0.000257 -0.000591 0.017458 -0.003035
# 6 -0.000840 -0.001427 0.000040 -0.004680 -0.003035 0.017128
#
#
# Mechanical properties :
#
#
# Convention : Reuss Voigt Hill
#
# Bulk Modulus (GPa) = 123.31429 137.32976 130.32202
# Shear Modulus (GPa) = 56.11455 62.30558 59.21006
#
# Velocity S-wave (km/s) = 4.41716 4.65445 4.53736
# Velocity P-wave (km/s) = 8.30012 8.75417 8.53017
#
# Compressibility (1/GPa) = 0.00810936
#
# Stress axis : x y z
#
# Youngs Moduli (GPa) = 183.05764 120.56589 147.86713
#
# Poissons Ratio (x) = 0.19818 0.26983
# Poissons Ratio (y) = 0.30090 0.40466
# Poissons Ratio (z) = 0.33405 0.32995
#
# Static dielectric constant tensor:
#      x y z
#    x 6.492110 0.177150 0.280380 
#    y 0.177150 5.805050 -0.029340 
#    z 0.280380 -0.029340 5.471390 
# 
# 
# High freq. dielectric constant tensor:
#      x y z
#    x 2.225620 0.005730 0.009050 
#    y 0.005730 2.191180 -0.004550 
#    z 0.009050 -0.004550 2.175460 
# 
# From -- ./inp_files/89424.got.cif
#   From: 2010.06.25/outbox.cif.g09.slc.cpg/sg2_45_cif.got.tgz:89424.got - 2010.06.27 13:26:56.
