data_PCOD8035064
_publ_section_title
;
Structure prediction by ZEFSAII (Michael W. Deem and Ramdas Pophale) SiO2 
 PCOD8035064
Probable space group: P -1
;
_chemical_formula_sum "Si O2"
_cell_formula_units_Z 12
_cell_length_a 17.858846
_cell_length_b 11.221159
_cell_length_c 14.755164
_cell_angle_alpha 28.604116
_cell_angle_beta 22.788241
_cell_angle_gamma 29.354705
_cell_volume 516.560715
_symmetry_space_group_name_H-M "P -1"
_symmetry_group_IT_number 2
_symmetry_cell_setting 'triclinic'
loop_
_space_group_symop_operation_xyz
x,y,z
-x,-y,-z
loop_
_atom_site_type_symbol
_atom_site_label
_atom_site_fract_x
_atom_site_fract_y
_atom_site_fract_z
Si Si1 0.921716 0.846077 0.924738
Si Si2 0.323568 0.535393 0.597768
Si Si3 0.451306 0.270555 0.926292
Si Si4 0.394687 0.230594 0.393017
Si Si5 0.454120 0.753010 0.967912
Si Si6 0.983877 0.266740 0.895803
O O1 0.129732 0.786894 0.675628
O O2 0.766361 0.702992 0.152237
O O3 0.970747 0.794415 0.009192
O O4 0.786380 0.150118 0.857320
O O5 0.500000 0.500000 0.500000
O O6 0.403911 0.580413 0.378817
O O7 0.513978 0.143257 0.039393
O O8 0.224539 0.485641 0.041696
O O9 0.500000 0.000000 0.000000
O O10 0.415855 0.142417 0.321915
O O11 0.158379 0.367116 0.591592
O O12 0.500000 0.000000 0.500000
O O13 0.520788 0.435442 0.116724
O O14 0.000000 0.000000 0.000000
#
# Coordination Sequence:
#
# PCOD8035064 Si02
#       6
#     2   2   2   2   2   2
#     4  11  25  46  78 109 144 205 258 305 389 454
#     4  11  24  47  77 106 153 200 249 317 381 451
#     4  12  28  46  71 113 158 194 256 322 376 456
#     4  11  24  48  74 104 149 197 253 317 378 449
#     4  11  26  45  76 108 144 198 260 312 378 455
#     4  12  27  46  76 109 154 205 253 310 390 456
#
# _framework density 23.23057
#
# number of rings (size 3 to 8) (size 9 to 14) (size 15 to 20)
#    0.000    0.667    3.333    3.000    9.333    2.667 
#    0.000    0.000    0.000    0.000    0.000    0.000 
#    0.000    0.000    0.000    0.000    0.000    0.000 
#
# Total GULP energy -148658.452984 kJ/mol
# GULP energy per Si atom -12388.204415 kJ/mol
# Density = 2.317770 g / cm^3
# Si number density = 23.230570 Si / 1000 Ang^3
#
#
#
# Elastic Constant Matrix: (Units=GPa)
#
#
# Indices 1 2 3 4 5 6 
#
# 1 154.9882 41.3662 56.4312 21.7965 36.8960 -11.3801
# 2 41.3662 146.5668 57.3613 34.4112 15.4408 -10.1965
# 3 56.4312 57.3613 139.0939 33.1827 28.5386 -11.0631
# 4 21.7965 34.4112 33.1827 51.9474 4.9764 1.5272
# 5 36.8960 15.4408 28.5386 4.9764 47.6488 -3.5699
# 6 -11.3801 -10.1965 -11.0631 1.5272 -3.5699 40.3700
#
#
#
# Elastic Compliance Matrix: (Units=1/GPa)
#
#
# Indices 1 2 3 4 5 6 
#
# 1 0.008883 -0.000802 -0.001667 -0.001662 -0.005339 0.001435
# 2 -0.000802 0.009063 -0.002172 -0.004283 -0.000448 0.001590
# 3 -0.001667 -0.002172 0.010741 -0.004406 -0.003847 0.001752
# 4 -0.001662 -0.004283 -0.004406 0.025474 0.002390 -0.003510
# 5 -0.005339 -0.000448 -0.003847 0.002390 0.027295 -0.000349
# 6 0.001435 0.001590 0.001752 -0.003510 -0.000349 0.026159
#
#
# Mechanical properties :
#
#
# Convention : Reuss Voigt Hill
#
# Bulk Modulus (GPa) = 51.53262 83.44070 67.48666
# Shear Modulus (GPa) = 40.53021 47.02591 43.77806
#
# Velocity S-wave (km/s) = 4.18148 4.50412 4.34579
# Velocity P-wave (km/s) = 6.74865 7.94014 7.36852
#
# Compressibility (1/GPa) = 0.01940518
#
# Stress axis : x y z
#
# Youngs Moduli (GPa) = 112.57051 110.34305 93.10047
#
# Poissons Ratio (x) = 0.08852 0.15521
# Poissons Ratio (y) = 0.09031 0.20217
# Poissons Ratio (z) = 0.18767 0.23962
#
# Static dielectric constant tensor:
#      x y z
#    x 5.073730 -0.380010 0.604580 
#    y -0.380010 4.934630 0.055880 
#    z 0.604580 0.055880 4.594380 
# 
# 
# High freq. dielectric constant tensor:
#      x y z
#    x 1.932080 0.005660 0.020060 
#    y 0.005660 1.938030 0.014050 
#    z 0.020060 0.014050 1.916100 
# 
# From -- ./inp_files/538388.got.cif
#   From: 2010.06.25/outbox.cif.g09.slc.cpg/sg2_270_cif.got.tgz:538388.got - 2010.06.27 13:26:56.
