data_PCOD8035135
_publ_section_title
;
Structure prediction by ZEFSAII (Michael W. Deem and Ramdas Pophale) SiO2 
 PCOD8035135
Probable space group: P -1
;
_chemical_formula_sum "Si O2"
_cell_formula_units_Z 16
_cell_length_a 14.544066
_cell_length_b 11.307079
_cell_length_c 13.345553
_cell_angle_alpha 33.890737
_cell_angle_beta 40.623393
_cell_angle_gamma 63.625493
_cell_volume 684.514059
_symmetry_space_group_name_H-M "P -1"
_symmetry_group_IT_number 2
_symmetry_cell_setting 'triclinic'
loop_
_space_group_symop_operation_xyz
x,y,z
-x,-y,-z
loop_
_atom_site_type_symbol
_atom_site_label
_atom_site_fract_x
_atom_site_fract_y
_atom_site_fract_z
Si Si1 0.396972 0.501327 0.735938
Si Si2 0.276103 0.739607 0.814196
Si Si3 0.631988 0.330340 0.999984
Si Si4 0.904345 0.418344 0.362031
Si Si5 0.751091 0.715376 0.203404
Si Si6 0.831070 0.968205 0.624715
Si Si7 0.855703 0.261527 0.732750
Si Si8 0.729116 0.848859 0.578307
O O1 0.365018 0.711241 0.661606
O O2 0.590329 0.615408 0.476840
O O3 0.298164 0.390195 0.793395
O O4 0.327528 0.286099 0.028360
O O5 0.245929 0.967723 0.662460
O O6 0.382650 0.772276 0.802188
O O7 0.096149 0.500751 0.146026
O O8 0.689328 0.185743 0.983026
O O9 0.760014 0.627678 0.676651
O O10 0.458600 0.277288 0.140284
O O11 0.872797 0.634500 0.204260
O O12 0.808976 0.190452 0.525648
O O13 0.831928 0.328957 0.594199
O O14 0.865533 0.013388 0.898488
O O15 0.843657 0.989357 0.479276
O O16 0.000000 0.000000 0.500000
O O17 0.000000 0.500000 0.500000
#
# Coordination Sequence:
#
# PCOD8035135 Si02
#       8
#     2   2   2   2   2   2   2   2
#     4  11  24  48  74 103 146 183 231 301 358 412
#     4  12  24  45  74 104 139 184 237 292 349 415
#     4  11  25  47  66 104 138 192 234 286 347 421
#     4  12  27  43  75 106 135 187 236 293 356 421
#     4  11  28  46  71 107 143 186 235 291 357 427
#     4  12  24  46  76 106 142 179 235 305 359 413
#     4  12  27  47  68  99 150 186 231 291 351 416
#     4  11  26  42  75 101 138 184 239 289 351 423
#
# _framework density 23.374245999999999
#
# number of rings (size 3 to 8) (size 9 to 14) (size 15 to 20)
#    0.000    0.500    5.000    1.875    5.250    4.000 
#    0.000    0.000    0.000    0.000    0.000    0.000 
#    0.000    0.000    0.000    0.000    0.000    0.000 
#
# Total GULP energy -198448.352209 kJ/mol
# GULP energy per Si atom -12403.022013 kJ/mol
# Density = 2.332105 g / cm^3
# Si number density = 23.374246 Si / 1000 Ang^3
#
#
#
# Elastic Constant Matrix: (Units=GPa)
#
#
# Indices 1 2 3 4 5 6 
#
# 1 105.2049 35.1059 14.3296 -13.6014 7.5092 -5.1453
# 2 35.1059 104.0635 0.5898 -5.1579 11.6550 6.6802
# 3 14.3296 0.5898 54.2772 -3.5355 12.5296 0.4815
# 4 -13.6014 -5.1579 -3.5355 43.9762 -10.6957 3.8331
# 5 7.5092 11.6550 12.5296 -10.6957 40.2638 -3.9576
# 6 -5.1453 6.6802 0.4815 3.8331 -3.9576 30.8681
#
#
#
# Elastic Compliance Matrix: (Units=1/GPa)
#
#
# Indices 1 2 3 4 5 6 
#
# 1 0.011724 -0.004075 -0.003115 0.002909 0.000996 0.002651
# 2 -0.004075 0.011595 0.001791 -0.000314 -0.003595 -0.003638
# 3 -0.003115 0.001791 0.020766 -0.000547 -0.006745 -0.002028
# 4 0.002909 -0.000314 -0.000547 0.025232 0.006247 -0.001771
# 5 0.000996 -0.003595 -0.006745 0.006247 0.029852 0.004101
# 6 0.002651 -0.003638 -0.002028 -0.001771 0.004101 0.034402
#
#
# Mechanical properties :
#
#
# Convention : Reuss Voigt Hill
#
# Bulk Modulus (GPa) = 30.04072 40.39959 35.22016
# Shear Modulus (GPa) = 32.16170 37.25631 34.70901
#
# Velocity S-wave (km/s) = 3.71340 3.99670 3.85765
# Velocity P-wave (km/s) = 5.59158 6.21446 5.91123
#
# Compressibility (1/GPa) = 0.03328815
#
# Stress axis : x y z
#
# Youngs Moduli (GPa) = 85.29551 86.24651 48.15547
#
# Poissons Ratio (x) = 0.35145 0.15000
# Poissons Ratio (y) = 0.34757 -0.08627
# Poissons Ratio (z) = 0.26568 -0.15451
#
# Static dielectric constant tensor:
#      x y z
#    x 3.955800 0.101420 0.003530 
#    y 0.101420 4.838390 -0.158860 
#    z 0.003530 -0.158860 4.289770 
# 
# 
# High freq. dielectric constant tensor:
#      x y z
#    x 1.919810 -0.000830 0.001090 
#    y -0.000830 1.932950 -0.008450 
#    z 0.001090 -0.008450 1.936380 
# 
# From -- ./inp_files/532249.got.cif
#   From: 2010.06.25/outbox.cif.g09.slc.cpg/sg2_267_cif.got.tgz:532249.got - 2010.06.27 13:26:56.
