data_PCOD8035709
_publ_section_title
;
Structure prediction by ZEFSAII (Michael W. Deem and Ramdas Pophale) SiO2 
 PCOD8035709
Probable space group: P -1
;
_chemical_formula_sum "Si O2"
_cell_formula_units_Z 16
_cell_length_a 10.253977
_cell_length_b 19.069954
_cell_length_c 13.510170
_cell_angle_alpha 29.456206
_cell_angle_beta 32.614958
_cell_angle_gamma 36.220240
_cell_volume 672.894920
_symmetry_space_group_name_H-M "P -1"
_symmetry_group_IT_number 2
_symmetry_cell_setting 'triclinic'
loop_
_space_group_symop_operation_xyz
x,y,z
-x,-y,-z
loop_
_atom_site_type_symbol
_atom_site_label
_atom_site_fract_x
_atom_site_fract_y
_atom_site_fract_z
Si Si1 0.441289 0.610549 0.993703
Si Si2 0.262158 0.009762 0.072486
Si Si3 0.629844 0.823596 0.487773
Si Si4 0.123918 0.764877 0.344699
Si Si5 0.433999 0.513489 0.320026
Si Si6 0.127035 0.033016 0.478897
Si Si7 0.133640 0.313015 0.680390
Si Si8 0.064070 0.639553 0.736482
O O1 0.494957 0.762726 0.738954
O O2 0.500000 0.500000 0.000000
O O3 0.584851 0.542868 0.087032
O O4 0.162960 0.645105 0.174242
O O5 0.284592 0.864469 0.170198
O O6 0.008385 0.036478 0.264673
O O7 0.500000 0.000000 0.000000
O O8 0.253344 0.146535 0.841110
O O9 0.756010 0.686616 0.501631
O O10 0.870431 0.869305 0.324577
O O11 0.426583 0.954898 0.397637
O O12 0.317419 0.665649 0.265557
O O13 0.025856 0.662888 0.613504
O O14 0.210850 0.437776 0.539376
O O15 0.636028 0.392066 0.403420
O O16 0.083187 0.209474 0.298960
O O17 0.000000 0.000000 0.500000
O O18 0.000000 0.500000 0.000000
#
# Coordination Sequence:
#
# PCOD8035709 Si02
#       8
#     2   2   2   2   2   2   2   2
#     4  12  24  43  74 112 151 198 247 313 377 445
#     4  11  25  47  71 107 147 200 255 309 384 455
#     4  12  24  47  75 112 153 192 258 315 373 457
#     4  11  26  47  74 109 153 200 252 321 379 447
#     4  12  24  46  74 109 154 194 257 310 381 454
#     4  11  25  46  73 106 148 200 253 314 375 452
#     4  12  24  45  71 109 147 194 247 305 378 449
#     4  11  26  46  69 106 147 201 252 311 382 445
#
# _framework density 23.777858999999999
#
# number of rings (size 3 to 8) (size 9 to 14) (size 15 to 20)
#    0.000    0.500    3.750    5.250    0.000    5.500 
#    2.250    0.000    0.000    0.000    0.000    0.000 
#    0.000    0.000    0.000    0.000    0.000    0.000 
#
# Total GULP energy -198295.984804 kJ/mol
# GULP energy per Si atom -12393.499050 kJ/mol
# Density = 2.372374 g / cm^3
# Si number density = 23.777859 Si / 1000 Ang^3
#
#
#
# Elastic Constant Matrix: (Units=GPa)
#
#
# Indices 1 2 3 4 5 6 
#
# 1 144.2427 71.5589 24.4288 -2.9871 -1.1681 -2.3074
# 2 71.5589 150.0785 44.2962 4.8478 0.9270 -0.6922
# 3 24.4288 44.2962 107.8104 -10.3814 8.0156 11.0007
# 4 -2.9871 4.8478 -10.3814 39.3825 1.0279 2.7676
# 5 -1.1681 0.9270 8.0156 1.0279 38.4451 3.5116
# 6 -2.3074 -0.6922 11.0007 2.7676 3.5116 54.3703
#
#
#
# Elastic Compliance Matrix: (Units=1/GPa)
#
#
# Indices 1 2 3 4 5 6 
#
# 1 0.009153 -0.004330 -0.000245 0.001132 0.000376 0.000301
# 2 -0.004330 0.009810 -0.003389 -0.002489 0.000338 0.000732
# 3 -0.000245 -0.003389 0.011486 0.003654 -0.002197 -0.002422
# 4 0.001132 -0.002489 0.003654 0.026920 -0.001203 -0.002016
# 5 0.000376 0.000338 -0.002197 -0.001203 0.026614 -0.001193
# 6 0.000301 0.000732 -0.002422 -0.002016 -0.001193 0.019084
#
#
# Mechanical properties :
#
#
# Convention : Reuss Voigt Hill
#
# Bulk Modulus (GPa) = 68.86174 75.85548 72.35861
# Shear Modulus (GPa) = 40.37651 43.89609 42.13630
#
# Velocity S-wave (km/s) = 4.12524 4.30128 4.21418
# Velocity P-wave (km/s) = 7.19120 7.52589 7.36045
#
# Compressibility (1/GPa) = 0.01452185
#
# Stress axis : x y z
#
# Youngs Moduli (GPa) = 109.24795 101.94112 87.06490
#
# Poissons Ratio (x) = 0.44138 0.02131
# Poissons Ratio (y) = 0.47301 0.29506
# Poissons Ratio (z) = 0.02675 0.34547
#
# Static dielectric constant tensor:
#      x y z
#    x 4.685260 -0.216990 0.179970 
#    y -0.216990 4.270430 0.031350 
#    z 0.179970 0.031350 4.352730 
# 
# 
# High freq. dielectric constant tensor:
#      x y z
#    x 1.958810 -0.009560 0.009880 
#    y -0.009560 1.944110 0.006250 
#    z 0.009880 0.006250 1.947620 
# 
# From -- ./inp_files/524033.got.cif
#   From: 2010.06.25/outbox.cif.g09.slc.cpg/sg2_263_cif.got.tgz:524033.got - 2010.06.27 13:26:56.
