data_PCOD8035624
_publ_section_title
;
Structure prediction by ZEFSAII (Michael W. Deem and Ramdas Pophale) SiO2 
 PCOD8035624
Probable space group: P -1
;
_chemical_formula_sum "Si O2"
_cell_formula_units_Z 14
_cell_length_a 10.857634
_cell_length_b 9.000344
_cell_length_c 7.132293
_cell_angle_alpha 112.911235
_cell_angle_beta 97.057653
_cell_angle_gamma 117.918652
_cell_volume 525.900629
_symmetry_space_group_name_H-M "P -1"
_symmetry_group_IT_number 2
_symmetry_cell_setting 'triclinic'
loop_
_space_group_symop_operation_xyz
x,y,z
-x,-y,-z
loop_
_atom_site_type_symbol
_atom_site_label
_atom_site_fract_x
_atom_site_fract_y
_atom_site_fract_z
Si Si1 0.840740 0.961866 0.904255
Si Si2 0.244689 0.887918 0.649313
Si Si3 0.274279 0.563917 0.631742
Si Si4 0.388463 0.445716 0.283789
Si Si5 0.842509 0.290719 0.861410
Si Si6 0.556620 0.296743 0.911931
Si Si7 0.954678 0.846519 0.573661
O O1 0.699441 0.783909 0.907357
O O2 0.820923 0.845362 0.649524
O O3 0.838083 0.149380 0.951340
O O4 0.000000 0.000000 0.000000
O O5 0.254510 0.740725 0.711055
O O6 0.174790 0.804405 0.392160
O O7 0.118404 0.916399 0.742513
O O8 0.409694 0.080491 0.757185
O O9 0.284773 0.511414 0.391765
O O10 0.124145 0.379338 0.612612
O O11 0.417270 0.627325 0.827970
O O12 0.500000 0.500000 0.500000
O O13 0.459992 0.564233 0.162930
O O14 0.703835 0.305274 0.884356
O O15 0.000000 0.500000 0.000000
O O16 0.000000 0.000000 0.500000
#
# Coordination Sequence:
#
# PCOD8035624 Si02
#       7
#     2   2   2   2   2   2   2
#     4  11  26  43  70 105 140 184 239 294 356 420
#     4  12  25  48  73 103 149 185 241 302 350 427
#     4  11  27  47  72 107 141 192 241 288 361 427
#     4  11  26  47  72 103 147 184 235 300 357 422
#     4  12  25  45  75 104 142 192 238 290 357 431
#     4  12  27  47  76 106 144 191 240 294 362 425
#     4  11  25  46  70 101 142 186 240 297 351 420
#
# _framework density 26.620999999999999
#
# number of rings (size 3 to 8) (size 9 to 14) (size 15 to 20)
#    0.000    0.571    2.857    3.857   10.000    1.714 
#    0.000    0.000    0.000    0.000    0.000    0.000 
#    0.000    0.000    0.000    0.000    0.000    0.000 
#
# Total GULP energy -173492.336393 kJ/mol
# GULP energy per Si atom -12392.309742 kJ/mol
# Density = 2.656041 g / cm^3
# Si number density = 26.621000 Si / 1000 Ang^3
#
#
#
# Elastic Constant Matrix: (Units=GPa)
#
#
# Indices 1 2 3 4 5 6 
#
# 1 86.9230 32.5486 27.5005 11.0669 11.2371 6.5803
# 2 32.5486 248.1231 76.1074 39.4475 21.9267 -28.9354
# 3 27.5005 76.1074 151.6081 20.3389 21.6512 6.9984
# 4 11.0669 39.4475 20.3389 60.1470 15.9689 17.2727
# 5 11.2371 21.9267 21.6512 15.9689 51.1284 -7.7771
# 6 6.5803 -28.9354 6.9984 17.2727 -7.7771 34.0650
#
#
#
# Elastic Compliance Matrix: (Units=1/GPa)
#
#
# Indices 1 2 3 4 5 6 
#
# 1 0.013186 -0.002152 -0.000844 0.001736 -0.003038 -0.005775
# 2 -0.002152 0.007837 -0.003478 -0.007942 0.002966 0.012491
# 3 -0.000844 -0.003478 0.009050 0.002350 -0.003914 -0.006736
# 4 0.001736 -0.007942 0.002350 0.031342 -0.011735 -0.026135
# 5 -0.003038 0.002966 -0.003914 -0.011735 0.026704 0.015957
# 6 -0.005775 0.012491 -0.006736 -0.026135 0.015957 0.059360
#
#
# Mechanical properties :
#
#
# Convention : Reuss Voigt Hill
#
# Bulk Modulus (GPa) = 58.39631 84.32965 71.36298
# Shear Modulus (GPa) = 30.09592 52.43458 41.26525
#
# Velocity S-wave (km/s) = 3.36599 4.44291 3.94140
# Velocity P-wave (km/s) = 6.09018 7.62010 6.89769
#
# Compressibility (1/GPa) = 0.01712437
#
# Stress axis : x y z
#
# Youngs Moduli (GPa) = 75.83665 127.60446 110.49985
#
# Poissons Ratio (x) = 0.27458 0.09326
# Poissons Ratio (y) = 0.16319 0.38436
# Poissons Ratio (z) = 0.06401 0.44386
#
# Static dielectric constant tensor:
#      x y z
#    x 4.183440 -0.165740 -0.570460 
#    y -0.165740 4.795560 -0.378090 
#    z -0.570460 -0.378090 5.504700 
# 
# 
# High freq. dielectric constant tensor:
#      x y z
#    x 2.098340 0.003990 -0.011530 
#    y 0.003990 2.084980 -0.001060 
#    z -0.011530 -0.001060 2.094230 
# 
# From -- ./inp_files/157445.got.cif
#   From: 2010.06.25/outbox.cif.g09.slc.cpg/sg2_79_cif.got.tgz:157445.got - 2010.06.27 13:26:56.
