data_PCOD8035408
_publ_section_title
;
Structure prediction by ZEFSAII (Michael W. Deem and Ramdas Pophale) SiO2 
 PCOD8035408
Probable space group: P -1
;
_chemical_formula_sum "Si O2"
_cell_formula_units_Z 14
_cell_length_a 18.368352
_cell_length_b 9.508487
_cell_length_c 8.976906
_cell_angle_alpha 118.971028
_cell_angle_beta 67.340188
_cell_angle_gamma 151.792989
_cell_volume 645.043803
_symmetry_space_group_name_H-M "P -1"
_symmetry_group_IT_number 2
_symmetry_cell_setting 'triclinic'
loop_
_space_group_symop_operation_xyz
x,y,z
-x,-y,-z
loop_
_atom_site_type_symbol
_atom_site_label
_atom_site_fract_x
_atom_site_fract_y
_atom_site_fract_z
Si Si1 0.454718 0.365323 0.130105
Si Si2 0.043814 0.730084 0.487131
Si Si3 0.564766 0.341018 0.537396
Si Si4 0.310379 0.414434 0.754974
Si Si5 0.146928 0.370372 0.052880
Si Si6 0.740562 0.388472 0.586613
Si Si7 0.872721 0.313015 0.883200
O O1 0.434071 0.475758 0.315226
O O2 0.590969 0.490776 0.142951
O O3 0.294890 0.985491 0.059911
O O4 0.500000 0.500000 0.000000
O O5 0.117820 0.806391 0.312469
O O6 0.000000 0.500000 0.500000
O O7 0.894672 0.579107 0.495930
O O8 0.166882 0.048324 0.644789
O O9 0.582469 0.367205 0.359546
O O10 0.706915 0.495533 0.581619
O O11 0.399955 0.978115 0.523446
O O12 0.251875 0.483535 0.896109
O O13 0.245258 0.549747 0.218532
O O14 0.092507 0.452703 0.094667
O O15 0.000000 0.000000 0.000000
O O16 0.000000 0.500000 0.000000
#
# Coordination Sequence:
#
# PCOD8035408 Si02
#       7
#     2   2   2   2   2   2   2
#     4  12  28  47  73 103 148 190 242 301 361 425
#     4  12  24  46  74 102 139 190 234 294 349 432
#     4  11  26  45  72 104 140 188 238 304 349 433
#     4  12  26  45  75 100 142 187 241 291 364 414
#     4  12  26  47  72 107 148 188 234 303 358 433
#     4  11  25  44  73 102 143 186 243 282 371 424
#     4  12  30  46  74 110 148 189 245 294 363 431
#
# _framework density 21.703952999999998
#
# number of rings (size 3 to 8) (size 9 to 14) (size 15 to 20)
#    0.000    0.286    4.286    3.000   10.000    4.000 
#    0.000    0.000    0.000    0.000    0.000    0.000 
#    0.000    0.000    0.000    0.000    0.000    0.000 
#
# Total GULP energy -173718.826107 kJ/mol
# GULP energy per Si atom -12408.487579 kJ/mol
# Density = 2.165455 g / cm^3
# Si number density = 21.703953 Si / 1000 Ang^3
#
#
#
# Elastic Constant Matrix: (Units=GPa)
#
#
# Indices 1 2 3 4 5 6 
#
# 1 105.3960 27.7407 47.8208 4.4910 15.2654 19.8387
# 2 27.7407 103.4412 20.6863 1.8158 3.9466 14.0751
# 3 47.8208 20.6863 112.9297 -13.5123 -0.5220 4.4475
# 4 4.4910 1.8158 -13.5123 46.8572 2.2246 3.1401
# 5 15.2654 3.9466 -0.5220 2.2246 46.8750 -2.8602
# 6 19.8387 14.0751 4.4475 3.1401 -2.8602 36.6662
#
#
#
# Elastic Compliance Matrix: (Units=1/GPa)
#
#
# Indices 1 2 3 4 5 6 
#
# 1 0.014741 -0.001592 -0.005990 -0.002382 -0.005037 -0.006827
# 2 -0.001592 0.010797 -0.001228 -0.000382 -0.000578 -0.003146
# 3 -0.005990 -0.001228 0.012003 0.003842 0.002133 0.002094
# 4 -0.002382 -0.000382 0.003842 0.022773 -0.000291 -0.001004
# 5 -0.005037 -0.000578 0.002133 -0.000291 0.023336 0.004534
# 6 -0.006827 -0.003146 0.002094 -0.001004 0.004534 0.032360
#
#
# Mechanical properties :
#
#
# Convention : Reuss Voigt Hill
#
# Bulk Modulus (GPa) = 50.19831 57.14028 53.66930
# Shear Modulus (GPa) = 35.64506 41.11429 38.37967
#
# Velocity S-wave (km/s) = 4.05696 4.35710 4.20971
# Velocity P-wave (km/s) = 6.71745 7.19005 6.95776
#
# Compressibility (1/GPa) = 0.01992099
#
# Stress axis : x y z
#
# Youngs Moduli (GPa) = 67.83847 92.61997 83.30933
#
# Poissons Ratio (x) = 0.14749 0.49901
# Poissons Ratio (y) = 0.10803 0.10229
# Poissons Ratio (z) = 0.40634 0.11372
#
# Static dielectric constant tensor:
#      x y z
#    x 4.581060 -0.710930 -0.385200 
#    y -0.710930 5.346510 0.383190 
#    z -0.385200 0.383190 4.341180 
# 
# 
# High freq. dielectric constant tensor:
#      x y z
#    x 1.865870 0.004710 -0.002300 
#    y 0.004710 1.863120 0.001230 
#    z -0.002300 0.001230 1.865260 
# 
# From -- ./inp_files/152841.got.cif
#   From: 2010.06.25/outbox.cif.g09.slc.cpg/sg2_77_cif.got.tgz:152841.got - 2010.06.27 13:26:56.
