data_PCOD8035192
_publ_section_title
;
Structure prediction by ZEFSAII (Michael W. Deem and Ramdas Pophale) SiO2 
 PCOD8035192
Probable space group: P -1
;
_chemical_formula_sum "Si O2"
_cell_formula_units_Z 16
_cell_length_a 16.459788
_cell_length_b 18.779336
_cell_length_c 11.303970
_cell_angle_alpha 157.175115
_cell_angle_beta 41.654503
_cell_angle_gamma 148.215159
_cell_volume 702.580914
_symmetry_space_group_name_H-M "P -1"
_symmetry_group_IT_number 2
_symmetry_cell_setting 'triclinic'
loop_
_space_group_symop_operation_xyz
x,y,z
-x,-y,-z
loop_
_atom_site_type_symbol
_atom_site_label
_atom_site_fract_x
_atom_site_fract_y
_atom_site_fract_z
Si Si1 0.336934 0.679724 0.943882
Si Si2 0.323480 0.012027 0.883884
Si Si3 0.346479 0.950715 0.146016
Si Si4 0.735469 0.391772 0.815534
Si Si5 0.799746 0.758068 0.737497
Si Si6 0.910284 0.343398 0.216784
Si Si7 0.366050 0.371950 0.851548
Si Si8 0.880589 0.741053 0.872815
O O1 0.238645 0.426560 0.602666
O O2 0.311162 0.844288 0.153046
O O3 0.276353 0.649966 0.096180
O O4 0.521649 0.808507 0.932484
O O5 0.344939 0.852678 0.537675
O O6 0.174838 0.854606 0.891803
O O7 0.308587 0.167044 0.047874
O O8 0.372533 0.191606 0.494644
O O9 0.192348 0.761568 0.949639
O O10 0.500000 0.000000 0.000000
O O11 0.919486 0.583767 0.878112
O O12 0.629855 0.465817 0.004282
O O13 0.771944 0.647600 0.729470
O O14 0.977304 0.987851 0.883721
O O15 0.928757 0.574188 0.589481
O O16 0.500000 0.500000 0.000000
O O17 0.205226 0.256666 0.917976
#
# Coordination Sequence:
#
# PCOD8035192 Si02
#       8
#     2   2   2   2   2   2   2   2
#     4  12  28  44  71 108 152 189 248 302 369 430
#     4  12  24  46  73 103 148 197 241 304 364 439
#     4  12  27  49  74 106 146 197 244 298 371 436
#     4  12  28  46  72 116 145 193 246 306 370 429
#     4  11  26  43  74 106 147 190 245 299 372 428
#     4  12  24  49  80 101 150 196 247 302 363 442
#     4  12  28  46  76 104 148 190 250 304 362 439
#     4  11  24  49  74 106 141 197 246 300 362 444
#
# _framework density 22.773177
#
# number of rings (size 3 to 8) (size 9 to 14) (size 15 to 20)
#    0.000    0.250    5.000    3.375    7.000    1.000 
#    0.000    0.000    0.000    0.000    0.000    0.000 
#    0.000    0.000    0.000    0.000    0.000    0.000 
#
# Total GULP energy -198455.393312 kJ/mol
# GULP energy per Si atom -12403.462082 kJ/mol
# Density = 2.272134 g / cm^3
# Si number density = 22.773177 Si / 1000 Ang^3
#
#
#
# Elastic Constant Matrix: (Units=GPa)
#
#
# Indices 1 2 3 4 5 6 
#
# 1 66.3987 -13.0740 2.2074 -23.1063 1.9736 20.6197
# 2 -13.0740 46.5357 6.3337 -21.3185 6.6597 4.7658
# 3 2.2074 6.3337 92.8680 -16.9085 -0.9936 13.8978
# 4 -23.1063 -21.3185 -16.9085 26.2334 6.8352 12.5562
# 5 1.9736 6.6597 -0.9936 6.8352 50.7221 -0.4601
# 6 20.6197 4.7658 13.8978 12.5562 -0.4601 36.0784
#
#
#
# Elastic Compliance Matrix: (Units=1/GPa)
#
#
# Indices 1 2 3 4 5 6 
#
# 1 -0.002821 -0.015437 -0.006393 -0.028403 0.005985 0.016075
# 2 -0.015437 0.002885 -0.007967 -0.027543 0.003969 0.021147
# 3 -0.006393 -0.007967 0.009226 -0.008921 0.002717 0.004292
# 4 -0.028403 -0.027543 -0.008921 -0.034464 0.009512 0.035423
# 5 0.005985 0.003969 0.002717 0.009512 0.017659 -0.008076
# 6 0.016075 0.021147 0.004292 0.035423 -0.008076 0.001652
#
#
# Mechanical properties :
#
#
# Convention : Reuss Voigt Hill
#
# Bulk Modulus (GPa) = -19.87945 21.85963 0.99009
# Shear Modulus (GPa) = 135.26839 36.62914 85.94876
#
# Velocity S-wave (km/s) = 7.71538 4.01488 6.15005
# Velocity P-wave (km/s) = 8.40364 5.57782 7.13208
#
# Compressibility (1/GPa) = -0.05030320
#
# Stress axis : x y z
#
# Youngs Moduli (GPa) = -354.54262 346.63544 108.39027
#
# Poissons Ratio (x) = 5.35096 0.69296
# Poissons Ratio (y) = -5.47302 0.86352
# Poissons Ratio (z) = -2.26665 2.76155
#
# Static dielectric constant tensor:
#      x y z
#    x 4.581980 -0.055980 0.044330 
#    y -0.055980 4.040240 0.110090 
#    z 0.044330 0.110090 4.150120 
# 
# 
# High freq. dielectric constant tensor:
#      x y z
#    x 1.928850 -0.002890 0.006970 
#    y -0.002890 1.897370 0.009660 
#    z 0.006970 0.009660 1.898840 
# 
# From -- ./inp_files/403331.got.cif
#   From: 2010.06.25/outbox.cif.g09.slc.cpg/sg2_202_cif.got.tgz:403331.got - 2010.06.27 13:26:56.
