data_PCOD8035724
_publ_section_title
;
Structure prediction by ZEFSAII (Michael W. Deem and Ramdas Pophale) SiO2 
 PCOD8035724
Probable space group: P -1
;
_chemical_formula_sum "Si O2"
_cell_formula_units_Z 16
_cell_length_a 11.934837
_cell_length_b 11.213934
_cell_length_c 11.183669
_cell_angle_alpha 85.911691
_cell_angle_beta 132.815716
_cell_angle_gamma 59.150941
_cell_volume 702.642007
_symmetry_space_group_name_H-M "P -1"
_symmetry_group_IT_number 2
_symmetry_cell_setting 'triclinic'
loop_
_space_group_symop_operation_xyz
x,y,z
-x,-y,-z
loop_
_atom_site_type_symbol
_atom_site_label
_atom_site_fract_x
_atom_site_fract_y
_atom_site_fract_z
Si Si1 0.903197 0.717938 0.975678
Si Si2 0.629168 0.532810 0.532977
Si Si3 0.096436 0.730072 0.471668
Si Si4 0.624316 0.116241 0.001658
Si Si5 0.138522 0.318302 0.544223
Si Si6 0.526175 0.368276 0.108815
Si Si7 0.923843 0.470211 0.126925
Si Si8 0.763307 0.074639 0.861437
O O1 0.175061 0.554503 0.222850
O O2 0.797704 0.673694 0.985480
O O3 0.902561 0.683143 0.839076
O O4 0.776753 0.921985 0.883728
O O5 0.500000 0.500000 0.500000
O O6 0.733228 0.447307 0.481008
O O7 0.450399 0.752816 0.389288
O O8 0.246325 0.753285 0.629300
O O9 0.001436 0.718581 0.521213
O O10 0.863966 0.899617 0.215136
O O11 0.550167 0.236615 0.054006
O O12 0.412877 0.154174 0.800507
O O13 0.696188 0.159054 0.940503
O O14 0.000000 0.500000 0.500000
O O15 0.108421 0.366822 0.379162
O O16 0.500000 0.500000 0.000000
O O17 0.288804 0.494866 0.005512
O O18 0.000000 0.000000 0.000000
#
# Coordination Sequence:
#
# PCOD8035724 Si02
#       8
#     2   2   2   2   2   2   2   2
#     4  11  25  47  72 107 153 190 259 297 376 447
#     4  12  23  46  74 106 149 195 247 306 371 441
#     4  12  25  44  72 108 149 193 245 309 374 439
#     4  12  26  43  70 111 148 188 248 304 376 446
#     4  12  23  45  74 104 144 194 245 300 372 443
#     4  12  24  44  71 104 148 193 249 303 376 437
#     4  11  25  46  74 106 150 202 242 316 369 441
#     4  12  25  43  75 109 144 196 249 304 369 446
#
# _framework density 22.771197000000001
#
# number of rings (size 3 to 8) (size 9 to 14) (size 15 to 20)
#    0.000    0.250    5.000    4.500    1.750    1.000 
#    0.000    6.875    0.000    0.000    0.000    0.000 
#    0.000    0.000    0.000    0.000    0.000    0.000 
#
# Total GULP energy -198317.152817 kJ/mol
# GULP energy per Si atom -12394.822051 kJ/mol
# Density = 2.271937 g / cm^3
# Si number density = 22.771197 Si / 1000 Ang^3
#
#
#
# Elastic Constant Matrix: (Units=GPa)
#
#
# Indices 1 2 3 4 5 6 
#
# 1 131.8286 25.9228 46.6248 6.1199 4.4177 5.5943
# 2 25.9228 83.1190 54.7911 3.2723 -5.4331 5.5572
# 3 46.6248 54.7911 164.5451 0.3155 -1.6957 2.1205
# 4 6.1199 3.2723 0.3155 47.8310 4.7867 -9.9767
# 5 4.4177 -5.4331 -1.6957 4.7867 41.2202 0.4927
# 6 5.5943 5.5572 2.1205 -9.9767 0.4927 37.9376
#
#
#
# Elastic Compliance Matrix: (Units=1/GPa)
#
#
# Indices 1 2 3 4 5 6 
#
# 1 0.008702 -0.001320 -0.002018 -0.001171 -0.001039 -0.001271
# 2 -0.001320 0.016050 -0.004914 -0.001611 0.002270 -0.002335
# 3 -0.002018 -0.004914 0.008273 0.000714 -0.000183 0.000745
# 4 -0.001171 -0.001611 0.000714 0.022774 -0.002778 0.006394
# 5 -0.001039 0.002270 -0.000183 -0.002778 0.025000 -0.001224
# 6 -0.001271 -0.002335 0.000745 0.006394 -0.001224 0.028544
#
#
# Mechanical properties :
#
#
# Convention : Reuss Voigt Hill
#
# Bulk Modulus (GPa) = 60.53285 70.46332 65.49809
# Shear Modulus (GPa) = 38.06518 42.20803 40.13661
#
# Velocity S-wave (km/s) = 4.09300 4.30998 4.20289
# Velocity P-wave (km/s) = 6.99840 7.46855 7.23729
#
# Compressibility (1/GPa) = 0.01651996
#
# Stress axis : x y z
#
# Youngs Moduli (GPa) = 114.91391 62.30687 120.88200
#
# Poissons Ratio (x) = 0.08227 0.24397
# Poissons Ratio (y) = 0.15173 0.59396
# Poissons Ratio (z) = 0.23192 0.30615
#
# Static dielectric constant tensor:
#      x y z
#    x 3.216270 -1.025280 -1.727790 
#    y -1.025280 2.871160 -2.067240 
#    z -1.727790 -2.067240 0.613050 
# 
# 
# High freq. dielectric constant tensor:
#      x y z
#    x 1.920600 -0.003780 -0.001450 
#    y -0.003780 1.883060 0.006360 
#    z -0.001450 0.006360 1.909600 
# 
# From -- ./inp_files/428237.got.cif
#   From: 2010.06.25/outbox.cif.g09.slc.cpg/sg2_215_cif.got.tgz:428237.got - 2010.06.27 13:26:56.
