data_PCOD8035701
_publ_section_title
;
Structure prediction by ZEFSAII (Michael W. Deem and Ramdas Pophale) SiO2 
 PCOD8035701
Probable space group: P -1
;
_chemical_formula_sum "Si O2"
_cell_formula_units_Z 6
_cell_length_a 4.809254
_cell_length_b 5.660629
_cell_length_c 7.386452
_cell_angle_alpha 70.173585
_cell_angle_beta 86.516599
_cell_angle_gamma 85.739306
_cell_volume 188.506616
_symmetry_space_group_name_H-M "P -1"
_symmetry_group_IT_number 2
_symmetry_cell_setting 'triclinic'
loop_
_space_group_symop_operation_xyz
x,y,z
-x,-y,-z
loop_
_atom_site_type_symbol
_atom_site_label
_atom_site_fract_x
_atom_site_fract_y
_atom_site_fract_z
Si Si1 0.736183 0.678817 0.409880
Si Si2 0.370567 0.762669 0.737831
Si Si3 0.862420 0.757516 0.990812
O O1 0.464542 0.636101 0.569096
O O2 0.000000 0.500000 0.500000
O O3 0.792781 0.971117 0.371937
O O4 0.696896 0.644763 0.200827
O O5 0.642923 0.824216 0.823581
O O6 0.149948 0.617513 0.918458
O O7 0.000000 0.000000 0.000000
#
# Coordination Sequence:
#
# PCOD8035701 Si02
#       3
#     2   2   2
#     4  11  25  46  73 102 137 182 228 283 338 405
#     4  11  27  48  68 103 139 180 228 280 340 406
#     4  12  25  47  72 100 140 182 225 281 343 403
#
# _framework density 31.829121000000001
#
# number of rings (size 3 to 8) (size 9 to 14) (size 15 to 20)
#    0.000    0.667    3.333    3.000    0.000    9.333 
#    0.000    0.000    0.000    0.000    0.000    0.000 
#    0.000    0.000    0.000    0.000    0.000    0.000 
#
# Total GULP energy -74423.977338 kJ/mol
# GULP energy per Si atom -12403.996223 kJ/mol
# Density = 3.175668 g / cm^3
# Si number density = 31.829121 Si / 1000 Ang^3
#
#
#
# Elastic Constant Matrix: (Units=GPa)
#
#
# Indices 1 2 3 4 5 6 
#
# 1 220.3890 110.0738 106.3912 11.0151 -24.7369 -0.7673
# 2 110.0738 342.3646 151.2138 49.9885 -25.4439 -28.1088
# 3 106.3912 151.2138 251.5991 24.2185 -48.3673 0.1672
# 4 11.0151 49.9885 24.2185 69.4792 1.3178 0.0568
# 5 -24.7369 -25.4439 -48.3673 1.3178 95.2894 -2.5564
# 6 -0.7673 -28.1088 0.1672 0.0568 -2.5564 66.1715
#
#
#
# Elastic Compliance Matrix: (Units=1/GPa)
#
#
# Indices 1 2 3 4 5 6 
#
# 1 0.006030 -0.001238 -0.001801 0.000557 0.000301 -0.000440
# 2 -0.001238 0.004785 -0.002117 -0.002509 -0.000030 0.002024
# 3 -0.001801 -0.002117 0.006488 -0.000495 0.002245 -0.000850
# 4 0.000557 -0.002509 -0.000495 0.016302 -0.001032 -0.001112
# 5 0.000301 -0.000030 0.002245 -0.001032 0.011730 0.000439
# 6 -0.000440 0.002024 -0.000850 -0.001112 0.000439 0.015987
#
#
# Mechanical properties :
#
#
# Convention : Reuss Voigt Hill
#
# Bulk Modulus (GPa) = 143.07933 172.19002 157.63468
# Shear Modulus (GPa) = 67.59899 75.96628 71.78264
#
# Velocity S-wave (km/s) = 4.61348 4.89068 4.75410
# Velocity P-wave (km/s) = 8.56906 9.27940 8.93130
#
# Compressibility (1/GPa) = 0.00698913
#
# Stress axis : x y z
#
# Youngs Moduli (GPa) = 165.84499 209.00420 154.12083
#
# Poissons Ratio (x) = 0.25882 0.27757
# Poissons Ratio (y) = 0.20538 0.32635
# Poissons Ratio (z) = 0.29868 0.44256
#
# Static dielectric constant tensor:
#      x y z
#    x 5.896100 -0.241790 -1.586820 
#    y -0.241790 7.903510 0.496660 
#    z -1.586820 0.496660 7.964580 
# 
# 
# High freq. dielectric constant tensor:
#      x y z
#    x 2.313030 0.019830 -0.082120 
#    y 0.019830 2.465080 0.001280 
#    z -0.082120 0.001280 2.384800 
# 
# From -- ./inp_files/15051.got.cif
#   From: 2010.06.25/outbox.cif.g09.slc.cpg/sg2_8_cif.got.tgz:15051.got - 2010.06.27 13:26:56.
