data_PCOD8035830
_publ_section_title
;
Structure prediction by ZEFSAII (Michael W. Deem and Ramdas Pophale) SiO2 
 PCOD8035830
Probable space group: P -1
;
_chemical_formula_sum "Si O2"
_cell_formula_units_Z 16
_cell_length_a 17.507717
_cell_length_b 20.117586
_cell_length_c 11.175474
_cell_angle_alpha 140.100030
_cell_angle_beta 29.735204
_cell_angle_gamma 159.188001
_cell_volume 671.173408
_symmetry_space_group_name_H-M "P -1"
_symmetry_group_IT_number 2
_symmetry_cell_setting 'triclinic'
loop_
_space_group_symop_operation_xyz
x,y,z
-x,-y,-z
loop_
_atom_site_type_symbol
_atom_site_label
_atom_site_fract_x
_atom_site_fract_y
_atom_site_fract_z
Si Si1 0.536774 0.218193 0.713834
Si Si2 0.628206 0.593705 0.090548
Si Si3 0.360368 0.484454 0.559197
Si Si4 0.963686 0.995664 0.220811
Si Si5 0.694526 0.093686 0.976777
Si Si6 0.022353 0.387040 0.428817
Si Si7 0.267467 0.946044 0.515459
Si Si8 0.735477 0.892135 0.638634
O O1 0.745667 0.294734 0.637210
O O2 0.719262 0.383306 0.589991
O O3 0.371097 0.025945 0.619769
O O4 0.301335 0.163714 0.012485
O O5 0.422709 0.476342 0.327639
O O6 0.784477 0.792716 0.148459
O O7 0.500000 0.500000 0.000000
O O8 0.859998 0.633321 0.853458
O O9 0.500000 0.500000 0.500000
O O10 0.472657 0.664643 0.671811
O O11 0.022567 0.300177 0.783659
O O12 0.851320 0.985426 0.478897
O O13 0.921526 0.060776 0.269251
O O14 0.642673 0.948728 0.900352
O O15 0.500000 0.000000 0.000000
O O16 0.568015 0.103844 0.256235
O O17 0.933637 0.272178 0.511497
O O18 0.000000 0.000000 0.500000
#
# Coordination Sequence:
#
# PCOD8035830 Si02
#       8
#     2   2   2   2   2   2   2   2
#     4  11  26  45  68 108 141 185 247 297 371 447
#     4  11  26  46  77 109 152 192 254 309 385 445
#     4  11  27  48  79 112 148 206 257 308 378 463
#     4  11  25  47  73 105 147 194 247 310 374 458
#     4  12  28  48  74 109 150 197 253 315 378 449
#     4  11  27  42  71 107 143 192 235 309 373 434
#     4  12  26  46  71 102 149 186 245 305 375 435
#     4  11  25  48  74 107 144 200 255 310 375 452
#
# _framework density 23.838844999999999
#
# number of rings (size 3 to 8) (size 9 to 14) (size 15 to 20)
#    0.000    0.750    3.750    1.500    8.750    1.500 
#    0.000    0.000    0.000    0.000    0.000    0.000 
#    0.000    0.000    0.000    0.000    0.000    0.000 
#
# Total GULP energy -198212.697072 kJ/mol
# GULP energy per Si atom -12388.293567 kJ/mol
# Density = 2.378459 g / cm^3
# Si number density = 23.838845 Si / 1000 Ang^3
#
#
#
# Elastic Constant Matrix: (Units=GPa)
#
#
# Indices 1 2 3 4 5 6 
#
# 1 94.5666 37.1937 40.4185 -10.0849 -14.1039 -9.0485
# 2 37.1937 99.6336 44.3091 -14.3387 -10.0347 -17.6415
# 3 40.4185 44.3091 161.7730 -23.0047 -18.5560 -7.2320
# 4 -10.0849 -14.3387 -23.0047 42.5639 -3.5212 2.5698
# 5 -14.1039 -10.0347 -18.5560 -3.5212 49.3926 1.4195
# 6 -9.0485 -17.6415 -7.2320 2.5698 1.4195 36.4838
#
#
#
# Elastic Compliance Matrix: (Units=1/GPa)
#
#
# Indices 1 2 3 4 5 6 
#
# 1 0.013359 -0.003564 -0.001882 0.001086 0.002431 0.001046
# 2 -0.003564 0.013675 -0.002182 0.002355 0.000962 0.005093
# 3 -0.001882 -0.002182 0.007970 0.003329 0.002259 -0.000264
# 4 0.001086 0.002355 0.003329 0.026668 0.003939 0.000036
# 5 0.002431 0.000962 0.002259 0.003939 0.022254 0.000373
# 6 0.001046 0.005093 -0.000264 0.000036 0.000373 0.030062
#
#
# Mechanical properties :
#
#
# Convention : Reuss Voigt Hill
#
# Bulk Modulus (GPa) = 50.63588 66.64619 58.64104
# Shear Modulus (GPa) = 36.81166 41.29152 39.05159
#
# Velocity S-wave (km/s) = 3.93388 4.16638 4.05180
# Velocity P-wave (km/s) = 6.47464 7.15280 6.82215
#
# Compressibility (1/GPa) = 0.01974884
#
# Stress axis : x y z
#
# Youngs Moduli (GPa) = 74.85667 73.12462 125.47035
#
# Poissons Ratio (x) = 0.26061 0.23608
# Poissons Ratio (y) = 0.26678 0.27380
# Poissons Ratio (z) = 0.14085 0.15957
#
# Static dielectric constant tensor:
#      x y z
#    x 4.238450 -0.189750 0.012350 
#    y -0.189750 4.459520 0.056450 
#    z 0.012350 0.056450 4.307130 
# 
# 
# High freq. dielectric constant tensor:
#      x y z
#    x 1.939000 -0.015910 -0.013260 
#    y -0.015910 1.957240 -0.007300 
#    z -0.013260 -0.007300 1.958760 
# 
# From -- ./inp_files/467133.got.cif
#   From: 2010.06.25/outbox.cif.g09.slc.cpg/sg2_234_cif.got.tgz:467133.got - 2010.06.27 13:26:56.
