data_PCOD8035363
_publ_section_title
;
Structure prediction by ZEFSAII (Michael W. Deem and Ramdas Pophale) SiO2 
 PCOD8035363
Probable space group: P -1
;
_chemical_formula_sum "Si O2"
_cell_formula_units_Z 14
_cell_length_a 19.914476
_cell_length_b 13.507871
_cell_length_c 9.183822
_cell_angle_alpha 134.476867
_cell_angle_beta 33.812735
_cell_angle_gamma 152.904972
_cell_volume 618.683813
_symmetry_space_group_name_H-M "P -1"
_symmetry_group_IT_number 2
_symmetry_cell_setting 'triclinic'
loop_
_space_group_symop_operation_xyz
x,y,z
-x,-y,-z
loop_
_atom_site_type_symbol
_atom_site_label
_atom_site_fract_x
_atom_site_fract_y
_atom_site_fract_z
Si Si1 0.925854 0.760092 0.675290
Si Si2 0.690033 0.757592 0.913535
Si Si3 0.623070 0.011995 0.395731
Si Si4 0.630123 0.196236 0.079419
Si Si5 0.303753 0.479467 0.880896
Si Si6 0.033083 0.492115 0.766308
Si Si7 0.698745 0.781284 0.592840
O O1 0.838754 0.821910 0.824457
O O2 0.866440 0.569202 0.494967
O O3 0.873080 0.696941 0.874155
O O4 0.153926 0.978887 0.493909
O O5 0.764893 0.809440 0.667410
O O6 0.500000 0.500000 0.000000
O O7 0.658273 0.890990 0.142438
O O8 0.829820 0.270832 0.313047
O O9 0.500000 0.000000 0.500000
O O10 0.504621 0.886620 0.627355
O O11 0.718807 0.409249 0.064497
O O12 0.822500 0.285821 0.865037
O O13 0.500000 0.000000 0.000000
O O14 0.488570 0.661065 0.840256
O O15 0.311058 0.362968 0.634508
O O16 0.000000 0.500000 0.000000
#
# Coordination Sequence:
#
# PCOD8035363 Si02
#       7
#     2   2   2   2   2   2   2
#     4  12  26  46  74 105 145 184 242 293 356 429
#     4  12  25  46  77 106 142 190 241 297 358 426
#     4  12  27  48  76 105 147 192 244 301 361 432
#     4  12  28  47  75 106 149 193 243 298 368 431
#     4  11  26  45  70 103 146 187 234 296 358 428
#     4  12  27  47  77 107 146 193 245 298 363 432
#     4  11  25  44  70 103 146 184 234 294 359 421
#
# _framework density 22.628681
#
# number of rings (size 3 to 8) (size 9 to 14) (size 15 to 20)
#    0.000    0.286    2.857    5.143    8.000    3.429 
#    0.000    0.000    0.000    0.000    0.000    0.000 
#    0.000    0.000    0.000    0.000    0.000    0.000 
#
# Total GULP energy -173607.996449 kJ/mol
# GULP energy per Si atom -12400.571175 kJ/mol
# Density = 2.257718 g / cm^3
# Si number density = 22.628681 Si / 1000 Ang^3
#
#
#
# Elastic Constant Matrix: (Units=GPa)
#
#
# Indices 1 2 3 4 5 6 
#
# 1 113.4073 52.4054 59.4741 7.2781 29.9657 -17.9565
# 2 52.4054 129.2689 48.2690 -15.2692 -27.6779 2.3305
# 3 59.4741 48.2690 119.5870 1.8805 8.2059 -11.2551
# 4 7.2781 -15.2692 1.8805 49.5828 -23.4323 6.5437
# 5 29.9657 -27.6779 8.2059 -23.4323 9.7609 7.3914
# 6 -17.9565 2.3305 -11.2551 6.5437 7.3914 38.2617
#
#
#
# Elastic Compliance Matrix: (Units=1/GPa)
#
#
# Indices 1 2 3 4 5 6 
#
# 1 0.006072 0.003137 -0.005500 0.006617 0.012692 -0.002543
# 2 0.003137 0.004053 -0.001969 -0.005099 -0.011566 0.003753
# 3 -0.005500 -0.001969 0.011889 0.000165 0.001099 0.000795
# 4 0.006617 -0.005099 0.000165 0.009496 -0.015824 0.004897
# 5 0.012692 -0.011566 0.001099 -0.015824 -0.018228 0.013212
# 6 -0.002543 0.003753 0.000795 0.004897 0.013212 0.021558
#
#
# Mechanical properties :
#
#
# Convention : Reuss Voigt Hill
#
# Bulk Modulus (GPa) = 74.90874 75.84001 75.37438
# Shear Modulus (GPa) = 104.26817 32.99539 68.63178
#
# Velocity S-wave (km/s) = 6.79543 3.82268 5.51320
# Velocity P-wave (km/s) = 9.73375 7.28503 8.59702
#
# Compressibility (1/GPa) = 0.01334958
#
# Stress axis : x y z
#
# Youngs Moduli (GPa) = 164.70274 246.73643 84.11025
#
# Poissons Ratio (x) = -0.77409 0.46262
# Poissons Ratio (y) = -0.51672 0.16563
# Poissons Ratio (z) = 0.90589 0.48586
#
# Static dielectric constant tensor:
#      x y z
#    x 4.466150 -0.034630 0.139600 
#    y -0.034630 4.424340 -0.373410 
#    z 0.139600 -0.373410 4.417570 
# 
# 
# High freq. dielectric constant tensor:
#      x y z
#    x 1.891050 -0.004840 0.004930 
#    y -0.004840 1.915890 -0.005320 
#    z 0.004930 -0.005320 1.904510 
# 
# From -- ./inp_files/333689.got.cif
#   From: 2010.06.25/outbox.cif.g09.slc.cpg/sg2_167_cif.got.tgz:333689.got - 2010.06.27 13:26:56.
