data_PCOD8035666
_publ_section_title
;
Structure prediction by ZEFSAII (Michael W. Deem and Ramdas Pophale) SiO2 
 PCOD8035666
Probable space group: P -1
;
_chemical_formula_sum "Si O2"
_cell_formula_units_Z 12
_cell_length_a 6.802834
_cell_length_b 9.741454
_cell_length_c 16.587985
_cell_angle_alpha 54.262995
_cell_angle_beta 51.748904
_cell_angle_gamma 44.874679
_cell_volume 587.760379
_symmetry_space_group_name_H-M "P -1"
_symmetry_group_IT_number 2
_symmetry_cell_setting 'triclinic'
loop_
_space_group_symop_operation_xyz
x,y,z
-x,-y,-z
loop_
_atom_site_type_symbol
_atom_site_label
_atom_site_fract_x
_atom_site_fract_y
_atom_site_fract_z
Si Si1 0.759380 0.664456 0.065698
Si Si2 0.254886 0.455955 0.707392
Si Si3 0.219315 0.136798 0.716478
Si Si4 0.122519 0.988179 0.059765
Si Si5 0.094761 0.656113 0.427321
Si Si6 0.863465 0.867180 0.575920
O O1 0.769676 0.564085 0.183405
O O2 0.429876 0.772951 0.072995
O O3 0.000000 0.500000 0.000000
O O4 0.841478 0.828397 0.998690
O O5 0.221217 0.289604 0.727527
O O6 0.560253 0.434519 0.609640
O O7 0.002569 0.679614 0.666564
O O8 0.145485 0.985087 0.827289
O O9 0.959114 0.247039 0.679395
O O10 0.522851 0.010270 0.635583
O O11 0.000000 0.000000 0.000000
O O12 0.000000 0.500000 0.500000
O O13 0.887883 0.805772 0.498336
O O14 0.000000 0.000000 0.500000
#
# Coordination Sequence:
#
# PCOD8035666 Si02
#       6
#     2   2   2   2   2   2
#     4  11  27  45  72 104 138 176 230 288 344 410
#     4  12  25  46  68 102 142 178 226 292 343 397
#     4  12  25  45  71 102 138 182 231 281 341 411
#     4  11  25  46  72 101 136 180 228 285 344 405
#     4  12  24  45  69  98 140 180 229 281 342 399
#     4  12  26  43  72 103 137 185 232 279 336 411
#
# _framework density 20.416485000000002
#
# number of rings (size 3 to 8) (size 9 to 14) (size 15 to 20)
#    0.000    0.333    6.667    2.000    2.333    4.667 
#    0.000    0.000    0.000    0.000    0.000    0.000 
#    0.000    0.000    0.000    0.000    0.000    0.000 
#
# Total GULP energy -148774.521681 kJ/mol
# GULP energy per Si atom -12397.876807 kJ/mol
# Density = 2.037002 g / cm^3
# Si number density = 20.416485 Si / 1000 Ang^3
#
#
#
# Elastic Constant Matrix: (Units=GPa)
#
#
# Indices 1 2 3 4 5 6 
#
# 1 103.5690 21.5787 33.8045 1.9279 8.1490 13.0526
# 2 21.5787 75.8627 18.1466 12.9395 3.7491 19.8950
# 3 33.8045 18.1466 124.6742 2.2395 5.6059 18.6608
# 4 1.9279 12.9395 2.2395 39.7414 2.1423 0.7580
# 5 8.1490 3.7491 5.6059 2.1423 52.1682 1.0764
# 6 13.0526 19.8950 18.6608 0.7580 1.0764 24.7178
#
#
#
# Elastic Compliance Matrix: (Units=1/GPa)
#
#
# Indices 1 2 3 4 5 6 
#
# 1 0.011244 -0.001966 -0.002327 0.000346 -0.001327 -0.002551
# 2 -0.001966 0.018241 0.000016 -0.005561 -0.000499 -0.013463
# 3 -0.002327 0.000016 0.009574 -0.000289 -0.000531 -0.005979
# 4 0.000346 -0.005561 -0.000289 0.026945 -0.000807 0.003720
# 5 -0.001327 -0.000499 -0.000531 -0.000807 0.019488 0.000679
# 6 -0.002551 -0.013463 -0.005979 0.003720 0.000679 0.057011
#
#
# Mechanical properties :
#
#
# Convention : Reuss Voigt Hill
#
# Bulk Modulus (GPa) = 32.78346 50.12952 41.45649
# Shear Modulus (GPa) = 31.01227 38.69720 34.85474
#
# Velocity S-wave (km/s) = 3.90164 4.35833 4.13629
# Velocity P-wave (km/s) = 6.03235 7.06636 6.56973
#
# Compressibility (1/GPa) = 0.03050319
#
# Stress axis : x y z
#
# Youngs Moduli (GPa) = 88.93550 54.82100 104.45278
#
# Poissons Ratio (x) = 0.10778 0.24310
# Poissons Ratio (y) = 0.17485 -0.00162
# Poissons Ratio (z) = 0.20698 -0.00085
#
# Static dielectric constant tensor:
#      x y z
#    x 3.637570 -0.122010 0.018830 
#    y -0.122010 3.658010 -0.067930 
#    z 0.018830 -0.067930 3.870090 
# 
# 
# High freq. dielectric constant tensor:
#      x y z
#    x 1.818880 0.000260 -0.000580 
#    y 0.000260 1.794050 -0.002510 
#    z -0.000580 -0.002510 1.824380 
# 
# From -- ./inp_files/3248.got.cif
#   From: 2010.06.25/outbox.cif.g09.slc.cpg/sg2_2_cif.got.tgz:3248.got - 2010.06.27 13:26:56.
