data_PCOD8035320
_publ_section_title
;
Structure prediction by ZEFSAII (Michael W. Deem and Ramdas Pophale) SiO2 
 PCOD8035320
Probable space group: P -1
;
_chemical_formula_sum "Si O2"
_cell_formula_units_Z 10
_cell_length_a 14.800810
_cell_length_b 14.727899
_cell_length_c 9.005631
_cell_angle_alpha 140.229268
_cell_angle_beta 40.682422
_cell_angle_gamma 161.383855
_cell_volume 396.560235
_symmetry_space_group_name_H-M "P -1"
_symmetry_group_IT_number 2
_symmetry_cell_setting 'triclinic'
loop_
_space_group_symop_operation_xyz
x,y,z
-x,-y,-z
loop_
_atom_site_type_symbol
_atom_site_label
_atom_site_fract_x
_atom_site_fract_y
_atom_site_fract_z
Si Si1 0.135854 0.047749 0.116685
Si Si2 0.761382 0.626820 0.795180
Si Si3 0.883853 0.429596 0.392169
Si Si4 0.423808 0.866403 0.084775
Si Si5 0.652261 0.513037 0.237872
O O1 0.964787 0.850673 0.230485
O O2 0.018904 0.856001 0.881807
O O3 0.107427 0.191311 0.293590
O O4 0.472499 0.318588 0.066185
O O5 0.682599 0.390480 0.582291
O O6 0.500000 0.500000 0.000000
O O7 0.000000 0.500000 0.500000
O O8 0.148468 0.693403 0.283532
O O9 0.691278 0.125897 0.191472
O O10 0.342878 0.629247 0.857332
O O11 0.500000 0.000000 0.000000
O O12 0.500000 0.500000 0.500000
#
# Coordination Sequence:
#
# PCOD8035320 Si02
#       5
#     2   2   2   2   2
#     4  11  25  43  72 109 141 178 249 298 360 417
#     4  11  25  44  79 108 145 183 247 307 357 433
#     4  12  28  48  79 107 153 196 246 305 377 439
#     4  12  29  49  74 110 154 195 246 305 378 440
#     4  12  26  46  74 100 146 193 244 292 360 443
#
# _framework density 25.216850999999998
#
# number of rings (size 3 to 8) (size 9 to 14) (size 15 to 20)
#    0.000    0.400    2.000    5.400   11.200    0.000 
#    0.000    0.000    0.000    0.000    0.000    0.000 
#    0.000    0.000    0.000    0.000    0.000    0.000 
#
# Total GULP energy -123936.279312 kJ/mol
# GULP energy per Si atom -12393.627931 kJ/mol
# Density = 2.515946 g / cm^3
# Si number density = 25.216851 Si / 1000 Ang^3
#
#
#
# Elastic Constant Matrix: (Units=GPa)
#
#
# Indices 1 2 3 4 5 6 
#
# 1 118.5078 36.1834 54.7361 -1.7389 -16.5005 -34.6096
# 2 36.1834 119.4809 38.5154 -4.6043 -4.7159 -15.9810
# 3 54.7361 38.5154 112.0713 -3.5056 -26.5304 -21.5226
# 4 -1.7389 -4.6043 -3.5056 39.6685 -0.0304 0.8713
# 5 -16.5005 -4.7159 -26.5304 -0.0304 39.9116 13.1733
# 6 -34.6096 -15.9810 -21.5226 0.8713 13.1733 60.5880
#
#
#
# Elastic Compliance Matrix: (Units=1/GPa)
#
#
# Indices 1 2 3 4 5 6 
#
# 1 0.012552 -0.001662 -0.004516 -0.000153 0.000321 0.005060
# 2 -0.001662 0.009863 -0.002756 0.000804 -0.001693 0.001030
# 3 -0.004516 -0.002756 0.013749 0.000701 0.006927 0.000061
# 4 -0.000153 0.000804 0.000701 0.025360 0.000554 -0.000111
# 5 0.000321 -0.001693 0.006927 0.000554 0.031102 -0.004573
# 6 0.005060 0.001030 0.000061 -0.000111 -0.004573 0.020684
#
#
# Mechanical properties :
#
#
# Convention : Reuss Voigt Hill
#
# Bulk Modulus (GPa) = 54.65625 67.65886 61.15755
# Shear Modulus (GPa) = 36.42242 42.74194 39.58218
#
# Velocity S-wave (km/s) = 3.80461 4.12147 3.96621
# Velocity P-wave (km/s) = 6.40481 7.03831 6.72902
#
# Compressibility (1/GPa) = 0.01829617
#
# Stress axis : x y z
#
# Youngs Moduli (GPa) = 79.67019 101.38842 72.73073
#
# Poissons Ratio (x) = 0.16848 0.32849
# Poissons Ratio (y) = 0.13239 0.20043
# Poissons Ratio (z) = 0.35983 0.27941
#
# Static dielectric constant tensor:
#      x y z
#    x 4.804630 -0.202230 -0.014260 
#    y -0.202230 5.043890 0.306940 
#    z -0.014260 0.306940 4.397990 
# 
# 
# High freq. dielectric constant tensor:
#      x y z
#    x 2.017590 -0.013110 -0.003250 
#    y -0.013110 2.025710 0.010180 
#    z -0.003250 0.010180 1.983690 
# 
# From -- ./inp_files/143758.got.cif
#   From: 2010.06.25/outbox.cif.g09.slc.cpg/sg2_72_cif.got.tgz:143758.got - 2010.06.27 13:26:56.
