data_PCOD8035467
_publ_section_title
;
Structure prediction by ZEFSAII (Michael W. Deem and Ramdas Pophale) SiO2 
 PCOD8035467
Probable space group: P -1
;
_chemical_formula_sum "Si O2"
_cell_formula_units_Z 16
_cell_length_a 9.599682
_cell_length_b 14.840981
_cell_length_c 11.694226
_cell_angle_alpha 110.777041
_cell_angle_beta 108.880227
_cell_angle_gamma 28.036397
_cell_volume 731.967355
_symmetry_space_group_name_H-M "P -1"
_symmetry_group_IT_number 2
_symmetry_cell_setting 'triclinic'
loop_
_space_group_symop_operation_xyz
x,y,z
-x,-y,-z
loop_
_atom_site_type_symbol
_atom_site_label
_atom_site_fract_x
_atom_site_fract_y
_atom_site_fract_z
Si Si1 0.202798 0.941441 0.941754
Si Si2 0.205710 0.582647 0.687341
Si Si3 0.848293 0.796472 0.483368
Si Si4 0.317817 0.836939 0.667822
Si Si5 0.211483 0.426298 0.937530
Si Si6 0.824523 0.235075 0.583251
Si Si7 0.835033 0.336085 0.033852
Si Si8 0.012208 0.492531 0.328633
O O1 0.256755 0.857119 0.796474
O O2 0.483010 0.784489 0.026446
O O3 0.000000 0.000000 0.000000
O O4 0.066881 0.123792 0.956626
O O5 0.550291 0.409880 0.674616
O O6 0.107856 0.682031 0.825683
O O7 0.002480 0.752250 0.617337
O O8 0.124984 0.514200 0.632615
O O9 0.990302 0.774191 0.404705
O O10 0.932554 0.637883 0.428904
O O11 0.500000 0.000000 0.500000
O O12 0.316477 0.735192 0.554729
O O13 0.629663 0.716927 0.683699
O O14 0.052578 0.043492 0.630203
O O15 0.130058 0.585536 0.991633
O O16 0.164628 0.410876 0.793122
O O17 0.000000 0.500000 0.000000
O O18 0.500000 0.500000 0.000000
#
# Coordination Sequence:
#
# PCOD8035467 Si02
#       8
#     2   2   2   2   2   2   2   2
#     4  12  26  44  76 103 141 192 235 291 352 418
#     4  11  25  45  70 100 140 180 231 283 355 413
#     4  12  27  42  68 102 136 180 231 280 351 414
#     4  11  25  46  69 100 141 180 234 282 358 411
#     4  11  25  46  69 103 138 184 236 288 353 418
#     4  11  26  43  73 103 134 182 232 290 340 425
#     4  11  25  45  70 105 141 183 234 295 347 416
#     4  11  25  46  68  96 145 181 219 295 352 413
#
# _framework density 21.858898
#
# number of rings (size 3 to 8) (size 9 to 14) (size 15 to 20)
#    0.000    0.750    3.750    2.250    8.750    2.500 
#    0.000    0.000    0.000    0.000    0.000    0.000 
#    0.000    0.000    0.000    0.000    0.000    0.000 
#
# Total GULP energy -198276.591886 kJ/mol
# GULP energy per Si atom -12392.286993 kJ/mol
# Density = 2.180915 g / cm^3
# Si number density = 21.858898 Si / 1000 Ang^3
#
#
#
# Elastic Constant Matrix: (Units=GPa)
#
#
# Indices 1 2 3 4 5 6 
#
# 1 106.8394 24.1865 28.5255 1.9698 -21.8020 -30.4100
# 2 24.1865 130.4350 24.6874 -16.4805 -5.5046 -21.6463
# 3 28.5255 24.6874 73.5339 -11.5240 -5.5120 3.5405
# 4 1.9698 -16.4805 -11.5240 41.3756 -2.5855 -0.0335
# 5 -21.8020 -5.5046 -5.5120 -2.5855 33.3091 2.2232
# 6 -30.4100 -21.6463 3.5405 -0.0335 2.2232 38.0714
#
#
#
# Elastic Compliance Matrix: (Units=1/GPa)
#
#
# Indices 1 2 3 4 5 6 
#
# 1 0.016983 0.000667 -0.007126 -0.001956 0.008956 0.014083
# 2 0.000667 0.009619 -0.003222 0.002989 0.001310 0.006228
# 3 -0.007126 -0.003222 0.018439 0.004108 -0.001215 -0.009164
# 4 -0.001956 0.002989 0.004108 0.026721 0.001990 -0.000338
# 5 0.008956 0.001310 -0.001215 0.001990 0.035658 0.005930
# 6 0.014083 0.006228 -0.009164 -0.000338 0.005930 0.041562
#
#
# Mechanical properties :
#
#
# Convention : Reuss Voigt Hill
#
# Bulk Modulus (GPa) = 38.93802 51.73413 45.33607
# Shear Modulus (GPa) = 28.26416 38.11180 33.18798
#
# Velocity S-wave (km/s) = 3.59977 4.18010 3.90074
# Velocity P-wave (km/s) = 5.92704 6.85684 6.40883
#
# Compressibility (1/GPa) = 0.02568184
#
# Stress axis : x y z
#
# Youngs Moduli (GPa) = 58.88125 103.95888 54.23303
#
# Poissons Ratio (x) = -0.06938 0.38645
# Poissons Ratio (y) = -0.03930 0.17471
# Poissons Ratio (z) = 0.41957 0.33491
#
# Static dielectric constant tensor:
#      x y z
#    x 4.016070 -0.077710 0.028550 
#    y -0.077710 4.185900 -0.222360 
#    z 0.028550 -0.222360 3.972230 
# 
# 
# High freq. dielectric constant tensor:
#      x y z
#    x 1.868580 -0.006870 -0.008030 
#    y -0.006870 1.869400 -0.017490 
#    z -0.008030 -0.017490 1.870030 
# 
# From -- ./inp_files/299590.got.cif
#   From: 2010.06.25/outbox.cif.g09.slc.cpg/sg2_150_cif.got.tgz:299590.got - 2010.06.27 13:26:56.
