data_PCOD8035760
_publ_section_title
;
Structure prediction by ZEFSAII (Michael W. Deem and Ramdas Pophale) SiO2 
 PCOD8035760
Probable space group: P -1
;
_chemical_formula_sum "Si O2"
_cell_formula_units_Z 10
_cell_length_a 4.788711
_cell_length_b 9.759495
_cell_length_c 10.271002
_cell_angle_alpha 112.464509
_cell_angle_beta 64.982407
_cell_angle_gamma 97.799332
_cell_volume 401.782783
_symmetry_space_group_name_H-M "P -1"
_symmetry_group_IT_number 2
_symmetry_cell_setting 'triclinic'
loop_
_space_group_symop_operation_xyz
x,y,z
-x,-y,-z
loop_
_atom_site_type_symbol
_atom_site_label
_atom_site_fract_x
_atom_site_fract_y
_atom_site_fract_z
Si Si1 0.384707 0.561913 0.245164
Si Si2 0.792525 0.943896 0.640332
Si Si3 0.878481 0.951238 0.145735
Si Si4 0.802108 0.355798 0.962344
Si Si5 0.278857 0.379089 0.554796
O O1 0.315824 0.664019 0.169167
O O2 0.642265 0.639782 0.312971
O O3 0.063032 0.554751 0.381707
O O4 0.496060 0.393454 0.123953
O O5 0.675202 0.779574 0.579016
O O6 0.492430 0.048478 0.768720
O O7 0.000000 0.000000 0.500000
O O8 0.999898 0.940347 0.727255
O O9 0.007790 0.785651 0.079431
O O10 0.000000 0.000000 0.000000
O O11 0.000000 0.500000 0.000000
O O12 0.500000 0.500000 0.500000
#
# Coordination Sequence:
#
# PCOD8035760 Si02
#       5
#     2   2   2   2   2
#     4  11  25  46  76 116 145 199 262 315 379 456
#     4  12  29  51  81 113 161 208 262 319 395 476
#     4  12  30  52  79 117 161 206 260 329 400 456
#     4  11  26  45  83 108 154 198 262 318 381 469
#     4  12  27  48  78 111 158 199 260 317 387 462
#
# _framework density 24.889074000000001
#
# number of rings (size 3 to 8) (size 9 to 14) (size 15 to 20)
#    0.000    0.400    2.000    4.200   11.200    1.600 
#    0.000    0.000    0.000    0.000    0.000    0.000 
#    0.000    0.000    0.000    0.000    0.000    0.000 
#
# Total GULP energy -123992.082984 kJ/mol
# GULP energy per Si atom -12399.208298 kJ/mol
# Density = 2.483242 g / cm^3
# Si number density = 24.889074 Si / 1000 Ang^3
#
#
#
# Elastic Constant Matrix: (Units=GPa)
#
#
# Indices 1 2 3 4 5 6 
#
# 1 116.7441 16.5915 47.3221 -7.5646 -7.2842 2.2576
# 2 16.5915 137.3080 58.2104 4.5501 -6.6803 4.7151
# 3 47.3221 58.2104 149.0646 -8.7877 -8.6006 -8.5663
# 4 -7.5646 4.5501 -8.7877 29.3148 -12.0668 5.0015
# 5 -7.2842 -6.6803 -8.6006 -12.0668 78.0796 13.3966
# 6 2.2576 4.7151 -8.5663 5.0015 13.3966 30.3843
#
#
#
# Elastic Compliance Matrix: (Units=1/GPa)
#
#
# Indices 1 2 3 4 5 6 
#
# 1 0.010169 0.000220 -0.003228 0.002727 0.001517 -0.002817
# 2 0.000220 0.009046 -0.003823 -0.001878 0.000496 -0.002407
# 3 -0.003228 -0.003823 0.009545 0.002198 0.000238 0.003057
# 4 0.002727 -0.001878 0.002198 0.040837 0.008307 -0.009676
# 5 0.001517 0.000496 0.000238 0.008307 0.015748 -0.008434
# 6 -0.002817 -0.002407 0.003057 -0.009676 -0.008434 0.039668
#
#
# Mechanical properties :
#
#
# Convention : Reuss Voigt Hill
#
# Bulk Modulus (GPa) = 66.23160 71.92940 69.08050
# Shear Modulus (GPa) = 34.79301 46.28858 40.54079
#
# Velocity S-wave (km/s) = 3.74294 4.31721 4.04029
# Velocity P-wave (km/s) = 6.73409 7.33579 7.04137
#
# Compressibility (1/GPa) = 0.01509853
#
# Stress axis : x y z
#
# Youngs Moduli (GPa) = 98.34142 110.54611 104.76747
#
# Poissons Ratio (x) = -0.02429 0.33814
# Poissons Ratio (y) = -0.02161 0.40050
# Poissons Ratio (z) = 0.31740 0.42259
#
# Static dielectric constant tensor:
#      x y z
#    x 5.531740 -0.515250 1.878830 
#    y -0.515250 4.540030 -2.195520 
#    z 1.878830 -2.195520 21.555310 
# 
# 
# High freq. dielectric constant tensor:
#      x y z
#    x 2.024030 -0.004190 -0.004530 
#    y -0.004190 1.965150 0.008780 
#    z -0.004530 0.008780 2.017480 
# 
# From -- ./inp_files/360905.got.cif
#   From: 2010.06.25/outbox.cif.g09.slc.cpg/sg2_181_cif.got.tgz:360905.got - 2010.06.27 13:26:56.
