data_PCOD8035901
_publ_section_title
;
Structure prediction by ZEFSAII (Michael W. Deem and Ramdas Pophale) SiO2 
 PCOD8035901
Probable space group: P -1
;
_chemical_formula_sum "Si O2"
_cell_formula_units_Z 12
_cell_length_a 18.241123
_cell_length_b 14.863731
_cell_length_c 8.499821
_cell_angle_alpha 44.834035
_cell_angle_beta 45.118933
_cell_angle_gamma 19.817862
_cell_volume 543.687448
_symmetry_space_group_name_H-M "P -1"
_symmetry_group_IT_number 2
_symmetry_cell_setting 'triclinic'
loop_
_space_group_symop_operation_xyz
x,y,z
-x,-y,-z
loop_
_atom_site_type_symbol
_atom_site_label
_atom_site_fract_x
_atom_site_fract_y
_atom_site_fract_z
Si Si1 0.276222 0.463678 0.098215
Si Si2 0.135637 0.188010 0.548754
Si Si3 0.417412 0.719123 0.922837
Si Si4 0.004205 0.131619 0.245706
Si Si5 0.067246 0.570305 0.763526
Si Si6 0.476003 0.019088 0.198166
O O1 0.373689 0.433731 0.134909
O O2 0.470112 0.167641 0.095493
O O3 0.083896 0.578532 0.305676
O O4 0.176814 0.670648 0.864395
O O5 0.245226 0.208095 0.363777
O O6 0.084538 0.209548 0.418015
O O7 0.314744 0.897212 0.705422
O O8 0.500000 0.500000 0.000000
O O9 0.246125 0.887092 0.114634
O O10 0.948261 0.312676 0.216587
O O11 0.000000 0.000000 0.500000
O O12 0.316830 0.286699 0.672338
O O13 0.000000 0.500000 0.000000
O O14 0.500000 0.000000 0.000000
#
# Coordination Sequence:
#
# PCOD8035901 Si02
#       6
#     2   2   2   2   2   2
#     4  11  25  48  69 102 142 185 230 291 347 422
#     4  11  26  43  71 100 145 181 233 283 353 412
#     4  11  28  47  69  99 140 191 235 279 350 425
#     4  11  27  44  73 104 140 181 240 293 352 409
#     4  12  24  44  72 107 143 181 230 295 351 416
#     4  12  23  42  72 105 139 178 233 283 356 414
#
# _framework density 22.071505999999999
#
# number of rings (size 3 to 8) (size 9 to 14) (size 15 to 20)
#    0.000    0.667    3.333    2.500    7.000    7.333 
#    0.000    0.000    0.000    0.000    0.000    0.000 
#    0.000    0.000    0.000    0.000    0.000    0.000 
#
# Total GULP energy -148793.924723 kJ/mol
# GULP energy per Si atom -12399.493727 kJ/mol
# Density = 2.202127 g / cm^3
# Si number density = 22.071506 Si / 1000 Ang^3
#
#
#
# Elastic Constant Matrix: (Units=GPa)
#
#
# Indices 1 2 3 4 5 6 
#
# 1 148.0094 74.6285 56.8043 -20.2949 -0.6778 -2.4711
# 2 74.6285 133.1460 52.1232 -9.6697 -5.5093 -1.2361
# 3 56.8043 52.1232 136.7200 -11.9208 6.1791 -9.4810
# 4 -20.2949 -9.6697 -11.9208 32.8710 -9.6307 -0.7305
# 5 -0.6778 -5.5093 6.1791 -9.6307 37.5642 -11.8565
# 6 -2.4711 -1.2361 -9.4810 -0.7305 -11.8565 46.8196
#
#
#
# Elastic Compliance Matrix: (Units=1/GPa)
#
#
# Indices 1 2 3 4 5 6 
#
# 1 0.010646 -0.004688 -0.002252 0.004737 0.001203 0.000361
# 2 -0.004688 0.011163 -0.002383 0.000111 0.001996 0.000072
# 3 -0.002252 -0.002383 0.009399 0.000987 -0.001234 0.001425
# 4 0.004737 0.000111 0.000987 0.036918 0.010574 0.003707
# 5 0.001203 0.001996 -0.001234 0.010574 0.032453 0.008250
# 6 0.000361 0.000072 0.001425 0.003707 0.008250 0.023815
#
#
# Mechanical properties :
#
#
# Convention : Reuss Voigt Hill
#
# Bulk Modulus (GPa) = 79.61538 87.22082 83.41810
# Shear Modulus (GPa) = 33.96109 39.07227 36.51668
#
# Velocity S-wave (km/s) = 3.92686 4.21201 4.07193
# Velocity P-wave (km/s) = 7.53062 7.95348 7.74494
#
# Compressibility (1/GPa) = 0.01256039
#
# Stress axis : x y z
#
# Youngs Moduli (GPa) = 93.93621 89.58538 106.39255
#
# Poissons Ratio (x) = 0.41998 0.23960
# Poissons Ratio (y) = 0.44037 0.25357
# Poissons Ratio (z) = 0.21155 0.21351
#
# Static dielectric constant tensor:
#      x y z
#    x 3.901330 -0.283300 0.030200 
#    y -0.283300 4.335250 0.161470 
#    z 0.030200 0.161470 4.245620 
# 
# 
# High freq. dielectric constant tensor:
#      x y z
#    x 1.870530 -0.009230 0.009520 
#    y -0.009230 1.881360 -0.000120 
#    z 0.009520 -0.000120 1.873480 
# 
# From -- ./inp_files/21911.got.cif
#   From: 2010.06.25/outbox.cif.g09.slc.cpg/sg2_11_cif.got.tgz:21911.got - 2010.06.27 13:26:56.
