data_PCOD8035677
_publ_section_title
;
Structure prediction by ZEFSAII (Michael W. Deem and Ramdas Pophale) SiO2 
 PCOD8035677
Probable space group: P -1
;
_chemical_formula_sum "Si O2"
_cell_formula_units_Z 14
_cell_length_a 14.806072
_cell_length_b 15.088170
_cell_length_c 9.509432
_cell_angle_alpha 141.644520
_cell_angle_beta 145.339913
_cell_angle_gamma 31.170801
_cell_volume 601.555195
_symmetry_space_group_name_H-M "P -1"
_symmetry_group_IT_number 2
_symmetry_cell_setting 'triclinic'
loop_
_space_group_symop_operation_xyz
x,y,z
-x,-y,-z
loop_
_atom_site_type_symbol
_atom_site_label
_atom_site_fract_x
_atom_site_fract_y
_atom_site_fract_z
Si Si1 0.992359 0.049886 0.391375
Si Si2 0.011734 0.725909 0.968853
Si Si3 0.423357 0.131005 0.437344
Si Si4 0.331494 0.082177 0.772816
Si Si5 0.664713 0.419258 0.324117
Si Si6 0.186491 0.459550 0.108072
Si Si7 0.284715 0.507228 0.816734
O O1 0.145131 0.094142 0.607688
O O2 0.039533 0.878192 0.155389
O O3 0.000000 0.000000 0.500000
O O4 0.773045 0.224162 0.288470
O O5 0.085722 0.597813 0.767216
O O6 0.783691 0.815811 0.820871
O O7 0.133195 0.613647 0.122662
O O8 0.400211 0.301825 0.676036
O O9 0.500000 0.000000 0.500000
O O10 0.588886 0.037791 0.413081
O O11 0.278687 0.276185 0.913941
O O12 0.500000 0.000000 0.000000
O O13 0.668878 0.550763 0.601206
O O14 0.776025 0.390740 0.283125
O O15 0.434053 0.519884 0.120025
O O16 0.000000 0.500000 0.000000
#
# Coordination Sequence:
#
# PCOD8035677 Si02
#       7
#     2   2   2   2   2   2   2
#     4  12  25  46  72 112 146 187 244 311 366 433
#     4  12  27  46  76 107 145 190 254 305 366 433
#     4  12  27  49  72 107 153 193 248 299 369 446
#     4  12  27  44  78 107 148 195 242 302 372 434
#     4  11  25  46  72 104 150 183 247 302 372 436
#     4  12  23  47  75 107 144 195 243 305 361 437
#     4  11  27  46  73 106 144 197 242 301 368 445
#
# _framework density 23.273009999999999
#
# number of rings (size 3 to 8) (size 9 to 14) (size 15 to 20)
#    0.000    0.286    2.857    5.571    8.000    2.286 
#    0.000    0.000    0.000    0.000    0.000    0.000 
#    0.000    0.000    0.000    0.000    0.000    0.000 
#
# Total GULP energy -173636.953093 kJ/mol
# GULP energy per Si atom -12402.639507 kJ/mol
# Density = 2.322004 g / cm^3
# Si number density = 23.273010 Si / 1000 Ang^3
#
#
#
# Elastic Constant Matrix: (Units=GPa)
#
#
# Indices 1 2 3 4 5 6 
#
# 1 102.8023 37.7355 29.7609 6.3386 -18.0767 6.9513
# 2 37.7355 106.6706 33.3729 17.5183 -4.5359 12.7393
# 3 29.7609 33.3729 126.4900 14.5615 1.8054 2.7077
# 4 6.3386 17.5183 14.5615 49.4345 2.0789 -5.9134
# 5 -18.0767 -4.5359 1.8054 2.0789 40.4946 4.3084
# 6 6.9513 12.7393 2.7077 -5.9134 4.3084 41.6859
#
#
#
# Elastic Compliance Matrix: (Units=1/GPa)
#
#
# Indices 1 2 3 4 5 6 
#
# 1 0.012668 -0.003361 -0.002113 -0.000230 0.005550 -0.001554
# 2 -0.003361 0.012252 -0.001934 -0.003801 0.000542 -0.003654
# 3 -0.002113 -0.001934 0.009117 -0.001633 -0.001512 0.000276
# 4 -0.000230 -0.003801 -0.001633 0.022744 -0.002129 0.004753
# 5 0.005550 0.000542 -0.001512 -0.002129 0.027854 -0.004174
# 6 -0.001554 -0.003654 0.000276 0.004753 -0.004174 0.026452
#
#
# Mechanical properties :
#
#
# Convention : Reuss Voigt Hill
#
# Bulk Modulus (GPa) = 52.02580 59.74460 55.88520
# Shear Modulus (GPa) = 37.78999 41.99591 39.89295
#
# Velocity S-wave (km/s) = 4.03397 4.25254 4.14470
# Velocity P-wave (km/s) = 6.64081 7.05968 6.85344
#
# Compressibility (1/GPa) = 0.01922123
#
# Stress axis : x y z
#
# Youngs Moduli (GPa) = 78.93877 81.61796 109.68744
#
# Poissons Ratio (x) = 0.27430 0.23180
# Poissons Ratio (y) = 0.26530 0.21211
# Poissons Ratio (z) = 0.16682 0.15783
#
# Static dielectric constant tensor:
#      x y z
#    x 4.171780 0.301320 0.157210 
#    y 0.301320 4.426200 0.230260 
#    z 0.157210 0.230260 4.510730 
# 
# 
# High freq. dielectric constant tensor:
#      x y z
#    x 1.919020 0.008270 -0.006440 
#    y 0.008270 1.933620 0.006600 
#    z -0.006440 0.006600 1.932360 
# 
# From -- ./inp_files/157466.got.cif
#   From: 2010.06.25/outbox.cif.g09.slc.cpg/sg2_79_cif.got.tgz:157466.got - 2010.06.27 13:26:56.
