data_PCOD8035140
_publ_section_title
;
Structure prediction by ZEFSAII (Michael W. Deem and Ramdas Pophale) SiO2 
 PCOD8035140
Probable space group: P -1
;
_chemical_formula_sum "Si O2"
_cell_formula_units_Z 10
_cell_length_a 13.617060
_cell_length_b 8.416550
_cell_length_c 12.787674
_cell_angle_alpha 147.480495
_cell_angle_beta 31.177230
_cell_angle_gamma 143.791760
_cell_volume 388.170425
_symmetry_space_group_name_H-M "P -1"
_symmetry_group_IT_number 2
_symmetry_cell_setting 'triclinic'
loop_
_space_group_symop_operation_xyz
x,y,z
-x,-y,-z
loop_
_atom_site_type_symbol
_atom_site_label
_atom_site_fract_x
_atom_site_fract_y
_atom_site_fract_z
Si Si1 0.874346 0.927614 0.851395
Si Si2 0.499611 0.380615 0.548982
Si Si3 0.102658 0.589118 0.717744
Si Si4 0.238300 0.749689 0.452082
Si Si5 0.718645 0.210818 0.951801
O O1 0.734420 0.568360 0.794430
O O2 0.086760 0.885453 0.598826
O O3 0.789397 0.086274 0.923649
O O4 0.887339 0.129919 0.055893
O O5 0.500000 0.500000 0.500000
O O6 0.713939 0.546985 0.499034
O O7 0.455727 0.006580 0.390586
O O8 0.316650 0.457201 0.814052
O O9 0.135347 0.712004 0.639146
O O10 0.898272 0.299654 0.753094
O O11 0.500000 0.000000 0.000000
#
# Coordination Sequence:
#
# PCOD8035140 Si02
#       5
#     2   2   2   2   2
#     4  11  24  48  74 107 147 195 243 301 367 435
#     4  12  25  47  75 108 146 194 244 301 369 441
#     4  12  25  49  78 104 154 193 244 312 359 436
#     4  11  26  46  76 113 146 192 251 300 368 440
#     4  12  27  48  75 110 146 197 249 299 375 435
#
# _framework density 25.761882
#
# number of rings (size 3 to 8) (size 9 to 14) (size 15 to 20)
#    0.000    0.400    4.000    4.200    0.000    7.200 
#    0.000    0.000    0.000    0.000    0.000    0.000 
#    0.000    0.000    0.000    0.000    0.000    0.000 
#
# Total GULP energy -123908.038479 kJ/mol
# GULP energy per Si atom -12390.803848 kJ/mol
# Density = 2.570325 g / cm^3
# Si number density = 25.761882 Si / 1000 Ang^3
#
#
#
# Elastic Constant Matrix: (Units=GPa)
#
#
# Indices 1 2 3 4 5 6 
#
# 1 92.5845 49.9714 30.5182 -4.4087 -8.9511 13.9936
# 2 49.9714 191.4284 22.6389 -13.1802 -3.3525 7.2191
# 3 30.5182 22.6389 88.6881 7.2379 -23.2286 -5.5875
# 4 -4.4087 -13.1802 7.2379 43.2491 5.6387 -5.2378
# 5 -8.9511 -3.3525 -23.2286 5.6387 49.7452 -5.7789
# 6 13.9936 7.2191 -5.5875 -5.2378 -5.7789 23.8880
#
#
#
# Elastic Compliance Matrix: (Units=1/GPa)
#
#
# Indices 1 2 3 4 5 6 
#
# 1 0.015667 -0.003043 -0.005586 0.000582 -0.001190 -0.009725
# 2 -0.003043 0.006241 -0.000903 0.001831 -0.000768 -0.000099
# 3 -0.005586 -0.000903 0.016342 -0.003587 0.007960 0.008507
# 4 0.000582 0.001831 -0.003587 0.025201 -0.003974 0.002831
# 5 -0.001190 -0.000768 0.007960 -0.003974 0.024927 0.007950
# 6 -0.009725 -0.000099 0.008507 0.002831 0.007950 0.052123
#
#
# Mechanical properties :
#
#
# Convention : Reuss Voigt Hill
#
# Bulk Modulus (GPa) = 52.12187 64.32866 58.22527
# Shear Modulus (GPa) = 30.12759 41.34795 35.73777
#
# Velocity S-wave (km/s) = 3.42345 4.01060 3.72860
# Velocity P-wave (km/s) = 5.99189 6.81698 6.41771
#
# Compressibility (1/GPa) = 0.01918580
#
# Stress axis : x y z
#
# Youngs Moduli (GPa) = 63.82644 160.21992 61.19354
#
# Poissons Ratio (x) = 0.48759 0.34185
# Poissons Ratio (y) = 0.19424 0.05524
# Poissons Ratio (z) = 0.35656 0.14463
#
# Static dielectric constant tensor:
#      x y z
#    x 5.121120 0.256010 -1.355200 
#    y 0.256010 4.910850 0.736280 
#    z -1.355200 0.736280 8.762030 
# 
# 
# High freq. dielectric constant tensor:
#      x y z
#    x 2.031750 0.013270 -0.017680 
#    y 0.013270 2.038480 0.009540 
#    z -0.017680 0.009540 2.040860 
# 
# From -- ./inp_files/143944.got.cif
#   From: 2010.06.25/outbox.cif.g09.slc.cpg/sg2_72_cif.got.tgz:143944.got - 2010.06.27 13:26:56.
