data_PCOD8035496
_publ_section_title
;
Structure prediction by ZEFSAII (Michael W. Deem and Ramdas Pophale) SiO2 
 PCOD8035496
Probable space group: P -1
;
_chemical_formula_sum "Si O2"
_cell_formula_units_Z 14
_cell_length_a 11.580894
_cell_length_b 11.772452
_cell_length_c 9.927444
_cell_angle_alpha 101.551873
_cell_angle_beta 132.423653
_cell_angle_gamma 115.803441
_cell_volume 601.829438
_symmetry_space_group_name_H-M "P -1"
_symmetry_group_IT_number 2
_symmetry_cell_setting 'triclinic'
loop_
_space_group_symop_operation_xyz
x,y,z
-x,-y,-z
loop_
_atom_site_type_symbol
_atom_site_label
_atom_site_fract_x
_atom_site_fract_y
_atom_site_fract_z
Si Si1 0.554563 0.936153 0.639110
Si Si2 0.608636 0.395623 0.519649
Si Si3 0.087389 0.218993 0.043776
Si Si4 0.768981 0.702003 0.309327
Si Si5 0.055574 0.419484 0.433409
Si Si6 0.869857 0.998448 0.549176
Si Si7 0.517043 0.056957 0.877987
O O1 0.394335 0.726820 0.431018
O O2 0.500000 0.000000 0.500000
O O3 0.430752 0.905136 0.674242
O O4 0.856286 0.084560 0.937450
O O5 0.309661 0.255809 0.246204
O O6 0.773753 0.575366 0.787638
O O7 0.710176 0.441231 0.455735
O O8 0.923420 0.098739 0.751994
O O9 0.920649 0.677731 0.471894
O O10 0.784353 0.813072 0.462833
O O11 0.500000 0.500000 0.000000
O O12 0.875832 0.834624 0.297024
O O13 0.000000 0.500000 0.500000
O O14 0.803404 0.257178 0.108544
O O15 0.646628 0.924300 0.267868
O O16 0.500000 0.000000 0.000000
#
# Coordination Sequence:
#
# PCOD8035496 Si02
#       7
#     2   2   2   2   2   2   2
#     4  12  26  48  74 107 145 197 247 308 373 442
#     4  11  27  47  74 107 149 192 251 306 373 453
#     4  11  25  48  74 108 145 196 245 309 377 443
#     4  11  25  45  71 107 146 193 244 301 374 443
#     4  12  25  45  74 107 146 195 246 304 373 442
#     4  11  25  45  73 105 150 191 248 309 365 446
#     4  12  24  46  71 105 149 194 245 303 373 438
#
# _framework density 23.262405999999999
#
# number of rings (size 3 to 8) (size 9 to 14) (size 15 to 20)
#    0.000    0.571    4.286    3.000    2.000    5.143 
#    2.571    0.000    0.000    0.000    0.000    0.000 
#    0.000    0.000    0.000    0.000    0.000    0.000 
#
# Total GULP energy -173445.179352 kJ/mol
# GULP energy per Si atom -12388.941382 kJ/mol
# Density = 2.320946 g / cm^3
# Si number density = 23.262406 Si / 1000 Ang^3
#
#
#
# Elastic Constant Matrix: (Units=GPa)
#
#
# Indices 1 2 3 4 5 6 
#
# 1 137.4168 56.0449 45.2345 0.7363 -9.5527 -22.7179
# 2 56.0449 146.8670 49.8797 11.2671 -15.2171 -37.8227
# 3 45.2345 49.8797 118.9234 10.3316 -6.3045 -23.6250
# 4 0.7363 11.2671 10.3316 36.0135 3.0857 -5.5218
# 5 -9.5527 -15.2171 -6.3045 3.0857 44.3326 6.6096
# 6 -22.7179 -37.8227 -23.6250 -5.5218 6.6096 40.9972
#
#
#
# Elastic Compliance Matrix: (Units=1/GPa)
#
#
# Indices 1 2 3 4 5 6 
#
# 1 0.009323 -0.002384 -0.002296 0.001440 0.000502 0.001757
# 2 -0.002384 0.010406 -0.001879 -0.001815 0.001927 0.006641
# 3 -0.002296 -0.001879 0.010838 -0.002031 0.000103 0.002950
# 4 0.001440 -0.001815 -0.002031 0.029517 -0.003016 0.002415
# 5 0.000502 0.001927 0.000103 -0.003016 0.023870 -0.002139
# 6 0.001757 0.006641 0.002950 0.002415 -0.002139 0.033863
#
#
# Mechanical properties :
#
#
# Convention : Reuss Voigt Hill
#
# Bulk Modulus (GPa) = 57.30620 78.39172 67.84896
# Shear Modulus (GPa) = 36.56327 41.07185 38.81756
#
# Velocity S-wave (km/s) = 3.96886 4.20645 4.08938
# Velocity P-wave (km/s) = 6.75949 7.57392 7.17827
#
# Compressibility (1/GPa) = 0.01745012
#
# Stress axis : x y z
#
# Youngs Moduli (GPa) = 107.26497 96.09960 92.26927
#
# Poissons Ratio (x) = 0.22910 0.21182
# Poissons Ratio (y) = 0.25572 0.17333
# Poissons Ratio (z) = 0.24624 0.18053
#
# Static dielectric constant tensor:
#      x y z
#    x 4.923980 -0.312500 -0.282990 
#    y -0.312500 4.302660 0.522640 
#    z -0.282990 0.522640 4.945360 
# 
# 
# High freq. dielectric constant tensor:
#      x y z
#    x 1.944160 -0.012050 0.002460 
#    y -0.012050 1.912960 0.016640 
#    z 0.002460 0.016640 1.922310 
# 
# From -- ./inp_files/259225.got.cif
#   From: 2010.06.25/outbox.cif.g09.slc.cpg/sg2_130_cif.got.tgz:259225.got - 2010.06.27 13:26:56.
