data_PCOD8035596
_publ_section_title
;
Structure prediction by ZEFSAII (Michael W. Deem and Ramdas Pophale) SiO2 
 PCOD8035596
Probable space group: P -1
;
_chemical_formula_sum "Si O2"
_cell_formula_units_Z 16
_cell_length_a 17.297416
_cell_length_b 11.751270
_cell_length_c 8.997167
_cell_angle_alpha 117.928804
_cell_angle_beta 149.579229
_cell_angle_gamma 52.445781
_cell_volume 726.627645
_symmetry_space_group_name_H-M "P -1"
_symmetry_group_IT_number 2
_symmetry_cell_setting 'triclinic'
loop_
_space_group_symop_operation_xyz
x,y,z
-x,-y,-z
loop_
_atom_site_type_symbol
_atom_site_label
_atom_site_fract_x
_atom_site_fract_y
_atom_site_fract_z
Si Si1 0.741472 0.394813 0.291191
Si Si2 0.993100 0.876047 0.311369
Si Si3 0.441022 0.347128 0.658654
Si Si4 0.500195 0.651835 0.583367
Si Si5 0.842813 0.090372 0.686209
Si Si6 0.201469 0.413330 0.742091
Si Si7 0.336383 0.105887 0.377971
Si Si8 0.323099 0.089726 0.678884
O O1 0.932121 0.268672 0.553800
O O2 0.685009 0.486231 0.406644
O O3 0.739444 0.494203 0.210991
O O4 0.621800 0.315130 0.016931
O O5 0.105738 0.845462 0.330323
O O6 0.000000 0.000000 0.500000
O O7 0.809462 0.896917 0.969902
O O8 0.477804 0.312570 0.526506
O O9 0.346604 0.256345 0.508371
O O10 0.500000 0.500000 0.500000
O O11 0.322624 0.777810 0.430886
O O12 0.673411 0.634094 0.938328
O O13 0.797922 0.966030 0.473719
O O14 0.000000 0.000000 0.000000
O O15 0.236319 0.262346 0.634222
O O16 0.000000 0.500000 0.500000
O O17 0.335987 0.039841 0.498194
O O18 0.500000 0.000000 0.500000
O O19 0.500000 0.000000 0.000000
#
# Coordination Sequence:
#
# PCOD8035596 Si02
#       8
#     2   2   2   2   2   2   2   2
#     4  11  26  49  71 108 148 196 242 302 370 445
#     4  12  30  46  75 109 149 195 244 307 372 440
#     4  11  25  45  77  98 149 188 245 295 370 440
#     4  12  26  47  75 106 143 200 242 304 371 439
#     4  12  28  49  74 109 149 192 254 302 372 441
#     4  12  29  47  74 111 148 195 249 304 372 438
#     4  12  27  47  71 109 143 194 246 297 373 439
#     4  12  27  49  76 106 149 197 247 309 367 440
#
# _framework density 22.01953
#
# number of rings (size 3 to 8) (size 9 to 14) (size 15 to 20)
#    0.000    0.250    5.000    2.250   12.250    1.500 
#    0.000    0.000    0.000    0.000    0.000    0.000 
#    0.000    0.000    0.000    0.000    0.000    0.000 
#
# Total GULP energy -198308.489817 kJ/mol
# GULP energy per Si atom -12394.280614 kJ/mol
# Density = 2.196941 g / cm^3
# Si number density = 22.019530 Si / 1000 Ang^3
#
#
#
# Elastic Constant Matrix: (Units=GPa)
#
#
# Indices 1 2 3 4 5 6 
#
# 1 91.3990 41.0146 38.4278 -1.9504 5.5157 -13.0208
# 2 41.0146 118.6787 74.2889 -5.7581 2.7387 -2.7843
# 3 38.4278 74.2889 177.4917 -3.1642 15.2451 -13.7944
# 4 -1.9504 -5.7581 -3.1642 45.5490 3.0727 8.7108
# 5 5.5157 2.7387 15.2451 3.0727 38.2715 4.6984
# 6 -13.0208 -2.7843 -13.7944 8.7108 4.6984 41.5992
#
#
#
# Elastic Compliance Matrix: (Units=1/GPa)
#
#
# Indices 1 2 3 4 5 6 
#
# 1 0.013832 -0.004188 -0.000774 -0.000658 -0.001841 0.004138
# 2 -0.004188 0.012846 -0.004796 0.001479 0.001789 -0.002553
# 3 -0.000774 -0.004796 0.008274 -0.000352 -0.003133 0.002608
# 4 -0.000658 0.001479 -0.000352 0.023108 -0.001120 -0.004936
# 5 -0.001841 0.001789 -0.003133 -0.001120 0.028149 -0.004440
# 6 0.004138 -0.002553 0.002608 -0.004936 -0.004440 0.027563
#
#
# Mechanical properties :
#
#
# Convention : Reuss Voigt Hill
#
# Bulk Modulus (GPa) = 64.77825 77.22577 71.00201
# Shear Modulus (GPa) = 36.11791 40.67316 38.39553
#
# Velocity S-wave (km/s) = 4.05441 4.30250 4.18030
# Velocity P-wave (km/s) = 7.16939 7.73496 7.45754
#
# Compressibility (1/GPa) = 0.01543728
#
# Stress axis : x y z
#
# Youngs Moduli (GPa) = 72.29355 77.84461 120.85547
#
# Poissons Ratio (x) = 0.32605 0.09351
# Poissons Ratio (y) = 0.30280 0.57958
# Poissons Ratio (z) = 0.05593 0.37332
#
# Static dielectric constant tensor:
#      x y z
#    x 3.834900 -0.446440 -0.157330 
#    y -0.446440 3.818030 0.309420 
#    z -0.157330 0.309420 4.171740 
# 
# 
# High freq. dielectric constant tensor:
#      x y z
#    x 1.874560 0.003700 0.000550 
#    y 0.003700 1.883060 0.006220 
#    z 0.000550 0.006220 1.879690 
# 
# From -- ./inp_files/333656.got.cif
#   From: 2010.06.25/outbox.cif.g09.slc.cpg/sg2_167_cif.got.tgz:333656.got - 2010.06.27 13:26:56.
