data_PCOD8035611
_publ_section_title
;
Structure prediction by ZEFSAII (Michael W. Deem and Ramdas Pophale) SiO2 
 PCOD8035611
Probable space group: P -1
;
_chemical_formula_sum "Si O2"
_cell_formula_units_Z 14
_cell_length_a 15.436692
_cell_length_b 15.593847
_cell_length_c 10.328571
_cell_angle_alpha 131.501040
_cell_angle_beta 47.978969
_cell_angle_gamma 161.602241
_cell_volume 578.942388
_symmetry_space_group_name_H-M "P -1"
_symmetry_group_IT_number 2
_symmetry_cell_setting 'triclinic'
loop_
_space_group_symop_operation_xyz
x,y,z
-x,-y,-z
loop_
_atom_site_type_symbol
_atom_site_label
_atom_site_fract_x
_atom_site_fract_y
_atom_site_fract_z
Si Si1 0.250716 0.000709 0.311224
Si Si2 0.600746 0.540567 0.116644
Si Si3 0.249320 0.499206 0.864713
Si Si4 0.494179 0.090286 0.388498
Si Si5 0.899456 0.459754 0.737139
Si Si6 0.249952 0.499993 0.286353
Si Si7 0.005712 0.909491 0.696176
O O1 0.024296 0.737528 0.185249
O O2 0.104384 0.967261 0.510803
O O3 0.478572 0.265460 0.259961
O O4 0.395841 0.032841 0.284918
O O5 0.760536 0.621566 0.155610
O O6 0.288410 0.289336 0.219188
O O7 0.591599 0.453111 0.911122
O O8 0.768564 0.805550 0.178557
O O9 0.260340 0.621077 0.066156
O O10 0.521335 0.232343 0.585246
O O11 0.788172 0.288887 0.282496
O O12 0.268204 0.805163 0.395252
O O13 0.908567 0.547046 0.688064
O O14 0.021325 0.232467 0.336998
#
# Coordination Sequence:
#
# PCOD8035611 Si02
#       7
#     2   2   2   2   2   2   2
#     4  12  26  44  68  98 138 178 226 276 326 396
#     4  11  26  44  71 101 134 178 222 275 338 395
#     4  11  25  46  68 100 137 175 226 278 326 397
#     4  12  25  44  69 101 136 178 221 274 338 397
#     4  11  26  44  71 101 134 178 222 275 338 395
#     4  11  25  46  70 102 139 171 224 280 332 403
#     4  12  25  44  69 101 136 178 221 274 338 397
#
# _framework density 24.182026
#
# number of rings (size 3 to 8) (size 9 to 14) (size 15 to 20)
#    0.000    0.571    0.000    7.714    0.000   14.857 
#    0.000    0.000    0.000    0.000    0.000    0.000 
#    0.000    0.000    0.000    0.000    0.000    0.000 
#
# Total GULP energy -173734.207562 kJ/mol
# GULP energy per Si atom -12409.586254 kJ/mol
# Density = 2.412699 g / cm^3
# Si number density = 24.182026 Si / 1000 Ang^3
#
#
#
# Elastic Constant Matrix: (Units=GPa)
#
#
# Indices 1 2 3 4 5 6 
#
# 1 93.3686 45.9604 72.4362 9.6772 15.7695 -13.9094
# 2 45.9604 134.0572 48.0011 10.7723 19.1964 -7.1589
# 3 72.4362 48.0011 102.2199 15.7911 12.9747 -19.3101
# 4 9.6772 10.7723 15.7911 34.9165 -5.1503 -7.4865
# 5 15.7695 19.1964 12.9747 -5.1503 35.6265 4.3434
# 6 -13.9094 -7.1589 -19.3101 -7.4865 4.3434 34.7348
#
#
#
# Elastic Compliance Matrix: (Units=1/GPa)
#
#
# Indices 1 2 3 4 5 6 
#
# 1 0.025101 -0.002249 -0.016066 0.000679 -0.004110 0.001317
# 2 -0.002249 0.009702 -0.002210 -0.001934 -0.003697 -0.000084
# 3 -0.016066 -0.002210 0.024312 -0.004904 -0.001970 0.005816
# 4 0.000679 -0.001934 -0.004904 0.033011 0.006885 0.003401
# 5 -0.004110 -0.003697 -0.001970 0.006885 0.034363 -0.006316
# 6 0.001317 -0.000084 0.005816 0.003401 -0.006316 0.034056
#
#
# Mechanical properties :
#
#
# Convention : Reuss Voigt Hill
#
# Bulk Modulus (GPa) = 55.35531 73.60458 64.47995
# Shear Modulus (GPa) = 24.08284 31.93876 28.01080
#
# Velocity S-wave (km/s) = 3.15921 3.63818 3.40712
# Velocity P-wave (km/s) = 6.02065 6.93918 6.49617
#
# Compressibility (1/GPa) = 0.01806511
#
# Stress axis : x y z
#
# Youngs Moduli (GPa) = 39.83853 103.06957 41.13214
#
# Poissons Ratio (x) = 0.23178 0.66083
# Poissons Ratio (y) = 0.08959 0.09092
# Poissons Ratio (z) = 0.64004 0.22783
#
# Static dielectric constant tensor:
#      x y z
#    x 4.504290 0.035230 -0.020250 
#    y 0.035230 4.286490 -0.072240 
#    z -0.020250 -0.072240 4.481090 
# 
# 
# High freq. dielectric constant tensor:
#      x y z
#    x 1.974650 0.004950 -0.004400 
#    y 0.004950 1.969020 -0.005160 
#    z -0.004400 -0.005160 1.973060 
# 
# From -- ./inp_files/454942.got.cif
#   From: 2010.06.25/outbox.cif.g09.slc.cpg/sg2_228_cif.got.tgz:454942.got - 2010.06.27 13:26:56.
