data_PCOD8035783
_publ_section_title
;
Structure prediction by ZEFSAII (Michael W. Deem and Ramdas Pophale) SiO2 
 PCOD8035783
Probable space group: P -1
;
_chemical_formula_sum "Si O2"
_cell_formula_units_Z 12
_cell_length_a 9.647408
_cell_length_b 11.584430
_cell_length_c 14.696912
_cell_angle_alpha 151.017500
_cell_angle_beta 70.590334
_cell_angle_gamma 127.103464
_cell_volume 547.636459
_symmetry_space_group_name_H-M "P -1"
_symmetry_group_IT_number 2
_symmetry_cell_setting 'triclinic'
loop_
_space_group_symop_operation_xyz
x,y,z
-x,-y,-z
loop_
_atom_site_type_symbol
_atom_site_label
_atom_site_fract_x
_atom_site_fract_y
_atom_site_fract_z
Si Si1 0.476773 0.761177 0.041686
Si Si2 0.837893 0.352655 0.854040
Si Si3 0.923212 0.188733 0.246989
Si Si4 0.511527 0.284998 0.285735
Si Si5 0.231085 0.235748 0.585765
Si Si6 0.908942 0.133750 0.001343
O O1 0.331617 0.644758 0.079192
O O2 0.688507 0.887902 0.115214
O O3 0.518333 0.054223 0.182927
O O4 0.369346 0.445407 0.785992
O O5 0.948431 0.549667 0.874225
O O6 0.720592 0.977091 0.603621
O O7 0.000000 0.500000 0.000000
O O8 0.954095 0.259729 0.181472
O O9 0.000000 0.500000 0.500000
O O10 0.047772 0.095875 0.186665
O O11 0.500000 0.500000 0.500000
O O12 0.712391 0.523722 0.343934
O O13 0.322815 0.070771 0.110722
O O14 0.000000 0.000000 0.500000
#
# Coordination Sequence:
#
# PCOD8035783 Si02
#       6
#     2   2   2   2   2   2
#     4  12  25  43  70 103 137 181 232 280 350 413
#     4  12  24  43  67 108 141 171 225 291 347 407
#     4  11  27  47  72  96 137 192 238 277 339 413
#     4  12  22  42  73 102 140 179 229 289 348 409
#     4  12  24  38  66 105 142 173 220 290 347 402
#     4  11  25  47  69 102 141 179 234 287 336 419
#
# _framework density 21.912347
#
# number of rings (size 3 to 8) (size 9 to 14) (size 15 to 20)
#    0.000    0.333    6.667    1.500    2.333    2.000 
#    0.000    1.667    0.000    0.000    0.000    0.000 
#    0.000    0.000    0.000    0.000    0.000    0.000 
#
# Total GULP energy -148859.479984 kJ/mol
# GULP energy per Si atom -12404.956665 kJ/mol
# Density = 2.186247 g / cm^3
# Si number density = 21.912347 Si / 1000 Ang^3
#
#
#
# Elastic Constant Matrix: (Units=GPa)
#
#
# Indices 1 2 3 4 5 6 
#
# 1 42.7333 13.4583 -3.0168 7.1441 0.8991 4.1453
# 2 13.4583 135.0653 24.4894 15.7607 8.3901 15.7177
# 3 -3.0168 24.4894 138.9136 -11.2340 -8.0885 3.7219
# 4 7.1441 15.7607 -11.2340 41.1962 9.9808 -2.1009
# 5 0.8991 8.3901 -8.0885 9.9808 30.9276 5.5476
# 6 4.1453 15.7177 3.7219 -2.1009 5.5476 36.6895
#
#
#
# Elastic Compliance Matrix: (Units=1/GPa)
#
#
# Indices 1 2 3 4 5 6 
#
# 1 0.024939 -0.001975 0.000741 -0.003913 0.001722 -0.002531
# 2 -0.001975 0.008798 -0.001845 -0.003434 -0.001096 -0.003390
# 3 0.000741 -0.001845 0.007836 0.002255 0.001843 -0.000238
# 4 -0.003913 -0.003434 0.002255 0.029209 -0.008627 0.004662
# 5 0.001722 -0.001096 0.001843 -0.008627 0.036921 -0.005989
# 6 -0.002531 -0.003390 -0.000238 0.004662 -0.005989 0.030191
#
#
# Mechanical properties :
#
#
# Convention : Reuss Voigt Hill
#
# Bulk Modulus (GPa) = 28.23543 42.95267 35.59405
# Shear Modulus (GPa) = 32.08074 40.54809 36.31441
#
# Velocity S-wave (km/s) = 3.83044 4.30637 4.07536
# Velocity P-wave (km/s) = 5.69883 6.66116 6.19870
#
# Compressibility (1/GPa) = 0.03541649
#
# Stress axis : x y z
#
# Youngs Moduli (GPa) = 40.09802 113.65775 127.61443
#
# Poissons Ratio (x) = 0.22449 -0.09461
# Poissons Ratio (y) = 0.07920 0.23540
# Poissons Ratio (z) = -0.02973 0.20966
#
# Static dielectric constant tensor:
#      x y z
#    x 3.954440 0.312900 -0.350780 
#    y 0.312900 4.241020 0.005370 
#    z -0.350780 0.005370 4.425740 
# 
# 
# High freq. dielectric constant tensor:
#      x y z
#    x 1.845170 0.018530 -0.009600 
#    y 0.018530 1.881280 -0.004650 
#    z -0.009600 -0.004650 1.876990 
# 
# From -- ./inp_files/149080.got.cif
#   From: 2010.06.25/outbox.cif.g09.slc.cpg/sg2_75_cif.got.tgz:149080.got - 2010.06.27 13:26:56.
