data_PCOD8035255
_publ_section_title
;
Structure prediction by ZEFSAII (Michael W. Deem and Ramdas Pophale) SiO2 
 PCOD8035255
Probable space group: P -1
;
_chemical_formula_sum "Si O2"
_cell_formula_units_Z 14
_cell_length_a 7.714985
_cell_length_b 17.700966
_cell_length_c 18.785953
_cell_angle_alpha 22.301782
_cell_angle_beta 41.605424
_cell_angle_gamma 39.782670
_cell_volume 615.782241
_symmetry_space_group_name_H-M "P -1"
_symmetry_group_IT_number 2
_symmetry_cell_setting 'triclinic'
loop_
_space_group_symop_operation_xyz
x,y,z
-x,-y,-z
loop_
_atom_site_type_symbol
_atom_site_label
_atom_site_fract_x
_atom_site_fract_y
_atom_site_fract_z
Si Si1 0.091880 0.948537 0.178095
Si Si2 0.558939 0.988970 0.225911
Si Si3 0.604077 0.790399 0.063556
Si Si4 0.266270 0.687970 0.600207
Si Si5 0.842006 0.850996 0.470574
Si Si6 0.993905 0.731821 0.794397
Si Si7 0.571897 0.292920 0.205273
O O1 0.845112 0.021856 0.133245
O O2 0.366130 0.810398 0.176506
O O3 0.146763 0.146540 0.029774
O O4 0.010385 0.797021 0.392467
O O5 0.318996 0.124287 0.233072
O O6 0.548660 0.748705 0.448211
O O7 0.514824 0.054972 0.099760
O O8 0.703918 0.553513 0.211617
O O9 0.147857 0.765874 0.646352
O O10 0.050325 0.837952 0.482514
O O11 0.677170 0.684938 0.681747
O O12 0.618682 0.082711 0.326929
O O13 0.143349 0.760571 0.795282
O O14 0.000000 0.500000 0.000000
O O15 0.500000 0.500000 0.000000
#
# Coordination Sequence:
#
# PCOD8035255 Si02
#       7
#     2   2   2   2   2   2   2
#     4  11  26  49  74  98 142 190 233 296 348 407
#     4  12  25  48  70 104 143 180 235 293 347 420
#     4  11  26  51  70 103 139 185 243 289 348 411
#     4  12  25  44  72 102 146 180 230 296 343 423
#     4  11  25  42  67 103 136 182 232 277 347 417
#     4  12  24  41  68 102 140 182 222 279 361 416
#     4  11  25  42  66 101 144 181 224 282 348 421
#
# _framework density 22.735310999999999
#
# number of rings (size 3 to 8) (size 9 to 14) (size 15 to 20)
#    0.000    0.571    4.286    2.571    8.000    1.143 
#    2.571    0.714    0.000    0.000    0.000    0.000 
#    0.000    0.000    0.000    0.000    0.000    0.000 
#
# Total GULP energy -173547.354797 kJ/mol
# GULP energy per Si atom -12396.239628 kJ/mol
# Density = 2.268356 g / cm^3
# Si number density = 22.735311 Si / 1000 Ang^3
#
#
#
# Elastic Constant Matrix: (Units=GPa)
#
#
# Indices 1 2 3 4 5 6 
#
# 1 118.3853 13.9327 25.0507 0.3766 -8.6938 -14.7426
# 2 13.9327 71.8851 36.5771 13.3098 -1.0083 2.0311
# 3 25.0507 36.5771 126.6821 17.1123 -1.8270 0.3509
# 4 0.3766 13.3098 17.1123 38.6173 4.0268 -2.2484
# 5 -8.6938 -1.0083 -1.8270 4.0268 42.5288 9.2165
# 6 -14.7426 2.0311 0.3509 -2.2484 9.2165 32.2479
#
#
#
# Elastic Compliance Matrix: (Units=1/GPa)
#
#
# Indices 1 2 3 4 5 6 
#
# 1 0.009554 -0.001349 -0.001674 0.001284 0.000788 0.004335
# 2 -0.001349 0.017116 -0.004077 -0.004294 0.000836 -0.002189
# 3 -0.001674 -0.004077 0.009822 -0.003037 0.000480 -0.000964
# 4 0.001284 -0.004294 -0.003037 0.029315 -0.003605 0.003965
# 5 0.000788 0.000836 0.000480 -0.003605 0.025633 -0.007275
# 6 0.004335 -0.002189 -0.000964 0.003965 -0.007275 0.035495
#
#
# Mechanical properties :
#
#
# Convention : Reuss Voigt Hill
#
# Bulk Modulus (GPa) = 44.86036 52.00818 48.43427
# Shear Modulus (GPa) = 33.65553 38.77161 36.21357
#
# Velocity S-wave (km/s) = 3.85167 4.13407 3.99536
# Velocity P-wave (km/s) = 6.28927 6.76110 6.52945
#
# Compressibility (1/GPa) = 0.02229140
#
# Stress axis : x y z
#
# Youngs Moduli (GPa) = 104.67307 58.42621 101.81563
#
# Poissons Ratio (x) = 0.07883 0.17041
# Poissons Ratio (y) = 0.14122 0.41509
# Poissons Ratio (z) = 0.17519 0.23820
#
# Static dielectric constant tensor:
#      x y z
#    x 3.316290 -0.692230 0.029310 
#    y -0.692230 3.381680 0.381730 
#    z 0.029310 0.381730 4.375820 
# 
# 
# High freq. dielectric constant tensor:
#      x y z
#    x 1.903110 0.002110 -0.004800 
#    y 0.002110 1.879900 0.020570 
#    z -0.004800 0.020570 1.914160 
# 
# From -- ./inp_files/591574.got.cif
#   From: 2010.06.25/outbox.cif.g09.slc.cpg/sg2_296_cif.got.tgz:591574.got - 2010.06.27 13:26:56.
