data_PCOD8035470
_publ_section_title
;
Structure prediction by ZEFSAII (Michael W. Deem and Ramdas Pophale) SiO2 
 PCOD8035470
Probable space group: P -1
;
_chemical_formula_sum "Si O2"
_cell_formula_units_Z 12
_cell_length_a 13.159012
_cell_length_b 9.144857
_cell_length_c 15.878553
_cell_angle_alpha 142.062161
_cell_angle_beta 26.848412
_cell_angle_gamma 130.042299
_cell_volume 517.892861
_symmetry_space_group_name_H-M "P -1"
_symmetry_group_IT_number 2
_symmetry_cell_setting 'triclinic'
loop_
_space_group_symop_operation_xyz
x,y,z
-x,-y,-z
loop_
_atom_site_type_symbol
_atom_site_label
_atom_site_fract_x
_atom_site_fract_y
_atom_site_fract_z
Si Si1 0.338530 0.458766 0.893524
Si Si2 0.676164 0.975182 0.092493
Si Si3 0.037607 0.247770 0.906236
Si Si4 0.551580 0.808647 0.802724
Si Si5 0.707641 0.149427 0.580650
Si Si6 0.084363 0.569473 0.302095
O O1 0.229541 0.246215 0.835821
O O2 0.369172 0.637096 0.875080
O O3 0.595515 0.363530 0.696722
O O4 0.176501 0.592677 0.149719
O O5 0.503622 0.981847 0.301473
O O6 0.505396 0.033572 0.166862
O O7 0.844091 0.706776 0.841168
O O8 0.818500 0.189268 0.092085
O O9 0.095643 0.038246 0.697971
O O10 0.000000 0.500000 0.000000
O O11 0.811105 0.653295 0.539259
O O12 0.500000 0.000000 0.000000
O O13 0.808446 0.256033 0.636452
#
# Coordination Sequence:
#
# PCOD8035470 Si02
#       6
#     2   2   2   2   2   2
#     4  11  25  46  68 102 136 180 231 278 343 406
#     4  11  25  45  70 101 137 181 229 281 342 402
#     4  12  26  44  67 102 141 179 228 280 338 409
#     4  12  24  40  71 102 136 181 225 277 345 401
#     4  11  25  46  71  99 140 178 228 286 338 404
#     4  11  26  46  72 104 137 176 231 288 337 403
#
# _framework density 23.170815999999999
#
# number of rings (size 3 to 8) (size 9 to 14) (size 15 to 20)
#    0.000    0.667    1.667    6.500    2.333    8.000 
#    0.000    0.000    0.000    0.000    0.000    0.000 
#    0.000    0.000    0.000    0.000    0.000    0.000 
#
# Total GULP energy -148776.209810 kJ/mol
# GULP energy per Si atom -12398.017484 kJ/mol
# Density = 2.311808 g / cm^3
# Si number density = 23.170816 Si / 1000 Ang^3
#
#
#
# Elastic Constant Matrix: (Units=GPa)
#
#
# Indices 1 2 3 4 5 6 
#
# 1 90.0509 9.5311 34.4118 3.3525 -6.9234 3.0721
# 2 9.5311 103.0567 32.0019 -12.2510 -7.4517 -3.2019
# 3 34.4118 32.0019 96.5150 -4.5483 -10.2341 -6.4134
# 4 3.3525 -12.2510 -4.5483 21.1877 5.8857 -3.6356
# 5 -6.9234 -7.4517 -10.2341 5.8857 38.1957 5.9057
# 6 3.0721 -3.2019 -6.4134 -3.6356 5.9057 44.8824
#
#
#
# Elastic Compliance Matrix: (Units=1/GPa)
#
#
# Indices 1 2 3 4 5 6 
#
# 1 0.013363 -0.000151 -0.004839 -0.004204 0.002089 -0.002232
# 2 -0.000151 0.011535 -0.003406 0.006028 0.000258 0.000801
# 3 -0.004839 -0.003406 0.013586 0.001619 0.001546 0.001957
# 4 -0.004204 0.006028 0.001619 0.055233 -0.008678 0.006565
# 5 0.002089 0.000258 0.001546 -0.008678 0.029046 -0.004429
# 6 -0.002232 0.000801 0.001957 0.006565 -0.004429 0.023885
#
#
# Mechanical properties :
#
#
# Convention : Reuss Voigt Hill
#
# Bulk Modulus (GPa) = 46.10162 49.05689 47.57926
# Shear Modulus (GPa) = 29.29578 35.09836 32.19707
#
# Velocity S-wave (km/s) = 3.55961 3.89622 3.73171
# Velocity P-wave (km/s) = 6.06911 6.43883 6.25670
#
# Compressibility (1/GPa) = 0.02169121
#
# Stress axis : x y z
#
# Youngs Moduli (GPa) = 74.83087 86.69069 73.60341
#
# Poissons Ratio (x) = 0.01311 0.35620
# Poissons Ratio (y) = 0.01131 0.25071
# Poissons Ratio (z) = 0.36214 0.29529
#
# Static dielectric constant tensor:
#      x y z
#    x 4.241510 0.120540 -0.001000 
#    y 0.120540 4.186390 -0.295320 
#    z -0.001000 -0.295320 4.439520 
# 
# 
# High freq. dielectric constant tensor:
#      x y z
#    x 1.926960 -0.007100 -0.010120 
#    y -0.007100 1.929310 -0.011770 
#    z -0.010120 -0.011770 1.911270 
# 
# From -- ./inp_files/159799.got.cif
#   From: 2010.06.25/outbox.cif.g09.slc.cpg/sg2_80_cif.got.tgz:159799.got - 2010.06.27 13:26:56.
