data_PCOD8035934
_publ_section_title
;
Structure prediction by ZEFSAII (Michael W. Deem and Ramdas Pophale) SiO2 
 PCOD8035934
Probable space group: P -1
;
_chemical_formula_sum "Si O2"
_cell_formula_units_Z 12
_cell_length_a 10.949062
_cell_length_b 14.411419
_cell_length_c 14.007142
_cell_angle_alpha 30.334317
_cell_angle_beta 148.157763
_cell_angle_gamma 149.051978
_cell_volume 520.753310
_symmetry_space_group_name_H-M "P -1"
_symmetry_group_IT_number 2
_symmetry_cell_setting 'triclinic'
loop_
_space_group_symop_operation_xyz
x,y,z
-x,-y,-z
loop_
_atom_site_type_symbol
_atom_site_label
_atom_site_fract_x
_atom_site_fract_y
_atom_site_fract_z
Si Si1 0.458703 0.678699 0.760331
Si Si2 0.875586 0.973256 0.338060
Si Si3 0.652133 0.539047 0.306666
Si Si4 0.369855 0.619649 0.360651
Si Si5 0.076427 0.433216 0.012420
Si Si6 0.885941 0.117380 0.597217
O O1 0.298010 0.575664 0.648266
O O2 0.297230 0.769443 0.632524
O O3 0.735040 0.875614 0.741467
O O4 0.500000 0.500000 0.000000
O O5 0.560373 0.859093 0.244250
O O6 0.973448 0.846336 0.444932
O O7 0.973548 0.189978 0.160054
O O8 0.000000 0.000000 0.500000
O O9 0.622617 0.399574 0.503633
O O10 0.890217 0.769266 0.274357
O O11 0.387891 0.557925 0.094010
O O12 0.500000 0.500000 0.500000
O O13 0.071043 0.531323 0.206867
O O14 0.000000 0.500000 0.000000
#
# Coordination Sequence:
#
# PCOD8035934 Si02
#       6
#     2   2   2   2   2   2
#     4  11  27  50  76 107 142 196 255 304 363 428
#     4  12  22  43  71 108 150 190 236 298 370 437
#     4  12  25  46  75 107 148 192 243 298 370 430
#     4  12  23  42  70 104 152 186 228 300 362 437
#     4  12  24  41  67 107 146 191 237 287 365 440
#     4  11  25  48  74 106 150 188 247 307 359 435
#
# _framework density 23.043541000000001
#
# number of rings (size 3 to 8) (size 9 to 14) (size 15 to 20)
#    0.000    0.333    6.667    1.000    2.333    0.667 
#    0.000    3.333    0.000    0.000    0.000    0.000 
#    0.000    0.000    0.000    0.000    0.000    0.000 
#
# Total GULP energy -148777.524757 kJ/mol
# GULP energy per Si atom -12398.127063 kJ/mol
# Density = 2.299109 g / cm^3
# Si number density = 23.043541 Si / 1000 Ang^3
#
#
#
# Elastic Constant Matrix: (Units=GPa)
#
#
# Indices 1 2 3 4 5 6 
#
# 1 109.2679 32.8728 34.5849 1.8736 -15.3720 -19.6104
# 2 32.8728 159.9066 45.5660 13.1943 -10.4512 5.1738
# 3 34.5849 45.5660 130.3643 10.7404 -5.3294 1.5048
# 4 1.8736 13.1943 10.7404 46.2702 0.9359 1.6463
# 5 -15.3720 -10.4512 -5.3294 0.9359 26.1837 2.0491
# 6 -19.6104 5.1738 1.5048 1.6463 2.0491 46.0617
#
#
#
# Elastic Compliance Matrix: (Units=1/GPa)
#
#
# Indices 1 2 3 4 5 6 
#
# 1 0.012136 -0.001604 -0.002512 0.000253 0.005559 0.005172
# 2 -0.001604 0.007436 -0.001952 -0.001586 0.001802 -0.001478
# 3 -0.002512 -0.001952 0.009139 -0.001419 -0.000258 -0.001087
# 4 0.000253 -0.001586 -0.001419 0.022429 -0.001544 -0.000401
# 5 0.005559 0.001802 -0.000258 -0.001544 0.042150 0.000353
# 6 0.005172 -0.001478 -0.001087 -0.000401 0.000353 0.024112
#
#
# Mechanical properties :
#
#
# Convention : Reuss Voigt Hill
#
# Bulk Modulus (GPa) = 60.33639 69.50958 64.92299
# Shear Modulus (GPa) = 37.02003 42.80413 39.91208
#
# Velocity S-wave (km/s) = 4.01250 4.31459 4.16628
# Velocity P-wave (km/s) = 6.90705 7.41962 7.16792
#
# Compressibility (1/GPa) = 0.01657375
#
# Stress axis : x y z
#
# Youngs Moduli (GPa) = 82.40286 134.47938 109.42673
#
# Poissons Ratio (x) = 0.21567 0.27490
# Poissons Ratio (y) = 0.13215 0.21363
# Poissons Ratio (z) = 0.20701 0.26254
#
# Static dielectric constant tensor:
#      x y z
#    x 4.461430 0.151880 0.574420 
#    y 0.151880 4.833200 0.198220 
#    z 0.574420 0.198220 6.842500 
# 
# 
# High freq. dielectric constant tensor:
#      x y z
#    x 1.921100 -0.000060 0.003690 
#    y -0.000060 1.934260 0.001140 
#    z 0.003690 0.001140 1.891860 
# 
# From -- ./inp_files/452812.got.cif
#   From: 2010.06.25/outbox.cif.g09.slc.cpg/sg2_227_cif.got.tgz:452812.got - 2010.06.27 13:26:56.
