data_PCOD8035582
_publ_section_title
;
Structure prediction by ZEFSAII (Michael W. Deem and Ramdas Pophale) SiO2 
 PCOD8035582
Probable space group: P -1
;
_chemical_formula_sum "Si O2"
_cell_formula_units_Z 12
_cell_length_a 15.250810
_cell_length_b 8.871438
_cell_length_c 8.923197
_cell_angle_alpha 59.665186
_cell_angle_beta 113.308376
_cell_angle_gamma 151.406266
_cell_volume 495.344821
_symmetry_space_group_name_H-M "P -1"
_symmetry_group_IT_number 2
_symmetry_cell_setting 'triclinic'
loop_
_space_group_symop_operation_xyz
x,y,z
-x,-y,-z
loop_
_atom_site_type_symbol
_atom_site_label
_atom_site_fract_x
_atom_site_fract_y
_atom_site_fract_z
Si Si1 0.966696 0.192883 0.165175
Si Si2 0.325061 0.234719 0.308770
Si Si3 0.186964 0.810328 0.171155
Si Si4 0.312323 0.373570 0.534630
Si Si5 0.677931 0.382168 0.985371
Si Si6 0.483253 0.995849 0.314242
O O1 0.019294 0.417860 0.215296
O O2 0.135527 0.385540 0.085489
O O3 0.861530 0.875265 0.345242
O O4 0.816370 0.041346 0.028311
O O5 0.253331 0.153088 0.470078
O O6 0.520560 0.442264 0.347488
O O7 0.348847 0.453172 0.127046
O O8 0.180263 0.885510 0.295492
O O9 0.375981 0.000393 0.189706
O O10 0.366331 0.642615 0.358715
O O11 0.500000 0.000000 0.000000
O O12 0.678847 0.323606 0.193258
O O13 0.500000 0.000000 0.500000
#
# Coordination Sequence:
#
# PCOD8035582 Si02
#       6
#     2   2   2   2   2   2
#     4  11  27  48  72 107 146 187 238 301 351 419
#     4  11  25  45  76 106 144 191 237 287 361 431
#     4  11  25  47  71 108 143 191 232 294 357 426
#     4  11  25  46  76 109 142 185 242 298 349 420
#     4  12  25  49  72 100 145 195 234 290 364 426
#     4  12  25  48  74 104 141 192 240 287 359 430
#
# _framework density 24.225549000000001
#
# number of rings (size 3 to 8) (size 9 to 14) (size 15 to 20)
#    0.000    0.667    5.000    1.000    4.667    5.333 
#    3.000    0.000    0.000    0.000    0.000    0.000 
#    0.000    0.000    0.000    0.000    0.000    0.000 
#
# Total GULP energy -148699.148039 kJ/mol
# GULP energy per Si atom -12391.595670 kJ/mol
# Density = 2.417041 g / cm^3
# Si number density = 24.225549 Si / 1000 Ang^3
#
#
#
# Elastic Constant Matrix: (Units=GPa)
#
#
# Indices 1 2 3 4 5 6 
#
# 1 123.3858 59.0871 68.0955 -3.4493 0.2491 4.5675
# 2 59.0871 84.2654 63.1648 20.2321 -16.6808 -4.0779
# 3 68.0955 63.1648 156.5452 -14.2982 -12.7116 26.0250
# 4 -3.4493 20.2321 -14.2982 50.8187 0.2139 -16.9269
# 5 0.2491 -16.6808 -12.7116 0.2139 47.0752 -1.3205
# 6 4.5675 -4.0779 26.0250 -16.9269 -1.3205 37.7311
#
#
#
# Elastic Compliance Matrix: (Units=1/GPa)
#
#
# Indices 1 2 3 4 5 6 
#
# 1 0.014411 -0.010631 -0.001974 0.004834 -0.004385 0.000484
# 2 -0.010631 0.032307 -0.009904 -0.014620 0.009046 0.005368
# 3 -0.001974 -0.009904 0.012928 0.004935 -0.000242 -0.007543
# 4 0.004834 -0.014620 0.004935 0.029782 -0.003794 0.007659
# 5 -0.004385 0.009046 -0.000242 -0.003794 0.024446 0.000829
# 6 0.000484 0.005368 -0.007543 0.007659 0.000829 0.035693
#
#
# Mechanical properties :
#
#
# Convention : Reuss Voigt Hill
#
# Bulk Modulus (GPa) = 68.36443 82.76568 75.56506
# Shear Modulus (GPa) = 25.06751 38.71492 31.89121
#
# Velocity S-wave (km/s) = 3.22025 4.00196 3.63220
# Velocity P-wave (km/s) = 6.48906 7.45608 6.98931
#
# Compressibility (1/GPa) = 0.01462749
#
# Stress axis : x y z
#
# Youngs Moduli (GPa) = 69.39116 30.95336 77.35040
#
# Poissons Ratio (x) = 0.32905 0.15270
# Poissons Ratio (y) = 0.73766 0.76612
# Poissons Ratio (z) = 0.13699 0.30658
#
# Static dielectric constant tensor:
#      x y z
#    x 4.606540 -0.337520 -0.072180 
#    y -0.337520 4.284810 0.205110 
#    z -0.072180 0.205110 4.877680 
# 
# 
# High freq. dielectric constant tensor:
#      x y z
#    x 1.963030 -0.016000 0.001720 
#    y -0.016000 1.943260 0.016010 
#    z 0.001720 0.016010 1.979280 
# 
# From -- ./inp_files/150624.got.cif
#   From: 2010.06.25/outbox.cif.g09.slc.cpg/sg2_76_cif.got.tgz:150624.got - 2010.06.27 13:26:56.
