data_PCOD8035421
_publ_section_title
;
Structure prediction by ZEFSAII (Michael W. Deem and Ramdas Pophale) SiO2 
 PCOD8035421
Probable space group: P -1
;
_chemical_formula_sum "Si O2"
_cell_formula_units_Z 14
_cell_length_a 14.965357
_cell_length_b 15.991467
_cell_length_c 10.131428
_cell_angle_alpha 45.335978
_cell_angle_beta 116.322730
_cell_angle_gamma 153.202335
_cell_volume 636.689163
_symmetry_space_group_name_H-M "P -1"
_symmetry_group_IT_number 2
_symmetry_cell_setting 'triclinic'
loop_
_space_group_symop_operation_xyz
x,y,z
-x,-y,-z
loop_
_atom_site_type_symbol
_atom_site_label
_atom_site_fract_x
_atom_site_fract_y
_atom_site_fract_z
Si Si1 0.437673 0.749320 0.999675
Si Si2 0.970788 0.848493 0.727276
Si Si3 0.242240 0.266466 0.038262
Si Si4 0.903118 0.298605 0.560198
Si Si5 0.853347 0.368856 0.918869
Si Si6 0.379482 0.123635 0.769843
Si Si7 0.864277 0.688729 0.320955
O O1 0.203528 0.430266 0.149629
O O2 0.358151 0.768983 0.024419
O O3 0.605587 0.845869 0.094881
O O4 0.608866 0.977469 0.738269
O O5 0.865469 0.758329 0.901494
O O6 0.000000 0.000000 0.500000
O O7 0.234189 0.074533 0.663987
O O8 0.500000 0.500000 0.000000
O O9 0.258268 0.353609 0.815305
O O10 0.067240 0.967262 0.236842
O O11 0.000000 0.500000 0.500000
O O12 0.971252 0.394619 0.345232
O O13 0.015560 0.295657 0.685267
O O14 0.000000 0.500000 0.000000
O O15 0.740833 0.128182 0.063455
O O16 0.653788 0.417965 0.576473
#
# Coordination Sequence:
#
# PCOD8035421 Si02
#       7
#     2   2   2   2   2   2   2
#     4  12  25  47  75 105 146 191 241 299 367 438
#     4  12  27  44  70 105 141 190 244 299 363 433
#     4  11  25  46  69 104 145 184 247 304 359 431
#     4  12  25  45  77 107 145 192 244 297 368 442
#     4  12  26  47  73 109 149 189 242 306 369 433
#     4  12  24  46  72 101 146 188 238 300 362 435
#     4  11  25  44  74 103 142 196 235 300 372 427
#
# _framework density 21.98875
#
# number of rings (size 3 to 8) (size 9 to 14) (size 15 to 20)
#    0.000    0.286    4.286    4.714    0.000    7.429 
#    0.000    0.000    0.000    0.000    0.000    0.000 
#    0.000    0.000    0.000    0.000    0.000    0.000 
#
# Total GULP energy -173616.993476 kJ/mol
# GULP energy per Si atom -12401.213820 kJ/mol
# Density = 2.193870 g / cm^3
# Si number density = 21.988750 Si / 1000 Ang^3
#
#
#
# Elastic Constant Matrix: (Units=GPa)
#
#
# Indices 1 2 3 4 5 6 
#
# 1 -60.0421 -168.5391 -184.5195 69.6131 -94.1533 59.4945
# 2 -168.5391 -95.6691 -211.2321 84.5940 -100.9658 71.2488
# 3 -184.5195 -211.2321 -138.0729 84.7163 -126.4653 77.2576
# 4 69.6131 84.5940 84.7163 4.0076 35.7521 -22.9140
# 5 -94.1533 -100.9658 -126.4653 35.7521 -3.2165 25.8870
# 6 59.4945 71.2488 77.2576 -22.9140 25.8870 17.9590
#
#
#
# Elastic Compliance Matrix: (Units=1/GPa)
#
#
# Indices 1 2 3 4 5 6 
#
# 1 0.008818 -0.002758 -0.003279 0.002376 -0.002010 0.001764
# 2 -0.002758 0.007658 -0.003584 0.000792 -0.003863 0.000753
# 3 -0.003279 -0.003584 0.006881 0.004176 -0.000720 0.001850
# 4 0.002376 0.000792 0.004176 0.026609 0.006120 -0.003853
# 5 -0.002010 -0.003863 -0.000720 0.006120 0.018273 0.006552
# 6 0.001764 0.000753 0.001850 -0.003853 0.006552 0.024530
#
#
# Mechanical properties :
#
#
# Convention : Reuss Voigt Hill
#
# Bulk Modulus (GPa) = 243.06769 -158.04061 42.51354
# Shear Modulus (GPa) = 44.09893 21.78378 32.94135
#
# Velocity S-wave (km/s) = 4.48316 3.15092 3.87473
# Velocity P-wave (km/s) = 11.72946 7.66757 6.27648
#
# Compressibility (1/GPa) = 0.00411408
#
# Stress axis : x y z
#
# Youngs Moduli (GPa) = 113.40945 130.58480 145.33564
#
# Poissons Ratio (x) = 0.36009 0.47657
# Poissons Ratio (y) = 0.31273 0.52094
# Poissons Ratio (z) = 0.37188 0.46806
#
# Static dielectric constant tensor:
#      x y z
#    x 3.921950 0.183340 -0.131450 
#    y 0.183340 3.286800 0.187380 
#    z -0.131450 0.187380 4.075970 
# 
# 
# High freq. dielectric constant tensor:
#      x y z
#    x 1.876780 0.000190 -0.000360 
#    y 0.000190 1.875030 -0.001000 
#    z -0.000360 -0.001000 1.878600 
# 
# From -- ./inp_files/314717.got.cif
#   From: 2010.06.25/outbox.cif.g09.slc.cpg/sg2_158_cif.got.tgz:314717.got - 2010.06.27 13:26:56.
