data_PCOD8035302
_publ_section_title
;
Structure prediction by ZEFSAII (Michael W. Deem and Ramdas Pophale) SiO2 
 PCOD8035302
Probable space group: P -1
;
_chemical_formula_sum "Si O2"
_cell_formula_units_Z 14
_cell_length_a 14.201907
_cell_length_b 5.915556
_cell_length_c 22.759047
_cell_angle_alpha 98.260676
_cell_angle_beta 157.984543
_cell_angle_gamma 93.128625
_cell_volume 611.720987
_symmetry_space_group_name_H-M "P -1"
_symmetry_group_IT_number 2
_symmetry_cell_setting 'triclinic'
loop_
_space_group_symop_operation_xyz
x,y,z
-x,-y,-z
loop_
_atom_site_type_symbol
_atom_site_label
_atom_site_fract_x
_atom_site_fract_y
_atom_site_fract_z
Si Si1 0.999435 0.279651 0.450494
Si Si2 0.200792 0.295451 0.941312
Si Si3 0.035484 0.752448 0.991191
Si Si4 0.696836 0.272084 0.158259
Si Si5 0.172887 0.604026 0.352223
Si Si6 0.541424 0.785707 0.234031
Si Si7 0.203647 0.234221 0.262118
O O1 0.908012 0.269736 0.330294
O O2 0.000000 0.500000 0.500000
O O3 0.325092 0.327498 0.644750
O O4 0.785086 0.990873 0.340130
O O5 0.919619 0.228507 0.736450
O O6 0.477355 0.349029 0.064139
O O7 0.297165 0.555852 0.044081
O O8 0.086370 0.055778 0.912311
O O9 0.376959 0.911254 0.177570
O O10 0.000000 0.500000 0.000000
O O11 0.823506 0.626258 0.807298
O O12 0.000000 0.000000 0.000000
O O13 0.922146 0.490772 0.252261
O O14 0.500000 0.000000 0.000000
O O15 0.187675 0.373085 0.317381
O O16 0.501393 0.784476 0.573516
#
# Coordination Sequence:
#
# PCOD8035302 Si02
#       7
#     2   2   2   2   2   2   2
#     4  11  25  45  74 107 151 194 249 322 389 457
#     4  12  22  47  77 101 151 200 254 312 388 463
#     4  12  28  48  77 108 147 198 260 317 381 466
#     4  12  24  44  72 109 146 193 259 316 374 459
#     4  11  25  43  70 103 147 192 252 310 383 451
#     4  11  25  46  75 103 145 203 250 311 398 461
#     4  11  25  47  70 102 147 197 244 314 390 450
#
# _framework density 22.886251000000001
#
# number of rings (size 3 to 8) (size 9 to 14) (size 15 to 20)
#    0.000    0.571    4.286    3.429    4.000    0.000 
#    2.571    0.000    0.000    0.000    0.000    0.000 
#    0.000    0.000    0.000    0.000    0.000    0.000 
#
# Total GULP energy -173451.709971 kJ/mol
# GULP energy per Si atom -12389.407855 kJ/mol
# Density = 2.283416 g / cm^3
# Si number density = 22.886251 Si / 1000 Ang^3
#
#
#
# Elastic Constant Matrix: (Units=GPa)
#
#
# Indices 1 2 3 4 5 6 
#
# 1 101.5952 42.5483 54.6304 -12.2727 2.5595 3.2879
# 2 42.5483 103.7546 34.0558 -14.1032 -1.1403 2.4846
# 3 54.6304 34.0558 124.6212 -34.8935 3.6918 4.6569
# 4 -12.2727 -14.1032 -34.8935 53.7840 -0.3235 -1.5438
# 5 2.5595 -1.1403 3.6918 -0.3235 50.3975 -8.7213
# 6 3.2879 2.4846 4.6569 -1.5438 -8.7213 41.4002
#
#
#
# Elastic Compliance Matrix: (Units=1/GPa)
#
#
# Indices 1 2 3 4 5 6 
#
# 1 0.014481 -0.004310 -0.005541 -0.001436 -0.000511 -0.000429
# 2 -0.004310 0.011936 -0.000958 0.001525 0.000553 -0.000093
# 3 -0.005541 -0.000958 0.012631 0.006651 -0.000768 -0.000837
# 4 -0.001436 0.001525 0.006651 0.022981 -0.000217 0.000086
# 5 -0.000511 0.000553 -0.000768 -0.000217 0.020705 0.004447
# 6 -0.000429 -0.000093 -0.000837 0.000086 0.004447 0.025228
#
#
# Mechanical properties :
#
#
# Convention : Reuss Voigt Hill
#
# Bulk Modulus (GPa) = 57.37475 65.82667 61.60071
# Shear Modulus (GPa) = 36.92997 42.36544 39.64771
#
# Velocity S-wave (km/s) = 4.02136 4.30714 4.16670
# Velocity P-wave (km/s) = 6.83270 7.31849 7.07976
#
# Compressibility (1/GPa) = 0.01742927
#
# Stress axis : x y z
#
# Youngs Moduli (GPa) = 69.05597 83.78153 79.16779
#
# Poissons Ratio (x) = 0.36112 0.43868
# Poissons Ratio (y) = 0.29765 0.07585
# Poissons Ratio (z) = 0.38265 0.08027
#
# Static dielectric constant tensor:
#      x y z
#    x 2.513480 -1.467560 3.182490 
#    y -1.467560 2.718620 2.416320 
#    z 3.182490 2.416320 -1.016630 
# 
# 
# High freq. dielectric constant tensor:
#      x y z
#    x 1.904880 0.003190 0.005240 
#    y 0.003190 1.901830 -0.019800 
#    z 0.005240 -0.019800 1.924280 
# 
# From -- ./inp_files/75939.got.cif
#   From: 2010.06.25/outbox.cif.g09.slc.cpg/sg2_38_cif.got.tgz:75939.got - 2010.06.27 13:26:56.
