data_PCOD8035454
_publ_section_title
;
Structure prediction by ZEFSAII (Michael W. Deem and Ramdas Pophale) SiO2 
 PCOD8035454
Probable space group: P -1
;
_chemical_formula_sum "Si O2"
_cell_formula_units_Z 14
_cell_length_a 27.582124
_cell_length_b 15.778055
_cell_length_c 16.181710
_cell_angle_alpha 161.990398
_cell_angle_beta 18.579913
_cell_angle_gamma 159.461589
_cell_volume 648.478700
_symmetry_space_group_name_H-M "P -1"
_symmetry_group_IT_number 2
_symmetry_cell_setting 'triclinic'
loop_
_space_group_symop_operation_xyz
x,y,z
-x,-y,-z
loop_
_atom_site_type_symbol
_atom_site_label
_atom_site_fract_x
_atom_site_fract_y
_atom_site_fract_z
Si Si1 0.371072 0.731333 0.180349
Si Si2 0.189431 0.174097 0.856501
Si Si3 0.705384 0.026073 0.818341
Si Si4 0.459000 0.741398 0.232728
Si Si5 0.770426 0.174204 0.191672
Si Si6 0.313587 0.395010 0.684702
Si Si7 0.974639 0.842205 0.480416
O O1 0.415000 0.642154 0.117582
O O2 0.295706 0.985044 0.539678
O O3 0.235619 0.448238 0.097741
O O4 0.531486 0.838581 0.963994
O O5 0.218221 0.283319 0.818346
O O6 0.000000 0.000000 0.000000
O O7 0.843488 0.090865 0.722948
O O8 0.743686 0.862439 0.527244
O O9 0.724247 0.340067 0.046406
O O10 0.307413 0.820637 0.587327
O O11 0.618203 0.039749 0.250007
O O12 0.500000 0.500000 0.000000
O O13 0.880725 0.503073 0.296047
O O14 0.877296 0.964225 0.818386
O O15 0.500000 0.500000 0.500000
O O16 0.000000 0.000000 0.500000
#
# Coordination Sequence:
#
# PCOD8035454 Si02
#       7
#     2   2   2   2   2   2   2
#     4  12  26  46  75 103 137 186 246 278 369 426
#     4  12  28  47  72 107 142 181 232 314 351 422
#     4  12  25  43  77 103 133 201 228 291 358 430
#     4  11  26  47  76 100 147 193 237 294 354 441
#     4  11  25  45  68 101 145 191 228 287 364 406
#     4  12  23  48  73 100 143 178 246 291 357 424
#     4  12  26  45  69 107 151 177 239 300 347 427
#
# _framework density 21.588991
#
# number of rings (size 3 to 8) (size 9 to 14) (size 15 to 20)
#    0.000    0.286    4.286    3.857    4.000    4.571 
#    0.000    0.000    0.000    0.000    0.000    0.000 
#    0.000    0.000    0.000    0.000    0.000    0.000 
#
# Total GULP energy -173591.092522 kJ/mol
# GULP energy per Si atom -12399.363752 kJ/mol
# Density = 2.153985 g / cm^3
# Si number density = 21.588991 Si / 1000 Ang^3
#
#
#
# Elastic Constant Matrix: (Units=GPa)
#
#
# Indices 1 2 3 4 5 6 
#
# 1 158.5440 63.5607 36.8719 6.6938 4.1233 -4.1852
# 2 63.5607 149.7990 26.6227 6.1273 3.9357 20.3984
# 3 36.8719 26.6227 94.6238 13.6508 2.0431 0.7731
# 4 6.6938 6.1273 13.6508 49.4436 1.8556 -1.5384
# 5 4.1233 3.9357 2.0431 1.8556 39.4479 -0.1927
# 6 -4.1852 20.3984 0.7731 -1.5384 -0.1927 35.0032
#
#
#
# Elastic Compliance Matrix: (Units=1/GPa)
#
#
# Indices 1 2 3 4 5 6 
#
# 1 0.008354 -0.003556 -0.002279 0.000051 -0.000387 0.003122
# 2 -0.003556 0.009197 -0.001068 -0.000525 -0.000494 -0.005787
# 3 -0.002279 -0.001068 0.012181 -0.002918 -0.000149 -0.000048
# 4 0.000051 -0.000525 -0.002918 0.021159 -0.000791 0.001302
# 5 -0.000387 -0.000494 -0.000149 -0.000791 0.025486 0.000350
# 6 0.003122 -0.005787 -0.000048 0.001302 0.000350 0.032375
#
#
# Mechanical properties :
#
#
# Convention : Reuss Voigt Hill
#
# Bulk Modulus (GPa) = 62.79495 73.00859 67.90177
# Shear Modulus (GPa) = 39.10312 43.17304 41.13808
#
# Velocity S-wave (km/s) = 4.26050 4.47673 4.36995
# Velocity P-wave (km/s) = 7.30426 7.78540 7.54866
#
# Compressibility (1/GPa) = 0.01592485
#
# Stress axis : x y z
#
# Youngs Moduli (GPa) = 119.70994 108.73201 82.09299
#
# Poissons Ratio (x) = 0.38670 0.18709
# Poissons Ratio (y) = 0.42574 0.08768
# Poissons Ratio (z) = 0.27281 0.11614
#
# Static dielectric constant tensor:
#      x y z
#    x 3.849020 0.105780 0.076240 
#    y 0.105780 4.065860 0.060320 
#    z 0.076240 0.060320 4.209050 
# 
# 
# High freq. dielectric constant tensor:
#      x y z
#    x 1.849180 0.007770 0.005390 
#    y 0.007770 1.868060 0.002700 
#    z 0.005390 0.002700 1.862700 
# 
# From -- ./inp_files/362874.got.cif
#   From: 2010.06.25/outbox.cif.g09.slc.cpg/sg2_182_cif.got.tgz:362874.got - 2010.06.27 13:26:56.
