data_PCOD8035535
_publ_section_title
;
Structure prediction by ZEFSAII (Michael W. Deem and Ramdas Pophale) SiO2 
 PCOD8035535
Probable space group: P -1
;
_chemical_formula_sum "Si O2"
_cell_formula_units_Z 16
_cell_length_a 6.681910
_cell_length_b 9.447721
_cell_length_c 19.490759
_cell_angle_alpha 116.697340
_cell_angle_beta 125.551143
_cell_angle_gamma 47.393283
_cell_volume 733.616283
_symmetry_space_group_name_H-M "P -1"
_symmetry_group_IT_number 2
_symmetry_cell_setting 'triclinic'
loop_
_space_group_symop_operation_xyz
x,y,z
-x,-y,-z
loop_
_atom_site_type_symbol
_atom_site_label
_atom_site_fract_x
_atom_site_fract_y
_atom_site_fract_z
Si Si1 0.550459 0.218534 0.362478
Si Si2 0.630568 0.981516 0.949045
Si Si3 0.824744 0.414838 0.416072
Si Si4 0.259338 0.706056 0.968539
Si Si5 0.425503 0.052576 0.417116
Si Si6 0.107545 0.666597 0.776522
Si Si7 0.189551 0.954776 0.767229
Si Si8 0.552562 0.295871 0.710231
O O1 0.651164 0.365982 0.425373
O O2 0.615029 0.117298 0.428404
O O3 0.761414 0.081419 0.312681
O O4 0.206260 0.309804 0.293279
O O5 0.477021 0.935479 0.849743
O O6 0.587211 0.181049 0.968028
O O7 0.975659 0.803424 0.983170
O O8 0.500000 0.000000 0.000000
O O9 0.552463 0.570305 0.348335
O O10 0.000000 0.500000 0.500000
O O11 0.071941 0.225314 0.380279
O O12 0.142446 0.714511 0.870800
O O13 0.500000 0.500000 0.000000
O O14 0.500000 0.000000 0.500000
O O15 0.506366 0.868186 0.349382
O O16 0.143933 0.804993 0.764634
O O17 0.366899 0.438331 0.767262
O O18 0.907403 0.178147 0.769457
#
# Coordination Sequence:
#
# PCOD8035535 Si02
#       8
#     2   2   2   2   2   2   2   2
#     4  12  24  48  75 102 145 192 240 300 368 431
#     4  11  25  45  73 106 151 193 235 305 365 425
#     4  12  26  48  69 109 147 180 241 310 362 440
#     4  11  27  44  71 113 147 190 250 293 368 437
#     4  12  26  48  70 108 148 182 242 306 366 442
#     4  12  25  47  71 105 151 184 248 311 346 448
#     4  12  25  47  73 106 147 192 246 302 364 433
#     4  12  24  46  74 102 145 186 243 304 364 429
#
# _framework density 21.809764999999999
#
# number of rings (size 3 to 8) (size 9 to 14) (size 15 to 20)
#    0.000    0.250    8.750    0.000    1.750    5.500 
#    0.000    0.000    0.000    0.000    0.000    0.000 
#    0.000    0.000    0.000    0.000    0.000    0.000 
#
# Total GULP energy -198252.805715 kJ/mol
# GULP energy per Si atom -12390.800357 kJ/mol
# Density = 2.176013 g / cm^3
# Si number density = 21.809765 Si / 1000 Ang^3
#
#
#
# Elastic Constant Matrix: (Units=GPa)
#
#
# Indices 1 2 3 4 5 6 
#
# 1 170.2740 67.1267 54.8399 4.2533 3.0243 17.5110
# 2 67.1267 161.5279 23.9995 -2.2676 6.0849 -3.5535
# 3 54.8399 23.9995 96.3634 7.2840 6.3963 22.0726
# 4 4.2533 -2.2676 7.2840 33.1878 3.7186 -3.1010
# 5 3.0243 6.0849 6.3963 3.7186 45.8668 5.9688
# 6 17.5110 -3.5535 22.0726 -3.1010 5.9688 33.7099
#
#
#
# Elastic Compliance Matrix: (Units=1/GPa)
#
#
# Indices 1 2 3 4 5 6 
#
# 1 0.008492 -0.003123 -0.003415 -0.000891 0.000757 -0.002721
# 2 -0.003123 0.007783 -0.000993 0.001616 -0.001270 0.003466
# 3 -0.003415 -0.000993 0.014756 -0.003604 -0.000333 -0.008265
# 4 -0.000891 0.001616 -0.003604 0.032102 -0.003101 0.006495
# 5 0.000757 -0.001270 -0.000333 -0.003101 0.022822 -0.004635
# 6 -0.002721 0.003466 -0.008265 0.006495 -0.004635 0.038274
#
#
# Mechanical properties :
#
#
# Convention : Reuss Voigt Hill
#
# Bulk Modulus (GPa) = 62.61870 80.01084 71.31477
# Shear Modulus (GPa) = 34.57504 41.36616 37.97060
#
# Velocity S-wave (km/s) = 3.98590 4.35981 4.17704
# Velocity P-wave (km/s) = 7.06802 7.88095 7.48553
#
# Compressibility (1/GPa) = 0.01596967
#
# Stress axis : x y z
#
# Youngs Moduli (GPa) = 117.75232 128.48613 67.76967
#
# Poissons Ratio (x) = 0.40122 0.23143
# Poissons Ratio (y) = 0.36771 0.06730
# Poissons Ratio (z) = 0.40212 0.12760
#
# Static dielectric constant tensor:
#      x y z
#    x 4.161830 0.081540 0.086820 
#    y 0.081540 4.586590 0.103870 
#    z 0.086820 0.103870 3.864260 
# 
# 
# High freq. dielectric constant tensor:
#      x y z
#    x 1.866220 -0.000830 0.003590 
#    y -0.000830 1.862280 0.006530 
#    z 0.003590 0.006530 1.865340 
# 
# From -- ./inp_files/358186.got.cif
#   From: 2010.06.25/outbox.cif.g09.slc.cpg/sg2_180_cif.got.tgz:358186.got - 2010.06.27 13:26:56.
