data_PCOD8035279
_publ_section_title
;
Structure prediction by ZEFSAII (Michael W. Deem and Ramdas Pophale) SiO2 
 PCOD8035279
Probable space group: P -1
;
_chemical_formula_sum "Si O2"
_cell_formula_units_Z 12
_cell_length_a 16.383375
_cell_length_b 9.249529
_cell_length_c 6.487592
_cell_angle_alpha 84.347197
_cell_angle_beta 123.523749
_cell_angle_gamma 55.810172
_cell_volume 545.937495
_symmetry_space_group_name_H-M "P -1"
_symmetry_group_IT_number 2
_symmetry_cell_setting 'triclinic'
loop_
_space_group_symop_operation_xyz
x,y,z
-x,-y,-z
loop_
_atom_site_type_symbol
_atom_site_label
_atom_site_fract_x
_atom_site_fract_y
_atom_site_fract_z
Si Si1 0.848626 0.880632 0.777075
Si Si2 0.553922 0.350003 0.899945
Si Si3 0.920189 0.469883 0.522681
Si Si4 0.645996 0.933799 0.225851
Si Si5 0.032027 0.819282 0.692184
Si Si6 0.279850 0.708979 0.214128
O O1 0.726367 0.888992 0.562022
O O2 0.899661 0.890177 0.624473
O O3 0.769705 0.091513 0.766928
O O4 0.988254 0.661799 0.122060
O O5 0.418194 0.480962 0.540562
O O6 0.684074 0.291959 0.973545
O O7 0.500000 0.500000 0.000000
O O8 0.612128 0.125637 0.051482
O O9 0.758883 0.706626 0.299476
O O10 0.903062 0.349514 0.374126
O O11 0.000000 0.500000 0.500000
O O12 0.500000 0.000000 0.000000
O O13 0.154851 0.724182 0.046165
O O14 0.000000 0.000000 0.500000
#
# Coordination Sequence:
#
# PCOD8035279 Si02
#       6
#     2   2   2   2   2   2
#     4  12  25  48  75 107 148 185 246 307 357 429
#     4  11  25  47  70  99 150 188 241 294 362 430
#     4  12  27  48  73 105 152 189 242 301 365 428
#     4  12  28  45  73 104 146 196 233 298 370 430
#     4  12  26  43  77 109 139 189 246 296 362 428
#     4  11  25  42  77 108 135 189 245 303 354 426
#
# _framework density 21.980537999999999
#
# number of rings (size 3 to 8) (size 9 to 14) (size 15 to 20)
#    0.000    0.333    5.000    3.000    4.667    0.000 
#    0.000    2.500    0.000    0.000    0.000    0.000 
#    0.000    0.000    0.000    0.000    0.000    0.000 
#
# Total GULP energy -148713.451572 kJ/mol
# GULP energy per Si atom -12392.787631 kJ/mol
# Density = 2.193051 g / cm^3
# Si number density = 21.980538 Si / 1000 Ang^3
#
#
#
# Elastic Constant Matrix: (Units=GPa)
#
#
# Indices 1 2 3 4 5 6 
#
# 1 100.2444 51.0277 62.1513 3.6492 14.8190 -5.5006
# 2 51.0277 191.0228 61.2199 3.2941 7.0483 -5.3647
# 3 62.1513 61.2199 105.3033 -2.9522 10.8363 2.3578
# 4 3.6492 3.2941 -2.9522 51.9270 10.2183 2.0362
# 5 14.8190 7.0483 10.8363 10.2183 49.9701 3.7600
# 6 -5.5006 -5.3647 2.3578 2.0362 3.7600 37.3658
#
#
#
# Elastic Compliance Matrix: (Units=1/GPa)
#
#
# Indices 1 2 3 4 5 6 
#
# 1 0.016894 -0.001429 -0.008949 -0.001166 -0.002870 0.003199
# 2 -0.001429 0.006629 -0.003068 -0.000571 0.000200 0.000946
# 3 -0.008949 -0.003068 0.016760 0.002036 -0.000750 -0.002851
# 4 -0.001166 -0.000571 0.002036 0.020339 -0.004093 -0.001079
# 5 -0.002870 0.000200 -0.000750 -0.004093 0.022010 -0.002338
# 6 0.003199 0.000946 -0.002851 -0.001079 -0.002338 0.027843
#
#
# Mechanical properties :
#
#
# Convention : Reuss Voigt Hill
#
# Bulk Modulus (GPa) = 74.68141 82.81868 78.75005
# Shear Modulus (GPa) = 35.25303 42.66401 38.95852
#
# Velocity S-wave (km/s) = 4.00913 4.41045 4.21457
# Velocity P-wave (km/s) = 7.44854 7.98098 7.71935
#
# Compressibility (1/GPa) = 0.01339021
#
# Stress axis : x y z
#
# Youngs Moduli (GPa) = 59.19399 150.85071 59.66550
#
# Poissons Ratio (x) = 0.21555 0.53395
# Poissons Ratio (y) = 0.08458 0.18307
# Poissons Ratio (z) = 0.52973 0.46286
#
# Static dielectric constant tensor:
#      x y z
#    x 4.455200 0.038910 0.318600 
#    y 0.038910 4.033290 -0.067910 
#    z 0.318600 -0.067910 4.532980 
# 
# 
# High freq. dielectric constant tensor:
#      x y z
#    x 1.856420 0.002010 0.009450 
#    y 0.002010 1.884130 -0.005620 
#    z 0.009450 -0.005620 1.887600 
# 
# From -- ./inp_files/36888.got.cif
#   From: 2010.06.25/outbox.cif.g09.slc.cpg/sg2_19_cif.got.tgz:36888.got - 2010.06.27 13:26:56.
