data_PCOD8035547
_publ_section_title
;
Structure prediction by ZEFSAII (Michael W. Deem and Ramdas Pophale) SiO2 
 PCOD8035547
Probable space group: P -1
;
_chemical_formula_sum "Si O2"
_cell_formula_units_Z 14
_cell_length_a 8.307227
_cell_length_b 7.430973
_cell_length_c 18.719883
_cell_angle_alpha 34.767937
_cell_angle_beta 113.780064
_cell_angle_gamma 119.982089
_cell_volume 570.735581
_symmetry_space_group_name_H-M "P -1"
_symmetry_group_IT_number 2
_symmetry_cell_setting 'triclinic'
loop_
_space_group_symop_operation_xyz
x,y,z
-x,-y,-z
loop_
_atom_site_type_symbol
_atom_site_label
_atom_site_fract_x
_atom_site_fract_y
_atom_site_fract_z
Si Si1 0.521046 0.388015 0.867286
Si Si2 0.757409 0.405552 0.148952
Si Si3 0.944194 0.278354 0.468201
Si Si4 0.616335 0.603796 0.656647
Si Si5 0.937898 0.390957 0.756125
Si Si6 0.749761 0.674372 0.385952
Si Si7 0.853753 0.684565 0.926656
O O1 0.363547 0.488196 0.848134
O O2 0.511711 0.496651 0.748360
O O3 0.718232 0.614558 0.858275
O O4 0.500000 0.000000 0.000000
O O5 0.969201 0.543554 0.170670
O O6 0.706797 0.015040 0.252217
O O7 0.739387 0.572254 0.016200
O O8 0.891907 0.602987 0.377820
O O9 0.965688 0.287404 0.382875
O O10 0.151077 0.312891 0.523815
O O11 0.780114 0.958515 0.571867
O O12 0.718540 0.333342 0.744577
O O13 0.457144 0.602191 0.570182
O O14 0.964330 0.074485 0.824891
O O15 0.000000 0.500000 0.000000
#
# Coordination Sequence:
#
# PCOD8035547 Si02
#       7
#     2   2   2   2   2   2   2
#     4  12  26  46  71 103 142 183 237 291 352 421
#     4  12  24  46  70 105 143 182 236 293 349 419
#     4  11  26  48  69 104 146 185 236 290 346 420
#     4  12  25  47  71 106 140 187 237 287 353 417
#     4  12  25  45  71 104 143 182 238 290 349 420
#     4  11  25  45  73  99 145 183 236 286 351 410
#     4  12  25  43  73 103 138 187 233 290 362 413
#
# _framework density 24.529748999999999
#
# number of rings (size 3 to 8) (size 9 to 14) (size 15 to 20)
#    0.000    0.286    1.429    7.714    4.000    0.571 
#    0.000    0.000    0.000    0.000    0.000    0.000 
#    0.000    0.000    0.000    0.000    0.000    0.000 
#
# Total GULP energy -173611.093740 kJ/mol
# GULP energy per Si atom -12400.792410 kJ/mol
# Density = 2.447392 g / cm^3
# Si number density = 24.529749 Si / 1000 Ang^3
#
#
#
# Elastic Constant Matrix: (Units=GPa)
#
#
# Indices 1 2 3 4 5 6 
#
# 1 124.5845 28.3196 40.4150 0.3790 10.1981 1.6680
# 2 28.3196 124.3337 31.2697 8.7155 5.2963 17.9424
# 3 40.4150 31.2697 93.4554 -7.6373 0.4001 -5.7398
# 4 0.3790 8.7155 -7.6373 30.3204 3.3027 12.4319
# 5 10.1981 5.2963 0.4001 3.3027 42.2639 8.1893
# 6 1.6680 17.9424 -5.7398 12.4319 8.1893 37.0677
#
#
#
# Elastic Compliance Matrix: (Units=1/GPa)
#
#
# Indices 1 2 3 4 5 6 
#
# 1 0.009709 -0.001138 -0.003846 -0.000610 -0.002155 0.000199
# 2 -0.001138 0.009916 -0.003257 -0.001745 0.000108 -0.004692
# 3 -0.003846 -0.003257 0.013889 0.003334 0.000423 0.002688
# 4 -0.000610 -0.001745 0.003334 0.039154 -0.000470 -0.011639
# 5 -0.002155 0.000108 0.000423 -0.000470 0.025228 -0.005306
# 6 0.000199 -0.004692 0.002688 -0.011639 -0.005306 0.034732
#
#
# Mechanical properties :
#
#
# Convention : Reuss Voigt Hill
#
# Bulk Modulus (GPa) = 58.71501 60.26468 59.48985
# Shear Modulus (GPa) = 32.30265 38.08837 35.19551
#
# Velocity S-wave (km/s) = 3.63282 3.94476 3.79200
# Velocity P-wave (km/s) = 6.44862 6.73569 6.59372
#
# Compressibility (1/GPa) = 0.01703142
#
# Stress axis : x y z
#
# Youngs Moduli (GPa) = 103.00126 100.84793 71.99945
#
# Poissons Ratio (x) = 0.11479 0.27691
# Poissons Ratio (y) = 0.11724 0.23448
# Poissons Ratio (z) = 0.39615 0.32844
#
# Static dielectric constant tensor:
#      x y z
#    x 4.325510 -0.216300 0.166000 
#    y -0.216300 4.479030 -0.064490 
#    z 0.166000 -0.064490 4.333360 
# 
# 
# High freq. dielectric constant tensor:
#      x y z
#    x 1.981770 -0.008350 0.021600 
#    y -0.008350 1.990400 -0.001000 
#    z 0.021600 -0.001000 1.974570 
# 
# From -- ./inp_files/587104.got.cif
#   From: 2010.06.25/outbox.cif.g09.slc.cpg/sg2_294_cif.got.tgz:587104.got - 2010.06.27 13:26:56.
