data_PCOD8035698
_publ_section_title
;
Structure prediction by ZEFSAII (Michael W. Deem and Ramdas Pophale) SiO2 
 PCOD8035698
Probable space group: P -1
;
_chemical_formula_sum "Si O2"
_cell_formula_units_Z 16
_cell_length_a 7.926409
_cell_length_b 6.960146
_cell_length_c 14.067077
_cell_angle_alpha 85.260669
_cell_angle_beta 101.139454
_cell_angle_gamma 108.546741
_cell_volume 721.711851
_symmetry_space_group_name_H-M "P -1"
_symmetry_group_IT_number 2
_symmetry_cell_setting 'triclinic'
loop_
_space_group_symop_operation_xyz
x,y,z
-x,-y,-z
loop_
_atom_site_type_symbol
_atom_site_label
_atom_site_fract_x
_atom_site_fract_y
_atom_site_fract_z
Si Si1 0.542022 0.985656 0.690575
Si Si2 0.589803 0.635177 0.091835
Si Si3 0.167883 0.101324 0.387471
Si Si4 0.718036 0.437375 0.276205
Si Si5 0.273606 0.725709 0.142309
Si Si6 0.971840 0.662682 0.774283
Si Si7 0.226770 0.182637 0.605558
Si Si8 0.146119 0.940713 0.956035
O O1 0.666542 0.083034 0.789607
O O2 0.388570 0.090546 0.649090
O O3 0.680954 0.009050 0.615869
O O4 0.457459 0.750290 0.714910
O O5 0.717890 0.534708 0.167533
O O6 0.438204 0.636622 0.151662
O O7 0.692735 0.859768 0.059353
O O8 0.500000 0.500000 0.000000
O O9 0.182477 0.272826 0.301744
O O10 0.210472 0.204109 0.490363
O O11 0.963802 0.949702 0.365827
O O12 0.730611 0.594503 0.355886
O O13 0.890028 0.355893 0.292667
O O14 0.106761 0.552173 0.174477
O O15 0.222361 0.789577 0.030935
O O16 0.064829 0.834224 0.854018
O O17 0.000000 0.000000 0.000000
#
# Coordination Sequence:
#
# PCOD8035698 Si02
#       8
#     2   2   2   2   2   2   2   2
#     4  12  24  47  70 105 139 181 233 286 346 409
#     4  12  23  40  64  98 134 179 228 278 343 407
#     4  11  25  46  73 100 140 184 230 288 346 414
#     4  12  24  44  71  98 142 180 225 290 340 410
#     4  12  24  42  66  99 136 178 228 280 344 413
#     4  12  24  44  68 102 138 184 233 283 349 410
#     4  11  25  49  69 104 139 182 233 285 351 407
#     4  12  24  42  66  98 139 180 230 285 343 414
#
# _framework density 22.169512000000001
#
# number of rings (size 3 to 8) (size 9 to 14) (size 15 to 20)
#    0.000    0.250    2.500    7.875    0.000    1.000 
#    2.250    0.000    0.000    0.000    0.000    0.000 
#    0.000    0.000    0.000    0.000    0.000    0.000 
#
# Total GULP energy -198484.443214 kJ/mol
# GULP energy per Si atom -12405.277701 kJ/mol
# Density = 2.211905 g / cm^3
# Si number density = 22.169512 Si / 1000 Ang^3
#
#
#
# Elastic Constant Matrix: (Units=GPa)
#
#
# Indices 1 2 3 4 5 6 
#
# 1 135.5017 40.4382 31.7096 11.0658 -19.3691 -4.1577
# 2 40.4382 137.9875 66.7245 21.7972 -1.9074 8.8091
# 3 31.7096 66.7245 135.6384 17.0106 0.2753 3.9117
# 4 11.0658 21.7972 17.0106 41.7009 -8.7810 -2.2632
# 5 -19.3691 -1.9074 0.2753 -8.7810 36.3773 2.6640
# 6 -4.1577 8.8091 3.9117 -2.2632 2.6640 33.6646
#
#
#
# Elastic Compliance Matrix: (Units=1/GPa)
#
#
# Indices 1 2 3 4 5 6 
#
# 1 0.008971 -0.002157 -0.001120 0.000257 0.004627 0.001454
# 2 -0.002157 0.010644 -0.004188 -0.003694 -0.001252 -0.002714
# 3 -0.001120 -0.004188 0.009936 -0.001858 -0.001323 -0.000217
# 4 0.000257 -0.003694 -0.001858 0.028121 0.006556 0.002586
# 5 0.004627 -0.001252 -0.001323 0.006556 0.031554 -0.001003
# 6 0.001454 -0.002714 -0.000217 0.002586 -0.001003 0.030873
#
#
# Mechanical properties :
#
#
# Convention : Reuss Voigt Hill
#
# Bulk Modulus (GPa) = 68.38940 76.31915 72.35428
# Shear Modulus (GPa) = 35.73947 40.36556 38.05252
#
# Velocity S-wave (km/s) = 4.01945 4.27168 4.14748
# Velocity P-wave (km/s) = 7.24270 7.67005 7.45943
#
# Compressibility (1/GPa) = 0.01462215
#
# Stress axis : x y z
#
# Youngs Moduli (GPa) = 111.47290 93.95398 100.64203
#
# Poissons Ratio (x) = 0.20265 0.11269
# Poissons Ratio (y) = 0.24044 0.42144
# Poissons Ratio (z) = 0.12481 0.39344
#
# Static dielectric constant tensor:
#      x y z
#    x 4.225060 -0.059160 -0.003680 
#    y -0.059160 4.010490 0.054710 
#    z -0.003680 0.054710 4.055480 
# 
# 
# High freq. dielectric constant tensor:
#      x y z
#    x 1.892350 -0.002930 -0.002650 
#    y -0.002930 1.877800 0.005970 
#    z -0.002650 0.005970 1.878890 
# 
# From -- ./inp_files/39021.got.cif
#   From: 2010.06.25/outbox.cif.g09.slc.cpg/sg2_20_cif.got.tgz:39021.got - 2010.06.27 13:26:56.
