data_PCOD8035026
_publ_section_title
;
Structure prediction by ZEFSAII (Michael W. Deem and Ramdas Pophale) SiO2 
 PCOD8035026
Probable space group: P -1
;
_chemical_formula_sum "Si O2"
_cell_formula_units_Z 14
_cell_length_a 5.983940
_cell_length_b 12.153802
_cell_length_c 11.162979
_cell_angle_alpha 47.628372
_cell_angle_beta 104.884925
_cell_angle_gamma 98.160352
_cell_volume 579.111479
_symmetry_space_group_name_H-M "P -1"
_symmetry_group_IT_number 2
_symmetry_cell_setting 'triclinic'
loop_
_space_group_symop_operation_xyz
x,y,z
-x,-y,-z
loop_
_atom_site_type_symbol
_atom_site_label
_atom_site_fract_x
_atom_site_fract_y
_atom_site_fract_z
Si Si1 0.638165 0.617277 0.506490
Si Si2 0.703165 0.139186 0.046352
Si Si3 0.246086 0.158457 0.835803
Si Si4 0.532678 0.775160 0.608533
Si Si5 0.762380 0.068819 0.374496
Si Si6 0.757375 0.572155 0.969699
Si Si7 0.982882 0.377761 0.801085
O O1 0.500000 0.500000 0.500000
O O2 0.650302 0.768710 0.322557
O O3 0.505582 0.658186 0.582518
O O4 0.892338 0.542034 0.625614
O O5 0.760713 0.143911 0.190163
O O6 0.849258 0.000569 0.103970
O O7 0.433579 0.123016 0.991949
O O8 0.769217 0.299535 0.890517
O O9 0.051702 0.274924 0.772402
O O10 0.297341 0.799227 0.634828
O O11 0.726374 0.715629 0.773916
O O12 0.585030 0.936470 0.444503
O O13 0.000000 0.000000 0.500000
O O14 0.500000 0.500000 0.000000
O O15 0.000000 0.500000 0.000000
O O16 0.805439 0.613745 0.083563
#
# Coordination Sequence:
#
# PCOD8035026 Si02
#       7
#     2   2   2   2   2   2   2
#     4  12  25  47  71 108 153 197 253 313 394 467
#     4  11  24  47  73 106 145 191 259 314 383 460
#     4  11  25  46  72 103 150 196 250 315 378 473
#     4  11  26  47  71 107 149 197 252 321 382 459
#     4  11  25  45  75 104 142 196 255 319 382 455
#     4  12  29  49  79 113 155 204 258 323 395 466
#     4  12  26  45  76 106 148 201 253 320 389 463
#
# _framework density 24.174965
#
# number of rings (size 3 to 8) (size 9 to 14) (size 15 to 20)
#    0.000    0.571    4.286    2.571    8.000    2.286 
#    0.000    0.000    0.000    0.000    0.000    0.000 
#    0.000    0.000    0.000    0.000    0.000    0.000 
#
# Total GULP energy -173496.302858 kJ/mol
# GULP energy per Si atom -12392.593061 kJ/mol
# Density = 2.411994 g / cm^3
# Si number density = 24.174965 Si / 1000 Ang^3
#
#
#
# Elastic Constant Matrix: (Units=GPa)
#
#
# Indices 1 2 3 4 5 6 
#
# 1 98.2920 39.7709 17.9824 10.6493 13.1501 -27.6963
# 2 39.7709 134.2244 27.2129 17.4403 11.1602 -30.1824
# 3 17.9824 27.2129 125.0698 15.5152 13.3406 -15.8514
# 4 10.6493 17.4403 15.5152 43.1549 -3.3633 -1.2549
# 5 13.1501 11.1602 13.3406 -3.3633 30.2360 -6.9920
# 6 -27.6963 -30.1824 -15.8514 -1.2549 -6.9920 53.3456
#
#
#
# Elastic Compliance Matrix: (Units=1/GPa)
#
#
# Indices 1 2 3 4 5 6 
#
# 1 0.013300 -0.002108 -0.000050 -0.002583 -0.004092 0.005101
# 2 -0.002108 0.009642 -0.000729 -0.003142 -0.001783 0.003837
# 3 -0.000050 -0.000729 0.009178 -0.003232 -0.003719 0.001725
# 4 -0.002583 -0.003142 -0.003232 0.026636 0.006057 -0.002658
# 5 -0.004092 -0.001783 -0.003719 0.006057 0.038031 0.000889
# 6 0.005101 0.003837 0.001725 -0.002658 0.000889 0.024131
#
#
# Mechanical properties :
#
#
# Convention : Reuss Voigt Hill
#
# Bulk Modulus (GPa) = 37.95645 58.61319 48.28482
# Shear Modulus (GPa) = 36.90742 43.52198 40.21470
#
# Velocity S-wave (km/s) = 3.91151 4.24759 4.08301
# Velocity P-wave (km/s) = 6.01122 6.95371 6.49957
#
# Compressibility (1/GPa) = 0.02634598
#
# Stress axis : x y z
#
# Youngs Moduli (GPa) = 75.18564 103.71599 108.96044
#
# Poissons Ratio (x) = 0.21863 0.00549
# Poissons Ratio (y) = 0.15849 0.07939
# Poissons Ratio (z) = 0.00378 0.07557
#
# Static dielectric constant tensor:
#      x y z
#    x -2.757550 -3.538050 12.638840 
#    y -3.538050 3.005250 5.913860 
#    z 12.638840 5.913860 -17.861400 
# 
# 
# High freq. dielectric constant tensor:
#      x y z
#    x 1.941560 -0.019550 0.001680 
#    y -0.019550 1.966340 -0.000180 
#    z 0.001680 -0.000180 1.982610 
# 
# From -- ./inp_files/69678.got.cif
#   From: 2010.06.25/outbox.cif.g09.slc.cpg/sg2_35_cif.got.tgz:69678.got - 2010.06.27 13:26:56.
