data_PCOD8035298
_publ_section_title
;
Structure prediction by ZEFSAII (Michael W. Deem and Ramdas Pophale) SiO2 
 PCOD8035298
Probable space group: P -1
;
_chemical_formula_sum "Si O2"
_cell_formula_units_Z 14
_cell_length_a 9.205918
_cell_length_b 9.258216
_cell_length_c 11.480988
_cell_angle_alpha 72.726010
_cell_angle_beta 74.191808
_cell_angle_gamma 41.837475
_cell_volume 621.243067
_symmetry_space_group_name_H-M "P -1"
_symmetry_group_IT_number 2
_symmetry_cell_setting 'triclinic'
loop_
_space_group_symop_operation_xyz
x,y,z
-x,-y,-z
loop_
_atom_site_type_symbol
_atom_site_label
_atom_site_fract_x
_atom_site_fract_y
_atom_site_fract_z
Si Si1 0.771556 0.896539 0.687792
Si Si2 0.298041 0.621514 0.103646
Si Si3 0.474080 0.697763 0.476003
Si Si4 0.175362 0.114591 0.872565
Si Si5 0.793412 0.568748 0.242299
Si Si6 0.528335 0.776783 0.703350
Si Si7 0.585790 0.158418 0.891587
O O1 0.656027 0.843426 0.655237
O O2 0.022538 0.687634 0.712448
O O3 0.757229 0.062546 0.574793
O O4 0.657244 0.993180 0.814534
O O5 0.323280 0.444695 0.203014
O O6 0.299467 0.760810 0.159643
O O7 0.051891 0.802326 0.060232
O O8 0.500000 0.500000 0.000000
O O9 0.500000 0.500000 0.500000
O O10 0.638024 0.670918 0.363704
O O11 0.510317 0.716839 0.595444
O O12 0.110424 0.333727 0.810421
O O13 0.286131 0.965897 0.767245
O O14 0.360128 0.961619 0.969198
O O15 0.671760 0.623201 0.131621
#
# Coordination Sequence:
#
# PCOD8035298 Si02
#       7
#     2   2   2   2   2   2   2
#     4  11  25  44  73 104 137 192 235 294 352 414
#     4  12  27  44  68 109 144 185 235 293 356 416
#     4  11  26  48  71 106 144 180 241 299 352 419
#     4  12  25  44  72 106 142 194 234 286 355 425
#     4  11  25  45  73 104 141 190 240 288 350 420
#     4  12  24  45  73 103 145 185 239 290 351 423
#     4  11  25  43  69 106 147 180 239 292 347 418
#
# _framework density 22.535463
#
# number of rings (size 3 to 8) (size 9 to 14) (size 15 to 20)
#    0.000    0.571    5.714    3.000    2.000    4.000 
#    0.000    0.000    0.000    0.000    0.000    0.000 
#    0.000    0.000    0.000    0.000    0.000    0.000 
#
# Total GULP energy -173496.502254 kJ/mol
# GULP energy per Si atom -12392.607304 kJ/mol
# Density = 2.248417 g / cm^3
# Si number density = 22.535463 Si / 1000 Ang^3
#
#
#
# Elastic Constant Matrix: (Units=GPa)
#
#
# Indices 1 2 3 4 5 6 
#
# 1 114.5398 63.2970 57.4309 -0.1091 15.4553 0.9856
# 2 63.2970 141.3653 59.9792 -37.4278 14.0230 -0.8141
# 3 57.4309 59.9792 117.3528 -10.2629 16.6510 -2.8789
# 4 -0.1091 -37.4278 -10.2629 38.5699 5.0786 -1.3396
# 5 15.4553 14.0230 16.6510 5.0786 33.0110 -1.0631
# 6 0.9856 -0.8141 -2.8789 -1.3396 -1.0631 53.6074
#
#
#
# Elastic Compliance Matrix: (Units=1/GPa)
#
#
# Indices 1 2 3 4 5 6 
#
# 1 0.014688 -0.006642 -0.004366 -0.007498 -0.000725 -0.000807
# 2 -0.006642 0.015655 -0.002796 0.015029 -0.004426 0.000497
# 3 -0.004366 -0.002796 0.012670 0.001104 -0.003307 0.000680
# 4 -0.007498 0.015029 0.001104 0.042128 -0.009871 0.001282
# 5 -0.000725 -0.004426 -0.003307 -0.009871 0.035707 0.000230
# 6 -0.000807 0.000497 0.000680 0.001282 0.000230 0.018750
#
#
# Mechanical properties :
#
#
# Convention : Reuss Voigt Hill
#
# Bulk Modulus (GPa) = 64.91737 81.63025 73.27381
# Shear Modulus (GPa) = 29.01231 37.87437 33.44334
#
# Velocity S-wave (km/s) = 3.59194 4.10403 3.85649
# Velocity P-wave (km/s) = 6.78763 7.66545 7.23986
#
# Compressibility (1/GPa) = 0.01540420
#
# Stress axis : x y z
#
# Youngs Moduli (GPa) = 68.08319 63.87580 78.92915
#
# Poissons Ratio (x) = 0.42427 0.34460
# Poissons Ratio (y) = 0.45221 0.22072
# Poissons Ratio (z) = 0.29724 0.17862
#
# Static dielectric constant tensor:
#      x y z
#    x 4.133560 -0.072200 0.141970 
#    y -0.072200 4.723280 -0.339760 
#    z 0.141970 -0.339760 4.022610 
# 
# 
# High freq. dielectric constant tensor:
#      x y z
#    x 1.884850 0.011100 0.005430 
#    y 0.011100 1.911100 -0.018040 
#    z 0.005430 -0.018040 1.878960 
# 
# From -- ./inp_files/346025.got.cif
#   From: 2010.06.25/outbox.cif.g09.slc.cpg/sg2_174_cif.got.tgz:346025.got - 2010.06.27 13:26:56.
