data_PCOD8035122
_publ_section_title
;
Structure prediction by ZEFSAII (Michael W. Deem and Ramdas Pophale) SiO2 
 PCOD8035122
Probable space group: P -1
;
_chemical_formula_sum "Si O2"
_cell_formula_units_Z 16
_cell_length_a 21.531779
_cell_length_b 18.155334
_cell_length_c 12.511637
_cell_angle_alpha 26.896399
_cell_angle_beta 151.705959
_cell_angle_gamma 161.370711
_cell_volume 685.227905
_symmetry_space_group_name_H-M "P -1"
_symmetry_group_IT_number 2
_symmetry_cell_setting 'triclinic'
loop_
_space_group_symop_operation_xyz
x,y,z
-x,-y,-z
loop_
_atom_site_type_symbol
_atom_site_label
_atom_site_fract_x
_atom_site_fract_y
_atom_site_fract_z
Si Si1 0.739650 0.087676 0.393021
Si Si2 0.820889 0.997753 0.060201
Si Si3 0.790043 0.216128 0.539013
Si Si4 0.383670 0.620941 0.888481
Si Si5 0.987086 0.602271 0.994583
Si Si6 0.931829 0.947798 0.796187
Si Si7 0.710477 0.345247 0.718385
Si Si8 0.317899 0.450481 0.788244
O O1 0.767303 0.089001 0.560865
O O2 0.884912 0.367763 0.214803
O O3 0.791088 0.974036 0.550102
O O4 0.510621 0.915729 0.242069
O O5 0.765673 0.076310 0.783309
O O6 0.947003 0.187501 0.103337
O O7 0.594849 0.733044 0.096739
O O8 0.952642 0.973236 0.244393
O O9 0.625205 0.206561 0.298440
O O10 0.000000 0.500000 0.500000
O O11 0.356876 0.617592 0.724229
O O12 0.197497 0.334569 0.014040
O O13 0.182425 0.714647 0.086973
O O14 0.831864 0.525793 0.771204
O O15 0.114507 0.156461 0.886100
O O16 0.701334 0.478778 0.445022
O O17 0.500000 0.500000 0.000000
#
# Coordination Sequence:
#
# PCOD8035122 Si02
#       8
#     2   2   2   2   2   2   2   2
#     4  12  24  43  71 101 137 175 227 283 336 401
#     4  12  25  43  64 100 138 181 224 274 345 400
#     4  12  22  40  65  99 139 175 223 280 341 392
#     4  12  24  40  67 100 138 176 220 280 343 400
#     4  11  24  48  72  95 139 178 230 287 322 401
#     4  12  26  41  69 103 138 176 218 278 346 405
#     4  11  25  44  73 101 126 185 236 272 338 397
#     4  12  23  43  69 101 140 174 222 279 339 406
#
# _framework density 23.349896999999999
#
# number of rings (size 3 to 8) (size 9 to 14) (size 15 to 20)
#    0.000    0.250    5.000    4.875    1.750    0.000 
#    0.000    1.250    0.000    0.000    0.000    0.000 
#    0.000    0.000    0.000    0.000    0.000    0.000 
#
# Total GULP energy -198389.251917 kJ/mol
# GULP energy per Si atom -12399.328245 kJ/mol
# Density = 2.329675 g / cm^3
# Si number density = 23.349897 Si / 1000 Ang^3
#
#
#
# Elastic Constant Matrix: (Units=GPa)
#
#
# Indices 1 2 3 4 5 6 
#
# 1 132.9969 45.6247 24.4763 20.5164 23.9349 -14.9889
# 2 45.6247 126.2835 11.1205 20.1603 14.9882 1.8452
# 3 24.4763 11.1205 48.4537 13.3974 1.6143 -8.3668
# 4 20.5164 20.1603 13.3974 36.4659 -0.1658 3.1784
# 5 23.9349 14.9882 1.6143 -0.1658 36.1313 6.4178
# 6 -14.9889 1.8452 -8.3668 3.1784 6.4178 47.0199
#
#
#
# Elastic Compliance Matrix: (Units=1/GPa)
#
#
# Indices 1 2 3 4 5 6 
#
# 1 0.011356 -0.002342 -0.002961 -0.004429 -0.007234 0.004472
# 2 -0.002342 0.009695 0.000064 -0.004032 -0.002400 -0.000516
# 3 -0.002961 0.000064 0.024998 -0.007904 0.000067 0.004027
# 4 -0.004429 -0.004032 -0.007904 0.035591 0.006173 -0.005908
# 5 -0.007234 -0.002400 0.000067 0.006173 0.034798 -0.007367
# 6 0.004472 -0.000516 0.004027 -0.005908 -0.007367 0.024835
#
#
# Mechanical properties :
#
#
# Convention : Reuss Voigt Hill
#
# Bulk Modulus (GPa) = 28.11306 52.24193 40.17750
# Shear Modulus (GPa) = 30.56052 39.02426 34.79239
#
# Velocity S-wave (km/s) = 3.62167 4.09257 3.86430
# Velocity P-wave (km/s) = 5.43642 6.68986 6.09545
#
# Compressibility (1/GPa) = 0.03557065
#
# Stress axis : x y z
#
# Youngs Moduli (GPa) = 88.05570 103.14348 40.00302
#
# Poissons Ratio (x) = 0.24155 0.11846
# Poissons Ratio (y) = 0.20621 -0.00254
# Poissons Ratio (z) = 0.26076 -0.00656
#
# Static dielectric constant tensor:
#      x y z
#    x 4.898500 0.033760 -0.034000 
#    y 0.033760 4.823700 0.154890 
#    z -0.034000 0.154890 4.023860 
# 
# 
# High freq. dielectric constant tensor:
#      x y z
#    x 1.932610 0.009840 0.018290 
#    y 0.009840 1.950770 0.001990 
#    z 0.018290 0.001990 1.887670 
# 
# From -- ./inp_files/472365.got.cif
#   From: 2010.06.25/outbox.cif.g09.slc.cpg/sg2_237_cif.got.tgz:472365.got - 2010.06.27 13:26:56.
