data_PCOD8035411
_publ_section_title
;
Structure prediction by ZEFSAII (Michael W. Deem and Ramdas Pophale) SiO2 
 PCOD8035411
Probable space group: P -1
;
_chemical_formula_sum "Si O2"
_cell_formula_units_Z 14
_cell_length_a 7.481116
_cell_length_b 16.904463
_cell_length_c 5.104940
_cell_angle_alpha 71.452341
_cell_angle_beta 126.322006
_cell_angle_gamma 111.484704
_cell_volume 479.585903
_symmetry_space_group_name_H-M "P -1"
_symmetry_group_IT_number 2
_symmetry_cell_setting 'triclinic'
loop_
_space_group_symop_operation_xyz
x,y,z
-x,-y,-z
loop_
_atom_site_type_symbol
_atom_site_label
_atom_site_fract_x
_atom_site_fract_y
_atom_site_fract_z
Si Si1 0.777191 0.369157 0.416021
Si Si2 0.602455 0.665598 0.304747
Si Si3 0.243717 0.072503 0.574150
Si Si4 0.245322 0.971890 0.195468
Si Si5 0.821669 0.519380 0.625932
Si Si6 0.655257 0.218458 0.787874
Si Si7 0.983505 0.189552 0.539848
O O1 0.682909 0.426218 0.495993
O O2 0.803234 0.271971 0.622596
O O3 0.036378 0.420690 0.540669
O O4 0.612213 0.364868 0.035738
O O5 0.660752 0.577098 0.549516
O O6 0.529163 0.721839 0.413416
O O7 0.819703 0.729374 0.282602
O O8 0.128696 0.030586 0.239786
O O9 0.508908 0.122360 0.696630
O O10 0.093541 0.132960 0.493895
O O11 0.244253 0.996164 0.861706
O O12 0.500000 0.000000 0.500000
O O13 0.134967 0.869262 0.252566
O O14 0.000000 0.500000 0.000000
O O15 0.793166 0.222000 0.172639
#
# Coordination Sequence:
#
# PCOD8035411 Si02
#       7
#     2   2   2   2   2   2   2
#     4  11  25  44  73 105 143 186 243 295 374 441
#     4  11  25  46  69 107 145 187 240 304 367 449
#     4  11  27  48  76 109 152 200 260 315 382 439
#     4  12  25  50  76 111 149 205 256 321 372 448
#     4  11  25  47  75 104 143 189 237 299 369 452
#     4  11  26  47  69 107 143 196 239 313 368 446
#     4  11  25  47  73 103 151 195 250 308 378 446
#
# _framework density 29.191852999999998
#
# number of rings (size 3 to 8) (size 9 to 14) (size 15 to 20)
#    0.000    0.857    1.429    4.286    4.000    8.000 
#    5.143    0.000    0.000    0.000    0.000    0.000 
#    0.000    0.000    0.000    0.000    0.000    0.000 
#
# Total GULP energy -173595.790640 kJ/mol
# GULP energy per Si atom -12399.699331 kJ/mol
# Density = 2.912541 g / cm^3
# Si number density = 29.191853 Si / 1000 Ang^3
#
#
#
# Elastic Constant Matrix: (Units=GPa)
#
#
# Indices 1 2 3 4 5 6 
#
# 1 36.2449 1.9071 -2.1104 -9.9207 0.4300 15.6452
# 2 1.9071 183.1639 32.9628 -11.0107 3.0144 17.8556
# 3 -2.1104 32.9628 129.6400 -14.7716 -16.6276 -12.8768
# 4 -9.9207 -11.0107 -14.7716 62.1051 -5.0017 3.6352
# 5 0.4300 3.0144 -16.6276 -5.0017 42.5257 -6.3281
# 6 15.6452 17.8556 -12.8768 3.6352 -6.3281 58.4941
#
#
#
# Elastic Compliance Matrix: (Units=1/GPa)
#
#
# Indices 1 2 3 4 5 6 
#
# 1 0.033391 0.001013 -0.000165 0.005947 -0.001230 -0.009779
# 2 0.001013 0.006141 -0.001920 0.000835 -0.001512 -0.002784
# 3 -0.000165 -0.001920 0.009305 0.002028 0.004466 0.003036
# 4 0.005947 0.000835 0.002028 0.018012 0.002457 -0.002253
# 5 -0.001230 -0.001512 0.004466 0.002457 0.026335 0.004470
# 6 -0.009779 -0.002784 0.003036 -0.002253 0.004470 0.021853
#
#
# Mechanical properties :
#
#
# Convention : Reuss Voigt Hill
#
# Bulk Modulus (GPa) = 21.41717 46.06309 33.74013
# Shear Modulus (GPa) = 37.66590 53.71093 45.68842
#
# Velocity S-wave (km/s) = 3.59595 4.29409 3.96044
# Velocity P-wave (km/s) = 4.95921 6.35605 5.70058
#
# Compressibility (1/GPa) = 0.04669151
#
# Stress axis : x y z
#
# Youngs Moduli (GPa) = 29.94833 162.83723 107.47209
#
# Poissons Ratio (x) = -0.16499 0.01778
# Poissons Ratio (y) = -0.03034 0.20638
# Poissons Ratio (z) = 0.00496 0.31270
#
# Static dielectric constant tensor:
#      x y z
#    x 6.772320 0.066840 0.314330 
#    y 0.066840 6.791810 -0.248030 
#    z 0.314330 -0.248030 4.975930 
# 
# 
# High freq. dielectric constant tensor:
#      x y z
#    x 2.238140 -0.000190 0.018420 
#    y -0.000190 2.230280 -0.008170 
#    z 0.018420 -0.008170 2.164510 
# 
# From -- ./inp_files/46902.got.cif
#   From: 2010.06.25/outbox.cif.g09.slc.cpg/sg2_24_cif.got.tgz:46902.got - 2010.06.27 13:26:56.
