data_PCOD8035856
_publ_section_title
;
Structure prediction by ZEFSAII (Michael W. Deem and Ramdas Pophale) SiO2 
 PCOD8035856
Probable space group: P -1
;
_chemical_formula_sum "Si O2"
_cell_formula_units_Z 16
_cell_length_a 9.210695
_cell_length_b 15.818418
_cell_length_c 8.528748
_cell_angle_alpha 102.099501
_cell_angle_beta 123.158690
_cell_angle_gamma 117.198330
_cell_volume 727.948994
_symmetry_space_group_name_H-M "P -1"
_symmetry_group_IT_number 2
_symmetry_cell_setting 'triclinic'
loop_
_space_group_symop_operation_xyz
x,y,z
-x,-y,-z
loop_
_atom_site_type_symbol
_atom_site_label
_atom_site_fract_x
_atom_site_fract_y
_atom_site_fract_z
Si Si1 0.545089 0.687221 0.748769
Si Si2 0.554037 0.027781 0.723348
Si Si3 0.903137 0.057085 0.404307
Si Si4 0.777484 0.946897 0.960590
Si Si5 0.091340 0.497444 0.218808
Si Si6 0.765792 0.674367 0.357228
Si Si7 0.069770 0.289058 0.178139
Si Si8 0.292210 0.532150 0.849838
O O1 0.637298 0.815170 0.892000
O O2 0.360291 0.625267 0.468336
O O3 0.779823 0.712858 0.859031
O O4 0.421364 0.602086 0.792494
O O5 0.500000 0.000000 0.500000
O O6 0.345202 0.006041 0.681859
O O7 0.579593 0.937335 0.755086
O O8 0.792747 0.165202 0.955316
O O9 0.088267 0.200052 0.599457
O O10 0.000000 0.000000 0.500000
O O11 0.876249 0.039302 0.195836
O O12 0.000000 0.000000 0.000000
O O13 0.093864 0.395855 0.183705
O O14 0.911067 0.468034 0.235702
O O15 0.000000 0.500000 0.000000
O O16 0.820619 0.691347 0.579437
O O17 0.834582 0.605686 0.296163
O O18 0.481300 0.594093 0.130185
#
# Coordination Sequence:
#
# PCOD8035856 Si02
#       8
#     2   2   2   2   2   2   2   2
#     4  12  26  47  74 104 148 186 238 295 360 427
#     4  12  29  46  72 107 143 191 246 299 363 433
#     4  12  27  46  75 106 144 193 240 299 366 433
#     4  12  25  48  73 108 145 189 240 298 366 431
#     4  12  29  45  73 107 142 187 243 296 357 421
#     4  11  25  47  74  99 148 182 242 286 367 420
#     4  12  27  49  73 102 146 188 237 293 362 434
#     4  11  27  45  74 108 139 188 238 299 356 421
#
# _framework density 21.979562000000001
#
# number of rings (size 3 to 8) (size 9 to 14) (size 15 to 20)
#    0.000    0.250    3.750    3.375   12.250    0.000 
#    0.000    0.000    0.000    0.000    0.000    0.000 
#    0.000    0.000    0.000    0.000    0.000    0.000 
#
# Total GULP energy -198487.570810 kJ/mol
# GULP energy per Si atom -12405.473176 kJ/mol
# Density = 2.192954 g / cm^3
# Si number density = 21.979562 Si / 1000 Ang^3
#
#
#
# Elastic Constant Matrix: (Units=GPa)
#
#
# Indices 1 2 3 4 5 6 
#
# 1 144.7222 32.7280 43.1308 -0.4404 14.9393 0.0694
# 2 32.7280 138.6672 54.9910 6.7772 4.6455 -11.5621
# 3 43.1308 54.9910 103.9990 -0.1025 -9.2468 -5.9526
# 4 -0.4404 6.7772 -0.1025 48.9342 -1.2206 0.0332
# 5 14.9393 4.6455 -9.2468 -1.2206 38.0381 -5.8507
# 6 0.0694 -11.5621 -5.9526 0.0332 -5.8507 33.7417
#
#
#
# Elastic Compliance Matrix: (Units=1/GPa)
#
#
# Indices 1 2 3 4 5 6 
#
# 1 0.008624 -0.000518 -0.003797 0.000030 -0.004499 -0.001645
# 2 -0.000518 0.009583 -0.004901 -0.001390 -0.001881 0.002095
# 3 -0.003797 -0.004901 0.014417 0.000821 0.005912 0.001896
# 4 0.000030 -0.001390 0.000821 0.020655 0.000993 -0.000180
# 5 -0.004499 -0.001881 0.005912 0.000993 0.030635 0.005719
# 6 -0.001645 0.002095 0.001896 -0.000180 0.005719 0.031685
#
#
# Mechanical properties :
#
#
# Convention : Reuss Voigt Hill
#
# Bulk Modulus (GPa) = 70.46147 72.12088 71.29117
# Shear Modulus (GPa) = 36.03349 41.24536 38.63943
#
# Velocity S-wave (km/s) = 4.05335 4.33660 4.19736
# Velocity P-wave (km/s) = 7.35075 7.61306 7.48306
#
# Compressibility (1/GPa) = 0.01419215
#
# Stress axis : x y z
#
# Youngs Moduli (GPa) = 115.95979 104.35149 69.36379
#
# Poissons Ratio (x) = 0.05401 0.26337
# Poissons Ratio (y) = 0.06001 0.33996
# Poissons Ratio (z) = 0.44029 0.51145
#
# Static dielectric constant tensor:
#      x y z
#    x 4.035040 -0.230960 0.004350 
#    y -0.230960 4.002720 0.018840 
#    z 0.004350 0.018840 4.264840 
# 
# 
# High freq. dielectric constant tensor:
#      x y z
#    x 1.873370 -0.009850 -0.001050 
#    y -0.009850 1.879390 -0.002290 
#    z -0.001050 -0.002290 1.882070 
# 
# From -- ./inp_files/177407.got.cif
#   From: 2010.06.25/outbox.cif.g09.slc.cpg/sg2_89_cif.got.tgz:177407.got - 2010.06.27 13:26:56.
