data_PCOD8035108
_publ_section_title
;
Structure prediction by ZEFSAII (Michael W. Deem and Ramdas Pophale) SiO2 
 PCOD8035108
Probable space group: P -1
;
_chemical_formula_sum "Si O2"
_cell_formula_units_Z 14
_cell_length_a 9.341010
_cell_length_b 17.510828
_cell_length_c 6.772688
_cell_angle_alpha 125.166214
_cell_angle_beta 123.101404
_cell_angle_gamma 44.813295
_cell_volume 619.820033
_symmetry_space_group_name_H-M "P -1"
_symmetry_group_IT_number 2
_symmetry_cell_setting 'triclinic'
loop_
_space_group_symop_operation_xyz
x,y,z
-x,-y,-z
loop_
_atom_site_type_symbol
_atom_site_label
_atom_site_fract_x
_atom_site_fract_y
_atom_site_fract_z
Si Si1 0.192943 0.902940 0.867742
Si Si2 0.001718 0.790553 0.361604
Si Si3 0.046477 0.392897 0.749237
Si Si4 0.622481 0.491547 0.384393
Si Si5 0.658928 0.327079 0.844710
Si Si6 0.499809 0.205252 0.722784
Si Si7 0.351307 0.977818 0.743751
O O1 0.223049 0.951905 0.760270
O O2 0.151970 0.806654 0.638972
O O3 0.411230 0.845134 0.066609
O O4 0.000000 0.000000 0.000000
O O5 0.939269 0.711691 0.289801
O O6 0.112397 0.724253 0.144023
O O7 0.803040 0.915483 0.351613
O O8 0.277392 0.329575 0.737855
O O9 0.862140 0.445397 0.528666
O O10 0.000000 0.500000 0.000000
O O11 0.500000 0.500000 0.500000
O O12 0.507568 0.613619 0.372707
O O13 0.602294 0.410880 0.105973
O O14 0.668673 0.219897 0.772735
O O15 0.494995 0.120073 0.443710
O O16 0.500000 0.000000 0.000000
#
# Coordination Sequence:
#
# PCOD8035108 Si02
#       7
#     2   2   2   2   2   2   2
#     4  12  25  48  78 106 146 193 248 294 354 439
#     4  12  25  48  75 107 142 195 248 294 357 439
#     4  12  29  46  74 106 150 191 239 303 371 422
#     4  11  24  48  72 102 138 191 251 293 356 430
#     4  11  25  44  77 101 138 191 245 298 349 433
#     4  12  27  47  71 109 149 186 240 302 369 426
#     4  12  28  46  72 112 151 186 236 302 375 433
#
# _framework density 22.587201
#
# number of rings (size 3 to 8) (size 9 to 14) (size 15 to 20)
#    0.000    0.286    4.286    3.857    8.000    2.857 
#    0.000    0.000    0.000    0.000    0.000    0.000 
#    0.000    0.000    0.000    0.000    0.000    0.000 
#
# Total GULP energy -173560.448784 kJ/mol
# GULP energy per Si atom -12397.174913 kJ/mol
# Density = 2.253579 g / cm^3
# Si number density = 22.587201 Si / 1000 Ang^3
#
#
#
# Elastic Constant Matrix: (Units=GPa)
#
#
# Indices 1 2 3 4 5 6 
#
# 1 65.9587 19.7600 32.5853 6.0333 -3.6669 -1.5436
# 2 19.7600 107.8030 52.5501 11.9720 -1.1495 -11.9878
# 3 32.5853 52.5501 138.8881 2.9479 -2.0109 -4.4337
# 4 6.0333 11.9720 2.9479 35.1407 -10.7573 4.7280
# 5 -3.6669 -1.1495 -2.0109 -10.7573 36.8014 5.6700
# 6 -1.5436 -11.9878 -4.4337 4.7280 5.6700 54.3899
#
#
#
# Elastic Compliance Matrix: (Units=1/GPa)
#
#
# Indices 1 2 3 4 5 6 
#
# 1 0.017540 -0.001229 -0.003594 -0.002010 0.000923 0.000013
# 2 -0.001229 0.012380 -0.004230 -0.004584 -0.001758 0.002931
# 3 -0.003594 -0.004230 0.009606 0.001474 0.000533 -0.000435
# 4 -0.002010 -0.004584 0.001474 0.034123 0.010483 -0.005006
# 5 0.000923 -0.001758 0.000533 0.010483 0.030990 -0.004460
# 6 0.000013 0.002931 -0.000435 -0.005006 -0.004460 0.019897
#
#
# Mechanical properties :
#
#
# Convention : Reuss Voigt Hill
#
# Bulk Modulus (GPa) = 46.68439 58.04896 52.36668
# Shear Modulus (GPa) = 33.38178 39.11668 36.24923
#
# Velocity S-wave (km/s) = 3.84853 4.16601 4.01041
# Velocity P-wave (km/s) = 6.36094 6.99261 6.68424
#
# Compressibility (1/GPa) = 0.02142043
#
# Stress axis : x y z
#
# Youngs Moduli (GPa) = 57.01234 80.77662 104.09750
#
# Poissons Ratio (x) = 0.09925 0.37411
# Poissons Ratio (y) = 0.07005 0.44037
# Poissons Ratio (z) = 0.20489 0.34172
#
# Static dielectric constant tensor:
#      x y z
#    x 4.305140 -0.173260 0.346340 
#    y -0.173260 4.445260 -0.354010 
#    z 0.346340 -0.354010 5.061590 
# 
# 
# High freq. dielectric constant tensor:
#      x y z
#    x 1.890590 -0.002010 -0.004610 
#    y -0.002010 1.907690 0.005820 
#    z -0.004610 0.005820 1.901250 
# 
# From -- ./inp_files/49127.got.cif
#   From: 2010.06.25/outbox.cif.g09.slc.cpg/sg2_25_cif.got.tgz:49127.got - 2010.06.27 13:26:56.
