data_PCOD8035052
_publ_section_title
;
Structure prediction by ZEFSAII (Michael W. Deem and Ramdas Pophale) SiO2 
 PCOD8035052
Probable space group: P -1
;
_chemical_formula_sum "Si O2"
_cell_formula_units_Z 16
_cell_length_a 12.230419
_cell_length_b 8.515210
_cell_length_c 8.856204
_cell_angle_alpha 105.510743
_cell_angle_beta 132.349696
_cell_angle_gamma 76.737181
_cell_volume 655.242998
_symmetry_space_group_name_H-M "P -1"
_symmetry_group_IT_number 2
_symmetry_cell_setting 'triclinic'
loop_
_space_group_symop_operation_xyz
x,y,z
-x,-y,-z
loop_
_atom_site_type_symbol
_atom_site_label
_atom_site_fract_x
_atom_site_fract_y
_atom_site_fract_z
Si Si1 0.884397 0.555918 0.278411
Si Si2 0.812564 0.918780 0.796130
Si Si3 0.991725 0.325692 0.878838
Si Si4 0.862841 0.858957 0.480597
Si Si5 0.550153 0.716158 0.509842
Si Si6 0.275926 0.761620 0.057715
Si Si7 0.682001 0.367575 0.502409
Si Si8 0.204376 0.841059 0.698781
O O1 0.957920 0.661537 0.243777
O O2 0.781459 0.696630 0.308724
O O3 0.000000 0.500000 0.500000
O O4 0.804471 0.405784 0.092224
O O5 0.868310 0.880587 0.670235
O O6 0.640503 0.877714 0.638872
O O7 0.821557 0.110675 0.892855
O O8 0.913011 0.816192 0.983515
O O9 0.817989 0.289239 0.711155
O O10 0.000000 0.500000 0.000000
O O11 0.032952 0.832441 0.578791
O O12 0.774147 0.011704 0.358598
O O13 0.435410 0.715153 0.265095
O O14 0.670147 0.563555 0.558340
O O15 0.467821 0.703401 0.591112
O O16 0.296532 0.856060 0.943028
O O17 0.718524 0.321325 0.351171
#
# Coordination Sequence:
#
# PCOD8035052 Si02
#       8
#     2   2   2   2   2   2   2   2
#     4  12  24  45  73 113 152 190 247 313 376 441
#     4  12  28  49  78 115 153 200 254 316 373 452
#     4  12  23  42  78 113 145 195 254 310 378 435
#     4  11  25  47  75 109 158 188 243 324 385 427
#     4  11  27  49  73 107 159 203 249 306 377 456
#     4  12  27  46  77 112 151 204 252 302 382 458
#     4  11  24  47  75 109 150 201 249 313 375 450
#     4  11  25  47  74 109 149 194 249 316 377 446
#
# _framework density 24.418424000000002
#
# number of rings (size 3 to 8) (size 9 to 14) (size 15 to 20)
#    0.000    0.500    3.750    3.375    7.000    1.000 
#    0.000    1.250    0.000    0.000    0.000    0.000 
#    0.000    0.000    0.000    0.000    0.000    0.000 
#
# Total GULP energy -198304.248177 kJ/mol
# GULP energy per Si atom -12394.015511 kJ/mol
# Density = 2.436285 g / cm^3
# Si number density = 24.418424 Si / 1000 Ang^3
#
#
#
# Elastic Constant Matrix: (Units=GPa)
#
#
# Indices 1 2 3 4 5 6 
#
# 1 106.0647 45.4962 56.3346 5.2782 -18.7023 -10.4176
# 2 45.4962 134.4861 66.8950 9.1410 -11.7274 -10.4589
# 3 56.3346 66.8950 132.4683 -5.4390 -11.8356 -11.6295
# 4 5.2782 9.1410 -5.4390 62.7072 0.2719 -8.7322
# 5 -18.7023 -11.7274 -11.8356 0.2719 48.7205 4.5880
# 6 -10.4176 -10.4589 -11.6295 -8.7322 4.5880 36.8602
#
#
#
# Elastic Compliance Matrix: (Units=1/GPa)
#
#
# Indices 1 2 3 4 5 6 
#
# 1 0.013330 -0.001876 -0.004350 -0.001078 0.003504 0.001171
# 2 -0.001876 0.010511 -0.004470 -0.001687 0.000681 0.000558
# 3 -0.004350 -0.004470 0.011906 0.002302 -0.000036 0.001809
# 4 -0.001078 -0.001687 0.002302 0.017054 -0.000740 0.004075
# 5 0.003504 0.000681 -0.000036 -0.000740 0.022196 -0.001766
# 6 0.001171 0.000558 0.001809 0.004075 -0.001766 0.029375
#
#
# Mechanical properties :
#
#
# Convention : Reuss Voigt Hill
#
# Bulk Modulus (GPa) = 69.65647 78.94118 74.29882
# Shear Modulus (GPa) = 38.30021 43.27714 40.78868
#
# Velocity S-wave (km/s) = 3.96472 4.21445 4.09149
# Velocity P-wave (km/s) = 7.03895 7.48872 7.26731
#
# Compressibility (1/GPa) = 0.01435617
#
# Stress axis : x y z
#
# Youngs Moduli (GPa) = 75.02015 95.13820 83.99117
#
# Poissons Ratio (x) = 0.17846 0.36534
# Poissons Ratio (y) = 0.14073 0.37541
# Poissons Ratio (z) = 0.32632 0.42524
#
# Static dielectric constant tensor:
#      x y z
#    x 7.765050 3.065610 -2.400180 
#    y 3.065610 7.721180 -1.432400 
#    z -2.400180 -1.432400 4.514720 
# 
# 
# High freq. dielectric constant tensor:
#      x y z
#    x 1.957910 -0.003660 -0.028210 
#    y -0.003660 1.992650 -0.001530 
#    z -0.028210 -0.001530 1.976410 
# 
# From -- ./inp_files/239946.got.cif
#   From: 2010.06.25/outbox.cif.g09.slc.cpg/sg2_120_cif.got.tgz:239946.got - 2010.06.27 13:26:56.
