data_PCOD8035974
_publ_section_title
;
Structure prediction by ZEFSAII (Michael W. Deem and Ramdas Pophale) SiO2 
 PCOD8035974
Probable space group: P -1
;
_chemical_formula_sum "Si O2"
_cell_formula_units_Z 16
_cell_length_a 10.585686
_cell_length_b 8.777891
_cell_length_c 13.965390
_cell_angle_alpha 108.903129
_cell_angle_beta 148.388763
_cell_angle_gamma 73.003332
_cell_volume 643.138304
_symmetry_space_group_name_H-M "P -1"
_symmetry_group_IT_number 2
_symmetry_cell_setting 'triclinic'
loop_
_space_group_symop_operation_xyz
x,y,z
-x,-y,-z
loop_
_atom_site_type_symbol
_atom_site_label
_atom_site_fract_x
_atom_site_fract_y
_atom_site_fract_z
Si Si1 0.566819 0.620463 0.336408
Si Si2 0.815221 0.979902 0.004970
Si Si3 0.284235 0.038897 0.439927
Si Si4 0.675734 0.108368 0.232404
Si Si5 0.671007 0.422178 0.176318
Si Si6 0.060363 0.836870 0.397250
Si Si7 0.929253 0.263567 0.008545
Si Si8 0.082509 0.482394 0.319111
O O1 0.685005 0.793153 0.454088
O O2 0.662696 0.541822 0.284544
O O3 0.646509 0.519344 0.462508
O O4 0.276013 0.626358 0.153579
O O5 0.779232 0.121388 0.932428
O O6 0.572523 0.958860 0.902695
O O7 0.030685 0.036959 0.221880
O O8 0.883384 0.810372 0.962516
O O9 0.500000 0.000000 0.500000
O O10 0.283794 0.903723 0.494714
O O11 0.612425 0.241510 0.137043
O O12 0.847037 0.185514 0.438958
O O13 0.825455 0.954203 0.255899
O O14 0.932261 0.408419 0.294529
O O15 0.500000 0.500000 0.000000
O O16 0.990214 0.664332 0.273543
O O17 0.074135 0.372255 0.197739
#
# Coordination Sequence:
#
# PCOD8035974 Si02
#       8
#     2   2   2   2   2   2   2   2
#     4  12  24  47  76 108 155 200 258 316 389 469
#     4  11  26  48  79 116 155 205 269 319 389 472
#     4  12  26  49  80 112 155 211 257 321 392 471
#     4  11  27  51  76 116 158 207 261 328 388 465
#     4  12  27  47  78 112 158 206 255 324 396 468
#     4  11  28  48  78 115 159 203 266 322 388 472
#     4  11  25  48  79 113 153 210 258 322 394 469
#     4  12  26  48  77 116 153 207 260 321 396 463
#
# _framework density 24.878008999999999
#
# number of rings (size 3 to 8) (size 9 to 14) (size 15 to 20)
#    0.000    0.500    5.000    1.875    8.750    0.500 
#    2.250    2.500    0.000    0.000    0.000    0.000 
#    0.000    0.000    0.000    0.000    0.000    0.000 
#
# Total GULP energy -198427.191775 kJ/mol
# GULP energy per Si atom -12401.699486 kJ/mol
# Density = 2.482139 g / cm^3
# Si number density = 24.878009 Si / 1000 Ang^3
#
#
#
# Elastic Constant Matrix: (Units=GPa)
#
#
# Indices 1 2 3 4 5 6 
#
# 1 96.3229 42.5767 39.0072 0.2463 8.3492 2.0740
# 2 42.5767 118.2366 48.3972 -2.2745 -16.8283 -1.9130
# 3 39.0072 48.3972 136.9982 -12.4712 -16.7973 -23.0318
# 4 0.2463 -2.2745 -12.4712 47.7932 -5.2749 -12.0664
# 5 8.3492 -16.8283 -16.7973 -5.2749 41.0902 8.4302
# 6 2.0740 -1.9130 -23.0318 -12.0664 8.4302 40.1119
#
#
#
# Elastic Compliance Matrix: (Units=1/GPa)
#
#
# Indices 1 2 3 4 5 6 
#
# 1 0.014677 -0.004628 -0.004039 -0.002753 -0.006307 -0.002801
# 2 -0.004628 0.011860 -0.002524 0.000066 0.005123 -0.001701
# 3 -0.004039 -0.002524 0.011521 0.005202 0.003624 0.007507
# 4 -0.002753 0.000066 0.005202 0.025230 0.003921 0.009898
# 5 -0.006307 0.005123 0.003624 0.003921 0.030219 -0.002520
# 6 -0.002801 -0.001701 0.007507 0.009898 -0.002520 0.032811
#
#
# Mechanical properties :
#
#
# Convention : Reuss Voigt Hill
#
# Bulk Modulus (GPa) = 63.79014 67.94666 65.86840
# Shear Modulus (GPa) = 32.48318 40.57086 36.52702
#
# Velocity S-wave (km/s) = 3.61737 4.04269 3.83593
# Velocity P-wave (km/s) = 6.56841 7.01159 6.79361
#
# Compressibility (1/GPa) = 0.01567640
#
# Stress axis : x y z
#
# Youngs Moduli (GPa) = 68.13324 84.31572 86.79757
#
# Poissons Ratio (x) = 0.39021 0.35058
# Poissons Ratio (y) = 0.31532 0.21908
# Poissons Ratio (z) = 0.27519 0.21281
#
# Static dielectric constant tensor:
#      x y z
#    x 4.557180 -0.056880 -0.099090 
#    y -0.056880 4.809020 -0.144240 
#    z -0.099090 -0.144240 4.666520 
# 
# 
# High freq. dielectric constant tensor:
#      x y z
#    x 1.982390 -0.014340 -0.009700 
#    y -0.014340 2.001400 -0.006170 
#    z -0.009700 -0.006170 2.005470 
# 
# From -- ./inp_files/516025.got.cif
#   From: 2010.06.25/outbox.cif.g09.slc.cpg/sg2_259_cif.got.tgz:516025.got - 2010.06.27 13:26:56.
