data_PCOD8035495
_publ_section_title
;
Structure prediction by ZEFSAII (Michael W. Deem and Ramdas Pophale) SiO2 
 PCOD8035495
Probable space group: P -1
;
_chemical_formula_sum "Si O2"
_cell_formula_units_Z 10
_cell_length_a 18.521319
_cell_length_b 8.355616
_cell_length_c 5.283153
_cell_angle_alpha 58.139249
_cell_angle_beta 121.651805
_cell_angle_gamma 146.311619
_cell_volume 378.774313
_symmetry_space_group_name_H-M "P -1"
_symmetry_group_IT_number 2
_symmetry_cell_setting 'triclinic'
loop_
_space_group_symop_operation_xyz
x,y,z
-x,-y,-z
loop_
_atom_site_type_symbol
_atom_site_label
_atom_site_fract_x
_atom_site_fract_y
_atom_site_fract_z
Si Si1 0.354718 0.239785 0.680695
Si Si2 0.861872 0.350234 0.455886
Si Si3 0.095990 0.364262 0.183186
Si Si4 0.190861 0.179271 0.787694
Si Si5 0.437592 0.690598 0.105242
O O1 0.263263 0.119108 0.857134
O O2 0.423265 0.552734 0.458382
O O3 0.466006 0.273392 0.924843
O O4 0.259065 0.005769 0.469800
O O5 0.868855 0.453769 0.657018
O O6 0.000000 0.500000 0.500000
O O7 0.826983 0.439666 0.090762
O O8 0.137140 0.218364 0.427083
O O9 0.937183 0.108519 0.049815
O O10 0.294214 0.475092 0.896319
O O11 0.500000 0.000000 0.000000
#
# Coordination Sequence:
#
# PCOD8035495 Si02
#       5
#     2   2   2   2   2
#     4  11  26  44  76 104 144 193 252 293 371 434
#     4  12  24  47  72 112 149 192 238 304 367 438
#     4  11  27  43  78 110 150 192 237 301 378 431
#     4  11  25  45  71 107 145 190 247 303 359 449
#     4  11  26  49  70 103 145 197 248 307 357 432
#
# _framework density 26.400945
#
# number of rings (size 3 to 8) (size 9 to 14) (size 15 to 20)
#    0.000    0.800    2.000    3.600    8.400    2.400 
#    0.000    0.000    0.000    0.000    0.000    0.000 
#    0.000    0.000    0.000    0.000    0.000    0.000 
#
# Total GULP energy -124033.250605 kJ/mol
# GULP energy per Si atom -12403.325060 kJ/mol
# Density = 2.634086 g / cm^3
# Si number density = 26.400945 Si / 1000 Ang^3
#
#
#
# Elastic Constant Matrix: (Units=GPa)
#
#
# Indices 1 2 3 4 5 6 
#
# 1 106.8886 33.9884 25.5052 -3.6357 7.7017 4.1830
# 2 33.9884 185.1595 45.4802 -2.4588 -3.5936 -9.4095
# 3 25.5052 45.4802 81.8093 -8.3636 -4.3781 -2.3290
# 4 -3.6357 -2.4588 -8.3636 48.3133 -5.5805 5.6024
# 5 7.7017 -3.5936 -4.3781 -5.5805 31.4786 5.2032
# 6 4.1830 -9.4095 -2.3290 5.6024 5.2032 36.4645
#
#
#
# Elastic Compliance Matrix: (Units=1/GPa)
#
#
# Indices 1 2 3 4 5 6 
#
# 1 0.010729 -0.001421 -0.002742 0.000081 -0.002928 -0.001367
# 2 -0.001421 0.006525 -0.003171 -0.000485 0.000288 0.001678
# 3 -0.002742 -0.003171 0.015261 0.002658 0.002962 -0.000360
# 4 0.000081 -0.000485 0.002658 0.022178 0.004899 -0.004071
# 5 -0.002928 0.000288 0.002962 0.004899 0.034640 -0.005096
# 6 -0.001367 0.001678 -0.000360 -0.004071 -0.005096 0.029343
#
#
# Mechanical properties :
#
#
# Convention : Reuss Voigt Hill
#
# Bulk Modulus (GPa) = 56.03222 64.86724 60.44973
# Shear Modulus (GPa) = 35.89553 41.17685 38.53619
#
# Velocity S-wave (km/s) = 3.69132 3.95355 3.82468
# Velocity P-wave (km/s) = 6.27992 6.74271 6.51543
#
# Compressibility (1/GPa) = 0.01784688
#
# Stress axis : x y z
#
# Youngs Moduli (GPa) = 93.20525 153.26080 65.52568
#
# Poissons Ratio (x) = 0.21780 0.17969
# Poissons Ratio (y) = 0.13245 0.20776
# Poissons Ratio (z) = 0.25560 0.48594
#
# Static dielectric constant tensor:
#      x y z
#    x 4.685600 0.289370 0.241680 
#    y 0.289370 5.000210 -0.020110 
#    z 0.241680 -0.020110 4.808100 
# 
# 
# High freq. dielectric constant tensor:
#      x y z
#    x 2.056620 0.011010 0.015280 
#    y 0.011010 2.069640 -0.001070 
#    z 0.015280 -0.001070 2.058020 
# 
# From -- ./inp_files/29086.got.cif
#   From: 2010.06.25/outbox.cif.g09.slc.cpg/sg2_15_cif.got.tgz:29086.got - 2010.06.27 13:26:56.
