data_PCOD8035013
_publ_section_title
;
Structure prediction by ZEFSAII (Michael W. Deem and Ramdas Pophale) SiO2 
 PCOD8035013
Probable space group: P -1
;
_chemical_formula_sum "Si O2"
_cell_formula_units_Z 14
_cell_length_a 5.348896
_cell_length_b 7.639554
_cell_length_c 15.819236
_cell_angle_alpha 84.800932
_cell_angle_beta 103.086318
_cell_angle_gamma 117.603025
_cell_volume 557.894381
_symmetry_space_group_name_H-M "P -1"
_symmetry_group_IT_number 2
_symmetry_cell_setting 'triclinic'
loop_
_space_group_symop_operation_xyz
x,y,z
-x,-y,-z
loop_
_atom_site_type_symbol
_atom_site_label
_atom_site_fract_x
_atom_site_fract_y
_atom_site_fract_z
Si Si1 0.215641 0.065263 0.937545
Si Si2 0.884018 0.095121 0.753497
Si Si3 0.243635 0.661971 0.954815
Si Si4 0.530700 0.667788 0.700825
Si Si5 0.432647 0.239656 0.492875
Si Si6 0.047234 0.806872 0.431559
Si Si7 0.978299 0.497038 0.770293
O O1 0.113891 0.102448 0.838125
O O2 0.284942 0.883684 0.937496
O O3 0.459318 0.284169 0.975411
O O4 0.000000 0.000000 0.000000
O O5 0.027383 0.141219 0.669097
O O6 0.782506 0.259166 0.766659
O O7 0.611459 0.879885 0.740050
O O8 0.200797 0.570678 0.862496
O O9 0.000000 0.500000 0.000000
O O10 0.546759 0.673602 0.601720
O O11 0.195058 0.536848 0.705099
O O12 0.760937 0.593063 0.752196
O O13 0.753277 0.306386 0.552874
O O14 0.257644 0.321508 0.537074
O O15 0.244265 0.002967 0.491917
#
# Coordination Sequence:
#
# PCOD8035013 Si02
#       7
#     2   2   2   2   2   2   2
#     4  11  24  47  72 106 139 194 238 298 365 429
#     4  11  25  44  73 102 148 184 242 296 356 425
#     4  11  26  45  73 104 146 186 242 298 361 436
#     4  11  25  47  72 105 145 191 236 303 349 430
#     4   9  18  39  67  94 139 183 234 282 361 409
#     4   9  19  37  64 102 130 187 231 289 347 425
#     4  12  27  45  71 109 142 189 241 289 365 422
#
# _framework density 25.094356999999999
#
# number of rings (size 3 to 8) (size 9 to 14) (size 15 to 20)
#    0.000    1.429    1.429    2.571    2.000    8.000 
#    5.143    4.286    0.000    0.000    0.000    0.000 
#    0.000    0.000    0.000    0.000    0.000    0.000 
#
# Total GULP energy -173487.104279 kJ/mol
# GULP energy per Si atom -12391.936020 kJ/mol
# Density = 2.503724 g / cm^3
# Si number density = 25.094357 Si / 1000 Ang^3
#
#
#
# Elastic Constant Matrix: (Units=GPa)
#
#
# Indices 1 2 3 4 5 6 
#
# 1 140.2698 38.8022 50.6493 0.9632 -1.8535 15.8883
# 2 38.8022 135.4345 15.6829 1.0629 14.2488 -0.9434
# 3 50.6493 15.6829 142.8583 -9.6972 18.4270 15.8470
# 4 0.9632 1.0629 -9.6972 17.2920 6.3826 2.3474
# 5 -1.8535 14.2488 18.4270 6.3826 31.7459 1.9590
# 6 15.8883 -0.9434 15.8470 2.3474 1.9590 32.3708
#
#
#
# Elastic Compliance Matrix: (Units=1/GPa)
#
#
# Indices 1 2 3 4 5 6 
#
# 1 0.009687 -0.002861 -0.003680 -0.003838 0.004946 -0.003058
# 2 -0.002861 0.008636 0.000622 0.001544 -0.004809 0.001531
# 3 -0.003680 0.000622 0.010307 0.009422 -0.008160 -0.003411
# 4 -0.003838 0.001544 0.009422 0.071659 -0.020383 -0.006647
# 5 0.004946 -0.004809 -0.008160 -0.020383 0.042763 0.000317
# 6 -0.003058 0.001531 -0.003411 -0.006647 0.000317 0.034570
#
#
# Mechanical properties :
#
#
# Convention : Reuss Voigt Hill
#
# Bulk Modulus (GPa) = 59.55280 69.87017 64.71148
# Shear Modulus (GPa) = 25.63358 37.17695 31.40527
#
# Velocity S-wave (km/s) = 3.19954 3.85318 3.54147
# Velocity P-wave (km/s) = 6.11821 6.90648 6.52426
#
# Compressibility (1/GPa) = 0.01679182
#
# Stress axis : x y z
#
# Youngs Moduli (GPa) = 103.22836 115.79739 97.02295
#
# Poissons Ratio (x) = 0.33128 0.35702
# Poissons Ratio (y) = 0.29532 -0.06031
# Poissons Ratio (z) = 0.37986 -0.07198
#
# Static dielectric constant tensor:
#      x y z
#    x 4.471240 -0.045830 0.076980 
#    y -0.045830 4.842690 0.187870 
#    z 0.076980 0.187870 4.709500 
# 
# 
# High freq. dielectric constant tensor:
#      x y z
#    x 1.981340 -0.001490 0.001050 
#    y -0.001490 2.022850 0.009140 
#    z 0.001050 0.009140 2.014680 
# 
# From -- ./inp_files/480364.got.cif
#   From: 2010.06.25/outbox.cif.g09.slc.cpg/sg2_241_cif.got.tgz:480364.got - 2010.06.27 13:26:56.
