data_PCOD8035739
_publ_section_title
;
Structure prediction by ZEFSAII (Michael W. Deem and Ramdas Pophale) SiO2 
 PCOD8035739
Probable space group: P -1
;
_chemical_formula_sum "Si O2"
_cell_formula_units_Z 16
_cell_length_a 11.820199
_cell_length_b 8.570189
_cell_length_c 20.607676
_cell_angle_alpha 132.475451
_cell_angle_beta 141.518449
_cell_angle_gamma 32.910253
_cell_volume 704.782107
_symmetry_space_group_name_H-M "P -1"
_symmetry_group_IT_number 2
_symmetry_cell_setting 'triclinic'
loop_
_space_group_symop_operation_xyz
x,y,z
-x,-y,-z
loop_
_atom_site_type_symbol
_atom_site_label
_atom_site_fract_x
_atom_site_fract_y
_atom_site_fract_z
Si Si1 0.743132 0.690764 0.338589
Si Si2 0.941303 0.796584 0.233123
Si Si3 0.399429 0.350384 0.398442
Si Si4 0.090708 0.645748 0.112953
Si Si5 0.616344 0.420140 0.296538
Si Si6 0.349594 0.307844 0.850202
Si Si7 0.851935 0.094811 0.025552
Si Si8 0.290567 0.335523 0.486294
O O1 0.592326 0.629140 0.292080
O O2 0.756567 0.630452 0.251958
O O3 0.022638 0.475136 0.431812
O O4 0.616946 0.017954 0.384111
O O5 0.728844 0.816587 0.172294
O O6 0.205895 0.514942 0.299355
O O7 0.946706 0.779713 0.153456
O O8 0.868728 0.092492 0.303891
O O9 0.500000 0.500000 0.500000
O O10 0.258666 0.387559 0.410027
O O11 0.385987 0.439260 0.195430
O O12 0.018323 0.897722 0.105339
O O13 0.000000 0.500000 0.000000
O O14 0.629277 0.508911 0.399373
O O15 0.261110 0.591214 0.922459
O O16 0.646537 0.075612 0.916023
O O17 0.000000 0.000000 0.000000
O O18 0.500000 0.000000 0.500000
#
# Coordination Sequence:
#
# PCOD8035739 Si02
#       8
#     2   2   2   2   2   2   2   2
#     4  12  27  47  76 108 151 196 249 300 369 447
#     4  12  28  46  74 107 153 189 247 304 372 431
#     4  12  28  46  75 106 151 198 242 304 368 438
#     4  12  28  47  76 107 151 197 248 305 375 437
#     4  12  28  46  76 109 150 196 250 306 369 442
#     4  11  26  44  71 108 142 193 246 305 365 439
#     4  11  25  46  75 102 147 191 249 304 370 433
#     4  12  27  47  76 112 149 194 251 303 371 443
#
# _framework density 22.70205
#
# number of rings (size 3 to 8) (size 9 to 14) (size 15 to 20)
#    0.000    0.250    2.500    4.875   14.000    5.000 
#    0.000    0.000    0.000    0.000    0.000    0.000 
#    0.000    0.000    0.000    0.000    0.000    0.000 
#
# Total GULP energy -198466.510495 kJ/mol
# GULP energy per Si atom -12404.156906 kJ/mol
# Density = 2.265038 g / cm^3
# Si number density = 22.702050 Si / 1000 Ang^3
#
#
#
# Elastic Constant Matrix: (Units=GPa)
#
#
# Indices 1 2 3 4 5 6 
#
# 1 137.5204 31.8999 49.5472 -1.2252 -10.6674 -8.3616
# 2 31.8999 140.1937 51.8983 2.5743 2.4173 -8.9533
# 3 49.5472 51.8983 128.7643 3.4361 2.5311 -15.9089
# 4 -1.2252 2.5743 3.4361 39.6122 -1.0512 0.1104
# 5 -10.6674 2.4173 2.5311 -1.0512 51.9349 -1.4599
# 6 -8.3616 -8.9533 -15.9089 0.1104 -1.4599 36.0758
#
#
#
# Elastic Compliance Matrix: (Units=1/GPa)
#
#
# Indices 1 2 3 4 5 6 
#
# 1 0.008754 -0.000894 -0.002995 0.000641 0.002015 0.000566
# 2 -0.000894 0.008494 -0.002992 -0.000333 -0.000424 0.000565
# 3 -0.002995 -0.002992 0.010559 -0.000847 -0.000918 0.003185
# 4 0.000641 -0.000333 -0.000847 0.025379 0.000692 -0.000357
# 5 0.002015 -0.000424 -0.000918 0.000692 0.019768 0.000755
# 6 0.000566 0.000565 0.003185 -0.000357 0.000755 0.029427
#
#
# Mechanical properties :
#
#
# Convention : Reuss Voigt Hill
#
# Bulk Modulus (GPa) = 71.20244 74.79660 72.99952
# Shear Modulus (GPa) = 41.38199 43.73344 42.55771
#
# Velocity S-wave (km/s) = 4.27409 4.39385 4.33439
# Velocity P-wave (km/s) = 7.46921 7.66549 7.56799
#
# Compressibility (1/GPa) = 0.01404446
#
# Stress axis : x y z
#
# Youngs Moduli (GPa) = 114.22727 117.73563 94.70648
#
# Poissons Ratio (x) = 0.10520 0.28367
# Poissons Ratio (y) = 0.10207 0.28341
# Poissons Ratio (z) = 0.34214 0.35232
#
# Static dielectric constant tensor:
#      x y z
#    x 7.421030 0.407410 -3.792300 
#    y 0.407410 4.270410 -0.755240 
#    z -3.792300 -0.755240 9.672940 
# 
# 
# High freq. dielectric constant tensor:
#      x y z
#    x 1.911210 -0.001900 -0.001600 
#    y -0.001900 1.905780 0.002670 
#    z -0.001600 0.002670 1.905330 
# 
# From -- ./inp_files/495199.got.cif
#   From: 2010.06.25/outbox.cif.g09.slc.cpg/sg2_248_cif.got.tgz:495199.got - 2010.06.27 13:26:56.
