data_PCOD8035646
_publ_section_title
;
Structure prediction by ZEFSAII (Michael W. Deem and Ramdas Pophale) SiO2 
 PCOD8035646
Probable space group: P -1
;
_chemical_formula_sum "Si O2"
_cell_formula_units_Z 16
_cell_length_a 17.009739
_cell_length_b 8.448226
_cell_length_c 6.719847
_cell_angle_alpha 103.671367
_cell_angle_beta 90.316615
_cell_angle_gamma 49.617698
_cell_volume 700.380287
_symmetry_space_group_name_H-M "P -1"
_symmetry_group_IT_number 2
_symmetry_cell_setting 'triclinic'
loop_
_space_group_symop_operation_xyz
x,y,z
-x,-y,-z
loop_
_atom_site_type_symbol
_atom_site_label
_atom_site_fract_x
_atom_site_fract_y
_atom_site_fract_z
Si Si1 0.615161 0.915284 0.501303
Si Si2 0.979799 0.400684 0.294296
Si Si3 0.097617 0.821157 0.584270
Si Si4 0.785522 0.744427 0.140179
Si Si5 0.729791 0.589671 0.767979
Si Si6 0.827766 0.011938 0.059066
Si Si7 0.525044 0.377830 0.668515
Si Si8 0.355242 0.556294 0.015465
O O1 0.696160 0.775786 0.278933
O O2 0.660912 0.778679 0.662518
O O3 0.500000 0.000000 0.500000
O O4 0.608746 0.118610 0.572399
O O5 0.924179 0.314109 0.340938
O O6 0.898881 0.596201 0.201041
O O7 0.000000 0.500000 0.500000
O O8 0.086726 0.207324 0.128401
O O9 0.199684 0.649692 0.399040
O O10 0.118003 0.939600 0.771860
O O11 0.000000 0.000000 0.500000
O O12 0.756779 0.973511 0.160099
O O13 0.798847 0.626883 0.899099
O O14 0.654620 0.605869 0.931458
O O15 0.758088 0.208119 0.959557
O O16 0.500000 0.500000 0.500000
O O17 0.574051 0.438076 0.835241
O O18 0.415966 0.453580 0.775955
#
# Coordination Sequence:
#
# PCOD8035646 Si02
#       8
#     2   2   2   2   2   2   2   2
#     4  12  27  45  75 103 147 196 245 301 371 430
#     4  12  25  46  74 107 149 191 243 301 366 440
#     4  12  25  45  71 106 146 193 244 298 364 435
#     4  12  26  47  71 107 147 188 247 300 365 438
#     4  12  26  46  73 103 149 187 246 299 367 429
#     4  12  26  44  75 107 146 192 243 301 369 435
#     4  11  25  46  71 102 146 187 246 300 369 427
#     4  11  26  43  71 105 141 188 242 302 358 438
#
# _framework density 22.844730999999999
#
# number of rings (size 3 to 8) (size 9 to 14) (size 15 to 20)
#    0.000    0.250    1.250    7.500    7.000    4.000 
#    0.000    0.000    0.000    0.000    0.000    0.000 
#    0.000    0.000    0.000    0.000    0.000    0.000 
#
# Total GULP energy -198466.327950 kJ/mol
# GULP energy per Si atom -12404.145497 kJ/mol
# Density = 2.279274 g / cm^3
# Si number density = 22.844731 Si / 1000 Ang^3
#
#
#
# Elastic Constant Matrix: (Units=GPa)
#
#
# Indices 1 2 3 4 5 6 
#
# 1 107.2618 32.0609 62.2902 -3.7583 4.6577 5.6192
# 2 32.0609 144.2956 70.2625 -16.3169 3.3009 -3.0093
# 3 62.2902 70.2625 149.5506 -6.5832 9.5729 -1.5951
# 4 -3.7583 -16.3169 -6.5832 45.4117 4.3259 -0.6225
# 5 4.6577 3.3009 9.5729 4.3259 49.1605 -3.3641
# 6 5.6192 -3.0093 -1.5951 -0.6225 -3.3641 49.0129
#
#
#
# Elastic Compliance Matrix: (Units=1/GPa)
#
#
# Indices 1 2 3 4 5 6 
#
# 1 0.012440 -0.000326 -0.005017 0.000192 -0.000308 -0.001628
# 2 -0.000326 0.009329 -0.004122 0.002735 0.000001 0.000511
# 3 -0.005017 -0.004122 0.010793 -0.000200 -0.001292 0.000582
# 4 0.000192 0.002735 -0.000200 0.023202 -0.002185 0.000284
# 5 -0.000308 0.000001 -0.001292 -0.002185 0.020910 0.001401
# 6 -0.001628 0.000511 0.000582 0.000284 0.001401 0.020740
#
#
# Mechanical properties :
#
#
# Convention : Reuss Voigt Hill
#
# Bulk Modulus (GPa) = 73.35652 81.14836 77.25244
# Shear Modulus (GPa) = 41.36056 44.48333 42.92194
#
# Velocity S-wave (km/s) = 4.25962 4.41750 4.33928
# Velocity P-wave (km/s) = 7.50820 7.84971 7.68085
#
# Compressibility (1/GPa) = 0.01363205
#
# Stress axis : x y z
#
# Youngs Moduli (GPa) = 80.38894 107.18692 92.65237
#
# Poissons Ratio (x) = 0.03495 0.46486
# Poissons Ratio (y) = 0.02621 0.38188
# Poissons Ratio (z) = 0.40333 0.44179
#
# Static dielectric constant tensor:
#      x y z
#    x 3.281890 0.194370 0.102170 
#    y 0.194370 4.139660 -0.001800 
#    z 0.102170 -0.001800 4.294640 
# 
# 
# High freq. dielectric constant tensor:
#      x y z
#    x 1.916070 0.007940 -0.001320 
#    y 0.007940 1.914190 -0.005570 
#    z -0.001320 -0.005570 1.916050 
# 
# From -- ./inp_files/107177.got.cif
#   From: 2010.06.25/outbox.cif.g09.slc.cpg/sg2_54_cif.got.tgz:107177.got - 2010.06.27 13:26:56.
