data_PCOD8035262
_publ_section_title
;
Structure prediction by ZEFSAII (Michael W. Deem and Ramdas Pophale) SiO2 
 PCOD8035262
Probable space group: P -1
;
_chemical_formula_sum "Si O2"
_cell_formula_units_Z 10
_cell_length_a 15.179393
_cell_length_b 12.388393
_cell_length_c 9.177694
_cell_angle_alpha 58.485073
_cell_angle_beta 139.257163
_cell_angle_gamma 151.924599
_cell_volume 466.621622
_symmetry_space_group_name_H-M "P -1"
_symmetry_group_IT_number 2
_symmetry_cell_setting 'triclinic'
loop_
_space_group_symop_operation_xyz
x,y,z
-x,-y,-z
loop_
_atom_site_type_symbol
_atom_site_label
_atom_site_fract_x
_atom_site_fract_y
_atom_site_fract_z
Si Si1 0.743856 0.809342 0.921405
Si Si2 0.169931 0.595966 0.785990
Si Si3 0.169677 0.241763 0.625560
Si Si4 0.218196 0.864808 0.872681
Si Si5 0.250913 0.893934 0.225520
O O1 0.463798 0.511201 0.723802
O O2 0.665948 0.892291 0.794347
O O3 0.812394 0.792408 0.165457
O O4 0.000000 0.000000 0.000000
O O5 0.205894 0.723445 0.873032
O O6 0.000000 0.500000 0.500000
O O7 0.010350 0.344298 0.827695
O O8 0.482147 0.818926 0.971901
O O9 0.999781 0.231475 0.420732
O O10 0.000000 0.000000 0.500000
O O11 0.141922 0.781918 0.004362
O O12 0.500000 0.000000 0.500000
#
# Coordination Sequence:
#
# PCOD8035262 Si02
#       5
#     2   2   2   2   2
#     4  11  28  44  71 104 139 185 231 289 342 413
#     4  11  25  42  70 101 139 177 231 288 344 413
#     4  11  25  47  70  96 141 182 230 283 349 411
#     4  11  25  44  68 102 134 187 228 283 349 413
#     4  12  24  44  71  99 140 180 232 287 344 405
#
# _framework density 21.430641000000001
#
# number of rings (size 3 to 8) (size 9 to 14) (size 15 to 20)
#    0.000    0.800    4.000    1.800    5.600    2.400 
#    0.000    0.000    0.000    0.000    0.000    0.000 
#    0.000    0.000    0.000    0.000    0.000    0.000 
#
# Total GULP energy -123963.781247 kJ/mol
# GULP energy per Si atom -12396.378125 kJ/mol
# Density = 2.138186 g / cm^3
# Si number density = 21.430641 Si / 1000 Ang^3
#
#
#
# Elastic Constant Matrix: (Units=GPa)
#
#
# Indices 1 2 3 4 5 6 
#
# 1 84.0136 42.5691 36.5384 3.0171 -5.0775 12.1453
# 2 42.5691 141.1553 71.3185 11.3447 -7.5648 27.3744
# 3 36.5384 71.3185 129.9529 1.4636 11.5844 6.7708
# 4 3.0171 11.3447 1.4636 48.0705 -3.0728 3.2647
# 5 -5.0775 -7.5648 11.5844 -3.0728 36.6336 4.2869
# 6 12.1453 27.3744 6.7708 3.2647 4.2869 41.8166
#
#
#
# Elastic Compliance Matrix: (Units=1/GPa)
#
#
# Indices 1 2 3 4 5 6 
#
# 1 0.014954 -0.002301 -0.003061 0.000061 0.002880 -0.002641
# 2 -0.002301 0.012829 -0.006454 -0.001886 0.005038 -0.007054
# 3 -0.003061 -0.006454 0.012439 0.000700 -0.006061 0.003666
# 4 0.000061 -0.001886 0.000700 0.021351 0.001270 -0.000694
# 5 0.002880 0.005038 -0.006061 0.001270 0.031519 -0.006484
# 6 -0.002641 -0.007054 0.003666 -0.000694 -0.006484 0.029424
#
#
# Mechanical properties :
#
#
# Convention : Reuss Voigt Hill
#
# Bulk Modulus (GPa) = 60.28178 72.88599 66.58389
# Shear Modulus (GPa) = 32.96465 38.95053 35.95759
#
# Velocity S-wave (km/s) = 3.92625 4.26786 4.10061
# Velocity P-wave (km/s) = 6.98167 7.64004 7.31826
#
# Compressibility (1/GPa) = 0.01658876
#
# Stress axis : x y z
#
# Youngs Moduli (GPa) = 66.87179 77.95018 80.39244
#
# Poissons Ratio (x) = 0.17940 0.24610
# Poissons Ratio (y) = 0.15391 0.51883
# Poissons Ratio (z) = 0.20471 0.50307
#
# Static dielectric constant tensor:
#      x y z
#    x 4.010550 -0.113500 0.179570 
#    y -0.113500 4.654570 0.081790 
#    z 0.179570 0.081790 4.010210 
# 
# 
# High freq. dielectric constant tensor:
#      x y z
#    x 1.834970 0.004910 -0.003690 
#    y 0.004910 1.862650 0.004460 
#    z -0.003690 0.004460 1.854540 
# 
# From -- ./inp_files/3012.got.cif
#   From: 2010.06.25/outbox.cif.g09.slc.cpg/sg2_2_cif.got.tgz:3012.got - 2010.06.27 13:26:56.
