data_PCOD8035800
_publ_section_title
;
Structure prediction by ZEFSAII (Michael W. Deem and Ramdas Pophale) SiO2 
 PCOD8035800
Probable space group: P -1
;
_chemical_formula_sum "Si O2"
_cell_formula_units_Z 16
_cell_length_a 14.040313
_cell_length_b 8.274830
_cell_length_c 9.238745
_cell_angle_alpha 104.893807
_cell_angle_beta 126.399358
_cell_angle_gamma 108.061145
_cell_volume 671.269443
_symmetry_space_group_name_H-M "P -1"
_symmetry_group_IT_number 2
_symmetry_cell_setting 'triclinic'
loop_
_space_group_symop_operation_xyz
x,y,z
-x,-y,-z
loop_
_atom_site_type_symbol
_atom_site_label
_atom_site_fract_x
_atom_site_fract_y
_atom_site_fract_z
Si Si1 0.399791 0.603215 0.271133
Si Si2 0.409781 0.689230 0.958856
Si Si3 0.685123 0.755642 0.698101
Si Si4 0.889857 0.159509 0.105303
Si Si5 0.109333 0.514606 0.983551
Si Si6 0.794053 0.697490 0.510031
Si Si7 0.298756 0.960170 0.835829
Si Si8 0.061759 0.905330 0.427162
O O1 0.553955 0.770865 0.530845
O O2 0.358723 0.376312 0.222985
O O3 0.416313 0.649943 0.125132
O O4 0.270758 0.615898 0.220256
O O5 0.308845 0.466127 0.742766
O O6 0.344474 0.813349 0.887025
O O7 0.573149 0.821168 0.069486
O O8 0.708776 0.630658 0.569827
O O9 0.839804 0.989104 0.894986
O O10 0.872732 0.338434 0.093901
O O11 0.762821 0.001477 0.068281
O O12 0.054638 0.277575 0.336178
O O13 0.063773 0.298210 0.822148
O O14 0.000000 0.500000 0.000000
O O15 0.831024 0.917744 0.550165
O O16 0.156756 0.839934 0.574657
O O17 0.000000 0.000000 0.500000
#
# Coordination Sequence:
#
# PCOD8035800 Si02
#       8
#     2   2   2   2   2   2   2   2
#     4  11  25  47  71 104 148 192 239 298 362 437
#     4  11  26  47  75 106 140 190 246 298 364 432
#     4  11  27  45  70 107 146 190 239 296 368 438
#     4  12  25  46  73 103 148 190 240 298 363 434
#     4  12  26  46  73 108 145 194 247 301 364 437
#     4  12  25  45  78 107 143 188 241 305 362 433
#     4  11  26  46  70 107 145 187 239 301 363 435
#     4  12  25  43  75 108 146 188 241 303 366 429
#
# _framework density 23.835436000000001
#
# number of rings (size 3 to 8) (size 9 to 14) (size 15 to 20)
#    0.000    0.500    2.500    4.875    5.250    2.500 
#    2.250    0.000    0.000    0.000    0.000    0.000 
#    0.000    0.000    0.000    0.000    0.000    0.000 
#
# Total GULP energy -198298.059475 kJ/mol
# GULP energy per Si atom -12393.628717 kJ/mol
# Density = 2.378119 g / cm^3
# Si number density = 23.835436 Si / 1000 Ang^3
#
#
#
# Elastic Constant Matrix: (Units=GPa)
#
#
# Indices 1 2 3 4 5 6 
#
# 1 139.1186 33.0370 41.2112 -10.4442 19.0072 17.2175
# 2 33.0370 131.8627 53.4160 -15.9306 -0.2349 11.3357
# 3 41.2112 53.4160 81.8430 -16.8448 12.2562 3.2180
# 4 -10.4442 -15.9306 -16.8448 44.2181 -8.3920 1.7240
# 5 19.0072 -0.2349 12.2562 -8.3920 39.8268 -0.2175
# 6 17.2175 11.3357 3.2180 1.7240 -0.2175 35.4475
#
#
#
# Elastic Compliance Matrix: (Units=1/GPa)
#
#
# Indices 1 2 3 4 5 6 
#
# 1 0.009375 -0.000478 -0.003718 0.000155 -0.003323 -0.004091
# 2 -0.000478 0.010928 -0.006816 0.001858 0.002767 -0.002717
# 3 -0.003718 -0.006816 0.019701 0.003410 -0.003599 0.002009
# 4 0.000155 0.001858 0.003410 0.025513 0.004252 -0.002194
# 5 -0.003323 0.002767 -0.003599 0.004252 0.028720 0.001025
# 6 -0.004091 -0.002717 0.002009 -0.002194 0.001025 0.030997
#
#
# Mechanical properties :
#
#
# Convention : Reuss Voigt Hill
#
# Bulk Modulus (GPa) = 55.62270 67.57253 61.59761
# Shear Modulus (GPa) = 32.62589 38.90914 35.76751
#
# Velocity S-wave (km/s) = 3.70374 4.04469 3.87796
# Velocity P-wave (km/s) = 6.45578 7.08688 6.77868
#
# Compressibility (1/GPa) = 0.01797827
#
# Stress axis : x y z
#
# Youngs Moduli (GPa) = 106.66640 91.51056 50.75757
#
# Poissons Ratio (x) = 0.04375 0.18874
# Poissons Ratio (y) = 0.05100 0.34599
# Poissons Ratio (z) = 0.39663 0.62378
#
# Static dielectric constant tensor:
#      x y z
#    x 4.322550 0.286330 0.244660 
#    y 0.286330 4.410920 -0.233950 
#    z 0.244660 -0.233950 4.411620 
# 
# 
# High freq. dielectric constant tensor:
#      x y z
#    x 1.947900 0.014510 0.018920 
#    y 0.014510 1.954660 -0.014680 
#    z 0.018920 -0.014680 1.950770 
# 
# From -- ./inp_files/298963.got.cif
#   From: 2010.06.25/outbox.cif.g09.slc.cpg/sg2_150_cif.got.tgz:298963.got - 2010.06.27 13:26:56.
