data_PCOD8035101
_publ_section_title
;
Structure prediction by ZEFSAII (Michael W. Deem and Ramdas Pophale) SiO2 
 PCOD8035101
Probable space group: P -1
;
_chemical_formula_sum "Si O2"
_cell_formula_units_Z 16
_cell_length_a 13.749194
_cell_length_b 8.750576
_cell_length_c 13.278548
_cell_angle_alpha 60.778248
_cell_angle_beta 133.973952
_cell_angle_gamma 84.467323
_cell_volume 723.190434
_symmetry_space_group_name_H-M "P -1"
_symmetry_group_IT_number 2
_symmetry_cell_setting 'triclinic'
loop_
_space_group_symop_operation_xyz
x,y,z
-x,-y,-z
loop_
_atom_site_type_symbol
_atom_site_label
_atom_site_fract_x
_atom_site_fract_y
_atom_site_fract_z
Si Si1 0.790281 0.749680 0.295766
Si Si2 0.942798 0.351012 0.127038
Si Si3 0.460342 0.396949 0.182692
Si Si4 0.267818 0.054013 0.595369
Si Si5 0.492474 0.747566 0.152257
Si Si6 0.021529 0.275302 0.990105
Si Si7 0.330780 0.390731 0.473232
Si Si8 0.433803 0.868036 0.460084
O O1 0.789477 0.876430 0.351864
O O2 0.669087 0.684227 0.247590
O O3 0.000000 0.500000 0.500000
O O4 0.688093 0.958450 0.068473
O O5 0.003330 0.494640 0.105045
O O6 0.090898 0.135431 0.380837
O O7 0.740594 0.513432 0.979129
O O8 0.953733 0.253675 0.055410
O O9 0.440834 0.623725 0.089751
O O10 0.586970 0.229654 0.423590
O O11 0.559571 0.235964 0.204221
O O12 0.335463 0.179625 0.562957
O O13 0.552990 0.627780 0.345960
O O14 0.881086 0.337380 0.778708
O O15 0.237940 0.037768 0.203973
O O16 0.421345 0.347577 0.443756
O O17 0.500000 0.000000 0.500000
#
# Coordination Sequence:
#
# PCOD8035101 Si02
#       8
#     2   2   2   2   2   2   2   2
#     4  10  24  51  72  85 113 164 217 266 324 386
#     4  10  18  31  55  89 128 163 204 250 293 354
#     4  12  22  37  61  99 136 159 201 264 314 365
#     4  10  21  37  67  95 118 160 215 259 311 369
#     4  10  26  44  65  93 126 160 211 267 320 378
#     4  10  17  31  54  86 125 174 217 235 276 362
#     4  10  20  37  58  89 126 177 214 240 299 369
#     4  12  18  33  60  92 132 179 205 245 296 365
#
# _framework density 22.124186999999999
#
# number of rings (size 3 to 8) (size 9 to 14) (size 15 to 20)
#    0.000    1.500    5.000    0.750    0.000    8.000 
#    0.000    1.875    0.000    0.000    0.000    0.000 
#    0.000    0.000    0.000    0.000    0.000    0.000 
#
# Total GULP energy -198289.233817 kJ/mol
# GULP energy per Si atom -12393.077114 kJ/mol
# Density = 2.207383 g / cm^3
# Si number density = 22.124187 Si / 1000 Ang^3
#
#
#
# Elastic Constant Matrix: (Units=GPa)
#
#
# Indices 1 2 3 4 5 6 
#
# 1 57.2995 30.1073 32.3641 -1.1807 4.1282 -18.6815
# 2 30.1073 73.4941 25.8249 -1.8812 9.4176 -12.4498
# 3 32.3641 25.8249 148.4533 -0.3610 17.7542 -16.0436
# 4 -1.1807 -1.8812 -0.3610 26.8545 -11.9878 -3.3060
# 5 4.1282 9.4176 17.7542 -11.9878 26.0612 -7.1683
# 6 -18.6815 -12.4498 -16.0436 -3.3060 -7.1683 22.9419
#
#
#
# Elastic Compliance Matrix: (Units=1/GPa)
#
#
# Indices 1 2 3 4 5 6 
#
# 1 0.030983 -0.008662 -0.004137 0.008360 0.011015 0.022283
# 2 -0.008662 0.018083 -0.000574 -0.001420 -0.005286 0.000502
# 3 -0.004137 -0.000574 0.008468 -0.002939 -0.006299 -0.000150
# 4 0.008360 -0.001420 -0.002939 0.054611 0.032351 0.021960
# 5 0.011015 -0.005286 -0.006299 0.032351 0.065048 0.026682
# 6 0.022283 0.000502 -0.000150 0.021960 0.026682 0.073402
#
#
# Mechanical properties :
#
#
# Convention : Reuss Voigt Hill
#
# Bulk Modulus (GPa) = 32.47988 50.64882 41.56435
# Shear Modulus (GPa) = 17.38507 27.90157 22.64332
#
# Velocity S-wave (km/s) = 2.80624 3.55510 3.20263
# Velocity P-wave (km/s) = 5.02121 6.30827 5.70118
#
# Compressibility (1/GPa) = 0.03078829
#
# Stress axis : x y z
#
# Youngs Moduli (GPa) = 32.27540 55.30141 118.09408
#
# Poissons Ratio (x) = 0.47901 0.48852
# Poissons Ratio (y) = 0.27956 0.06783
# Poissons Ratio (z) = 0.13351 0.03176
#
# Static dielectric constant tensor:
#      x y z
#    x 3.775460 -0.138510 -0.187130 
#    y -0.138510 3.727350 0.191740 
#    z -0.187130 0.191740 4.341230 
# 
# 
# High freq. dielectric constant tensor:
#      x y z
#    x 1.847640 -0.008700 -0.001410 
#    y -0.008700 1.836430 0.005380 
#    z -0.001410 0.005380 1.889460 
# 
# From -- ./inp_files/529555.got.cif
#   From: 2010.06.25/outbox.cif.g09.slc.cpg/sg2_265_cif.got.tgz:529555.got - 2010.06.27 13:26:56.
