data_PCOD8035300
_publ_section_title
;
Structure prediction by ZEFSAII (Michael W. Deem and Ramdas Pophale) SiO2 
 PCOD8035300
Probable space group: P -1
;
_chemical_formula_sum "Si O2"
_cell_formula_units_Z 14
_cell_length_a 17.729584
_cell_length_b 8.962568
_cell_length_c 11.853473
_cell_angle_alpha 71.586274
_cell_angle_beta 158.897102
_cell_angle_gamma 107.575363
_cell_volume 643.292860
_symmetry_space_group_name_H-M "P -1"
_symmetry_group_IT_number 2
_symmetry_cell_setting 'triclinic'
loop_
_space_group_symop_operation_xyz
x,y,z
-x,-y,-z
loop_
_atom_site_type_symbol
_atom_site_label
_atom_site_fract_x
_atom_site_fract_y
_atom_site_fract_z
Si Si1 0.418610 0.348829 0.358399
Si Si2 0.747584 0.246022 0.673645
Si Si3 0.073049 0.527288 0.720981
Si Si4 0.124145 0.884195 0.780328
Si Si5 0.856028 0.795045 0.636665
Si Si6 0.307901 0.498974 0.647436
Si Si7 0.611665 0.924712 0.458394
O O1 0.500000 0.500000 0.500000
O O2 0.609447 0.259139 0.589920
O O3 0.317784 0.228487 0.336770
O O4 0.260891 0.407844 0.029133
O O5 0.661390 0.364239 0.432640
O O6 0.731015 0.070932 0.645701
O O7 0.987822 0.284201 0.035485
O O8 0.134618 0.709118 0.785019
O O9 0.000000 0.500000 0.500000
O O10 0.899226 0.469420 0.579582
O O11 0.002229 0.888832 0.728455
O O12 0.361806 0.949373 0.106890
O O13 0.000000 0.000000 0.500000
O O14 0.708278 0.666371 0.400221
O O15 0.696807 0.908727 0.452689
O O16 0.500000 0.500000 0.000000
#
# Coordination Sequence:
#
# PCOD8035300 Si02
#       7
#     2   2   2   2   2   2   2
#     4  12  22  44  72 101 137 181 233 281 344 414
#     4  12  25  44  71 104 142 179 233 293 342 413
#     4  11  25  43  70 101 136 185 230 286 347 411
#     4  11  27  46  69 105 144 179 231 288 352 412
#     4  11  25  48  70 100 140 185 233 287 346 410
#     4  11  25  44  67 101 137 183 237 282 344 418
#     4  12  26  44  75 104 138 187 232 287 352 408
#
# _framework density 21.763027999999998
#
# number of rings (size 3 to 8) (size 9 to 14) (size 15 to 20)
#    0.000    0.571    2.857    4.714    8.000    1.714 
#    0.000    0.000    0.000    0.000    0.000    0.000 
#    0.000    0.000    0.000    0.000    0.000    0.000 
#
# Total GULP energy -173662.482668 kJ/mol
# GULP energy per Si atom -12404.463048 kJ/mol
# Density = 2.171349 g / cm^3
# Si number density = 21.763028 Si / 1000 Ang^3
#
#
#
# Elastic Constant Matrix: (Units=GPa)
#
#
# Indices 1 2 3 4 5 6 
#
# 1 134.9182 48.3230 28.0034 4.0716 2.6219 -16.4127
# 2 48.3230 74.1752 40.1336 2.4747 3.2437 -11.3390
# 3 28.0034 40.1336 135.5359 1.2309 -18.4133 0.5514
# 4 4.0716 2.4747 1.2309 37.7500 -0.3648 -11.1773
# 5 2.6219 3.2437 -18.4133 -0.3648 39.7007 -3.5584
# 6 -16.4127 -11.3390 0.5514 -11.1773 -3.5584 40.7476
#
#
#
# Elastic Compliance Matrix: (Units=1/GPa)
#
#
# Indices 1 2 3 4 5 6 
#
# 1 0.009877 -0.005902 -0.000318 0.000023 -0.000108 0.002337
# 2 -0.005902 0.020944 -0.005483 0.000391 -0.003563 0.003321
# 3 -0.000318 -0.005483 0.009735 -0.000305 0.004852 -0.001445
# 4 0.000023 0.000391 -0.000305 0.028883 0.000818 0.008116
# 5 -0.000108 -0.003563 0.004852 0.000818 0.027884 0.001559
# 6 0.002337 0.003321 -0.001445 0.008116 0.001559 0.028789
#
#
# Mechanical properties :
#
#
# Convention : Reuss Voigt Hill
#
# Bulk Modulus (GPa) = 58.30614 64.17215 61.23914
# Shear Modulus (GPa) = 32.20916 38.85094 35.53005
#
# Velocity S-wave (km/s) = 3.85124 4.22972 4.04491
# Velocity P-wave (km/s) = 6.82830 7.30786 7.07215
#
# Compressibility (1/GPa) = 0.01715085
#
# Stress axis : x y z
#
# Youngs Moduli (GPa) = 101.24181 47.74676 102.71942
#
# Poissons Ratio (x) = 0.28179 0.03262
# Poissons Ratio (y) = 0.59750 0.56326
# Poissons Ratio (z) = 0.03215 0.26182
#
# Static dielectric constant tensor:
#      x y z
#    x 4.103980 -0.212480 0.058970 
#    y -0.212480 4.481450 -0.409180 
#    z 0.058970 -0.409180 4.049900 
# 
# 
# High freq. dielectric constant tensor:
#      x y z
#    x 1.874280 -0.002200 -0.000320 
#    y -0.002200 1.850690 0.002790 
#    z -0.000320 0.002790 1.866230 
# 
# From -- ./inp_files/153861.got.cif
#   From: 2010.06.25/outbox.cif.g09.slc.cpg/sg2_77_cif.got.tgz:153861.got - 2010.06.27 13:26:56.
