data_PCOD8035239
_publ_section_title
;
Structure prediction by ZEFSAII (Michael W. Deem and Ramdas Pophale) SiO2 
 PCOD8035239
Probable space group: P -1
;
_chemical_formula_sum "Si O2"
_cell_formula_units_Z 10
_cell_length_a 9.053841
_cell_length_b 10.795597
_cell_length_c 7.233419
_cell_angle_alpha 104.927687
_cell_angle_beta 75.456763
_cell_angle_gamma 132.257749
_cell_volume 502.607499
_symmetry_space_group_name_H-M "P -1"
_symmetry_group_IT_number 2
_symmetry_cell_setting 'triclinic'
loop_
_space_group_symop_operation_xyz
x,y,z
-x,-y,-z
loop_
_atom_site_type_symbol
_atom_site_label
_atom_site_fract_x
_atom_site_fract_y
_atom_site_fract_z
Si Si1 0.967884 0.780666 0.433593
Si Si2 0.479769 0.840389 0.985697
Si Si3 0.812566 0.432140 0.307409
Si Si4 0.245140 0.710399 0.356198
Si Si5 0.903841 0.958362 0.812672
O O1 0.796389 0.578833 0.375424
O O2 0.912525 0.828534 0.653400
O O3 0.182080 0.826900 0.420431
O O4 0.978542 0.872845 0.281849
O O5 0.281281 0.676378 0.888700
O O6 0.672497 0.868507 0.871752
O O7 0.438590 0.796216 0.199087
O O8 0.500000 0.000000 0.000000
O O9 0.690712 0.302768 0.466802
O O10 0.048723 0.520506 0.278545
O O11 0.000000 0.000000 0.000000
#
# Coordination Sequence:
#
# PCOD8035239 Si02
#       5
#     2   2   2   2   2
#     4   9  21  43  60  84 124 163 192 241 304 356
#     4  12  23  37  62  96 117 154 209 248 286 356
#     4   9  21  39  65  87 122 155 201 246 297 354
#     4   9  20  39  66  88 116 160 198 246 300 350
#     4  11  25  40  61  88 127 160 193 249 303 350
#
# _framework density 19.896242000000001
#
# number of rings (size 3 to 8) (size 9 to 14) (size 15 to 20)
#    1.200    0.800    2.000    0.600    2.800    6.400 
#    0.000    2.000    0.000    0.000    0.000    0.000 
#    0.000    0.000    0.000    0.000    0.000    0.000 
#
# Total GULP energy -123948.118730 kJ/mol
# GULP energy per Si atom -12394.811873 kJ/mol
# Density = 1.985096 g / cm^3
# Si number density = 19.896242 Si / 1000 Ang^3
#
#
#
# Elastic Constant Matrix: (Units=GPa)
#
#
# Indices 1 2 3 4 5 6 
#
# 1 55.6404 19.0816 35.7792 1.8918 -8.4768 -8.1592
# 2 19.0816 80.7860 47.5738 2.3350 -3.9017 -22.9319
# 3 35.7792 47.5738 125.0909 -17.8725 -13.2279 -13.8869
# 4 1.8918 2.3350 -17.8725 38.6846 -5.1533 -2.1283
# 5 -8.4768 -3.9017 -13.2279 -5.1533 32.0683 -6.1382
# 6 -8.1592 -22.9319 -13.8869 -2.1283 -6.1382 32.4061
#
#
#
# Elastic Compliance Matrix: (Units=1/GPa)
#
#
# Indices 1 2 3 4 5 6 
#
# 1 0.023284 -0.000721 -0.006110 -0.003257 0.003638 0.003209
# 2 -0.000721 0.019553 -0.006379 -0.003344 0.001108 0.010911
# 3 -0.006110 -0.006379 0.013961 0.007861 0.004894 0.001373
# 4 -0.003257 -0.003344 0.007861 0.031067 0.007671 0.003675
# 5 0.003638 0.001108 0.004894 0.007671 0.037722 0.011446
# 6 0.003209 0.010911 0.001373 0.003675 0.011446 0.042386
#
#
# Mechanical properties :
#
#
# Convention : Reuss Voigt Hill
#
# Bulk Modulus (GPa) = 32.91886 51.82073 42.36980
# Shear Modulus (GPa) = 24.44748 31.23732 27.84240
#
# Velocity S-wave (km/s) = 3.50915 3.96664 3.74489
# Velocity P-wave (km/s) = 5.74457 6.86156 6.32776
#
# Compressibility (1/GPa) = 0.03037772
#
# Stress axis : x y z
#
# Youngs Moduli (GPa) = 42.94722 51.14340 71.62707
#
# Poissons Ratio (x) = 0.03686 0.43766
# Poissons Ratio (y) = 0.03095 0.45694
# Poissons Ratio (z) = 0.26242 0.32626
#
# Static dielectric constant tensor:
#      x y z
#    x 3.467380 -0.278930 -0.059070 
#    y -0.278930 3.925130 -0.037260 
#    z -0.059070 -0.037260 3.694390 
# 
# 
# High freq. dielectric constant tensor:
#      x y z
#    x 1.750290 -0.013980 -0.000100 
#    y -0.013980 1.774180 -0.011880 
#    z -0.000100 -0.011880 1.786750 
# 
# From -- ./inp_files/17750.got.cif
#   From: 2010.06.25/outbox.cif.g09.slc.cpg/sg2_9_cif.got.tgz:17750.got - 2010.06.27 13:26:56.
