data_PCOD8035136
_publ_section_title
;
Structure prediction by ZEFSAII (Michael W. Deem and Ramdas Pophale) SiO2 
 PCOD8035136
Probable space group: P -1
;
_chemical_formula_sum "Si O2"
_cell_formula_units_Z 14
_cell_length_a 10.895670
_cell_length_b 9.860629
_cell_length_c 11.436432
_cell_angle_alpha 42.389047
_cell_angle_beta 133.854058
_cell_angle_gamma 129.992873
_cell_volume 575.237544
_symmetry_space_group_name_H-M "P -1"
_symmetry_group_IT_number 2
_symmetry_cell_setting 'triclinic'
loop_
_space_group_symop_operation_xyz
x,y,z
-x,-y,-z
loop_
_atom_site_type_symbol
_atom_site_label
_atom_site_fract_x
_atom_site_fract_y
_atom_site_fract_z
Si Si1 0.729574 0.669444 0.726437
Si Si2 0.069864 0.002770 0.724656
Si Si3 0.864280 0.315827 0.461939
Si Si4 0.624240 0.402018 0.059780
Si Si5 0.394011 0.953066 0.119848
Si Si6 0.347703 0.312420 0.590055
Si Si7 0.390853 0.728124 0.481387
O O1 0.644079 0.567387 0.607972
O O2 0.605516 0.828050 0.564974
O O3 0.699153 0.523024 0.912530
O O4 0.934221 0.774102 0.764990
O O5 0.156798 0.133044 0.583818
O O6 0.953722 0.128976 0.634122
O O7 0.231863 0.974721 0.923885
O O8 0.803692 0.392423 0.250379
O O9 0.686303 0.233600 0.471028
O O10 0.000000 0.500000 0.500000
O O11 0.517270 0.176053 0.093110
O O12 0.500000 0.500000 0.000000
O O13 0.505004 0.815596 0.213683
O O14 0.308203 0.836511 0.255863
O O15 0.354505 0.475759 0.596191
#
# Coordination Sequence:
#
# PCOD8035136 Si02
#       7
#     2   2   2   2   2   2   2
#     4  11  25  44  74 104 142 185 238 294 352 424
#     4  12  26  44  72 111 145 186 240 296 351 423
#     4  12  25  45  75 104 148 183 241 298 354 419
#     4  12  26  48  72 105 145 187 238 291 361 424
#     4  11  26  46  75 103 144 192 237 292 356 428
#     4  11  24  51  72 103 146 191 238 290 361 420
#     4  11  24  48  74 104 145 194 231 293 360 425
#
# _framework density 24.337771
#
# number of rings (size 3 to 8) (size 9 to 14) (size 15 to 20)
#    0.000    0.571    2.857    6.000    4.000    2.857 
#    0.000    5.714    0.000    0.000    0.000    0.000 
#    0.000    0.000    0.000    0.000    0.000    0.000 
#
# Total GULP energy -173467.892209 kJ/mol
# GULP energy per Si atom -12390.563729 kJ/mol
# Density = 2.428238 g / cm^3
# Si number density = 24.337771 Si / 1000 Ang^3
#
#
#
# Elastic Constant Matrix: (Units=GPa)
#
#
# Indices 1 2 3 4 5 6 
#
# 1 130.3925 22.3966 66.8646 -5.4867 -1.1816 7.7516
# 2 22.3966 83.7532 57.8428 5.4190 14.8069 1.5250
# 3 66.8646 57.8428 157.7306 8.6964 -4.8941 -2.6282
# 4 -5.4867 5.4190 8.6964 43.4330 3.0253 5.0351
# 5 -1.1816 14.8069 -4.8941 3.0253 37.4848 -1.0045
# 6 7.7516 1.5250 -2.6282 5.0351 -1.0045 36.9831
#
#
#
# Elastic Compliance Matrix: (Units=1/GPa)
#
#
# Indices 1 2 3 4 5 6 
#
# 1 0.010303 0.000591 -0.004801 0.002582 -0.000822 -0.002899
# 2 0.000591 0.018243 -0.007221 0.000001 -0.008174 -0.001611
# 3 -0.004801 -0.007221 0.011347 -0.002588 0.004461 0.002584
# 4 0.002582 0.000001 -0.002588 0.024510 -0.002345 -0.004126
# 5 -0.000822 -0.008174 0.004461 -0.002345 0.030705 0.001980
# 6 -0.002899 -0.001611 0.002584 -0.004126 0.001980 0.028513
#
#
# Mechanical properties :
#
#
# Convention : Reuss Voigt Hill
#
# Bulk Modulus (GPa) = 58.71199 74.00939 66.36069
# Shear Modulus (GPa) = 32.86022 38.56500 35.71261
#
# Velocity S-wave (km/s) = 3.67846 3.98499 3.83479
# Velocity P-wave (km/s) = 6.49751 7.18671 6.85078
#
# Compressibility (1/GPa) = 0.01703230
#
# Stress axis : x y z
#
# Youngs Moduli (GPa) = 97.06065 54.81434 88.12660
#
# Poissons Ratio (x) = -0.03241 0.42306
# Poissons Ratio (y) = -0.05739 0.63639
# Poissons Ratio (z) = 0.46594 0.39583
#
# Static dielectric constant tensor:
#      x y z
#    x 4.907200 0.378160 -0.086800 
#    y 0.378160 4.693590 0.113850 
#    z -0.086800 0.113850 4.792930 
# 
# 
# High freq. dielectric constant tensor:
#      x y z
#    x 1.978520 0.013490 -0.005340 
#    y 0.013490 1.971900 0.000820 
#    z -0.005340 0.000820 1.978580 
# 
# From -- ./inp_files/425195.got.cif
#   From: 2010.06.25/outbox.cif.g09.slc.cpg/sg2_213_cif.got.tgz:425195.got - 2010.06.27 13:26:56.
