data_PCOD8035659
_publ_section_title
;
Structure prediction by ZEFSAII (Michael W. Deem and Ramdas Pophale) SiO2 
 PCOD8035659
Probable space group: P -1
;
_chemical_formula_sum "Si O2"
_cell_formula_units_Z 16
_cell_length_a 11.584820
_cell_length_b 9.312928
_cell_length_c 19.610377
_cell_angle_alpha 140.514338
_cell_angle_beta 31.927642
_cell_angle_gamma 128.008244
_cell_volume 706.630372
_symmetry_space_group_name_H-M "P -1"
_symmetry_group_IT_number 2
_symmetry_cell_setting 'triclinic'
loop_
_space_group_symop_operation_xyz
x,y,z
-x,-y,-z
loop_
_atom_site_type_symbol
_atom_site_label
_atom_site_fract_x
_atom_site_fract_y
_atom_site_fract_z
Si Si1 0.729296 0.325992 0.392652
Si Si2 0.035039 0.707400 0.178682
Si Si3 0.536376 0.424438 0.161944
Si Si4 0.191502 0.424541 0.226157
Si Si5 0.685743 0.880454 0.315495
Si Si6 0.433773 0.958277 0.879379
Si Si7 0.853569 0.143552 0.681064
Si Si8 0.720541 0.383643 0.260419
O O1 0.765510 0.383199 0.317364
O O2 0.506393 0.456210 0.583376
O O3 0.932086 0.412625 0.364272
O O4 0.722191 0.054956 0.300554
O O5 0.913672 0.855238 0.233520
O O6 0.923146 0.475668 0.153998
O O7 0.004014 0.831342 0.312807
O O8 0.291791 0.663148 0.015814
O O9 0.301570 0.486199 0.265229
O O10 0.618460 0.644508 0.235516
O O11 0.516039 0.228312 0.154983
O O12 0.233235 0.611263 0.216904
O O13 0.299734 0.181622 0.057624
O O14 0.500000 0.000000 0.500000
O O15 0.290200 0.864155 0.856544
O O16 0.655988 0.005484 0.749115
O O17 0.000000 0.000000 0.500000
#
# Coordination Sequence:
#
# PCOD8035659 Si02
#       8
#     2   2   2   2   2   2   2   2
#     4  11  25  46  71 107 146 190 245 302 363 435
#     4  12  25  50  73 104 150 192 243 304 365 427
#     4  12  28  48  73 111 151 193 240 303 366 439
#     4  12  27  46  73 108 143 191 246 296 365 441
#     4  12  26  45  75 110 142 195 250 296 362 434
#     4  12  26  48  72 106 147 194 242 299 366 434
#     4  12  29  48  75 107 148 195 240 306 367 434
#     4  11  25  46  73 101 148 192 243 306 362 422
#
# _framework density 22.642671
#
# number of rings (size 3 to 8) (size 9 to 14) (size 15 to 20)
#    0.000    0.250    5.000    2.625    8.750    0.500 
#    0.000    1.875    0.000    0.000    0.000    0.000 
#    0.000    0.000    0.000    0.000    0.000    0.000 
#
# Total GULP energy -198474.246889 kJ/mol
# GULP energy per Si atom -12404.640431 kJ/mol
# Density = 2.259114 g / cm^3
# Si number density = 22.642671 Si / 1000 Ang^3
#
#
#
# Elastic Constant Matrix: (Units=GPa)
#
#
# Indices 1 2 3 4 5 6 
#
# 1 122.6116 29.2521 32.0706 8.3748 -8.5368 13.1576
# 2 29.2521 157.9876 35.3445 -4.5198 -10.5565 -6.3613
# 3 32.0706 35.3445 62.6320 1.2514 0.0512 -2.1602
# 4 8.3748 -4.5198 1.2514 39.6290 5.0190 -3.6017
# 5 -8.5368 -10.5565 0.0512 5.0190 36.5853 0.1987
# 6 13.1576 -6.3613 -2.1602 -3.6017 0.1987 37.7613
#
#
#
# Elastic Compliance Matrix: (Units=1/GPa)
#
#
# Indices 1 2 3 4 5 6 
#
# 1 0.010528 -0.000924 -0.004965 -0.002905 0.002619 -0.004399
# 2 -0.000924 0.007554 -0.003762 0.001080 0.001813 0.001473
# 3 -0.004965 -0.003762 0.020705 0.000477 -0.002351 0.002339
# 4 -0.002905 0.001080 0.000477 0.026816 -0.004066 0.003801
# 5 0.002619 0.001813 -0.002351 -0.004066 0.029036 -0.001282
# 6 -0.004399 0.001473 0.002339 0.003801 -0.001282 0.028766
#
#
# Mechanical properties :
#
#
# Convention : Reuss Voigt Hill
#
# Bulk Modulus (GPa) = 51.32337 59.61840 55.47088
# Shear Modulus (GPa) = 33.51184 39.23274 36.37229
#
# Velocity S-wave (km/s) = 3.85129 4.16708 4.01229
# Velocity P-wave (km/s) = 6.51862 7.03846 6.78352
#
# Compressibility (1/GPa) = 0.01948430
#
# Stress axis : x y z
#
# Youngs Moduli (GPa) = 94.98693 132.38767 48.29803
#
# Poissons Ratio (x) = 0.12228 0.23981
# Poissons Ratio (y) = 0.08773 0.18170
# Poissons Ratio (z) = 0.47164 0.49804
#
# Static dielectric constant tensor:
#      x y z
#    x 4.402640 0.006560 -0.171740 
#    y 0.006560 4.631060 0.142510 
#    z -0.171740 0.142510 4.129310 
# 
# 
# High freq. dielectric constant tensor:
#      x y z
#    x 1.904120 0.002140 -0.001730 
#    y 0.002140 1.916490 -0.004200 
#    z -0.001730 -0.004200 1.884970 
# 
# From -- ./inp_files/262456.got.cif
#   From: 2010.06.25/outbox.cif.g09.slc.cpg/sg2_132_cif.got.tgz:262456.got - 2010.06.27 13:26:56.
