data_PCOD8035644
_publ_section_title
;
Structure prediction by ZEFSAII (Michael W. Deem and Ramdas Pophale) SiO2 
 PCOD8035644
Probable space group: P -1
;
_chemical_formula_sum "Si O2"
_cell_formula_units_Z 16
_cell_length_a 11.966755
_cell_length_b 9.469559
_cell_length_c 9.310727
_cell_angle_alpha 61.953523
_cell_angle_beta 105.809053
_cell_angle_gamma 65.037521
_cell_volume 682.539663
_symmetry_space_group_name_H-M "P -1"
_symmetry_group_IT_number 2
_symmetry_cell_setting 'triclinic'
loop_
_space_group_symop_operation_xyz
x,y,z
-x,-y,-z
loop_
_atom_site_type_symbol
_atom_site_label
_atom_site_fract_x
_atom_site_fract_y
_atom_site_fract_z
Si Si1 0.159870 0.443134 0.803076
Si Si2 0.661426 0.214887 0.736680
Si Si3 0.094688 0.148202 0.824591
Si Si4 0.905348 0.930220 0.454567
Si Si5 0.242497 0.525623 0.368929
Si Si6 0.301431 0.315266 0.215227
Si Si7 0.631535 0.090652 0.476118
Si Si8 0.572960 0.770004 0.190670
O O1 0.139416 0.294921 0.782256
O O2 0.305197 0.403290 0.801157
O O3 0.006185 0.681560 0.631418
O O4 0.197872 0.377132 0.012672
O O5 0.645456 0.419710 0.613721
O O6 0.619769 0.169140 0.594931
O O7 0.560544 0.238724 0.823700
O O8 0.833972 0.016549 0.940278
O O9 0.148309 0.023048 0.752192
O O10 0.912984 0.293156 0.692761
O O11 0.754783 0.071211 0.432083
O O12 0.000000 0.000000 0.500000
O O13 0.207776 0.510204 0.200052
O O14 0.332365 0.302467 0.590845
O O15 0.464516 0.251833 0.266654
O O16 0.323071 0.133066 0.394459
O O17 0.500000 0.000000 0.000000
#
# Coordination Sequence:
#
# PCOD8035644 Si02
#       8
#     2   2   2   2   2   2   2   2
#     4  12  27  47  72 105 142 190 244 291 356 432
#     4  12  26  47  75 108 142 190 239 297 363 419
#     4  12  26  48  73 103 142 196 237 290 362 435
#     4  12  29  46  70 104 149 185 234 299 361 422
#     4  12  27  46  75 104 145 185 244 299 355 425
#     4  11  26  44  72 105 136 186 235 296 351 417
#     4  11  25  46  71 101 144 182 232 295 355 425
#     4  12  25  47  75 103 144 192 244 293 350 434
#
# _framework density 23.441863000000001
#
# number of rings (size 3 to 8) (size 9 to 14) (size 15 to 20)
#    0.000    0.250    5.000    2.625    8.750    1.000 
#    0.000    1.250    0.000    0.000    0.000    0.000 
#    0.000    0.000    0.000    0.000    0.000    0.000 
#
# Total GULP energy -198423.183825 kJ/mol
# GULP energy per Si atom -12401.448989 kJ/mol
# Density = 2.338851 g / cm^3
# Si number density = 23.441863 Si / 1000 Ang^3
#
#
#
# Elastic Constant Matrix: (Units=GPa)
#
#
# Indices 1 2 3 4 5 6 
#
# 1 114.6238 18.3937 15.6989 8.7775 -14.3222 -7.3848
# 2 18.3937 78.9921 17.7104 15.0359 -12.0106 7.3175
# 3 15.6989 17.7104 96.7794 4.4772 0.0513 8.3463
# 4 8.7775 15.0359 4.4772 39.7425 2.3607 6.0940
# 5 -14.3222 -12.0106 0.0513 2.3607 27.4550 3.9133
# 6 -7.3848 7.3175 8.3463 6.0940 3.9133 39.8437
#
#
#
# Elastic Compliance Matrix: (Units=1/GPa)
#
#
# Indices 1 2 3 4 5 6 
#
# 1 0.009999 -0.001064 -0.001520 -0.002256 0.004626 0.002258
# 2 -0.001064 0.015787 -0.002250 -0.005530 0.007185 -0.002485
# 3 -0.001520 -0.002250 0.011158 0.000344 -0.001527 -0.002108
# 4 -0.002256 -0.005530 0.000344 0.028550 -0.005582 -0.003293
# 5 0.004626 0.007185 -0.001527 -0.005582 0.042962 -0.003508
# 6 0.002258 -0.002485 -0.002108 -0.003293 -0.003508 0.027263
#
#
# Mechanical properties :
#
#
# Convention : Reuss Voigt Hill
#
# Bulk Modulus (GPa) = 36.66254 43.77792 40.22023
# Shear Modulus (GPa) = 32.36665 37.31438 34.84051
#
# Velocity S-wave (km/s) = 3.71984 3.99404 3.85938
# Velocity P-wave (km/s) = 5.84151 6.32341 6.08723
#
# Compressibility (1/GPa) = 0.02727579
#
# Stress axis : x y z
#
# Youngs Moduli (GPa) = 100.00686 63.34299 89.62309
#
# Poissons Ratio (x) = 0.06740 0.13624
# Poissons Ratio (y) = 0.10641 0.20166
# Poissons Ratio (z) = 0.15202 0.14252
#
# Static dielectric constant tensor:
#      x y z
#    x 4.431660 -0.167700 0.085000 
#    y -0.167700 4.172840 -0.063520 
#    z 0.085000 -0.063520 4.296200 
# 
# 
# High freq. dielectric constant tensor:
#      x y z
#    x 1.937340 -0.012400 0.009070 
#    y -0.012400 1.921640 0.001190 
#    z 0.009070 0.001190 1.935510 
# 
# From -- ./inp_files/243117.got.cif
#   From: 2010.06.25/outbox.cif.g09.slc.cpg/sg2_122_cif.got.tgz:243117.got - 2010.06.27 13:26:56.
