data_PCOD8035193
_publ_section_title
;
Structure prediction by ZEFSAII (Michael W. Deem and Ramdas Pophale) SiO2 
 PCOD8035193
Probable space group: P -1
;
_chemical_formula_sum "Si O2"
_cell_formula_units_Z 16
_cell_length_a 22.520773
_cell_length_b 27.586543
_cell_length_c 11.272032
_cell_angle_alpha 32.480703
_cell_angle_beta 147.472226
_cell_angle_gamma 168.757981
_cell_volume 724.825707
_symmetry_space_group_name_H-M "P -1"
_symmetry_group_IT_number 2
_symmetry_cell_setting 'triclinic'
loop_
_space_group_symop_operation_xyz
x,y,z
-x,-y,-z
loop_
_atom_site_type_symbol
_atom_site_label
_atom_site_fract_x
_atom_site_fract_y
_atom_site_fract_z
Si Si1 0.700259 0.278375 0.532222
Si Si2 0.280756 0.100109 0.256248
Si Si3 0.151767 0.644851 0.115774
Si Si4 0.068529 0.326475 0.320404
Si Si5 0.264535 0.955548 0.885144
Si Si6 0.244831 0.231068 0.101879
Si Si7 0.423728 0.924568 0.662781
Si Si8 0.750316 0.853306 0.466429
O O1 0.741264 0.258983 0.767353
O O2 0.000000 0.500000 0.500000
O O3 0.610147 0.314688 0.321981
O O4 0.409211 0.010166 0.527580
O O5 0.138812 0.910321 0.485031
O O6 0.358916 0.247036 0.162698
O O7 0.067993 0.961755 0.071985
O O8 0.424385 0.813941 0.145751
O O9 0.884850 0.366849 0.236232
O O10 0.034233 0.651779 0.854207
O O11 0.416332 0.570666 0.438661
O O12 0.028772 0.290090 0.185440
O O13 0.221843 0.018487 0.746492
O O14 0.286457 0.903625 0.139742
O O15 0.176792 0.127374 0.321004
O O16 0.500000 0.500000 0.000000
O O17 0.500000 0.000000 0.500000
O O18 0.000000 0.000000 0.500000
#
# Coordination Sequence:
#
# PCOD8035193 Si02
#       8
#     2   2   2   2   2   2   2   2
#     4  12  25  44  66 106 152 178 224 289 355 426
#     4  11  25  44  75 105 134 189 237 287 351 410
#     4  12  24  42  74 108 136 186 237 277 350 428
#     4  12  23  44  76 100 137 186 236 286 344 418
#     4  12  25  46  72 103 139 187 238 283 343 430
#     4  11  24  49  75 102 134 182 247 294 341 410
#     4  12  26  42  67 106 149 183 222 285 358 415
#     4  12  28  47  68 105 141 184 239 293 350 405
#
# _framework density 22.074273999999999
#
# number of rings (size 3 to 8) (size 9 to 14) (size 15 to 20)
#    0.000    0.250    7.500    1.500    1.750    3.500 
#    2.250    0.000    0.000    0.000    0.000    0.000 
#    0.000    0.000    0.000    0.000    0.000    0.000 
#
# Total GULP energy -198403.788161 kJ/mol
# GULP energy per Si atom -12400.236760 kJ/mol
# Density = 2.202403 g / cm^3
# Si number density = 22.074274 Si / 1000 Ang^3
#
#
#
# Elastic Constant Matrix: (Units=GPa)
#
#
# Indices 1 2 3 4 5 6 
#
# 1 125.1320 54.7596 45.7919 18.8951 1.5247 -5.8078
# 2 54.7596 97.7236 29.7986 13.0668 10.1248 -9.3862
# 3 45.7919 29.7986 114.3785 23.3307 -8.6515 1.1768
# 4 18.8951 13.0668 23.3307 35.3550 -10.7534 7.1097
# 5 1.5247 10.1248 -8.6515 -10.7534 50.1113 9.3930
# 6 -5.8078 -9.3862 1.1768 7.1097 9.3930 45.2869
#
#
#
# Elastic Compliance Matrix: (Units=1/GPa)
#
#
# Indices 1 2 3 4 5 6 
#
# 1 0.011799 -0.005182 -0.002834 -0.002937 -0.000639 0.001106
# 2 -0.005182 0.015006 -0.001394 -0.004138 -0.004775 0.004122
# 3 -0.002834 -0.001394 0.011361 -0.004967 0.001347 -0.000447
# 4 -0.002937 -0.004138 -0.004967 0.039725 0.010372 -0.009493
# 5 -0.000639 -0.004775 0.001347 0.010372 0.024878 -0.007895
# 6 0.001106 0.004122 -0.000447 -0.009493 -0.007895 0.026217
#
#
# Mechanical properties :
#
#
# Convention : Reuss Voigt Hill
#
# Bulk Modulus (GPa) = 51.69608 66.43715 59.06662
# Shear Modulus (GPa) = 32.41376 39.94291 36.17833
#
# Velocity S-wave (km/s) = 3.83612 4.25841 4.05277
# Velocity P-wave (km/s) = 6.56438 7.37165 6.97969
#
# Compressibility (1/GPa) = 0.01934383
#
# Stress axis : x y z
#
# Youngs Moduli (GPa) = 84.75088 66.64038 88.02376
#
# Poissons Ratio (x) = 0.34535 0.24949
# Poissons Ratio (y) = 0.43920 0.12273
# Poissons Ratio (z) = 0.24022 0.09292
#
# Static dielectric constant tensor:
#      x y z
#    x 4.057980 -0.194710 0.102650 
#    y -0.194710 3.904150 0.146240 
#    z 0.102650 0.146240 4.491490 
# 
# 
# High freq. dielectric constant tensor:
#      x y z
#    x 1.881740 -0.025620 0.000170 
#    y -0.025620 1.858570 0.006880 
#    z 0.000170 0.006880 1.885360 
# 
# From -- ./inp_files/475780.got.cif
#   From: 2010.06.25/outbox.cif.g09.slc.cpg/sg2_238_cif.got.tgz:475780.got - 2010.06.27 13:26:56.
