data_PCOD8035251
_publ_section_title
;
Structure prediction by ZEFSAII (Michael W. Deem and Ramdas Pophale) SiO2 
 PCOD8035251
Probable space group: P -1
;
_chemical_formula_sum "Si O2"
_cell_formula_units_Z 14
_cell_length_a 5.628406
_cell_length_b 23.604952
_cell_length_c 14.390019
_cell_angle_alpha 22.068967
_cell_angle_beta 101.588088
_cell_angle_gamma 89.431959
_cell_volume 595.521103
_symmetry_space_group_name_H-M "P -1"
_symmetry_group_IT_number 2
_symmetry_cell_setting 'triclinic'
loop_
_space_group_symop_operation_xyz
x,y,z
-x,-y,-z
loop_
_atom_site_type_symbol
_atom_site_label
_atom_site_fract_x
_atom_site_fract_y
_atom_site_fract_z
Si Si1 0.097994 0.672276 0.180027
Si Si2 0.151366 0.108773 0.826197
Si Si3 0.363450 0.955049 0.475007
Si Si4 0.307985 0.693184 0.979739
Si Si5 0.908650 0.414014 0.489314
Si Si6 0.837190 0.367816 0.245578
Si Si7 0.090997 0.332568 0.137049
O O1 0.074121 0.509733 0.387338
O O2 0.291731 0.706531 0.071017
O O3 0.211904 0.629566 0.359873
O O4 0.808773 0.864856 0.870815
O O5 0.107955 0.237765 0.713037
O O6 0.948722 0.212742 0.564696
O O7 0.500000 0.000000 0.000000
O O8 0.000000 0.000000 0.000000
O O9 0.578444 0.811230 0.636644
O O10 0.500000 0.000000 0.500000
O O11 0.195529 0.877367 0.634768
O O12 0.637365 0.549624 0.197121
O O13 0.095690 0.630191 0.027339
O O14 0.976883 0.267368 0.311949
O O15 0.500000 0.500000 0.000000
O O16 0.970178 0.478391 0.124752
#
# Coordination Sequence:
#
# PCOD8035251 Si02
#       7
#     2   2   2   2   2   2   2
#     4  11  25  43  71 103 145 189 244 299 376 449
#     4  12  31  52  78 113 156 203 256 321 385 450
#     4  12  23  41  65 107 140 183 233 302 364 440
#     4  12  22  44  70 106 140 189 235 305 370 450
#     4  11  26  47  71 101 147 193 248 299 376 452
#     4  11  26  50  77 106 141 199 255 311 378 449
#     4  11  25  41  79 101 146 180 250 302 377 441
#
# _framework density 23.508821999999999
#
# number of rings (size 3 to 8) (size 9 to 14) (size 15 to 20)
#    0.000    0.571    2.857    4.286   10.000    1.143 
#    0.000    0.000    0.000    0.000    0.000    0.000 
#    0.000    0.000    0.000    0.000    0.000    0.000 
#
# Total GULP energy -173441.133563 kJ/mol
# GULP energy per Si atom -12388.652397 kJ/mol
# Density = 2.345531 g / cm^3
# Si number density = 23.508822 Si / 1000 Ang^3
#
#
#
# Elastic Constant Matrix: (Units=GPa)
#
#
# Indices 1 2 3 4 5 6 
#
# 1 101.5003 31.6427 37.5509 -0.9573 5.0423 -11.2543
# 2 31.6427 106.5219 53.7238 2.3011 -0.9621 -25.2301
# 3 37.5509 53.7238 129.9695 10.7156 1.0121 -6.6339
# 4 -0.9573 2.3011 10.7156 45.9162 -4.1626 6.4839
# 5 5.0423 -0.9621 1.0121 -4.1626 36.5779 6.3031
# 6 -11.2543 -25.2301 -6.6339 6.4839 6.3031 43.5862
#
#
#
# Elastic Compliance Matrix: (Units=1/GPa)
#
#
# Indices 1 2 3 4 5 6 
#
# 1 0.011648 -0.001769 -0.002571 0.000514 -0.001829 0.001780
# 2 -0.001769 0.014073 -0.004884 -0.000659 -0.000553 0.007124
# 3 -0.002571 -0.004884 0.010544 -0.002049 -0.000027 -0.001577
# 4 0.000514 -0.000659 -0.002049 0.023245 0.003391 -0.004509
# 5 -0.001829 -0.000553 -0.000027 0.003391 0.028908 -0.005482
# 6 0.001780 0.007124 -0.001577 -0.004509 -0.005482 0.028750
#
#
# Mechanical properties :
#
#
# Convention : Reuss Voigt Hill
#
# Bulk Modulus (GPa) = 56.12673 64.86960 60.49817
# Shear Modulus (GPa) = 35.32176 39.55435 37.43806
#
# Velocity S-wave (km/s) = 3.88040 4.10632 3.99496
# Velocity P-wave (km/s) = 6.63350 7.08068 6.86073
#
# Compressibility (1/GPa) = 0.01781682
#
# Stress axis : x y z
#
# Youngs Moduli (GPa) = 85.85045 71.05806 94.83673
#
# Poissons Ratio (x) = 0.12572 0.24386
# Poissons Ratio (y) = 0.15189 0.46316
# Poissons Ratio (z) = 0.22075 0.34703
#
# Static dielectric constant tensor:
#      x y z
#    x 4.978590 -0.048110 -0.505180 
#    y -0.048110 4.652690 0.203510 
#    z -0.505180 0.203510 4.127490 
# 
# 
# High freq. dielectric constant tensor:
#      x y z
#    x 1.927310 -0.015960 -0.006460 
#    y -0.015960 1.942840 0.005710 
#    z -0.006460 0.005710 1.938150 
# 
# From -- ./inp_files/90626.got.cif
#   From: 2010.06.25/outbox.cif.g09.slc.cpg/sg2_46_cif.got.tgz:90626.got - 2010.06.27 13:26:56.
