data_PCOD8035351
_publ_section_title
;
Structure prediction by ZEFSAII (Michael W. Deem and Ramdas Pophale) SiO2 
 PCOD8035351
Probable space group: P -1
;
_chemical_formula_sum "Si O2"
_cell_formula_units_Z 16
_cell_length_a 11.851644
_cell_length_b 16.343750
_cell_length_c 14.130496
_cell_angle_alpha 34.476527
_cell_angle_beta 30.111533
_cell_angle_gamma 53.555766
_cell_volume 705.674740
_symmetry_space_group_name_H-M "P -1"
_symmetry_group_IT_number 2
_symmetry_cell_setting 'triclinic'
loop_
_space_group_symop_operation_xyz
x,y,z
-x,-y,-z
loop_
_atom_site_type_symbol
_atom_site_label
_atom_site_fract_x
_atom_site_fract_y
_atom_site_fract_z
Si Si1 0.273091 0.979756 0.248875
Si Si2 0.488675 0.873208 0.872855
Si Si3 0.040495 0.906788 0.770132
Si Si4 0.017012 0.587925 0.143684
Si Si5 0.585047 0.464035 0.726153
Si Si6 0.461639 0.359569 0.231629
Si Si7 0.046506 0.386764 0.147820
Si Si8 0.987131 0.057563 0.849667
O O1 0.133077 0.798033 0.559550
O O2 0.371279 0.090732 0.162662
O O3 0.093502 0.037437 0.266968
O O4 0.500000 0.000000 0.000000
O O5 0.665059 0.988639 0.554499
O O6 0.422016 0.691280 0.066226
O O7 0.238368 0.894399 0.041334
O O8 0.979680 0.720591 0.979367
O O9 0.950029 0.924052 0.924829
O O10 0.997014 0.436854 0.240759
O O11 0.811882 0.526383 0.431059
O O12 0.288990 0.668512 0.916731
O O13 0.619872 0.603164 0.642106
O O14 0.329268 0.414921 0.902117
O O15 0.241936 0.204100 0.498186
O O16 0.500000 0.500000 0.000000
O O17 0.000000 0.500000 0.000000
O O18 0.000000 0.000000 0.000000
#
# Coordination Sequence:
#
# PCOD8035351 Si02
#       8
#     2   2   2   2   2   2   2   2
#     4  12  25  46  74 101 144 186 226 286 350 412
#     4  12  25  45  73 101 139 183 234 281 350 418
#     4  12  26  45  71 104 142 182 234 284 346 419
#     4  11  26  44  69 102 139 179 229 283 345 406
#     4  11  25  44  69 102 137 179 230 280 346 410
#     4  11  25  45  70  99 139 179 231 290 341 406
#     4  11  26  45  67 103 143 179 227 283 338 413
#     4  12  27  45  70 101 139 184 234 289 345 407
#
# _framework density 22.673335000000002
#
# number of rings (size 3 to 8) (size 9 to 14) (size 15 to 20)
#    0.000    0.500    2.500    4.875    5.250    8.500 
#    0.000    0.000    0.000    0.000    0.000    0.000 
#    0.000    0.000    0.000    0.000    0.000    0.000 
#
# Total GULP energy -198503.060091 kJ/mol
# GULP energy per Si atom -12406.441256 kJ/mol
# Density = 2.262173 g / cm^3
# Si number density = 22.673335 Si / 1000 Ang^3
#
#
#
# Elastic Constant Matrix: (Units=GPa)
#
#
# Indices 1 2 3 4 5 6 
#
# 1 93.3126 19.6613 20.1439 4.2842 1.3546 -14.4435
# 2 19.6613 102.1771 33.3386 13.4454 -8.0826 -14.8556
# 3 20.1439 33.3386 103.2339 11.5499 -1.9339 -16.8043
# 4 4.2842 13.4454 11.5499 52.6993 -4.6743 5.2023
# 5 1.3546 -8.0826 -1.9339 -4.6743 38.1686 -1.0579
# 6 -14.4435 -14.8556 -16.8043 5.2023 -1.0579 30.0202
#
#
#
# Elastic Compliance Matrix: (Units=1/GPa)
#
#
# Indices 1 2 3 4 5 6 
#
# 1 0.011987 -0.001197 -0.001093 -0.000958 -0.000721 0.004704
# 2 -0.001197 0.012039 -0.002588 -0.002648 0.002260 0.004472
# 3 -0.001093 -0.002588 0.011852 -0.002370 -0.000054 0.005237
# 4 -0.000958 -0.002648 -0.002370 0.021064 0.001747 -0.006687
# 5 -0.000721 0.002260 -0.000054 0.001747 0.026954 0.001388
# 6 0.004704 0.004472 0.005237 -0.006687 0.001388 0.041926
#
#
# Mechanical properties :
#
#
# Convention : Reuss Voigt Hill
#
# Bulk Modulus (GPa) = 38.28107 49.44567 43.86337
# Shear Modulus (GPa) = 34.65349 39.21627 36.93488
#
# Velocity S-wave (km/s) = 3.91369 4.16338 4.04047
# Velocity P-wave (km/s) = 6.11090 6.70573 6.41521
#
# Compressibility (1/GPa) = 0.02612258
#
# Stress axis : x y z
#
# Youngs Moduli (GPa) = 83.42088 83.06313 84.37108
#
# Poissons Ratio (x) = 0.09944 0.09223
# Poissons Ratio (y) = 0.09986 0.21834
# Poissons Ratio (z) = 0.09119 0.21495
#
# Static dielectric constant tensor:
#      x y z
#    x 4.074470 0.086350 -0.015880 
#    y 0.086350 4.724680 0.251600 
#    z -0.015880 0.251600 4.264230 
# 
# 
# High freq. dielectric constant tensor:
#      x y z
#    x 1.893220 -0.002430 0.001460 
#    y -0.002430 1.914860 0.007480 
#    z 0.001460 0.007480 1.906290 
# 
# From -- ./inp_files/462234.got.cif
#   From: 2010.06.25/outbox.cif.g09.slc.cpg/sg2_232_cif.got.tgz:462234.got - 2010.06.27 13:26:56.
