data_PCOD8035660
_publ_section_title
;
Structure prediction by ZEFSAII (Michael W. Deem and Ramdas Pophale) SiO2 
 PCOD8035660
Probable space group: P -1
;
_chemical_formula_sum "Si O2"
_cell_formula_units_Z 16
_cell_length_a 9.174940
_cell_length_b 22.113943
_cell_length_c 12.093798
_cell_angle_alpha 141.456282
_cell_angle_beta 47.364269
_cell_angle_gamma 153.181026
_cell_volume 687.961651
_symmetry_space_group_name_H-M "P -1"
_symmetry_group_IT_number 2
_symmetry_cell_setting 'triclinic'
loop_
_space_group_symop_operation_xyz
x,y,z
-x,-y,-z
loop_
_atom_site_type_symbol
_atom_site_label
_atom_site_fract_x
_atom_site_fract_y
_atom_site_fract_z
Si Si1 0.659654 0.014076 0.829670
Si Si2 0.955022 0.398697 0.717550
Si Si3 0.519244 0.347887 0.027800
Si Si4 0.145039 0.126203 0.435751
Si Si5 0.858615 0.982990 0.162821
Si Si6 0.785666 0.636600 0.965898
Si Si7 0.452348 0.936025 0.597287
Si Si8 0.829805 0.446582 0.624804
O O1 0.835738 0.981166 0.710321
O O2 0.389722 0.898012 0.706941
O O3 0.934132 0.186846 0.877330
O O4 0.500000 0.000000 0.000000
O O5 0.802714 0.232556 0.576249
O O6 0.948599 0.419121 0.619318
O O7 0.313188 0.540820 0.789944
O O8 0.763779 0.409401 0.894268
O O9 0.316473 0.356041 0.088649
O O10 0.307140 0.173439 0.919331
O O11 0.441586 0.293178 0.584452
O O12 0.142326 0.134285 0.314328
O O13 0.812892 0.041685 0.532034
O O14 0.601326 0.971416 0.269613
O O15 0.000000 0.000000 0.000000
O O16 0.958301 0.602000 0.810120
O O17 0.500000 0.500000 0.000000
O O18 0.000000 0.500000 0.500000
#
# Coordination Sequence:
#
# PCOD8035660 Si02
#       8
#     2   2   2   2   2   2   2   2
#     4  12  25  45  74 106 148 189 246 314 371 431
#     4  11  25  46  71 108 147 190 243 306 368 444
#     4  11  26  47  73 104 152 187 247 307 372 444
#     4  12  25  48  73 103 146 194 251 308 359 445
#     4  12  28  47  73 110 150 194 247 310 379 439
#     4  12  25  46  73 104 139 197 245 292 374 447
#     4  12  26  45  76 105 141 196 250 297 369 446
#     4  12  28  45  71 110 147 187 246 308 372 434
#
# _framework density 23.257110999999998
#
# number of rings (size 3 to 8) (size 9 to 14) (size 15 to 20)
#    0.000    0.250    5.000    3.000    5.250    1.000 
#    0.000    1.250    0.000    0.000    0.000    0.000 
#    0.000    0.000    0.000    0.000    0.000    0.000 
#
# Total GULP energy -198278.685521 kJ/mol
# GULP energy per Si atom -12392.417845 kJ/mol
# Density = 2.320418 g / cm^3
# Si number density = 23.257111 Si / 1000 Ang^3
#
#
#
# Elastic Constant Matrix: (Units=GPa)
#
#
# Indices 1 2 3 4 5 6 
#
# 1 124.5758 31.4513 38.9437 8.5054 5.1149 -12.7905
# 2 31.4513 74.4503 26.8603 5.3528 -7.7798 -13.3777
# 3 38.9437 26.8603 95.6271 9.9279 0.6475 -5.8927
# 4 8.5054 5.3528 9.9279 31.4542 -2.9627 10.8278
# 5 5.1149 -7.7798 0.6475 -2.9627 59.6475 1.3589
# 6 -12.7905 -13.3777 -5.8927 10.8278 1.3589 32.3404
#
#
#
# Elastic Compliance Matrix: (Units=1/GPa)
#
#
# Indices 1 2 3 4 5 6 
#
# 1 0.010183 -0.002592 -0.002922 -0.002684 -0.001390 0.003379
# 2 -0.002592 0.017285 -0.003062 -0.003337 0.002194 0.006592
# 3 -0.002922 -0.003062 0.012899 -0.003149 -0.000468 0.001002
# 4 -0.002684 -0.003337 -0.003149 0.039962 0.002190 -0.016487
# 5 -0.001390 0.002194 -0.000468 0.002190 0.017311 -0.001188
# 6 0.003379 0.006592 0.001002 -0.016487 -0.001188 0.040737
#
#
# Mechanical properties :
#
#
# Convention : Reuss Voigt Hill
#
# Bulk Modulus (GPa) = 43.07684 54.35152 48.71418
# Shear Modulus (GPa) = 30.62454 37.84829 34.23642
#
# Velocity S-wave (km/s) = 3.63269 4.03846 3.84094
# Velocity P-wave (km/s) = 6.01310 6.72058 6.37666
#
# Compressibility (1/GPa) = 0.02321433
#
# Stress axis : x y z
#
# Youngs Moduli (GPa) = 98.20715 57.85320 77.52387
#
# Poissons Ratio (x) = 0.14997 0.22655
# Poissons Ratio (y) = 0.25458 0.23735
# Poissons Ratio (z) = 0.28699 0.17713
#
# Static dielectric constant tensor:
#      x y z
#    x 2.746570 -0.424190 -0.904700 
#    y -0.424190 4.053480 -0.134920 
#    z -0.904700 -0.134920 3.696040 
# 
# 
# High freq. dielectric constant tensor:
#      x y z
#    x 1.930570 -0.009220 0.007300 
#    y -0.009220 1.903520 0.006380 
#    z 0.007300 0.006380 1.942190 
# 
# From -- ./inp_files/243550.got.cif
#   From: 2010.06.25/outbox.cif.g09.slc.cpg/sg2_122_cif.got.tgz:243550.got - 2010.06.27 13:26:56.
