data_PCOD8035305
_publ_section_title
;
Structure prediction by ZEFSAII (Michael W. Deem and Ramdas Pophale) SiO2 
 PCOD8035305
Probable space group: P -1
;
_chemical_formula_sum "Si O2"
_cell_formula_units_Z 12
_cell_length_a 5.040269
_cell_length_b 5.372154
_cell_length_c 21.323298
_cell_angle_alpha 58.158669
_cell_angle_beta 80.679812
_cell_angle_gamma 84.314233
_cell_volume 483.946537
_symmetry_space_group_name_H-M "P -1"
_symmetry_group_IT_number 2
_symmetry_cell_setting 'triclinic'
loop_
_space_group_symop_operation_xyz
x,y,z
-x,-y,-z
loop_
_atom_site_type_symbol
_atom_site_label
_atom_site_fract_x
_atom_site_fract_y
_atom_site_fract_z
Si Si1 0.513907 0.721924 0.580061
Si Si2 0.039614 0.427681 0.580371
Si Si3 0.536712 0.478942 0.264404
Si Si4 0.538118 0.346793 0.952118
Si Si5 0.207071 0.011309 0.267198
Si Si6 0.912438 0.457110 0.148899
O O1 0.348075 0.473592 0.582259
O O2 0.382072 0.744728 0.651503
O O3 0.826595 0.650969 0.591295
O O4 0.500000 0.000000 0.500000
O O5 0.000000 0.500000 0.500000
O O6 0.953516 0.107418 0.649889
O O7 0.396250 0.764762 0.261615
O O8 0.801028 0.587360 0.202644
O O9 0.363955 0.299797 0.244400
O O10 0.325398 0.524471 0.894548
O O11 0.837150 0.369218 0.910617
O O12 0.500000 0.500000 0.000000
O O13 0.500000 0.000000 0.000000
O O14 0.999853 0.119760 0.206324
#
# Coordination Sequence:
#
# PCOD8035305 Si02
#       6
#     2   2   2   2   2   2
#     4  11  25  43  70 105 152 203 260 319 375 441
#     4  11  25  43  70 105 152 203 260 319 375 441
#     4  11  28  48  77 116 155 204 262 315 383 449
#     4  12  30  54  82 118 153 200 249 310 394 470
#     4  11  28  48  77 116 155 204 262 315 383 449
#     4  12  28  52  86 112 163 198 253 320 378 468
#
# _framework density 24.796125
#
# number of rings (size 3 to 8) (size 9 to 14) (size 15 to 20)
#    0.000    0.667    1.667    3.000   14.000    2.667 
#    0.000    0.000    0.000    0.000    0.000    0.000 
#    0.000    0.000    0.000    0.000    0.000    0.000 
#
# Total GULP energy -148662.389994 kJ/mol
# GULP energy per Si atom -12388.532499 kJ/mol
# Density = 2.473969 g / cm^3
# Si number density = 24.796125 Si / 1000 Ang^3
#
#
#
# Elastic Constant Matrix: (Units=GPa)
#
#
# Indices 1 2 3 4 5 6 
#
# 1 112.7743 31.3452 50.8289 20.2533 -5.8848 -3.0256
# 2 31.3452 122.1250 48.1721 17.1845 -7.7065 -3.1205
# 3 50.8289 48.1721 206.8706 27.9603 -3.8168 -6.1605
# 4 20.2533 17.1845 27.9603 28.7117 -8.7573 -0.2579
# 5 -5.8848 -7.7065 -3.8168 -8.7573 47.3961 -1.5577
# 6 -3.0256 -3.1205 -6.1605 -0.2579 -1.5577 30.8970
#
#
#
# Elastic Compliance Matrix: (Units=1/GPa)
#
#
# Indices 1 2 3 4 5 6 
#
# 1 0.010961 -0.001409 -0.001634 -0.005279 0.000043 0.000563
# 2 -0.001409 0.009619 -0.001440 -0.003139 0.000711 0.000556
# 3 -0.001634 -0.001440 0.006147 -0.004174 -0.000685 0.000851
# 4 -0.005279 -0.003139 -0.004174 0.046650 0.007087 -0.000919
# 5 0.000043 0.000711 -0.000685 0.007087 0.022511 0.001134
# 6 0.000563 0.000556 0.000851 -0.000919 0.001134 0.032696
#
#
# Mechanical properties :
#
#
# Convention : Reuss Voigt Hill
#
# Bulk Modulus (GPa) = 56.29997 78.05137 67.17567
# Shear Modulus (GPa) = 34.85065 42.16254 38.50659
#
# Velocity S-wave (km/s) = 3.75305 4.12803 3.94500
# Velocity P-wave (km/s) = 6.44476 7.36657 6.92103
#
# Compressibility (1/GPa) = 0.01776200
#
# Stress axis : x y z
#
# Youngs Moduli (GPa) = 91.23476 103.96507 162.66892
#
# Poissons Ratio (x) = 0.14646 0.26579
# Poissons Ratio (y) = 0.12853 0.23419
# Poissons Ratio (z) = 0.14907 0.14968
#
# Static dielectric constant tensor:
#      x y z
#    x 5.082670 -0.238820 -0.234530 
#    y -0.238820 3.960500 -0.024670 
#    z -0.234530 -0.024670 5.367810 
# 
# 
# High freq. dielectric constant tensor:
#      x y z
#    x 2.003280 -0.011060 -0.003840 
#    y -0.011060 1.957100 0.000510 
#    z -0.003840 0.000510 2.024580 
# 
# From -- ./inp_files/580915.got.cif
#   From: 2010.06.25/outbox.cif.g09.slc.cpg/sg2_291_cif.got.tgz:580915.got - 2010.06.27 13:26:56.
