data_PCOD8035449
_publ_section_title
;
Structure prediction by ZEFSAII (Michael W. Deem and Ramdas Pophale) SiO2 
 PCOD8035449
Probable space group: P -1
;
_chemical_formula_sum "Si O2"
_cell_formula_units_Z 16
_cell_length_a 20.159027
_cell_length_b 9.420638
_cell_length_c 8.722602
_cell_angle_alpha 114.092331
_cell_angle_beta 149.954553
_cell_angle_gamma 64.573631
_cell_volume 746.608153
_symmetry_space_group_name_H-M "P -1"
_symmetry_group_IT_number 2
_symmetry_cell_setting 'triclinic'
loop_
_space_group_symop_operation_xyz
x,y,z
-x,-y,-z
loop_
_atom_site_type_symbol
_atom_site_label
_atom_site_fract_x
_atom_site_fract_y
_atom_site_fract_z
Si Si1 0.293785 0.955358 0.238550
Si Si2 0.386709 0.625338 0.752313
Si Si3 0.907329 0.388736 0.836461
Si Si4 0.991085 0.968566 0.145752
Si Si5 0.625844 0.386446 0.642230
Si Si6 0.537290 0.040300 0.919813
Si Si7 0.870966 0.528096 0.152129
Si Si8 0.782016 0.890226 0.162698
O O1 0.369196 0.777727 0.332895
O O2 0.400537 0.063039 0.557028
O O3 0.161437 0.976818 0.086010
O O4 0.257790 0.992542 0.007115
O O5 0.246756 0.582079 0.516949
O O6 0.388969 0.624504 0.573947
O O7 0.500000 0.500000 0.000000
O O8 0.402456 0.800357 0.909470
O O9 0.970725 0.215957 0.831918
O O10 0.908315 0.417988 0.031665
O O11 0.000000 0.500000 0.000000
O O12 0.088000 0.064451 0.474526
O O13 0.000000 0.000000 0.000000
O O14 0.500000 0.500000 0.500000
O O15 0.755520 0.460242 0.982426
O O16 0.500000 0.000000 0.000000
O O17 0.654836 0.903722 0.030050
O O18 0.821069 0.712720 0.097577
O O19 0.000000 0.500000 0.500000
#
# Coordination Sequence:
#
# PCOD8035449 Si02
#       8
#     2   2   2   2   2   2   2   2
#     4  12  26  43  72 105 140 186 240 291 357 424
#     4  11  26  45  70 103 140 184 239 291 349 429
#     4  11  25  46  69 101 138 179 231 285 348 414
#     4  12  24  46  73 102 141 186 236 293 348 422
#     4  11  25  45  67 101 143 185 231 290 357 419
#     4  12  25  47  72 103 140 186 243 289 358 422
#     4  11  25  45  68 101 140 179 231 286 353 419
#     4  12  26  46  72 104 143 185 237 298 353 425
#
# _framework density 21.430250999999998
#
# number of rings (size 3 to 8) (size 9 to 14) (size 15 to 20)
#    0.000    0.500    2.500    6.000    7.000    2.000 
#    0.000    0.000    0.000    0.000    0.000    0.000 
#    0.000    0.000    0.000    0.000    0.000    0.000 
#
# Total GULP energy -198443.128703 kJ/mol
# GULP energy per Si atom -12402.695544 kJ/mol
# Density = 2.138147 g / cm^3
# Si number density = 21.430251 Si / 1000 Ang^3
#
#
#
# Elastic Constant Matrix: (Units=GPa)
#
#
# Indices 1 2 3 4 5 6 
#
# 1 100.3354 23.2571 42.7243 -3.7901 19.9587 -1.8621
# 2 23.2571 94.5213 23.8001 -7.6364 -0.3386 -0.3441
# 3 42.7243 23.8001 167.9034 2.2162 17.7782 3.3549
# 4 -3.7901 -7.6364 2.2162 42.0122 2.1650 2.3175
# 5 19.9587 -0.3386 17.7782 2.1650 42.7550 -4.7942
# 6 -1.8621 -0.3441 3.3549 2.3175 -4.7942 41.5532
#
#
#
# Elastic Compliance Matrix: (Units=1/GPa)
#
#
# Indices 1 2 3 4 5 6 
#
# 1 0.012554 -0.002431 -0.002342 0.001064 -0.004948 0.000101
# 2 -0.002431 0.011647 -0.001237 0.001867 0.001666 0.000176
# 3 -0.002342 -0.001237 0.006951 -0.000659 -0.001869 -0.000855
# 4 0.001064 0.001867 -0.000659 0.024434 -0.001605 -0.001432
# 5 -0.004948 0.001666 -0.001869 -0.001605 0.026923 0.003139
# 6 0.000101 0.000176 -0.000855 -0.001432 0.003139 0.024583
#
#
# Mechanical properties :
#
#
# Convention : Reuss Voigt Hill
#
# Bulk Modulus (GPa) = 52.26869 60.25812 56.26341
# Shear Modulus (GPa) = 39.84478 43.46265 41.65372
#
# Velocity S-wave (km/s) = 4.31661 4.50833 4.41351
# Velocity P-wave (km/s) = 7.02049 7.43501 7.23072
#
# Compressibility (1/GPa) = 0.01913191
#
# Stress axis : x y z
#
# Youngs Moduli (GPa) = 79.65884 85.86181 143.86832
#
# Poissons Ratio (x) = 0.20869 0.33693
# Poissons Ratio (y) = 0.19361 0.17797
# Poissons Ratio (z) = 0.18656 0.10621
#
# Static dielectric constant tensor:
#      x y z
#    x 3.896280 -0.158210 0.179510 
#    y -0.158210 5.458690 -0.314050 
#    z 0.179510 -0.314050 4.433100 
# 
# 
# High freq. dielectric constant tensor:
#      x y z
#    x 1.846430 -0.007170 0.012190 
#    y -0.007170 1.851090 0.005460 
#    z 0.012190 0.005460 1.864800 
# 
# From -- ./inp_files/299063.got.cif
#   From: 2010.06.25/outbox.cif.g09.slc.cpg/sg2_150_cif.got.tgz:299063.got - 2010.06.27 13:26:56.
