data_PCOD8035212
_publ_section_title
;
Structure prediction by ZEFSAII (Michael W. Deem and Ramdas Pophale) SiO2 
 PCOD8035212
Probable space group: P -1
;
_chemical_formula_sum "Si O2"
_cell_formula_units_Z 14
_cell_length_a 20.302155
_cell_length_b 6.718426
_cell_length_c 8.166164
_cell_angle_alpha 82.825361
_cell_angle_beta 136.516466
_cell_angle_gamma 73.561566
_cell_volume 636.533512
_symmetry_space_group_name_H-M "P -1"
_symmetry_group_IT_number 2
_symmetry_cell_setting 'triclinic'
loop_
_space_group_symop_operation_xyz
x,y,z
-x,-y,-z
loop_
_atom_site_type_symbol
_atom_site_label
_atom_site_fract_x
_atom_site_fract_y
_atom_site_fract_z
Si Si1 0.291635 0.454563 0.427598
Si Si2 0.158983 0.841764 0.894426
Si Si3 0.122466 0.392248 0.312558
Si Si4 0.486404 0.994205 0.284821
Si Si5 0.412301 0.471422 0.943843
Si Si6 0.279869 0.946691 0.837916
Si Si7 0.952140 0.348825 0.509838
O O1 0.193373 0.404021 0.287845
O O2 0.406461 0.242223 0.574208
O O3 0.315243 0.502986 0.646715
O O4 0.245538 0.689148 0.211005
O O5 0.210668 0.965900 0.871731
O O6 0.136475 0.660396 0.772250
O O7 0.046175 0.069842 0.745431
O O8 0.110520 0.536247 0.442945
O O9 0.189539 0.112829 0.516108
O O10 0.000000 0.500000 0.000000
O O11 0.500000 0.000000 0.500000
O O12 0.366343 0.028434 0.021709
O O13 0.486052 0.213935 0.185875
O O14 0.351590 0.668864 0.952703
O O15 0.500000 0.500000 0.000000
O O16 0.000000 0.500000 0.500000
#
# Coordination Sequence:
#
# PCOD8035212 Si02
#       7
#     2   2   2   2   2   2   2
#     4  12  26  47  71 109 142 184 241 296 361 421
#     4  11  27  43  76 103 140 191 241 290 354 431
#     4  12  27  45  75 104 148 189 235 299 360 415
#     4  12  28  48  75 103 147 190 237 297 363 428
#     4  12  25  46  72 102 145 185 236 297 354 427
#     4  12  26  48  70 107 142 191 241 291 358 431
#     4  11  24  50  70 104 147 189 241 291 352 426
#
# _framework density 21.994128
#
# number of rings (size 3 to 8) (size 9 to 14) (size 15 to 20)
#    0.000    0.286    4.286    3.857    8.000    2.857 
#    0.000    0.000    0.000    0.000    0.000    0.000 
#    0.000    0.000    0.000    0.000    0.000    0.000 
#
# Total GULP energy -173617.956918 kJ/mol
# GULP energy per Si atom -12401.282637 kJ/mol
# Density = 2.194407 g / cm^3
# Si number density = 21.994128 Si / 1000 Ang^3
#
#
#
# Elastic Constant Matrix: (Units=GPa)
#
#
# Indices 1 2 3 4 5 6 
#
# 1 111.4371 15.4357 33.3828 -2.2948 0.9101 21.3487
# 2 15.4357 82.9861 23.0966 -9.5802 -5.2694 2.5448
# 3 33.3828 23.0966 130.2989 -15.9817 -11.3321 16.3275
# 4 -2.2948 -9.5802 -15.9817 36.9026 5.6994 -5.3846
# 5 0.9101 -5.2694 -11.3321 5.6994 40.9024 -2.5230
# 6 21.3487 2.5448 16.3275 -5.3846 -2.5230 45.3758
#
#
#
# Elastic Compliance Matrix: (Units=1/GPa)
#
#
# Indices 1 2 3 4 5 6 
#
# 1 0.010639 -0.001444 -0.002160 -0.001107 -0.001135 -0.004342
# 2 -0.001444 0.013114 -0.001669 0.002576 0.000956 0.000903
# 3 -0.002160 -0.001669 0.009266 0.002895 0.001887 -0.001776
# 4 -0.001107 0.002576 0.002895 0.029784 -0.002824 0.002712
# 5 -0.001135 0.000956 0.001887 -0.002824 0.025568 0.000888
# 6 -0.004342 0.000903 -0.001776 0.002712 0.000888 0.025040
#
#
# Mechanical properties :
#
#
# Convention : Reuss Voigt Hill
#
# Bulk Modulus (GPa) = 44.49964 52.06138 48.28051
# Shear Modulus (GPa) = 38.03797 41.48993 39.76395
#
# Velocity S-wave (km/s) = 4.16319 4.34799 4.25659
# Velocity P-wave (km/s) = 6.58680 6.99491 6.79392
#
# Compressibility (1/GPa) = 0.02247209
#
# Stress axis : x y z
#
# Youngs Moduli (GPa) = 93.99284 76.25627 107.92680
#
# Poissons Ratio (x) = 0.11015 0.23314
# Poissons Ratio (y) = 0.13577 0.18008
# Poissons Ratio (z) = 0.20304 0.12724
#
# Static dielectric constant tensor:
#      x y z
#    x 4.721030 0.092120 0.508120 
#    y 0.092120 3.912070 0.088000 
#    z 0.508120 0.088000 4.423570 
# 
# 
# High freq. dielectric constant tensor:
#      x y z
#    x 1.882400 0.000730 0.005910 
#    y 0.000730 1.868700 -0.011110 
#    z 0.005910 -0.011110 1.876060 
# 
# From -- ./inp_files/38794.got.cif
#   From: 2010.06.25/outbox.cif.g09.slc.cpg/sg2_20_cif.got.tgz:38794.got - 2010.06.27 13:26:56.
