data_PCOD8035742
_publ_section_title
;
Structure prediction by ZEFSAII (Michael W. Deem and Ramdas Pophale) SiO2 
 PCOD8035742
Probable space group: P -1
;
_chemical_formula_sum "Si O2"
_cell_formula_units_Z 16
_cell_length_a 20.980636
_cell_length_b 17.790358
_cell_length_c 8.834983
_cell_angle_alpha 140.994352
_cell_angle_beta 38.646816
_cell_angle_gamma 159.683982
_cell_volume 699.710859
_symmetry_space_group_name_H-M "P -1"
_symmetry_group_IT_number 2
_symmetry_cell_setting 'triclinic'
loop_
_space_group_symop_operation_xyz
x,y,z
-x,-y,-z
loop_
_atom_site_type_symbol
_atom_site_label
_atom_site_fract_x
_atom_site_fract_y
_atom_site_fract_z
Si Si1 0.876786 0.097534 0.898511
Si Si2 0.032153 0.585673 0.409627
Si Si3 0.270801 0.323595 0.040310
Si Si4 0.402983 0.375174 0.330436
Si Si5 0.059857 0.891823 0.869766
Si Si6 0.590400 0.177870 0.998884
Si Si7 0.665853 0.116953 0.272115
Si Si8 0.762912 0.574124 0.429746
O O1 0.024075 0.260897 0.742525
O O2 0.705508 0.849396 0.772387
O O3 0.967909 0.132695 0.936479
O O4 0.778342 0.125065 0.164943
O O5 0.090029 0.782903 0.596040
O O6 0.201094 0.666830 0.172278
O O7 0.000000 0.500000 0.500000
O O8 0.837413 0.383127 0.351507
O O9 0.269914 0.420694 0.327779
O O10 0.126181 0.229398 0.037817
O O11 0.469998 0.515823 0.885753
O O12 0.229700 0.147474 0.900424
O O13 0.500000 0.500000 0.500000
O O14 0.253235 0.329118 0.498359
O O15 0.439365 0.035377 0.919615
O O16 0.608451 0.324500 0.274120
O O17 0.500000 0.000000 0.000000
O O18 0.500000 0.000000 0.500000
#
# Coordination Sequence:
#
# PCOD8035742 Si02
#       8
#     2   2   2   2   2   2   2   2
#     4  12  25  46  75 105 148 197 251 312 378 450
#     4  12  24  49  79 109 149 198 254 317 371 450
#     4  11  28  46  74 109 146 203 246 310 386 455
#     4  12  27  45  74 106 144 195 256 312 374 449
#     4  11  25  46  75 104 151 190 254 307 384 441
#     4  12  29  47  72 113 152 197 249 317 384 449
#     4  12  26  47  78 111 146 202 260 307 382 450
#     4  12  26  49  69 106 155 192 251 310 378 455
#
# _framework density 22.866586999999999
#
# number of rings (size 3 to 8) (size 9 to 14) (size 15 to 20)
#    0.000    0.250    5.000    2.250    8.750    1.500 
#    0.000    0.000    0.000    0.000    0.000    0.000 
#    0.000    0.000    0.000    0.000    0.000    0.000 
#
# Total GULP energy -198251.475500 kJ/mol
# GULP energy per Si atom -12390.717219 kJ/mol
# Density = 2.281454 g / cm^3
# Si number density = 22.866587 Si / 1000 Ang^3
#
#
#
# Elastic Constant Matrix: (Units=GPa)
#
#
# Indices 1 2 3 4 5 6 
#
# 1 99.3427 39.7815 50.3596 -1.8738 6.5891 1.1805
# 2 39.7815 131.1548 63.8243 13.4472 19.5226 7.0087
# 3 50.3596 63.8243 133.6835 16.2062 9.8886 -1.5139
# 4 -1.8738 13.4472 16.2062 46.4305 4.5372 -3.6055
# 5 6.5891 19.5226 9.8886 4.5372 40.4586 4.0569
# 6 1.1805 7.0087 -1.5139 -3.6055 4.0569 39.8814
#
#
#
# Elastic Compliance Matrix: (Units=1/GPa)
#
#
# Indices 1 2 3 4 5 6 
#
# 1 0.013141 -0.002158 -0.004215 0.002672 -0.000379 0.000111
# 2 -0.002158 0.011036 -0.004006 -0.001672 -0.003626 -0.001810
# 3 -0.004215 -0.004006 0.011337 -0.002898 0.000074 0.000990
# 4 0.002672 -0.001672 -0.002898 0.023504 -0.001798 0.002412
# 5 -0.000379 -0.003626 0.000074 -0.001798 0.026937 -0.002251
# 6 0.000111 -0.001810 0.000990 0.002412 -0.002251 0.025874
#
#
# Mechanical properties :
#
#
# Convention : Reuss Voigt Hill
#
# Bulk Modulus (GPa) = 67.76074 74.67907 71.21991
# Shear Modulus (GPa) = 36.36188 39.36846 37.86517
#
# Velocity S-wave (km/s) = 3.99203 4.15379 4.07371
# Velocity P-wave (km/s) = 7.13763 7.46557 7.30344
#
# Compressibility (1/GPa) = 0.01475781
#
# Stress axis : x y z
#
# Youngs Moduli (GPa) = 76.09641 90.60951 88.20365
#
# Poissons Ratio (x) = 0.19558 0.37174
# Poissons Ratio (y) = 0.16425 0.35331
# Poissons Ratio (z) = 0.32071 0.36295
#
# Static dielectric constant tensor:
#      x y z
#    x 4.115090 -0.118770 -0.132800 
#    y -0.118770 4.139420 0.302160 
#    z -0.132800 0.302160 4.137550 
# 
# 
# High freq. dielectric constant tensor:
#      x y z
#    x 1.905810 0.007870 -0.003880 
#    y 0.007870 1.917810 0.012500 
#    z -0.003880 0.012500 1.913630 
# 
# From -- ./inp_files/348813.got.cif
#   From: 2010.06.25/outbox.cif.g09.slc.cpg/sg2_175_cif.got.tgz:348813.got - 2010.06.27 13:26:56.
