data_PCOD8035049
_publ_section_title
;
Structure prediction by ZEFSAII (Michael W. Deem and Ramdas Pophale) SiO2 
 PCOD8035049
Probable space group: P -1
;
_chemical_formula_sum "Si O2"
_cell_formula_units_Z 14
_cell_length_a 9.728637
_cell_length_b 8.315515
_cell_length_c 13.833944
_cell_angle_alpha 57.151017
_cell_angle_beta 41.031780
_cell_angle_gamma 56.102672
_cell_volume 594.414703
_symmetry_space_group_name_H-M "P -1"
_symmetry_group_IT_number 2
_symmetry_cell_setting 'triclinic'
loop_
_space_group_symop_operation_xyz
x,y,z
-x,-y,-z
loop_
_atom_site_type_symbol
_atom_site_label
_atom_site_fract_x
_atom_site_fract_y
_atom_site_fract_z
Si Si1 0.731888 0.349615 0.442432
Si Si2 0.837037 0.079074 0.802139
Si Si3 0.402228 0.192288 0.908373
Si Si4 0.860887 0.013625 0.164685
Si Si5 0.427916 0.010401 0.305208
Si Si6 0.823007 0.404589 0.166558
Si Si7 0.981877 0.683311 0.521134
O O1 0.500000 0.500000 0.500000
O O2 0.717894 0.131074 0.542343
O O3 0.869251 0.410761 0.435850
O O4 0.865502 0.332600 0.277515
O O5 0.577215 0.184129 0.904740
O O6 0.934706 0.136402 0.631522
O O7 0.985239 0.134796 0.790361
O O8 0.499053 0.015744 0.836812
O O9 0.384175 0.399724 0.795219
O O10 0.176645 0.151187 0.087218
O O11 0.779720 0.235999 0.175739
O O12 0.641633 0.952249 0.279029
O O13 0.000000 0.000000 0.000000
O O14 0.268427 0.230346 0.338620
O O15 0.000000 0.500000 0.000000
O O16 0.000000 0.500000 0.500000
#
# Coordination Sequence:
#
# PCOD8035049 Si02
#       7
#     2   2   2   2   2   2   2
#     4  12  27  49  77 107 149 195 248 300 369 446
#     4  11  24  47  75 101 149 188 244 302 361 437
#     4  11  24  47  75 105 138 201 246 297 370 438
#     4  12  27  47  73 113 147 192 247 309 368 435
#     4  12  26  47  75 104 153 194 246 303 372 431
#     4  12  25  46  77 106 146 192 245 302 364 441
#     4  12  30  48  73 113 150 192 247 307 369 437
#
# _framework density 23.552579999999999
#
# number of rings (size 3 to 8) (size 9 to 14) (size 15 to 20)
#    0.000    0.286    5.714    1.286    8.000    1.143 
#    0.000    1.429    0.000    0.000    0.000    0.000 
#    0.000    0.000    0.000    0.000    0.000    0.000 
#
# Total GULP energy -173445.803364 kJ/mol
# GULP energy per Si atom -12388.985955 kJ/mol
# Density = 2.349897 g / cm^3
# Si number density = 23.552580 Si / 1000 Ang^3
#
#
#
# Elastic Constant Matrix: (Units=GPa)
#
#
# Indices 1 2 3 4 5 6 
#
# 1 187.9452 48.2004 56.4450 14.0429 3.7708 -21.2512
# 2 48.2004 79.5344 37.9781 7.5096 20.6008 9.9553
# 3 56.4450 37.9781 127.9806 5.0185 16.3539 -0.2642
# 4 14.0429 7.5096 5.0185 47.7445 -3.9664 3.5883
# 5 3.7708 20.6008 16.3539 -3.9664 44.5599 0.6756
# 6 -21.2512 9.9553 -0.2642 3.5883 0.6756 39.0433
#
#
#
# Elastic Compliance Matrix: (Units=1/GPa)
#
#
# Indices 1 2 3 4 5 6 
#
# 1 0.007968 -0.004869 -0.002275 -0.001583 0.002185 0.005671
# 2 -0.004869 0.019928 -0.002723 -0.001504 -0.007822 -0.007476
# 3 -0.002275 -0.002723 0.009907 -0.000093 -0.002186 -0.000430
# 4 -0.001583 -0.001504 -0.000093 0.022088 0.002868 -0.002559
# 5 0.002185 -0.007822 -0.002186 0.002868 0.026894 0.002440
# 6 0.005671 -0.007476 -0.000430 -0.002559 0.002440 0.030796
#
#
# Mechanical properties :
#
#
# Convention : Reuss Voigt Hill
#
# Bulk Modulus (GPa) = 55.34115 75.63414 65.48764
# Shear Modulus (GPa) = 34.88262 43.12534 39.00398
#
# Velocity S-wave (km/s) = 3.85262 4.28369 4.07386
# Velocity P-wave (km/s) = 6.58317 7.52657 7.07062
#
# Compressibility (1/GPa) = 0.01806974
#
# Stress axis : x y z
#
# Youngs Moduli (GPa) = 125.49727 50.18026 100.93634
#
# Poissons Ratio (x) = 0.24433 0.22962
# Poissons Ratio (y) = 0.61104 0.27486
# Poissons Ratio (z) = 0.28549 0.13665
#
# Static dielectric constant tensor:
#      x y z
#    x 4.607040 -0.956480 0.034140 
#    y -0.956480 7.857710 -0.279030 
#    z 0.034140 -0.279030 4.450030 
# 
# 
# High freq. dielectric constant tensor:
#      x y z
#    x 1.940470 -0.028440 -0.003140 
#    y -0.028440 1.926910 0.002350 
#    z -0.003140 0.002350 1.948440 
# 
# From -- ./inp_files/492421.got.cif
#   From: 2010.06.25/outbox.cif.g09.slc.cpg/sg2_247_cif.got.tgz:492421.got - 2010.06.27 13:26:56.
