data_PCOD8035887
_publ_section_title
;
Structure prediction by ZEFSAII (Michael W. Deem and Ramdas Pophale) SiO2 
 PCOD8035887
Probable space group: P -1
;
_chemical_formula_sum "Si O2"
_cell_formula_units_Z 12
_cell_length_a 11.792826
_cell_length_b 11.679414
_cell_length_c 9.638424
_cell_angle_alpha 56.318508
_cell_angle_beta 38.921451
_cell_angle_gamma 35.594808
_cell_volume 474.254503
_symmetry_space_group_name_H-M "P -1"
_symmetry_group_IT_number 2
_symmetry_cell_setting 'triclinic'
loop_
_space_group_symop_operation_xyz
x,y,z
-x,-y,-z
loop_
_atom_site_type_symbol
_atom_site_label
_atom_site_fract_x
_atom_site_fract_y
_atom_site_fract_z
Si Si1 0.645598 0.091574 0.691996
Si Si2 0.893591 0.246861 0.336332
Si Si3 0.327451 0.992058 0.577183
Si Si4 0.845139 0.501316 0.986822
Si Si5 0.222686 0.585933 0.173622
Si Si6 0.719240 0.552834 0.502728
O O1 0.786136 0.155521 0.468599
O O2 0.638186 0.997122 0.627656
O O3 0.351900 0.284756 0.893609
O O4 0.810295 0.924220 0.768279
O O5 0.699272 0.422747 0.520405
O O6 0.897249 0.332656 0.135004
O O7 0.429027 0.779533 0.652015
O O8 0.500000 0.000000 0.500000
O O9 0.019012 0.175239 0.788776
O O10 0.727246 0.535957 0.924765
O O11 0.119451 0.429610 0.757696
O O12 0.141431 0.544587 0.415486
O O13 0.500000 0.500000 0.000000
#
# Coordination Sequence:
#
# PCOD8035887 Si02
#       6
#     2   2   2   2   2   2
#     4  11  26  47  80 112 156 201 260 319 384 462
#     4  11  25  47  77 115 154 201 259 322 382 453
#     4  12  27  49  78 114 157 207 253 317 390 462
#     4  12  26  45  79 115 151 205 256 322 383 461
#     4  12  29  50  75 113 158 205 260 316 388 459
#     4  12  26  49  77 110 162 200 254 321 390 459
#
# _framework density 25.302869000000001
#
# number of rings (size 3 to 8) (size 9 to 14) (size 15 to 20)
#    0.000    0.333    5.000    2.500    4.667    4.000 
#    0.000    0.000    0.000    0.000    0.000    0.000 
#    0.000    0.000    0.000    0.000    0.000    0.000 
#
# Total GULP energy -148816.403632 kJ/mol
# GULP energy per Si atom -12401.366969 kJ/mol
# Density = 2.524528 g / cm^3
# Si number density = 25.302869 Si / 1000 Ang^3
#
#
#
# Elastic Constant Matrix: (Units=GPa)
#
#
# Indices 1 2 3 4 5 6 
#
# 1 144.4737 33.4024 40.3962 17.5360 21.7752 1.2434
# 2 33.4024 138.6876 40.7155 19.0143 -5.7287 -20.3449
# 3 40.3962 40.7155 105.2690 5.3143 14.1949 -8.6326
# 4 17.5360 19.0143 5.3143 41.8431 -8.3997 3.4001
# 5 21.7752 -5.7287 14.1949 -8.3997 40.1432 7.1888
# 6 1.2434 -20.3449 -8.6326 3.4001 7.1888 38.1473
#
#
#
# Elastic Compliance Matrix: (Units=1/GPa)
#
#
# Indices 1 2 3 4 5 6 
#
# 1 0.009063 -0.001246 -0.002107 -0.003992 -0.005165 -0.000107
# 2 -0.001246 0.009563 -0.002876 -0.003522 0.001511 0.004519
# 3 -0.002107 -0.002876 0.012145 -0.000324 -0.004000 0.002066
# 4 -0.003992 -0.003522 -0.000324 0.029533 0.009060 -0.006161
# 5 -0.005165 0.001511 -0.004000 0.009060 0.032466 -0.006857
# 6 -0.000107 0.004519 0.002066 -0.006161 -0.006857 0.030937
#
#
# Mechanical properties :
#
#
# Convention : Reuss Voigt Hill
#
# Bulk Modulus (GPa) = 54.60326 68.60649 61.60488
# Shear Modulus (GPa) = 35.14461 42.28781 38.71621
#
# Velocity S-wave (km/s) = 3.73092 4.09255 3.91591
# Velocity P-wave (km/s) = 6.33927 7.03597 6.69669
#
# Compressibility (1/GPa) = 0.01831392
#
# Stress axis : x y z
#
# Youngs Moduli (GPa) = 110.34130 104.56827 82.33568
#
# Poissons Ratio (x) = 0.13029 0.17345
# Poissons Ratio (y) = 0.13749 0.23680
# Poissons Ratio (z) = 0.23245 0.30074
#
# Static dielectric constant tensor:
#      x y z
#    x 5.047020 -0.091700 0.491690 
#    y -0.091700 4.965160 0.079060 
#    z 0.491690 0.079060 4.497170 
# 
# 
# High freq. dielectric constant tensor:
#      x y z
#    x 2.031730 -0.012900 0.017570 
#    y -0.012900 2.020390 0.009380 
#    z 0.017570 0.009380 1.992170 
# 
# From -- ./inp_files/164957.got.cif
#   From: 2010.06.25/outbox.cif.g09.slc.cpg/sg2_83_cif.got.tgz:164957.got - 2010.06.27 13:26:56.
