data_PCOD8035548
_publ_section_title
;
Structure prediction by ZEFSAII (Michael W. Deem and Ramdas Pophale) SiO2 
 PCOD8035548
Probable space group: P -1
;
_chemical_formula_sum "Si O2"
_cell_formula_units_Z 16
_cell_length_a 18.706978
_cell_length_b 9.159462
_cell_length_c 15.826942
_cell_angle_alpha 142.669356
_cell_angle_beta 26.548583
_cell_angle_gamma 142.803495
_cell_volume 697.715194
_symmetry_space_group_name_H-M "P -1"
_symmetry_group_IT_number 2
_symmetry_cell_setting 'triclinic'
loop_
_space_group_symop_operation_xyz
x,y,z
-x,-y,-z
loop_
_atom_site_type_symbol
_atom_site_label
_atom_site_fract_x
_atom_site_fract_y
_atom_site_fract_z
Si Si1 0.199464 0.078315 0.833546
Si Si2 0.850098 0.044176 0.733739
Si Si3 0.856060 0.258539 0.568463
Si Si4 0.419286 0.421552 0.142862
Si Si5 0.388002 0.927841 0.413955
Si Si6 0.308210 0.629602 0.050289
Si Si7 0.034955 0.224775 0.770783
Si Si8 0.241350 0.777131 0.810582
O O1 0.279216 0.049986 0.645180
O O2 0.253444 0.897365 0.759840
O O3 0.271636 0.371195 0.917586
O O4 0.000000 0.000000 0.000000
O O5 0.762585 0.791494 0.766323
O O6 0.706518 0.134434 0.880992
O O7 0.932371 0.268066 0.817220
O O8 0.000000 0.000000 0.500000
O O9 0.699456 0.157880 0.623608
O O10 0.826134 0.395389 0.746884
O O11 0.000000 0.500000 0.500000
O O12 0.908448 0.014700 0.422256
O O13 0.402724 0.671173 0.321517
O O14 0.500000 0.500000 0.000000
O O15 0.517721 0.305289 0.053000
O O16 0.577761 0.117270 0.286070
O O17 0.197498 0.472827 0.721212
O O18 0.912982 0.160270 0.951235
#
# Coordination Sequence:
#
# PCOD8035548 Si02
#       8
#     2   2   2   2   2   2   2   2
#     4  12  26  45  73 104 150 192 248 304 374 447
#     4  12  27  45  74 111 148 190 246 315 374 435
#     4  12  25  44  73 109 144 196 254 304 379 449
#     4  12  26  48  76 109 148 198 249 305 378 445
#     4  12  26  45  77 105 144 196 252 310 358 459
#     4  12  26  45  71 109 145 191 244 309 368 441
#     4  11  25  45  73  99 153 193 240 313 376 446
#     4  11  25  47  70 105 142 199 250 298 380 446
#
# _framework density 22.931994
#
# number of rings (size 3 to 8) (size 9 to 14) (size 15 to 20)
#    0.000    0.250    3.750    5.250    3.500    1.500 
#    2.250    0.000    0.000    0.000    0.000    0.000 
#    0.000    0.000    0.000    0.000    0.000    0.000 
#
# Total GULP energy -198242.975087 kJ/mol
# GULP energy per Si atom -12390.185943 kJ/mol
# Density = 2.287980 g / cm^3
# Si number density = 22.931994 Si / 1000 Ang^3
#
#
#
# Elastic Constant Matrix: (Units=GPa)
#
#
# Indices 1 2 3 4 5 6 
#
# 1 105.1069 43.0824 14.1526 1.2440 -10.0205 6.5039
# 2 43.0824 153.4332 56.9293 -9.4776 -0.0095 15.6721
# 3 14.1526 56.9293 100.8120 17.1967 4.2839 -0.5918
# 4 1.2440 -9.4776 17.1967 39.5936 3.0811 -2.5327
# 5 -10.0205 -0.0095 4.2839 3.0811 41.4602 -0.2995
# 6 6.5039 15.6721 -0.5918 -2.5327 -0.2995 36.5043
#
#
#
# Elastic Compliance Matrix: (Units=1/GPa)
#
#
# Indices 1 2 3 4 5 6 
#
# 1 0.011140 -0.003339 0.000476 -0.001611 0.002758 -0.000633
# 2 -0.003339 0.010503 -0.006345 0.005184 -0.000561 -0.003662
# 3 0.000476 -0.006345 0.014806 -0.007751 -0.000823 0.002335
# 4 -0.001611 0.005184 -0.007751 0.030057 -0.001821 0.000006
# 5 0.002758 -0.000561 -0.000823 -0.001821 0.025005 -0.000185
# 6 -0.000633 -0.003662 0.002335 0.000006 -0.000185 0.029116
#
#
# Mechanical properties :
#
#
# Convention : Reuss Voigt Hill
#
# Bulk Modulus (GPa) = 55.45216 65.29786 60.37501
# Shear Modulus (GPa) = 34.46979 39.85749 37.16364
#
# Velocity S-wave (km/s) = 3.88123 4.17354 4.03004
# Velocity P-wave (km/s) = 6.65724 7.19451 6.93109
#
# Compressibility (1/GPa) = 0.01803356
#
# Stress axis : x y z
#
# Youngs Moduli (GPa) = 89.76746 95.20697 67.53833
#
# Poissons Ratio (x) = 0.31791 -0.03213
# Poissons Ratio (y) = 0.29975 0.42850
# Poissons Ratio (z) = -0.04270 0.60405
#
# Static dielectric constant tensor:
#      x y z
#    x 4.411600 0.113930 -0.081250 
#    y 0.113930 4.073330 0.123150 
#    z -0.081250 0.123150 4.146320 
# 
# 
# High freq. dielectric constant tensor:
#      x y z
#    x 1.917960 0.009980 -0.002540 
#    y 0.009980 1.912700 0.004620 
#    z -0.002540 0.004620 1.911920 
# 
# From -- ./inp_files/537671.got.cif
#   From: 2010.06.25/outbox.cif.g09.slc.cpg/sg2_269_cif.got.tgz:537671.got - 2010.06.27 13:26:56.
