data_PCOD8035056
_publ_section_title
;
Structure prediction by ZEFSAII (Michael W. Deem and Ramdas Pophale) SiO2 
 PCOD8035056
Probable space group: P -1
;
_chemical_formula_sum "Si O2"
_cell_formula_units_Z 16
_cell_length_a 8.910300
_cell_length_b 12.049560
_cell_length_c 17.818315
_cell_angle_alpha 104.973752
_cell_angle_beta 66.236543
_cell_angle_gamma 49.558599
_cell_volume 887.087826
_symmetry_space_group_name_H-M "P -1"
_symmetry_group_IT_number 2
_symmetry_cell_setting 'triclinic'
loop_
_space_group_symop_operation_xyz
x,y,z
-x,-y,-z
loop_
_atom_site_type_symbol
_atom_site_label
_atom_site_fract_x
_atom_site_fract_y
_atom_site_fract_z
Si Si1 0.323604 0.650060 0.779038
Si Si2 0.879691 0.783791 0.108052
Si Si3 0.770051 0.825231 0.977008
Si Si4 0.125739 0.387976 0.791999
Si Si5 0.945863 0.065017 0.863881
Si Si6 0.575433 0.334623 0.846656
Si Si7 0.401984 0.424209 0.143305
Si Si8 0.338260 0.771891 0.361245
O O1 0.524882 0.604471 0.789222
O O2 0.538450 0.421067 0.660169
O O3 0.037344 0.760614 0.899039
O O4 0.207819 0.809018 0.768098
O O5 0.760525 0.771975 0.196400
O O6 0.897083 0.903840 0.154913
O O7 0.652688 0.914931 0.102738
O O8 0.211037 0.534403 0.970922
O O9 0.913253 0.613356 0.910021
O O10 0.500000 0.000000 0.000000
O O11 0.433127 0.259097 0.668753
O O12 0.918564 0.454603 0.779825
O O13 0.778367 0.144145 0.832280
O O14 0.696453 0.188474 0.001918
O O15 0.656122 0.419811 0.858299
O O16 0.666232 0.237379 0.729262
O O17 0.000000 0.000000 0.500000
#
# Coordination Sequence:
#
# PCOD8035056 Si02
#       8
#     2   2   2   2   2   2   2   2
#     4  10  21  35  52  80 114 151 178 216 270 323
#     4  11  19  33  52  87 118 142 169 220 272 334
#     4  11  22  30  46  82 123 149 171 208 267 331
#     4  11  20  33  57  81 111 138 186 220 271 326
#     4  11  18  30  57  84 117 144 173 212 276 334
#     4  10  18  35  55  81 109 148 179 213 267 335
#     4  10  17  31  54  85 114 144 173 209 273 335
#     4  10  23  42  57  73 105 146 190 233 270 311
#
# _framework density 18.036545
#
# number of rings (size 3 to 8) (size 9 to 14) (size 15 to 20)
#    0.000    1.500    7.500    2.250    1.750    0.000 
#    0.000    3.125    0.000    0.750    0.000    0.000 
#    0.000    0.000    0.000    0.000    0.000    0.000 
#
# Total GULP energy -198338.604496 kJ/mol
# GULP energy per Si atom -12396.162781 kJ/mol
# Density = 1.799549 g / cm^3
# Si number density = 18.036545 Si / 1000 Ang^3
#
#
#
# Elastic Constant Matrix: (Units=GPa)
#
#
# Indices 1 2 3 4 5 6 
#
# 1 104.1508 38.6285 27.9780 6.9068 -15.8382 -9.6962
# 2 38.6285 132.2260 24.4090 15.9687 0.3895 -1.0854
# 3 27.9780 24.4090 68.2064 16.0091 -6.3349 8.5278
# 4 6.9068 15.9687 16.0091 14.5548 -1.1887 1.7235
# 5 -15.8382 0.3895 -6.3349 -1.1887 15.7531 1.1164
# 6 -9.6962 -1.0854 8.5278 1.7235 1.1164 29.1415
#
#
#
# Elastic Compliance Matrix: (Units=1/GPa)
#
#
# Indices 1 2 3 4 5 6 
#
# 1 0.014483 -0.003678 -0.004802 0.002826 0.012549 0.005439
# 2 -0.003678 0.009801 -0.000309 -0.009049 -0.004744 -0.000052
# 3 -0.004802 -0.000309 0.023012 -0.021571 0.003316 -0.007195
# 4 0.002826 -0.009049 -0.021571 0.101078 0.001956 0.000863
# 5 0.012549 -0.004744 0.003316 0.001956 0.077699 -0.000064
# 6 0.005439 -0.000052 -0.007195 0.000863 -0.000064 0.038180
#
#
# Mechanical properties :
#
#
# Convention : Reuss Voigt Hill
#
# Bulk Modulus (GPa) = 33.65021 54.06824 43.85923
# Shear Modulus (GPa) = 17.13869 26.12771 21.63320
#
# Velocity S-wave (km/s) = 3.08591 3.81017 3.46701
# Velocity P-wave (km/s) = 5.60306 7.02842 6.35582
#
# Compressibility (1/GPa) = 0.02971750
#
# Stress axis : x y z
#
# Youngs Moduli (GPa) = 69.04637 102.03320 43.45470
#
# Poissons Ratio (x) = 0.37529 0.20869
# Poissons Ratio (y) = 0.25396 0.01342
# Poissons Ratio (z) = 0.33159 0.03151
#
# Static dielectric constant tensor:
#      x y z
#    x 3.598620 0.024420 -0.092090 
#    y 0.024420 3.561200 0.079810 
#    z -0.092090 0.079810 2.751780 
# 
# 
# High freq. dielectric constant tensor:
#      x y z
#    x 1.718370 -0.000660 -0.004730 
#    y -0.000660 1.709650 0.003720 
#    z -0.004730 0.003720 1.619420 
# 
# From -- ./inp_files/169623.got.cif
#   From: 2010.06.25/outbox.cif.g09.slc.cpg/sg2_85_cif.got.tgz:169623.got - 2010.06.27 13:26:56.
