data_PCOD8035343
_publ_section_title
;
Structure prediction by ZEFSAII (Michael W. Deem and Ramdas Pophale) SiO2 
 PCOD8035343
Probable space group: P -1
;
_chemical_formula_sum "Si O2"
_cell_formula_units_Z 12
_cell_length_a 11.434444
_cell_length_b 6.782087
_cell_length_c 9.697935
_cell_angle_alpha 73.676713
_cell_angle_beta 59.009497
_cell_angle_gamma 97.771989
_cell_volume 581.802898
_symmetry_space_group_name_H-M "P -1"
_symmetry_group_IT_number 2
_symmetry_cell_setting 'triclinic'
loop_
_space_group_symop_operation_xyz
x,y,z
-x,-y,-z
loop_
_atom_site_type_symbol
_atom_site_label
_atom_site_fract_x
_atom_site_fract_y
_atom_site_fract_z
Si Si1 0.833068 0.035586 0.895553
Si Si2 0.152462 0.670711 0.917584
Si Si3 0.683262 0.578552 0.517893
Si Si4 0.134300 0.696435 0.438392
Si Si5 0.652182 0.593489 0.212656
Si Si6 0.881603 0.042422 0.344610
O O1 0.796096 0.122876 0.755864
O O2 0.868013 0.234225 0.941776
O O3 0.972178 0.960500 0.815488
O O4 0.697350 0.831079 0.068410
O O5 0.274000 0.558251 0.881341
O O6 0.202851 0.858317 0.733567
O O7 0.000000 0.500000 0.000000
O O8 0.739507 0.384077 0.565071
O O9 0.702623 0.618193 0.335358
O O10 0.518983 0.518816 0.677432
O O11 0.777753 0.799503 0.494900
O O12 0.076299 0.812018 0.572711
O O13 0.000000 0.500000 0.500000
#
# Coordination Sequence:
#
# PCOD8035343 Si02
#       6
#     2   2   2   2   2   2
#     4  12  25  40  69 102 130 171 224 275 325 386
#     4  12  22  39  70 100 126 172 229 273 315 384
#     4  11  25  45  67  99 136 175 218 272 332 393
#     4  12  26  43  69 100 135 174 219 272 334 391
#     4  11  25  44  68 100 135 172 222 275 325 389
#     4  12  23  42  71  97 130 178 223 267 326 394
#
# _framework density 20.625541999999999
#
# number of rings (size 3 to 8) (size 9 to 14) (size 15 to 20)
#    0.000    0.333    6.667    3.000    0.000    2.667 
#    0.000    1.667    0.000    0.000    0.000    0.000 
#    0.000    0.000    0.000    0.000    0.000    0.000 
#
# Total GULP energy -148895.494029 kJ/mol
# GULP energy per Si atom -12407.957836 kJ/mol
# Density = 2.057860 g / cm^3
# Si number density = 20.625542 Si / 1000 Ang^3
#
#
#
# Elastic Constant Matrix: (Units=GPa)
#
#
# Indices 1 2 3 4 5 6 
#
# 1 76.4509 34.8182 43.5350 3.7416 -7.6535 -12.1570
# 2 34.8182 122.6181 47.1575 21.7928 -9.2155 -7.0677
# 3 43.5350 47.1575 110.2304 1.7489 2.1810 -9.3037
# 4 3.7416 21.7928 1.7489 50.8067 -3.6920 7.1275
# 5 -7.6535 -9.2155 2.1810 -3.6920 38.5245 -4.5329
# 6 -12.1570 -7.0677 -9.3037 7.1275 -4.5329 32.0339
#
#
#
# Elastic Compliance Matrix: (Units=1/GPa)
#
#
# Indices 1 2 3 4 5 6 
#
# 1 0.018940 -0.002266 -0.006104 -0.000704 0.004165 0.005661
# 2 -0.002266 0.011363 -0.003775 -0.004681 0.002258 0.001912
# 3 -0.006104 -0.003775 0.013126 0.001424 -0.002727 -0.000040
# 4 -0.000704 -0.004681 0.001424 0.022527 0.000127 -0.005881
# 5 0.004165 0.002258 -0.002727 0.000127 0.028108 0.005236
# 6 0.005661 0.001912 -0.000040 -0.005881 0.005236 0.035825
#
#
# Mechanical properties :
#
#
# Convention : Reuss Voigt Hill
#
# Bulk Modulus (GPa) = 52.25343 62.25788 57.25565
# Shear Modulus (GPa) = 31.14141 36.52561 33.83351
#
# Velocity S-wave (km/s) = 3.88989 4.21276 4.05454
# Velocity P-wave (km/s) = 6.75013 7.34258 7.05258
#
# Compressibility (1/GPa) = 0.01913750
#
# Stress axis : x y z
#
# Youngs Moduli (GPa) = 52.79838 88.00834 76.18614
#
# Poissons Ratio (x) = 0.19943 0.46506
# Poissons Ratio (y) = 0.11964 0.28761
# Poissons Ratio (z) = 0.32230 0.33224
#
# Static dielectric constant tensor:
#      x y z
#    x 3.643160 -0.222390 0.166070 
#    y -0.222390 4.000400 -0.062480 
#    z 0.166070 -0.062480 3.816990 
# 
# 
# High freq. dielectric constant tensor:
#      x y z
#    x 1.793110 -0.011890 0.007560 
#    y -0.011890 1.826540 -0.002460 
#    z 0.007560 -0.002460 1.811680 
# 
# From -- ./inp_files/17676.got.cif
#   From: 2010.06.25/outbox.cif.g09.slc.cpg/sg2_9_cif.got.tgz:17676.got - 2010.06.27 13:26:56.
