data_PCOD8035444
_publ_section_title
;
Structure prediction by ZEFSAII (Michael W. Deem and Ramdas Pophale) SiO2 
 PCOD8035444
Probable space group: P -1
;
_chemical_formula_sum "Si O2"
_cell_formula_units_Z 12
_cell_length_a 4.973290
_cell_length_b 11.400425
_cell_length_c 12.580475
_cell_angle_alpha 47.988838
_cell_angle_beta 84.005934
_cell_angle_gamma 97.053521
_cell_volume 508.847554
_symmetry_space_group_name_H-M "P -1"
_symmetry_group_IT_number 2
_symmetry_cell_setting 'triclinic'
loop_
_space_group_symop_operation_xyz
x,y,z
-x,-y,-z
loop_
_atom_site_type_symbol
_atom_site_label
_atom_site_fract_x
_atom_site_fract_y
_atom_site_fract_z
Si Si1 0.561057 0.930544 0.699969
Si Si2 0.862251 0.362512 0.004767
Si Si3 0.971139 0.177246 0.645158
Si Si4 0.500709 0.326995 0.654096
Si Si5 0.590627 0.579672 0.169267
Si Si6 0.361835 0.216671 0.424896
O O1 0.710796 0.847887 0.652952
O O2 0.779713 0.990128 0.752594
O O3 0.491912 0.092981 0.560506
O O4 0.279550 0.805538 0.827402
O O5 0.631228 0.422968 0.912554
O O6 0.099093 0.328880 0.937916
O O7 0.000000 0.500000 0.000000
O O8 0.793004 0.293185 0.630114
O O9 0.237069 0.186661 0.705039
O O10 0.083411 0.235907 0.485476
O O11 0.500000 0.500000 0.500000
O O12 0.481081 0.326294 0.782327
O O13 0.585470 0.392536 0.309310
#
# Coordination Sequence:
#
# PCOD8035444 Si02
#       6
#     2   2   2   2   2   2
#     4  11  26  48  72 113 148 193 239 309 366 439
#     4  12  28  49  74 105 155 189 239 297 380 434
#     4  12  24  44  72 108 142 191 238 306 361 417
#     4  12  25  45  74 107 148 190 247 303 351 429
#     4  12  27  48  75 112 140 196 246 300 357 441
#     4  11  25  44  80 106 149 182 255 298 368 419
#
# _framework density 23.582701
#
# number of rings (size 3 to 8) (size 9 to 14) (size 15 to 20)
#    0.000    0.333    5.000    2.500    7.000    0.000 
#    0.000    5.000    0.000    0.000    0.000    0.000 
#    0.000    0.000    0.000    0.000    0.000    0.000 
#
# Total GULP energy -148828.415290 kJ/mol
# GULP energy per Si atom -12402.367941 kJ/mol
# Density = 2.352903 g / cm^3
# Si number density = 23.582701 Si / 1000 Ang^3
#
#
#
# Elastic Constant Matrix: (Units=GPa)
#
#
# Indices 1 2 3 4 5 6 
#
# 1 124.5358 39.3927 52.2706 -0.2146 -18.2294 -3.5564
# 2 39.3927 134.4504 52.0591 18.2411 -14.8833 1.4994
# 3 52.2706 52.0591 109.6579 8.9091 -19.2844 -2.0162
# 4 -0.2146 18.2411 8.9091 27.0456 -3.5473 -16.8032
# 5 -18.2294 -14.8833 -19.2844 -3.5473 34.6321 8.1462
# 6 -3.5564 1.4994 -2.0162 -16.8032 8.1462 56.9082
#
#
#
# Elastic Compliance Matrix: (Units=1/GPa)
#
#
# Indices 1 2 3 4 5 6 
#
# 1 0.010752 -0.001805 -0.004081 0.003818 0.002693 0.001317
# 2 -0.001805 0.010485 -0.003258 -0.007662 0.001664 -0.003005
# 3 -0.004081 -0.003258 0.013477 -0.002348 0.003939 -0.000949
# 4 0.003818 -0.007662 -0.002348 0.052816 -0.000965 0.016090
# 5 0.002693 0.001664 0.003939 -0.000965 0.034261 -0.004925
# 6 0.001317 -0.003005 -0.000949 0.016090 -0.004925 0.023156
#
#
# Mechanical properties :
#
#
# Convention : Reuss Voigt Hill
#
# Bulk Modulus (GPa) = 60.87232 72.89876 66.88554
# Shear Modulus (GPa) = 29.63699 38.71195 34.17447
#
# Velocity S-wave (km/s) = 3.54888 4.05599 3.81088
# Velocity P-wave (km/s) = 6.53154 7.27419 6.91284
#
# Compressibility (1/GPa) = 0.01642783
#
# Stress axis : x y z
#
# Youngs Moduli (GPa) = 93.00750 95.37497 74.20093
#
# Poissons Ratio (x) = 0.17213 0.30279
# Poissons Ratio (y) = 0.16785 0.24171
# Poissons Ratio (z) = 0.37953 0.31068
#
# Static dielectric constant tensor:
#      x y z
#    x 4.379350 0.054940 -0.335600 
#    y 0.054940 4.711590 0.257300 
#    z -0.335600 0.257300 4.233850 
# 
# 
# High freq. dielectric constant tensor:
#      x y z
#    x 1.941580 0.001430 -0.019020 
#    y 0.001430 1.953350 0.012980 
#    z -0.019020 0.012980 1.914550 
# 
# From -- ./inp_files/363655.got.cif
#   From: 2010.06.25/outbox.cif.g09.slc.cpg/sg2_182_cif.got.tgz:363655.got - 2010.06.27 13:26:56.
