data_PCOD8035005
_publ_section_title
;
Structure prediction by ZEFSAII (Michael W. Deem and Ramdas Pophale) SiO2 
 PCOD8035005
Probable space group: P -1
;
_chemical_formula_sum "Si O2"
_cell_formula_units_Z 14
_cell_length_a 9.112625
_cell_length_b 5.644053
_cell_length_c 18.678669
_cell_angle_alpha 117.478185
_cell_angle_beta 58.438426
_cell_angle_gamma 134.295949
_cell_volume 578.605260
_symmetry_space_group_name_H-M "P -1"
_symmetry_group_IT_number 2
_symmetry_cell_setting 'triclinic'
loop_
_space_group_symop_operation_xyz
x,y,z
-x,-y,-z
loop_
_atom_site_type_symbol
_atom_site_label
_atom_site_fract_x
_atom_site_fract_y
_atom_site_fract_z
Si Si1 0.861681 0.344110 0.744453
Si Si2 0.558472 0.321271 0.173542
Si Si3 0.635417 0.361158 0.676712
Si Si4 0.410512 0.118050 0.481540
Si Si5 0.928681 0.296793 0.119226
Si Si6 0.021299 0.060344 0.419396
Si Si7 0.658957 0.548972 0.029307
O O1 0.800250 0.499522 0.720719
O O2 0.020231 0.637942 0.800450
O O3 0.637268 0.034865 0.794212
O O4 0.999493 0.235336 0.659395
O O5 0.556422 0.620541 0.248024
O O6 0.796849 0.433872 0.146812
O O7 0.523672 0.283926 0.090853
O O8 0.752382 0.591021 0.608937
O O9 0.562334 0.996089 0.620069
O O10 0.500000 0.500000 0.500000
O O11 0.500000 0.000000 0.500000
O O12 0.171427 0.921080 0.547864
O O13 0.779092 0.906983 0.086010
O O14 0.161489 0.493216 0.048752
O O15 0.000000 0.000000 0.500000
O O16 0.500000 0.500000 0.000000
#
# Coordination Sequence:
#
# PCOD8035005 Si02
#       7
#     2   2   2   2   2   2   2
#     4  11  26  45  72 102 147 193 244 310 373 449
#     4  11  25  45  70 106 144 186 243 302 378 446
#     4  11  25  47  70  98 148 197 242 313 380 448
#     4  12  28  44  73 110 146 196 262 323 380 452
#     4  11  25  44  73 108 140 191 242 301 369 457
#     4  11  24  47  72 100 144 199 252 308 386 448
#     4  11  25  47  74 103 149 188 239 301 376 453
#
# _framework density 24.196117000000001
#
# number of rings (size 3 to 8) (size 9 to 14) (size 15 to 20)
#    0.000    0.857    1.429    4.286    6.000    8.000 
#    0.000    0.000    0.000    0.000    0.000    0.000 
#    0.000    0.000    0.000    0.000    0.000    0.000 
#
# Total GULP energy -173542.268751 kJ/mol
# GULP energy per Si atom -12395.876339 kJ/mol
# Density = 2.414105 g / cm^3
# Si number density = 24.196117 Si / 1000 Ang^3
#
#
#
# Elastic Constant Matrix: (Units=GPa)
#
#
# Indices 1 2 3 4 5 6 
#
# 1 200.8105 38.9452 95.6449 1.4373 -12.6302 -3.0035
# 2 38.9452 66.2461 49.0752 7.8031 11.8044 -4.2313
# 3 95.6449 49.0752 184.6866 7.1538 -2.7825 3.5827
# 4 1.4373 7.8031 7.1538 51.3379 -3.1306 4.2942
# 5 -12.6302 11.8044 -2.7825 -3.1306 60.7137 -2.4143
# 6 -3.0035 -4.2313 3.5827 4.2942 -2.4143 34.0210
#
#
#
# Elastic Compliance Matrix: (Units=1/GPa)
#
#
# Indices 1 2 3 4 5 6 
#
# 1 0.006972 -0.002195 -0.003038 0.000612 0.001798 0.000713
# 2 -0.002195 0.021114 -0.004485 -0.003063 -0.004808 0.002950
# 3 -0.003038 -0.004485 0.008227 -0.000211 0.000541 -0.001627
# 4 0.000612 -0.003063 -0.000211 0.020287 0.001650 -0.002748
# 5 0.001798 -0.004808 0.000541 0.001650 0.017912 0.000567
# 6 0.000713 0.002950 -0.001627 -0.002748 0.000567 0.030382
#
#
# Mechanical properties :
#
#
# Convention : Reuss Voigt Hill
#
# Bulk Modulus (GPa) = 59.24882 91.00820 75.12851
# Shear Modulus (GPa) = 38.47506 47.08639 42.78073
#
# Velocity S-wave (km/s) = 3.99197 4.41617 4.20942
# Velocity P-wave (km/s) = 6.76667 7.98109 7.39884
#
# Compressibility (1/GPa) = 0.01687797
#
# Stress axis : x y z
#
# Youngs Moduli (GPa) = 143.43689 47.36238 121.54784
#
# Poissons Ratio (x) = 0.10397 0.36921
# Poissons Ratio (y) = 0.31487 0.54509
# Poissons Ratio (z) = 0.43571 0.21240
#
# Static dielectric constant tensor:
#      x y z
#    x 4.378450 -0.318970 0.112770 
#    y -0.318970 3.858310 0.348400 
#    z 0.112770 0.348400 4.662630 
# 
# 
# High freq. dielectric constant tensor:
#      x y z
#    x 1.972220 -0.007530 -0.010570 
#    y -0.007530 1.940970 0.000770 
#    z -0.010570 0.000770 1.990850 
# 
# From -- ./inp_files/138829.got.cif
#   From: 2010.06.25/outbox.cif.g09.slc.cpg/sg2_70_cif.got.tgz:138829.got - 2010.06.27 13:26:56.
