data_PCOD8035167
_publ_section_title
;
Structure prediction by ZEFSAII (Michael W. Deem and Ramdas Pophale) SiO2 
 PCOD8035167
Probable space group: P -1
;
_chemical_formula_sum "Si O2"
_cell_formula_units_Z 14
_cell_length_a 9.695944
_cell_length_b 23.093207
_cell_length_c 9.955087
_cell_angle_alpha 41.850253
_cell_angle_beta 137.266812
_cell_angle_gamma 154.251376
_cell_volume 630.328546
_symmetry_space_group_name_H-M "P -1"
_symmetry_group_IT_number 2
_symmetry_cell_setting 'triclinic'
loop_
_space_group_symop_operation_xyz
x,y,z
-x,-y,-z
loop_
_atom_site_type_symbol
_atom_site_label
_atom_site_fract_x
_atom_site_fract_y
_atom_site_fract_z
Si Si1 0.641051 0.502961 0.396203
Si Si2 0.333288 0.239124 0.526232
Si Si3 0.727825 0.212170 0.780376
Si Si4 0.127947 0.916052 0.784103
Si Si5 0.773537 0.023591 0.698336
Si Si6 0.302173 0.547849 0.187680
Si Si7 0.139415 0.136262 0.024764
O O1 0.509743 0.391646 0.382434
O O2 0.346878 0.470548 0.277767
O O3 0.751162 0.485040 0.635904
O O4 0.951424 0.658637 0.296773
O O5 0.605807 0.255440 0.699294
O O6 0.121918 0.147756 0.402005
O O7 0.115619 0.164049 0.633197
O O8 0.458628 0.081683 0.710865
O O9 0.804865 0.164403 0.028734
O O10 0.980479 0.897607 0.851216
O O11 0.500000 0.000000 0.500000
O O12 0.675126 0.893906 0.806232
O O13 0.826447 0.039853 0.868722
O O14 0.625614 0.708263 0.113406
O O15 0.000000 0.500000 0.000000
#
# Coordination Sequence:
#
# PCOD8035167 Si02
#       7
#     2   2   2   2   2   2   2
#     4  11  26  47  68 102 140 183 234 282 342 417
#     4  12  26  44  66 108 137 180 226 284 349 409
#     4  11  25  45  69  98 141 179 228 285 340 413
#     4  11  26  43  74 102 135 178 231 283 348 407
#     4  11  27  42  74 102 141 179 229 288 346 403
#     4  11  26  44  73  97 139 187 233 280 344 411
#     4  11  24  49  68 106 136 179 235 284 338 417
#
# _framework density 22.210637999999999
#
# number of rings (size 3 to 8) (size 9 to 14) (size 15 to 20)
#    0.000    0.857    4.286    0.857    8.000    1.714 
#    0.000    0.000    0.000    0.000    0.000    0.000 
#    0.000    0.000    0.000    0.000    0.000    0.000 
#
# Total GULP energy -173644.504090 kJ/mol
# GULP energy per Si atom -12403.178864 kJ/mol
# Density = 2.216009 g / cm^3
# Si number density = 22.210638 Si / 1000 Ang^3
#
#
#
# Elastic Constant Matrix: (Units=GPa)
#
#
# Indices 1 2 3 4 5 6 
#
# 1 87.5620 8.1958 25.5973 14.7381 12.7244 -5.4743
# 2 8.1958 59.5244 3.4025 -11.9429 -9.3005 -5.1366
# 3 25.5973 3.4025 86.0263 9.7906 17.3822 -4.5722
# 4 14.7381 -11.9429 9.7906 33.7100 5.8010 3.7582
# 5 12.7244 -9.3005 17.3822 5.8010 50.1193 -5.9391
# 6 -5.4743 -5.1366 -4.5722 3.7582 -5.9391 35.2392
#
#
#
# Elastic Compliance Matrix: (Units=1/GPa)
#
#
# Indices 1 2 3 4 5 6 
#
# 1 0.014025 -0.003244 -0.002785 -0.006261 -0.002279 0.001628
# 2 -0.003244 0.019768 -0.001479 0.007873 0.004340 0.002077
# 3 -0.002785 -0.001479 0.013645 -0.002682 -0.003900 0.000751
# 4 -0.006261 0.007873 -0.002682 0.036568 -0.000749 -0.004199
# 5 -0.002279 0.004340 -0.003900 -0.000749 0.023222 0.003766
# 6 0.001628 0.002077 0.000751 -0.004199 0.003766 0.030113
#
#
# Mechanical properties :
#
#
# Convention : Reuss Voigt Hill
#
# Bulk Modulus (GPa) = 30.84365 34.16709 32.50537
# Shear Modulus (GPa) = 30.64395 36.87484 33.75939
#
# Velocity S-wave (km/s) = 3.71846 4.07902 3.90290
# Velocity P-wave (km/s) = 5.68796 6.13197 5.91414
#
# Compressibility (1/GPa) = 0.03242158
#
# Stress axis : x y z
#
# Youngs Moduli (GPa) = 71.30011 50.58694 73.28802
#
# Poissons Ratio (x) = 0.16409 0.20413
# Poissons Ratio (y) = 0.23128 0.10840
# Poissons Ratio (z) = 0.19859 0.07482
#
# Static dielectric constant tensor:
#      x y z
#    x 4.097740 -0.060450 0.182060 
#    y -0.060450 3.994210 -0.267390 
#    z 0.182060 -0.267390 4.036590 
# 
# 
# High freq. dielectric constant tensor:
#      x y z
#    x 1.883750 -0.005060 0.013540 
#    y -0.005060 1.871050 -0.017240 
#    z 0.013540 -0.017240 1.882040 
# 
# From -- ./inp_files/223291.got.cif
#   From: 2010.06.25/outbox.cif.g09.slc.cpg/sg2_112_cif.got.tgz:223291.got - 2010.06.27 13:26:56.
