data_PCOD8035200
_publ_section_title
;
Structure prediction by ZEFSAII (Michael W. Deem and Ramdas Pophale) SiO2 
 PCOD8035200
Probable space group: P -1
;
_chemical_formula_sum "Si O2"
_cell_formula_units_Z 14
_cell_length_a 9.184248
_cell_length_b 20.072547
_cell_length_c 5.283524
_cell_angle_alpha 78.551979
_cell_angle_beta 81.820767
_cell_angle_gamma 138.344817
_cell_volume 567.885263
_symmetry_space_group_name_H-M "P -1"
_symmetry_group_IT_number 2
_symmetry_cell_setting 'triclinic'
loop_
_space_group_symop_operation_xyz
x,y,z
-x,-y,-z
loop_
_atom_site_type_symbol
_atom_site_label
_atom_site_fract_x
_atom_site_fract_y
_atom_site_fract_z
Si Si1 0.293318 0.257217 0.311399
Si Si2 0.850859 0.933375 0.337014
Si Si3 0.109871 0.837301 0.858467
Si Si4 0.744602 0.622912 0.458041
Si Si5 0.218033 0.630249 0.900639
Si Si6 0.829844 0.303835 0.635588
Si Si7 0.503268 0.083782 0.675800
O O1 0.225251 0.173611 0.591279
O O2 0.329798 0.343489 0.367216
O O3 0.554033 0.329974 0.081287
O O4 0.083017 0.182092 0.207590
O O5 0.624802 0.901256 0.450134
O O6 0.000000 0.000000 0.500000
O O7 0.000000 0.000000 0.000000
O O8 0.277933 0.864894 0.585605
O O9 0.297359 0.951163 0.904240
O O10 0.943147 0.720776 0.127819
O O11 0.500000 0.500000 0.500000
O O12 0.896417 0.620488 0.569083
O O13 0.269780 0.687493 0.578437
O O14 0.150262 0.654038 0.130113
O O15 0.000000 0.500000 0.000000
O O16 0.641653 0.169345 0.817640
#
# Coordination Sequence:
#
# PCOD8035200 Si02
#       7
#     2   2   2   2   2   2   2
#     4  12  27  47  76 115 151 207 268 322 399 468
#     4  12  27  46  75 113 158 203 252 319 392 471
#     4  11  26  49  76 116 158 214 264 330 406 475
#     4  12  29  50  77 110 158 209 273 333 396 478
#     4  12  29  50  79 114 157 205 266 328 393 470
#     4  12  27  50  78 114 153 212 255 325 404 461
#     4  11  24  49  77 113 161 204 265 324 400 484
#
# _framework density 24.65287
#
# number of rings (size 3 to 8) (size 9 to 14) (size 15 to 20)
#    0.000    0.286    4.286    3.000    6.000    1.143 
#    2.571    0.000    0.000    0.000    0.000    0.000 
#    0.000    0.000    0.000    0.000    0.000    0.000 
#
# Total GULP energy -173505.666909 kJ/mol
# GULP energy per Si atom -12393.261922 kJ/mol
# Density = 2.459676 g / cm^3
# Si number density = 24.652870 Si / 1000 Ang^3
#
#
#
# Elastic Constant Matrix: (Units=GPa)
#
#
# Indices 1 2 3 4 5 6 
#
# 1 135.4371 43.7192 19.9208 -6.1287 -31.5989 15.6410
# 2 43.7192 222.7535 49.5372 -17.0382 -13.2946 -7.8934
# 3 19.9208 49.5372 85.9253 -8.4972 2.0456 -4.5581
# 4 -6.1287 -17.0382 -8.4972 44.4187 0.7276 -8.3058
# 5 -31.5989 -13.2946 2.0456 0.7276 23.4537 -3.5981
# 6 15.6410 -7.8934 -4.5581 -8.3058 -3.5981 49.4907
#
#
#
# Elastic Compliance Matrix: (Units=1/GPa)
#
#
# Indices 1 2 3 4 5 6 
#
# 1 0.012069 -0.000936 -0.002798 -0.000064 0.015500 -0.003105
# 2 -0.000936 0.005623 -0.002838 0.001706 0.002333 0.001387
# 3 -0.002798 -0.002838 0.014324 0.001663 -0.006440 0.001562
# 4 -0.000064 0.001706 0.001663 0.024321 0.000684 0.004577
# 5 0.015500 0.002333 -0.006440 0.000684 0.065344 -0.000254
# 6 -0.003105 0.001387 0.001562 0.004577 -0.000254 0.022302
#
#
# Mechanical properties :
#
#
# Convention : Reuss Voigt Hill
#
# Bulk Modulus (GPa) = 52.99241 74.49672 63.74457
# Shear Modulus (GPa) = 30.59630 45.53523 38.06576
#
# Velocity S-wave (km/s) = 3.52672 4.30240 3.93373
# Velocity P-wave (km/s) = 6.17461 7.41382 6.82241
#
# Compressibility (1/GPa) = 0.01887063
#
# Stress axis : x y z
#
# Youngs Moduli (GPa) = 82.85471 177.83880 69.81529
#
# Poissons Ratio (x) = 0.16652 0.19537
# Poissons Ratio (y) = 0.07758 0.19813
# Poissons Ratio (z) = 0.23186 0.50470
#
# Static dielectric constant tensor:
#      x y z
#    x 5.075980 0.047740 -0.057930 
#    y 0.047740 4.863330 -0.276000 
#    z -0.057930 -0.276000 4.044180 
# 
# 
# High freq. dielectric constant tensor:
#      x y z
#    x 2.014250 0.004160 -0.008330 
#    y 0.004160 2.007770 -0.011890 
#    z -0.008330 -0.011890 1.949220 
# 
# From -- ./inp_files/52905.got.cif
#   From: 2010.06.25/outbox.cif.g09.slc.cpg/sg2_27_cif.got.tgz:52905.got - 2010.06.27 13:26:56.
