data_PCOD8035795
_publ_section_title
;
Structure prediction by ZEFSAII (Michael W. Deem and Ramdas Pophale) SiO2 
 PCOD8035795
Probable space group: P -1
;
_chemical_formula_sum "Si O2"
_cell_formula_units_Z 12
_cell_length_a 16.020108
_cell_length_b 5.746575
_cell_length_c 9.668415
_cell_angle_alpha 91.428228
_cell_angle_beta 128.051166
_cell_angle_gamma 121.903343
_cell_volume 506.592939
_symmetry_space_group_name_H-M "P -1"
_symmetry_group_IT_number 2
_symmetry_cell_setting 'triclinic'
loop_
_space_group_symop_operation_xyz
x,y,z
-x,-y,-z
loop_
_atom_site_type_symbol
_atom_site_label
_atom_site_fract_x
_atom_site_fract_y
_atom_site_fract_z
Si Si1 0.403082 0.865742 0.762027
Si Si2 0.360176 0.440382 0.500153
Si Si3 0.956678 0.184816 0.885954
Si Si4 0.100816 0.460037 0.536034
Si Si5 0.408081 0.595243 0.257893
Si Si6 0.891609 0.804841 0.191903
O O1 0.340665 0.528108 0.632758
O O2 0.256214 0.796726 0.640879
O O3 0.500949 0.088068 0.736039
O O4 0.500000 0.000000 0.000000
O O5 0.381610 0.642857 0.390093
O O6 0.508518 0.520730 0.660712
O O7 0.217583 0.066363 0.319337
O O8 0.041342 0.309052 0.827792
O O9 0.000000 0.500000 0.000000
O O10 0.000000 0.000000 0.000000
O O11 0.146854 0.339187 0.695992
O O12 0.000000 0.500000 0.500000
O O13 0.009691 0.194150 0.318660
O O14 0.252310 0.307989 0.025407
#
# Coordination Sequence:
#
# PCOD8035795 Si02
#       6
#     2   2   2   2   2   2
#     4  12  26  47  73 108 151 203 260 320 397 466
#     4  11  27  47  73 114 154 204 256 324 390 476
#     4  12  28  48  81 114 155 206 262 324 396 467
#     4  11  27  45  72 105 150 204 263 327 389 468
#     4  11  26  46  75 107 153 200 256 319 396 464
#     4  11  25  47  70 109 151 200 264 324 392 468
#
# _framework density 23.687657000000002
#
# number of rings (size 3 to 8) (size 9 to 14) (size 15 to 20)
#    0.000    0.667    5.000    0.500    9.333    3.333 
#    0.000    0.000    0.000    0.000    0.000    0.000 
#    0.000    0.000    0.000    0.000    0.000    0.000 
#
# Total GULP energy -148693.787670 kJ/mol
# GULP energy per Si atom -12391.148972 kJ/mol
# Density = 2.363374 g / cm^3
# Si number density = 23.687657 Si / 1000 Ang^3
#
#
#
# Elastic Constant Matrix: (Units=GPa)
#
#
# Indices 1 2 3 4 5 6 
#
# 1 154.0930 31.5843 92.9234 24.0728 2.9594 6.2436
# 2 31.5843 74.2698 52.7744 13.3082 -5.2800 2.4111
# 3 92.9234 52.7744 188.3463 20.0072 5.7316 1.3920
# 4 24.0728 13.3082 20.0072 38.0865 2.0054 1.5359
# 5 2.9594 -5.2800 5.7316 2.0054 53.9038 8.2703
# 6 6.2436 2.4111 1.3920 1.5359 8.2703 40.8049
#
#
#
# Elastic Compliance Matrix: (Units=1/GPa)
#
#
# Indices 1 2 3 4 5 6 
#
# 1 0.009813 -0.000361 -0.004338 -0.003759 0.000216 -0.001234
# 2 -0.000361 0.017659 -0.004446 -0.003692 0.002546 -0.001214
# 3 -0.004338 -0.004446 0.008756 -0.000274 -0.001255 0.000893
# 4 -0.003759 -0.003692 -0.000274 0.030134 -0.001235 -0.000081
# 5 0.000216 0.002546 -0.001255 -0.001235 0.019592 -0.004065
# 6 -0.001234 -0.001214 0.000893 -0.000081 -0.004065 0.025564
#
#
# Mechanical properties :
#
#
# Convention : Reuss Voigt Hill
#
# Bulk Modulus (GPa) = 55.75152 85.69703 70.72428
# Shear Modulus (GPa) = 36.82182 42.52084 39.67133
#
# Velocity S-wave (km/s) = 3.94696 4.24141 4.09683
# Velocity P-wave (km/s) = 6.66022 7.76161 7.23191
#
# Compressibility (1/GPa) = 0.01793673
#
# Stress axis : x y z
#
# Youngs Moduli (GPa) = 101.90751 56.62721 114.20463
#
# Poissons Ratio (x) = 0.02047 0.49544
# Poissons Ratio (y) = 0.03683 0.50777
# Poissons Ratio (z) = 0.44210 0.25177
#
# Static dielectric constant tensor:
#      x y z
#    x 4.329730 0.440240 0.101650 
#    y 0.440240 4.195520 -0.127220 
#    z 0.101650 -0.127220 3.899580 
# 
# 
# High freq. dielectric constant tensor:
#      x y z
#    x 1.952830 0.027480 0.001260 
#    y 0.027480 1.918030 -0.000180 
#    z 0.001260 -0.000180 1.961400 
# 
# From -- ./inp_files/26309.got.cif
#   From: 2010.06.25/outbox.cif.g09.slc.cpg/sg2_14_cif.got.tgz:26309.got - 2010.06.27 13:26:56.
