data_PCOD8035452
_publ_section_title
;
Structure prediction by ZEFSAII (Michael W. Deem and Ramdas Pophale) SiO2 
 PCOD8035452
Probable space group: P -1
;
_chemical_formula_sum "Si O2"
_cell_formula_units_Z 10
_cell_length_a 9.948306
_cell_length_b 8.674102
_cell_length_c 9.648120
_cell_angle_alpha 107.160979
_cell_angle_beta 133.433437
_cell_angle_gamma 102.304368
_cell_volume 462.350296
_symmetry_space_group_name_H-M "P -1"
_symmetry_group_IT_number 2
_symmetry_cell_setting 'triclinic'
loop_
_space_group_symop_operation_xyz
x,y,z
-x,-y,-z
loop_
_atom_site_type_symbol
_atom_site_label
_atom_site_fract_x
_atom_site_fract_y
_atom_site_fract_z
Si Si1 0.514025 0.929251 0.708939
Si Si2 0.929909 0.322788 0.505988
Si Si3 0.896653 0.020829 0.195075
Si Si4 0.669312 0.578725 0.011603
Si Si5 0.409722 0.195866 0.553369
O O1 0.324892 0.771584 0.643987
O O2 0.498435 0.806147 0.532248
O O3 0.463984 0.087452 0.676117
O O4 0.765830 0.052493 0.990782
O O5 0.000000 0.500000 0.500000
O O6 0.103799 0.404472 0.780860
O O7 0.942435 0.156878 0.395594
O O8 0.733965 0.789973 0.064194
O O9 0.136376 0.081652 0.320198
O O10 0.500000 0.500000 0.000000
O O11 0.543683 0.427142 0.753567
#
# Coordination Sequence:
#
# PCOD8035452 Si02
#       5
#     2   2   2   2   2
#     4  11  25  45  68 101 137 173 223 278 330 394
#     4  12  24  44  70 100 134 178 225 275 330 395
#     4  12  24  46  70  97 135 177 225 272 332 398
#     4  12  23  42  71  98 133 178 222 273 329 396
#     4  11  25  47  68  99 138 175 220 276 335 395
#
# _framework density 21.628622
#
# number of rings (size 3 to 8) (size 9 to 14) (size 15 to 20)
#    0.000    0.400    4.000    5.400    0.000    1.600 
#    3.600    0.000    0.000    0.000    0.000    0.000 
#    0.000    0.000    0.000    0.000    0.000    0.000 
#
# Total GULP energy -124097.567627 kJ/mol
# GULP energy per Si atom -12409.756763 kJ/mol
# Density = 2.157939 g / cm^3
# Si number density = 21.628622 Si / 1000 Ang^3
#
#
#
# Elastic Constant Matrix: (Units=GPa)
#
#
# Indices 1 2 3 4 5 6 
#
# 1 105.7634 48.3850 19.7242 7.0993 3.1323 -7.3079
# 2 48.3850 111.9757 37.5351 11.4336 13.5221 1.5855
# 3 19.7242 37.5351 106.8753 -8.0054 16.2694 -11.6259
# 4 7.0993 11.4336 -8.0054 48.3624 -14.6330 -0.0510
# 5 3.1323 13.5221 16.2694 -14.6330 37.7880 -5.7460
# 6 -7.3079 1.5855 -11.6259 -0.0510 -5.7460 25.0339
#
#
#
# Elastic Compliance Matrix: (Units=1/GPa)
#
#
# Indices 1 2 3 4 5 6 
#
# 1 0.012242 -0.005510 -0.000114 -0.000010 0.001648 0.004248
# 2 -0.005510 0.013885 -0.003992 -0.004807 -0.005509 -0.005616
# 3 -0.000114 -0.003992 0.011824 0.002334 -0.001948 0.005268
# 4 -0.000010 -0.004807 0.002334 0.025608 0.011244 0.004018
# 5 0.001648 -0.005509 -0.001948 0.011244 0.034694 0.007911
# 6 0.004248 -0.005616 0.005268 0.004018 0.007911 0.045812
#
#
# Mechanical properties :
#
#
# Convention : Reuss Voigt Hill
#
# Bulk Modulus (GPa) = 53.41826 59.54478 56.48152
# Shear Modulus (GPa) = 29.49204 36.83487 33.16346
#
# Velocity S-wave (km/s) = 3.69665 4.13129 3.92000
# Velocity P-wave (km/s) = 6.55530 7.09557 6.83078
#
# Compressibility (1/GPa) = 0.01872019
#
# Stress axis : x y z
#
# Youngs Moduli (GPa) = 81.68326 72.01931 84.57236
#
# Poissons Ratio (x) = 0.39682 0.00962
# Poissons Ratio (y) = 0.45007 0.33762
# Poissons Ratio (z) = 0.00929 0.28751
#
# Static dielectric constant tensor:
#      x y z
#    x 3.889120 -0.091520 0.085020 
#    y -0.091520 3.865570 -0.026280 
#    z 0.085020 -0.026280 4.196940 
# 
# 
# High freq. dielectric constant tensor:
#      x y z
#    x 1.854180 -0.006330 0.008060 
#    y -0.006330 1.852640 -0.003690 
#    z 0.008060 -0.003690 1.865830 
# 
# From -- ./inp_files/15398.got.cif
#   From: 2010.06.25/outbox.cif.g09.slc.cpg/sg2_8_cif.got.tgz:15398.got - 2010.06.27 13:26:56.
