data_PCOD8035329
_publ_section_title
;
Structure prediction by ZEFSAII (Michael W. Deem and Ramdas Pophale) SiO2 
 PCOD8035329
Probable space group: P -1
;
_chemical_formula_sum "Si O2"
_cell_formula_units_Z 14
_cell_length_a 4.962578
_cell_length_b 11.522679
_cell_length_c 15.415161
_cell_angle_alpha 141.327158
_cell_angle_beta 85.483496
_cell_angle_gamma 99.933544
_cell_volume 540.305886
_symmetry_space_group_name_H-M "P -1"
_symmetry_group_IT_number 2
_symmetry_cell_setting 'triclinic'
loop_
_space_group_symop_operation_xyz
x,y,z
-x,-y,-z
loop_
_atom_site_type_symbol
_atom_site_label
_atom_site_fract_x
_atom_site_fract_y
_atom_site_fract_z
Si Si1 0.969654 0.701290 0.959738
Si Si2 0.588436 0.514374 0.105241
Si Si3 0.087157 0.359921 0.265292
Si Si4 0.659094 0.143678 0.664875
Si Si5 0.783604 0.203631 0.515730
Si Si6 0.466522 0.694380 0.657513
Si Si7 0.849729 0.999567 0.733576
O O1 0.122966 0.546625 0.912878
O O2 0.047617 0.729879 0.873154
O O3 0.645265 0.626221 0.919586
O O4 0.019543 0.901432 0.124279
O O5 0.579299 0.728552 0.260454
O O6 0.500000 0.500000 0.000000
O O7 0.850187 0.314917 0.317163
O O8 0.211806 0.581417 0.383487
O O9 0.339071 0.266843 0.239549
O O10 0.878995 0.192253 0.608225
O O11 0.524583 0.920011 0.540833
O O12 0.811562 0.172575 0.771258
O O13 0.956625 0.121662 0.390656
O O14 0.500000 0.500000 0.500000
O O15 0.560780 0.864146 0.685668
#
# Coordination Sequence:
#
# PCOD8035329 Si02
#       7
#     2   2   2   2   2   2   2
#     4  12  28  46  74 109 151 196 242 307 368 441
#     4  12  24  45  71 107 152 197 244 288 375 444
#     4  12  27  50  75 110 147 196 250 302 370 434
#     4  11  25  43  74 111 145 196 243 309 364 447
#     4  11  25  44  74 107 149 187 248 305 368 435
#     4  12  27  49  81 105 145 195 250 309 364 435
#     4  12  27  45  75 107 149 192 249 305 372 436
#
# _framework density 25.911248000000001
#
# number of rings (size 3 to 8) (size 9 to 14) (size 15 to 20)
#    0.000    0.286    4.286    3.857    4.000    2.286 
#    0.000    0.000    0.000    0.000    0.000    0.000 
#    0.000    0.000    0.000    0.000    0.000    0.000 
#
# Total GULP energy -173549.251992 kJ/mol
# GULP energy per Si atom -12396.375142 kJ/mol
# Density = 2.585227 g / cm^3
# Si number density = 25.911248 Si / 1000 Ang^3
#
#
#
# Elastic Constant Matrix: (Units=GPa)
#
#
# Indices 1 2 3 4 5 6 
#
# 1 59.8193 8.6920 -2.8142 -2.2302 -0.4567 4.8905
# 2 8.6920 109.8469 22.8722 -10.6525 -9.0604 9.8639
# 3 -2.8142 22.8722 121.9852 -11.1322 -8.7173 1.2613
# 4 -2.2302 -10.6525 -11.1322 39.9981 1.6775 5.5165
# 5 -0.4567 -9.0604 -8.7173 1.6775 25.9968 -5.8389
# 6 4.8905 9.8639 1.2613 5.5165 -5.8389 43.5389
#
#
#
# Elastic Compliance Matrix: (Units=1/GPa)
#
#
# Indices 1 2 3 4 5 6 
#
# 1 0.017124 -0.001266 0.000724 0.001090 -0.000383 -0.001847
# 2 -0.001266 0.010137 -0.001520 0.002395 0.002376 -0.002095
# 3 0.000724 -0.001520 0.008847 0.001991 0.002337 0.000068
# 4 0.001090 0.002395 0.001991 0.026895 -0.001177 -0.004288
# 5 -0.000383 0.002376 0.002337 -0.001177 0.041298 0.005125
# 6 -0.001847 -0.002095 0.000068 -0.004288 0.005125 0.024879
#
#
# Mechanical properties :
#
#
# Convention : Reuss Voigt Hill
#
# Bulk Modulus (GPa) = 31.26581 38.79462 35.03021
# Shear Modulus (GPa) = 34.73089 39.43351 37.08220
#
# Velocity S-wave (km/s) = 3.66509 3.90535 3.78712
# Velocity P-wave (km/s) = 5.47752 5.94477 5.71592
#
# Compressibility (1/GPa) = 0.03198382
#
# Stress axis : x y z
#
# Youngs Moduli (GPa) = 58.39866 98.65270 113.02887
#
# Poissons Ratio (x) = 0.12486 -0.08178
# Poissons Ratio (y) = 0.07391 0.17178
# Poissons Ratio (z) = -0.04225 0.14993
#
# Static dielectric constant tensor:
#      x y z
#    x 5.062930 0.504300 -0.092010 
#    y 0.504300 5.429820 -0.480240 
#    z -0.092010 -0.480240 4.955100 
# 
# 
# High freq. dielectric constant tensor:
#      x y z
#    x 2.017060 0.003950 0.007850 
#    y 0.003950 2.054100 -0.015770 
#    z 0.007850 -0.015770 2.045610 
# 
# From -- ./inp_files/101032.got.cif
#   From: 2010.06.25/outbox.cif.g09.slc.cpg/sg2_51_cif.got.tgz:101032.got - 2010.06.27 13:26:56.
