data_PCOD8035964
_publ_section_title
;
Structure prediction by ZEFSAII (Michael W. Deem and Ramdas Pophale) SiO2 
 PCOD8035964
Probable space group: P -1
;
_chemical_formula_sum "Si O2"
_cell_formula_units_Z 16
_cell_length_a 9.436658
_cell_length_b 12.205590
_cell_length_c 13.572604
_cell_angle_alpha 133.008077
_cell_angle_beta 97.674859
_cell_angle_gamma 53.816978
_cell_volume 821.180252
_symmetry_space_group_name_H-M "P -1"
_symmetry_group_IT_number 2
_symmetry_cell_setting 'triclinic'
loop_
_space_group_symop_operation_xyz
x,y,z
-x,-y,-z
loop_
_atom_site_type_symbol
_atom_site_label
_atom_site_fract_x
_atom_site_fract_y
_atom_site_fract_z
Si Si1 0.796664 0.551497 0.900767
Si Si2 0.232757 0.235387 0.773050
Si Si3 0.774231 0.510781 0.215704
Si Si4 0.862916 0.473753 0.424396
Si Si5 0.771187 0.954972 0.829960
Si Si6 0.501242 0.121736 0.296589
Si Si7 0.542893 0.410920 0.058305
Si Si8 0.789735 0.851527 0.990596
O O1 0.653425 0.512772 0.862571
O O2 0.740415 0.707480 0.901974
O O3 0.018890 0.329353 0.776744
O O4 0.775235 0.664415 0.066041
O O5 0.317572 0.282535 0.725176
O O6 0.373907 0.991162 0.659246
O O7 0.820964 0.535561 0.343953
O O8 0.617524 0.489369 0.184363
O O9 0.977304 0.305872 0.056313
O O10 0.649742 0.627358 0.553928
O O11 0.000000 0.500000 0.500000
O O12 0.997185 0.226927 0.292720
O O13 0.629712 0.933888 0.756375
O O14 0.748314 0.952410 0.943372
O O15 0.709037 0.163044 0.916179
O O16 0.650843 0.041916 0.171175
O O17 0.500000 0.500000 0.000000
#
# Coordination Sequence:
#
# PCOD8035964 Si02
#       8
#     2   2   2   2   2   2   2   2
#     4   9  17  30  51  82 115 133 175 232 271 314
#     4   9  16  31  52  82 108 137 182 224 267 316
#     4  10  20  34  54  85 112 142 181 223 275 328
#     4   9  21  36  52  79 113 143 181 228 271 319
#     4  10  19  34  55  84 110 136 184 230 273 320
#     4  10  17  31  56  81 107 141 181 228 272 314
#     4  12  21  32  55  86 117 143 171 226 286 325
#     4   9  18  32  56  83 103 138 189 232 263 311
#
# _framework density 19.48415
#
# number of rings (size 3 to 8) (size 9 to 14) (size 15 to 20)
#    0.000    2.250    3.750    1.125    0.000    2.500 
#    0.000    0.000    0.000    3.750    0.000    0.000 
#    0.000    0.000    0.000    0.000    0.000    0.000 
#
# Total GULP energy -198228.760066 kJ/mol
# GULP energy per Si atom -12389.297504 kJ/mol
# Density = 1.943980 g / cm^3
# Si number density = 19.484150 Si / 1000 Ang^3
#
#
#
# Elastic Constant Matrix: (Units=GPa)
#
#
# Indices 1 2 3 4 5 6 
#
# 1 105.3024 28.4964 36.7107 7.1689 -3.3029 -3.2813
# 2 28.4964 120.5996 48.7600 19.1335 -4.4112 1.6726
# 3 36.7107 48.7600 77.0457 7.3247 -19.2737 -7.8774
# 4 7.1689 19.1335 7.3247 25.7532 -9.9418 -3.1244
# 5 -3.3029 -4.4112 -19.2737 -9.9418 29.2170 5.9618
# 6 -3.2813 1.6726 -7.8774 -3.1244 5.9618 24.4241
#
#
#
# Elastic Compliance Matrix: (Units=1/GPa)
#
#
# Indices 1 2 3 4 5 6 
#
# 1 0.011770 0.000139 -0.006376 -0.003068 -0.003914 0.000078
# 2 0.000139 0.013789 -0.010002 -0.010746 -0.007398 -0.003720
# 3 -0.006376 -0.010002 0.026313 0.008965 0.017099 0.005288
# 4 -0.003068 -0.010746 0.008965 0.053935 0.021294 0.004917
# 5 -0.003914 -0.007398 0.017099 0.021294 0.052111 -0.004500
# 6 0.000078 -0.003720 0.005288 0.004917 -0.004500 0.044642
#
#
# Mechanical properties :
#
#
# Convention : Reuss Voigt Hill
#
# Bulk Modulus (GPa) = 51.56179 58.98688 55.27434
# Shear Modulus (GPa) = 20.70373 28.47759 24.59066
#
# Velocity S-wave (km/s) = 3.26328 3.82721 3.55644
# Velocity P-wave (km/s) = 6.38119 7.06187 6.73014
#
# Compressibility (1/GPa) = 0.01939421
#
# Stress axis : x y z
#
# Youngs Moduli (GPa) = 84.96127 72.52169 38.00363
#
# Poissons Ratio (x) = -0.01009 0.24230
# Poissons Ratio (y) = -0.01182 0.38013
# Poissons Ratio (z) = 0.54169 0.72539
#
# Static dielectric constant tensor:
#      x y z
#    x 3.596320 -0.296850 -0.411160 
#    y -0.296850 3.931960 0.286560 
#    z -0.411160 0.286560 3.506010 
# 
# 
# High freq. dielectric constant tensor:
#      x y z
#    x 1.738220 -0.021130 -0.025760 
#    y -0.021130 1.776830 0.009880 
#    z -0.025760 0.009880 1.716250 
# 
# From -- ./inp_files/270305.got.cif
#   From: 2010.06.25/outbox.cif.g09.slc.cpg/sg2_136_cif.got.tgz:270305.got - 2010.06.27 13:26:56.
