data_PCOD8035099
_publ_section_title
;
Structure prediction by ZEFSAII (Michael W. Deem and Ramdas Pophale) SiO2 
 PCOD8035099
Probable space group: P -1
;
_chemical_formula_sum "Si O2"
_cell_formula_units_Z 16
_cell_length_a 18.133520
_cell_length_b 8.911862
_cell_length_c 12.452144
_cell_angle_alpha 145.530813
_cell_angle_beta 136.217092
_cell_angle_gamma 35.776145
_cell_volume 657.189103
_symmetry_space_group_name_H-M "P -1"
_symmetry_group_IT_number 2
_symmetry_cell_setting 'triclinic'
loop_
_space_group_symop_operation_xyz
x,y,z
-x,-y,-z
loop_
_atom_site_type_symbol
_atom_site_label
_atom_site_fract_x
_atom_site_fract_y
_atom_site_fract_z
Si Si1 0.377681 0.231288 0.932388
Si Si2 0.351834 0.352012 0.429216
Si Si3 0.085292 0.673960 0.964399
Si Si4 0.251005 0.566821 0.674200
Si Si5 0.625161 0.285906 0.937641
Si Si6 0.196330 0.766334 0.328621
Si Si7 0.613145 0.092169 0.462888
Si Si8 0.992559 0.771743 0.441455
O O1 0.234165 0.413072 0.937155
O O2 0.384480 0.519318 0.062633
O O3 0.392593 0.990183 0.714521
O O4 0.500000 0.000000 0.000000
O O5 0.294043 0.589106 0.611039
O O6 0.259037 0.465722 0.296041
O O7 0.474134 0.351019 0.517011
O O8 0.370542 0.018236 0.281985
O O9 0.005232 0.510924 0.784236
O O10 0.088590 0.771768 0.147563
O O11 0.000000 0.000000 0.000000
O O12 0.259942 0.792484 0.904688
O O13 0.341799 0.207438 0.593146
O O14 0.110025 0.641732 0.569395
O O15 0.500000 0.500000 0.000000
O O16 0.297464 0.770515 0.357342
O O17 0.130636 0.068360 0.516996
O O18 0.000000 0.000000 0.500000
#
# Coordination Sequence:
#
# PCOD8035099 Si02
#       8
#     2   2   2   2   2   2   2   2
#     4  11  25  48  76 109 150 196 252 311 377 448
#     4  12  25  47  73 114 148 193 248 304 387 445
#     4  12  30  49  78 112 151 203 255 312 382 453
#     4  11  26  45  74 102 150 189 245 306 372 450
#     4  11  26  44  74 109 147 193 242 313 374 448
#     4  12  28  46  79 106 151 195 255 309 368 458
#     4  11  24  48  70 111 145 196 241 309 371 450
#     4  12  28  51  73 109 150 200 249 312 378 444
#
# _framework density 24.346112999999999
#
# number of rings (size 3 to 8) (size 9 to 14) (size 15 to 20)
#    0.000    0.500    5.000    2.250    8.750    2.500 
#    0.000    0.000    0.000    0.000    0.000    0.000 
#    0.000    0.000    0.000    0.000    0.000    0.000 
#
# Total GULP energy -198316.332956 kJ/mol
# GULP energy per Si atom -12394.770810 kJ/mol
# Density = 2.429070 g / cm^3
# Si number density = 24.346113 Si / 1000 Ang^3
#
#
#
# Elastic Constant Matrix: (Units=GPa)
#
#
# Indices 1 2 3 4 5 6 
#
# 1 105.9392 30.0151 38.7548 -5.2504 2.4773 0.1640
# 2 30.0151 97.5502 40.4025 -27.5846 1.9693 -3.5896
# 3 38.7548 40.4025 128.3725 -12.4695 23.3203 18.5122
# 4 -5.2504 -27.5846 -12.4695 44.6542 4.3089 -0.0858
# 5 2.4773 1.9693 23.3203 4.3089 28.6844 -9.5147
# 6 0.1640 -3.5896 18.5122 -0.0858 -9.5147 33.6843
#
#
#
# Elastic Compliance Matrix: (Units=1/GPa)
#
#
# Indices 1 2 3 4 5 6 
#
# 1 0.011349 -0.002260 -0.003908 -0.001487 0.003519 0.002842
# 2 -0.002260 0.015157 -0.004818 0.007401 0.003734 0.005348
# 3 -0.003908 -0.004818 0.015949 0.002669 -0.017399 -0.014168
# 4 -0.001487 0.007401 0.002669 0.028277 -0.007719 -0.002780
# 5 0.003519 0.003734 -0.017399 -0.007719 0.058367 0.026410
# 6 0.002842 0.005348 -0.014168 -0.002780 0.026410 0.045482
#
#
# Mechanical properties :
#
#
# Convention : Reuss Voigt Hill
#
# Bulk Modulus (GPa) = 48.82613 61.13409 54.98011
# Shear Modulus (GPa) = 24.58431 36.25055 30.41743
#
# Velocity S-wave (km/s) = 3.18116 3.86290 3.53848
# Velocity P-wave (km/s) = 5.79582 6.71274 6.27106
#
# Compressibility (1/GPa) = 0.02048084
#
# Stress axis : x y z
#
# Youngs Moduli (GPa) = 88.11244 65.97788 62.69894
#
# Poissons Ratio (x) = 0.14913 0.24505
# Poissons Ratio (y) = 0.19916 0.30211
# Poissons Ratio (z) = 0.34437 0.31791
#
# Static dielectric constant tensor:
#      x y z
#    x 4.321400 -0.193200 0.103550 
#    y -0.193200 4.985330 -0.873150 
#    z 0.103550 -0.873150 5.753150 
# 
# 
# High freq. dielectric constant tensor:
#      x y z
#    x 1.970040 -0.000650 -0.002560 
#    y -0.000650 1.971930 -0.014610 
#    z -0.002560 -0.014610 1.977070 
# 
# From -- ./inp_files/462588.got.cif
#   From: 2010.06.25/outbox.cif.g09.slc.cpg/sg2_232_cif.got.tgz:462588.got - 2010.06.27 13:26:56.
