data_PCOD8035513
_publ_section_title
;
Structure prediction by ZEFSAII (Michael W. Deem and Ramdas Pophale) SiO2 
 PCOD8035513
Probable space group: P -1
;
_chemical_formula_sum "Si O2"
_cell_formula_units_Z 16
_cell_length_a 6.482921
_cell_length_b 19.946169
_cell_length_c 8.733682
_cell_angle_alpha 45.564311
_cell_angle_beta 57.277700
_cell_angle_gamma 72.759804
_cell_volume 672.058615
_symmetry_space_group_name_H-M "P -1"
_symmetry_group_IT_number 2
_symmetry_cell_setting 'triclinic'
loop_
_space_group_symop_operation_xyz
x,y,z
-x,-y,-z
loop_
_atom_site_type_symbol
_atom_site_label
_atom_site_fract_x
_atom_site_fract_y
_atom_site_fract_z
Si Si1 0.748011 0.943609 0.747554
Si Si2 0.491447 0.667275 0.092597
Si Si3 0.961828 0.358549 0.493600
Si Si4 0.709173 0.454039 0.905954
Si Si5 0.624723 0.134580 0.222651
Si Si6 0.600707 0.117838 0.607056
Si Si7 0.049349 0.695506 0.766183
Si Si8 0.854207 0.816888 0.162706
O O1 0.599414 0.922403 0.685121
O O2 0.632163 0.009731 0.817782
O O3 0.757723 0.841453 0.991815
O O4 0.000000 0.000000 0.500000
O O5 0.333865 0.657374 0.330024
O O6 0.394216 0.577926 0.167877
O O7 0.419439 0.758897 0.890799
O O8 0.785921 0.680169 0.984798
O O9 0.051844 0.467063 0.328640
O O10 0.004100 0.337415 0.333408
O O11 0.120950 0.293437 0.638614
O O12 0.500000 0.500000 0.000000
O O13 0.769071 0.365856 0.123334
O O14 0.647040 0.095978 0.444606
O O15 0.866975 0.127599 0.030752
O O16 0.329011 0.146438 0.698131
O O17 0.818950 0.195615 0.461558
#
# Coordination Sequence:
#
# PCOD8035513 Si02
#       8
#     2   2   2   2   2   2   2   2
#     4  12  26  48  74 106 142 191 239 295 357 424
#     4  11  25  45  72 105 144 189 236 292 360 416
#     4  11  26  47  73 106 144 190 238 295 355 425
#     4  12  24  49  73 105 147 187 241 292 355 426
#     4  11  25  49  70 105 144 186 236 295 355 423
#     4  12  25  46  74 104 144 192 236 295 359 415
#     4  12  26  48  72 106 146 187 236 295 354 422
#     4  11  27  48  69 106 145 182 240 299 346 430
#
# _framework density 23.807448999999998
#
# number of rings (size 3 to 8) (size 9 to 14) (size 15 to 20)
#    0.000    0.500    3.750    3.750    3.500    1.000 
#    2.250    0.000    0.000    0.000    0.000    0.000 
#    0.000    0.000    0.000    0.000    0.000    0.000 
#
# Total GULP energy -198293.710350 kJ/mol
# GULP energy per Si atom -12393.356897 kJ/mol
# Density = 2.375326 g / cm^3
# Si number density = 23.807449 Si / 1000 Ang^3
#
#
#
# Elastic Constant Matrix: (Units=GPa)
#
#
# Indices 1 2 3 4 5 6 
#
# 1 93.7619 34.1339 16.7297 6.1574 -22.2866 -3.5126
# 2 34.1339 112.3524 27.7560 4.9036 -18.9639 -3.5300
# 3 16.7297 27.7560 62.4344 21.7011 -16.4459 -0.3560
# 4 6.1574 4.9036 21.7011 30.6978 -14.1969 -15.3344
# 5 -22.2866 -18.9639 -16.4459 -14.1969 42.5165 0.0598
# 6 -3.5126 -3.5300 -0.3560 -15.3344 0.0598 42.8000
#
#
#
# Elastic Compliance Matrix: (Units=1/GPa)
#
#
# Indices 1 2 3 4 5 6 
#
# 1 0.013250 -0.002656 -0.001696 0.002622 0.005978 0.001785
# 2 -0.002656 0.011450 -0.005317 0.005349 0.003441 0.002594
# 3 -0.001696 -0.005317 0.026175 -0.021473 -0.000295 -0.008053
# 4 0.002622 0.005349 -0.021473 0.066731 0.017703 0.024362
# 5 0.005978 0.003441 -0.000295 0.017703 0.033976 0.007067
# 6 0.001785 0.002594 -0.008053 0.024362 0.007067 0.032376
#
#
# Mechanical properties :
#
#
# Convention : Reuss Voigt Hill
#
# Bulk Modulus (GPa) = 31.70829 47.30980 39.50904
# Shear Modulus (GPa) = 23.38533 35.86482 29.62508
#
# Velocity S-wave (km/s) = 3.13752 3.88552 3.53138
# Velocity P-wave (km/s) = 5.14518 6.32808 5.76704
#
# Compressibility (1/GPa) = 0.03153749
#
# Stress axis : x y z
#
# Youngs Moduli (GPa) = 75.46897 87.33864 38.20416
#
# Poissons Ratio (x) = 0.23196 0.06481
# Poissons Ratio (y) = 0.20044 0.20312
# Poissons Ratio (z) = 0.12803 0.46434
#
# Static dielectric constant tensor:
#      x y z
#    x 4.191730 -0.296400 -0.074830 
#    y -0.296400 4.629380 -0.296480 
#    z -0.074830 -0.296480 4.656290 
# 
# 
# High freq. dielectric constant tensor:
#      x y z
#    x 1.938360 -0.019400 -0.007620 
#    y -0.019400 1.954130 -0.004790 
#    z -0.007620 -0.004790 1.956390 
# 
# From -- ./inp_files/141106.got.cif
#   From: 2010.06.25/outbox.cif.g09.slc.cpg/sg2_71_cif.got.tgz:141106.got - 2010.06.27 13:26:56.
