data_PCOD8035791
_publ_section_title
;
Structure prediction by ZEFSAII (Michael W. Deem and Ramdas Pophale) SiO2 
 PCOD8035791
Probable space group: P -1
;
_chemical_formula_sum "Si O2"
_cell_formula_units_Z 14
_cell_length_a 12.517683
_cell_length_b 9.724586
_cell_length_c 8.289633
_cell_angle_alpha 68.610631
_cell_angle_beta 115.195506
_cell_angle_gamma 65.869190
_cell_volume 631.535782
_symmetry_space_group_name_H-M "P -1"
_symmetry_group_IT_number 2
_symmetry_cell_setting 'triclinic'
loop_
_space_group_symop_operation_xyz
x,y,z
-x,-y,-z
loop_
_atom_site_type_symbol
_atom_site_label
_atom_site_fract_x
_atom_site_fract_y
_atom_site_fract_z
Si Si1 0.907323 0.967954 0.844067
Si Si2 0.077910 0.574630 0.944049
Si Si3 0.257462 0.689730 0.659001
Si Si4 0.586231 0.823445 0.769300
Si Si5 0.433762 0.733548 0.965889
Si Si6 0.001746 0.659482 0.510087
Si Si7 0.717097 0.974582 0.981832
O O1 0.041772 0.742673 0.963971
O O2 0.826198 0.122169 0.584464
O O3 0.761772 0.015582 0.826074
O O4 0.000000 0.000000 0.000000
O O5 0.969708 0.679187 0.670047
O O6 0.268220 0.392514 0.122483
O O7 0.000000 0.500000 0.000000
O O8 0.277736 0.763143 0.810489
O O9 0.166761 0.610202 0.632661
O O10 0.433238 0.497139 0.802033
O O11 0.471031 0.806595 0.799863
O O12 0.500000 0.000000 0.500000
O O13 0.660154 0.859866 0.945158
O O14 0.418511 0.835568 0.079603
O O15 0.000000 0.500000 0.500000
O O16 0.867516 0.860256 0.245369
#
# Coordination Sequence:
#
# PCOD8035791 Si02
#       7
#     2   2   2   2   2   2   2
#     4  12  26  43  71 108 143 183 241 298 357 417
#     4  12  26  47  75 106 142 187 241 301 358 423
#     4  11  25  47  70 104 145 192 236 298 364 427
#     4  12  26  48  72 104 148 187 240 296 369 430
#     4  11  26  46  70 103 147 190 239 290 369 434
#     4  12  23  45  76 103 141 182 248 301 351 422
#     4  12  25  45  71 106 140 188 246 295 355 430
#
# _framework density 22.168182000000002
#
# number of rings (size 3 to 8) (size 9 to 14) (size 15 to 20)
#    0.000    0.286    5.714    2.143    4.000    2.857 
#    0.000    0.000    0.000    0.000    0.000    0.000 
#    0.000    0.000    0.000    0.000    0.000    0.000 
#
# Total GULP energy -173439.157156 kJ/mol
# GULP energy per Si atom -12388.511225 kJ/mol
# Density = 2.211773 g / cm^3
# Si number density = 22.168182 Si / 1000 Ang^3
#
#
#
# Elastic Constant Matrix: (Units=GPa)
#
#
# Indices 1 2 3 4 5 6 
#
# 1 87.2235 56.7594 16.3851 1.4482 7.1918 6.8769
# 2 56.7594 184.9040 46.1322 0.6487 3.3072 1.6432
# 3 16.3851 46.1322 96.5313 -3.2333 8.4357 5.0677
# 4 1.4482 0.6487 -3.2333 36.8159 11.8801 4.1733
# 5 7.1918 3.3072 8.4357 11.8801 28.9900 9.5665
# 6 6.8769 1.6432 5.0677 4.1733 9.5665 40.5650
#
#
#
# Elastic Compliance Matrix: (Units=1/GPa)
#
#
# Indices 1 2 3 4 5 6 
#
# 1 0.014722 -0.004452 -0.000015 0.000603 -0.002823 -0.001710
# 2 -0.004452 0.007495 -0.002985 -0.000673 0.001192 0.000612
# 3 -0.000015 -0.002985 0.012261 0.002507 -0.004013 -0.000720
# 4 0.000603 -0.000673 0.002507 0.031843 -0.013709 -0.000431
# 5 -0.002823 0.001192 -0.004013 -0.013709 0.044538 -0.008161
# 6 -0.001710 0.000612 -0.000720 -0.000431 -0.008161 0.026976
#
#
# Mechanical properties :
#
#
# Convention : Reuss Voigt Hill
#
# Bulk Modulus (GPa) = 51.08639 67.46803 59.27721
# Shear Modulus (GPa) = 31.39445 37.89964 34.64705
#
# Velocity S-wave (km/s) = 3.76732 4.13927 3.95766
# Velocity P-wave (km/s) = 6.48217 7.30379 6.90521
#
# Compressibility (1/GPa) = 0.01957469
#
# Stress axis : x y z
#
# Youngs Moduli (GPa) = 67.92465 133.41890 81.56034
#
# Poissons Ratio (x) = 0.59398 0.00120
# Poissons Ratio (y) = 0.30240 0.24347
# Poissons Ratio (z) = 0.00100 0.39827
#
# Static dielectric constant tensor:
#      x y z
#    x 4.117450 0.317320 -0.109270 
#    y 0.317320 4.134610 0.008140 
#    z -0.109270 0.008140 4.213000 
# 
# 
# High freq. dielectric constant tensor:
#      x y z
#    x 1.873050 0.017960 -0.002840 
#    y 0.017960 1.888030 0.002280 
#    z -0.002840 0.002280 1.883390 
# 
# From -- ./inp_files/242477.got.cif
#   From: 2010.06.25/outbox.cif.g09.slc.cpg/sg2_122_cif.got.tgz:242477.got - 2010.06.27 13:26:56.
