data_PCOD8035898
_publ_section_title
;
Structure prediction by ZEFSAII (Michael W. Deem and Ramdas Pophale) SiO2 
 PCOD8035898
Probable space group: P -1
;
_chemical_formula_sum "Si O2"
_cell_formula_units_Z 14
_cell_length_a 9.245798
_cell_length_b 11.600495
_cell_length_c 11.825385
_cell_angle_alpha 131.301547
_cell_angle_beta 55.666126
_cell_angle_gamma 140.888131
_cell_volume 597.469986
_symmetry_space_group_name_H-M "P -1"
_symmetry_group_IT_number 2
_symmetry_cell_setting 'triclinic'
loop_
_space_group_symop_operation_xyz
x,y,z
-x,-y,-z
loop_
_atom_site_type_symbol
_atom_site_label
_atom_site_fract_x
_atom_site_fract_y
_atom_site_fract_z
Si Si1 0.546190 0.599572 0.343541
Si Si2 0.011258 0.749239 0.321237
Si Si3 0.729904 0.378413 0.350562
Si Si4 0.854930 0.121453 0.212909
Si Si5 0.313343 0.021462 0.570400
Si Si6 0.285076 0.187272 0.090239
Si Si7 0.669464 0.990752 0.847017
O O1 0.785362 0.725403 0.388621
O O2 0.328599 0.517281 0.468053
O O3 0.563089 0.743441 0.336546
O O4 0.505437 0.414254 0.177143
O O5 0.922356 0.537561 0.276590
O O6 0.146887 0.808382 0.179936
O O7 0.185829 0.925838 0.446192
O O8 0.828792 0.286944 0.312323
O O9 0.485244 0.204155 0.289961
O O10 0.105706 0.201813 0.118539
O O11 0.860835 0.085275 0.318689
O O12 0.659729 0.913693 0.094037
O O13 0.500000 0.000000 0.500000
O O14 0.193317 0.041299 0.146824
O O15 0.500000 0.000000 0.000000
#
# Coordination Sequence:
#
# PCOD8035898 Si02
#       7
#     2   2   2   2   2   2   2
#     4  12  25  46  75 114 142 193 249 305 357 439
#     4  12  27  44  77 113 143 194 246 305 370 420
#     4  12  25  46  76 108 148 191 248 295 366 438
#     4  11  25  48  68 106 150 201 230 302 372 430
#     4  12  25  44  72 105 148 189 241 301 360 437
#     4  11  26  46  73 102 153 188 243 305 362 431
#     4  12  25  50  73 105 150 190 245 311 359 433
#
# _framework density 23.432138999999999
#
# number of rings (size 3 to 8) (size 9 to 14) (size 15 to 20)
#    0.000    0.286    5.714    2.571    4.000    2.286 
#    0.000    0.000    0.000    0.000    0.000    0.000 
#    0.000    0.000    0.000    0.000    0.000    0.000 
#
# Total GULP energy -173529.348888 kJ/mol
# GULP energy per Si atom -12394.953492 kJ/mol
# Density = 2.337881 g / cm^3
# Si number density = 23.432139 Si / 1000 Ang^3
#
#
#
# Elastic Constant Matrix: (Units=GPa)
#
#
# Indices 1 2 3 4 5 6 
#
# 1 133.0289 45.8638 41.2517 0.0648 1.8096 -16.7136
# 2 45.8638 133.1870 49.3928 -11.1612 -5.3809 -23.5613
# 3 41.2517 49.3928 87.5149 -4.9349 -3.8787 -9.8233
# 4 0.0648 -11.1612 -4.9349 33.3659 -0.3196 5.7939
# 5 1.8096 -5.3809 -3.8787 -0.3196 30.6904 0.9334
# 6 -16.7136 -23.5613 -9.8233 5.7939 0.9334 41.3551
#
#
#
# Elastic Compliance Matrix: (Units=1/GPa)
#
#
# Indices 1 2 3 4 5 6 
#
# 1 0.009480 -0.001811 -0.003341 -0.001522 -0.001383 0.002250
# 2 -0.001811 0.010783 -0.004601 0.002253 0.001318 0.003973
# 3 -0.003341 -0.004601 0.015663 0.000868 0.001391 -0.000404
# 4 -0.001522 0.002253 0.000868 0.031484 0.001031 -0.003560
# 5 -0.001383 0.001318 0.001391 0.001031 0.033094 -0.000369
# 6 0.002250 0.003973 -0.000404 -0.003560 -0.000369 0.027765
#
#
# Mechanical properties :
#
#
# Convention : Reuss Voigt Hill
#
# Bulk Modulus (GPa) = 60.89775 69.63858 65.26817
# Shear Modulus (GPa) = 32.62691 35.56379 34.09535
#
# Velocity S-wave (km/s) = 3.73554 3.90004 3.81867
# Velocity P-wave (km/s) = 6.68214 7.07560 6.88169
#
# Compressibility (1/GPa) = 0.01642097
#
# Stress axis : x y z
#
# Youngs Moduli (GPa) = 105.48780 92.73883 63.84301
#
# Poissons Ratio (x) = 0.16792 0.21330
# Poissons Ratio (y) = 0.19101 0.29373
# Poissons Ratio (z) = 0.35244 0.42668
#
# Static dielectric constant tensor:
#      x y z
#    x 4.428000 -0.335540 0.289900 
#    y -0.335540 4.392070 -0.213980 
#    z 0.289900 -0.213980 4.596430 
# 
# 
# High freq. dielectric constant tensor:
#      x y z
#    x 1.949600 -0.013840 0.004560 
#    y -0.013840 1.912810 0.004430 
#    z 0.004560 0.004430 1.920080 
# 
# From -- ./inp_files/393047.got.cif
#   From: 2010.06.25/outbox.cif.g09.slc.cpg/sg2_197_cif.got.tgz:393047.got - 2010.06.27 13:26:56.
