data_PCOD8035336
_publ_section_title
;
Structure prediction by ZEFSAII (Michael W. Deem and Ramdas Pophale) SiO2 
 PCOD8035336
Probable space group: P -1
;
_chemical_formula_sum "Si O2"
_cell_formula_units_Z 14
_cell_length_a 19.780016
_cell_length_b 9.965592
_cell_length_c 5.066833
_cell_angle_alpha 86.638818
_cell_angle_beta 83.475408
_cell_angle_gamma 36.539556
_cell_volume 589.893526
_symmetry_space_group_name_H-M "P -1"
_symmetry_group_IT_number 2
_symmetry_cell_setting 'triclinic'
loop_
_space_group_symop_operation_xyz
x,y,z
-x,-y,-z
loop_
_atom_site_type_symbol
_atom_site_label
_atom_site_fract_x
_atom_site_fract_y
_atom_site_fract_z
Si Si1 0.592978 0.325811 0.191954
Si Si2 0.115443 0.282364 0.320629
Si Si3 0.159307 0.062828 0.827366
Si Si4 0.076139 0.908723 0.729848
Si Si5 0.695878 0.628622 0.335217
Si Si6 0.306317 0.183868 0.186067
Si Si7 0.500785 0.267574 0.582038
O O1 0.582850 0.187035 0.316179
O O2 0.574952 0.477393 0.384977
O O3 0.720804 0.145132 0.046938
O O4 0.500000 0.500000 0.000000
O O5 0.188904 0.099868 0.545111
O O6 0.188333 0.291498 0.173191
O O7 0.000000 0.500000 0.500000
O O8 0.081500 0.248643 0.077160
O O9 0.103627 0.020872 0.730666
O O10 0.191655 0.640042 0.707002
O O11 0.000000 0.000000 0.500000
O O12 0.000000 0.000000 0.000000
O O13 0.710892 0.714445 0.541809
O O14 0.585167 0.716137 0.451719
O O15 0.672206 0.741148 0.058240
O O16 0.416278 0.909361 0.192394
#
# Coordination Sequence:
#
# PCOD8035336 Si02
#       7
#     2   2   2   2   2   2   2
#     4  11  25  43  80 107 151 190 250 315 370 443
#     4  12  28  48  78 109 149 195 253 304 375 444
#     4  12  26  51  77 110 146 196 248 316 370 435
#     4  12  28  49  77 108 148 194 255 308 371 441
#     4  12  28  47  74 107 150 200 244 304 374 451
#     4  12  27  47  74 106 155 195 246 302 376 447
#     4  11  25  47  69 112 143 198 248 305 374 448
#
# _framework density 23.733097999999998
#
# number of rings (size 3 to 8) (size 9 to 14) (size 15 to 20)
#    0.000    0.286    2.857    4.714   12.000    1.143 
#    0.000    0.000    0.000    0.000    0.000    0.000 
#    0.000    0.000    0.000    0.000    0.000    0.000 
#
# Total GULP energy -173503.239979 kJ/mol
# GULP energy per Si atom -12393.088570 kJ/mol
# Density = 2.367908 g / cm^3
# Si number density = 23.733098 Si / 1000 Ang^3
#
#
#
# Elastic Constant Matrix: (Units=GPa)
#
#
# Indices 1 2 3 4 5 6 
#
# 1 160.2420 60.0245 50.7082 -5.6051 -5.8604 -12.1681
# 2 60.0245 98.9252 28.1125 -1.9296 -2.1925 4.3598
# 3 50.7082 28.1125 131.5825 -5.3744 8.7007 7.2555
# 4 -5.6051 -1.9296 -5.3744 35.3213 -4.1354 -2.2867
# 5 -5.8604 -2.1925 8.7007 -4.1354 32.7368 -3.5856
# 6 -12.1681 4.3598 7.2555 -2.2867 -3.5856 30.6236
#
#
#
# Elastic Compliance Matrix: (Units=1/GPa)
#
#
# Indices 1 2 3 4 5 6 
#
# 1 0.009791 -0.005213 -0.003122 0.001531 0.003067 0.005846
# 2 -0.005213 0.013622 -0.000683 -0.000480 -0.000330 -0.003924
# 3 -0.003122 -0.000683 0.009396 0.000246 -0.003483 -0.003759
# 4 0.001531 -0.000480 0.000246 0.029275 0.004236 0.003301
# 5 0.003067 -0.000330 -0.003483 0.004236 0.033224 0.006297
# 6 0.005846 -0.003924 -0.003759 0.003301 0.006297 0.037410
#
#
# Mechanical properties :
#
#
# Convention : Reuss Voigt Hill
#
# Bulk Modulus (GPa) = 67.68890 74.27111 70.98001
# Shear Modulus (GPa) = 32.11717 36.52998 34.32357
#
# Velocity S-wave (km/s) = 3.68267 3.92752 3.80706
# Velocity P-wave (km/s) = 6.83122 7.20621 7.02122
#
# Compressibility (1/GPa) = 0.01477347
#
# Stress axis : x y z
#
# Youngs Moduli (GPa) = 102.13445 73.40926 106.42437
#
# Poissons Ratio (x) = 0.38272 0.33225
# Poissons Ratio (y) = 0.53247 0.07266
# Poissons Ratio (z) = 0.31886 0.05012
#
# Static dielectric constant tensor:
#      x y z
#    x 4.105690 -0.236090 -0.322780 
#    y -0.236090 5.053020 -1.469280 
#    z -0.322780 -1.469280 5.363520 
# 
# 
# High freq. dielectric constant tensor:
#      x y z
#    x 1.955160 -0.000170 -0.000790 
#    y -0.000170 1.954260 0.001530 
#    z -0.000790 0.001530 1.947640 
# 
# From -- ./inp_files/106671.got.cif
#   From: 2010.06.25/outbox.cif.g09.slc.cpg/sg2_54_cif.got.tgz:106671.got - 2010.06.27 13:26:56.
