data_PCOD8035217
_publ_section_title
;
Structure prediction by ZEFSAII (Michael W. Deem and Ramdas Pophale) SiO2 
 PCOD8035217
Probable space group: P -1
;
_chemical_formula_sum "Si O2"
_cell_formula_units_Z 14
_cell_length_a 11.463329
_cell_length_b 9.388065
_cell_length_c 20.685153
_cell_angle_alpha 27.497529
_cell_angle_beta 140.836049
_cell_angle_gamma 139.353917
_cell_volume 629.574380
_symmetry_space_group_name_H-M "P -1"
_symmetry_group_IT_number 2
_symmetry_cell_setting 'triclinic'
loop_
_space_group_symop_operation_xyz
x,y,z
-x,-y,-z
loop_
_atom_site_type_symbol
_atom_site_label
_atom_site_fract_x
_atom_site_fract_y
_atom_site_fract_z
Si Si1 0.120578 0.708086 0.383698
Si Si2 0.537155 0.160200 0.167557
Si Si3 0.746128 0.908386 0.593018
Si Si4 0.548624 0.879488 0.709053
Si Si5 0.415139 0.761093 0.155364
Si Si6 0.919373 0.981921 0.400789
Si Si7 0.300458 0.226438 0.829416
O O1 0.168673 0.382872 0.511801
O O2 0.895387 0.668632 0.295612
O O3 0.181181 0.780274 0.455682
O O4 0.233151 0.994838 0.270650
O O5 0.464177 0.024607 0.260792
O O6 0.418283 0.905273 0.169607
O O7 0.761301 0.183209 0.248670
O O8 0.500000 0.500000 0.000000
O O9 0.675336 0.614347 0.729263
O O10 0.573535 0.946389 0.459241
O O11 0.915481 0.850576 0.644818
O O12 0.470880 0.499993 0.823459
O O13 0.630342 0.831978 0.189810
O O14 0.281041 0.910967 0.990819
O O15 0.000000 0.000000 0.500000
#
# Coordination Sequence:
#
# PCOD8035217 Si02
#       7
#     2   2   2   2   2   2   2
#     4  12  26  44  79 105 142 191 240 302 366 417
#     4  12  26  47  70 102 150 200 230 297 374 422
#     4  12  25  45  74 110 141 185 250 297 359 431
#     4  12  25  46  72 105 147 185 243 302 352 431
#     4  11  26  45  74 105 149 190 240 298 366 427
#     4  12  26  45  72 108 145 189 242 299 358 427
#     4  11  24  50  71 108 147 185 241 306 350 438
#
# _framework density 22.237244
#
# number of rings (size 3 to 8) (size 9 to 14) (size 15 to 20)
#    0.000    0.286    5.714    2.571    4.000    2.857 
#    0.000    1.429    0.000    0.000    0.000    0.000 
#    0.000    0.000    0.000    0.000    0.000    0.000 
#
# Total GULP energy -173682.519815 kJ/mol
# GULP energy per Si atom -12405.894272 kJ/mol
# Density = 2.218663 g / cm^3
# Si number density = 22.237244 Si / 1000 Ang^3
#
#
#
# Elastic Constant Matrix: (Units=GPa)
#
#
# Indices 1 2 3 4 5 6 
#
# 1 135.4102 43.7565 41.8253 14.0238 -3.7658 -10.9697
# 2 43.7565 103.4633 36.8124 -2.4441 -4.8197 -14.7906
# 3 41.8253 36.8124 131.6229 -7.3442 1.3223 -1.0939
# 4 14.0238 -2.4441 -7.3442 25.1777 -0.3498 -1.6639
# 5 -3.7658 -4.8197 1.3223 -0.3498 43.1475 2.5731
# 6 -10.9697 -14.7906 -1.0939 -1.6639 2.5731 45.8086
#
#
#
# Elastic Compliance Matrix: (Units=1/GPa)
#
#
# Indices 1 2 3 4 5 6 
#
# 1 0.010045 -0.003301 -0.002634 -0.006610 0.000475 0.001010
# 2 -0.003301 0.012435 -0.002267 0.002610 0.001000 0.003209
# 3 -0.002634 -0.002267 0.009284 0.003882 -0.000679 -0.000962
# 4 -0.006610 0.002610 0.003882 0.044849 -0.000100 0.000987
# 5 0.000475 0.001000 -0.000679 -0.000100 0.023403 -0.000898
# 6 0.001010 0.003209 -0.000962 0.000987 -0.000898 0.023171
#
#
# Mechanical properties :
#
#
# Convention : Reuss Voigt Hill
#
# Bulk Modulus (GPa) = 65.10086 68.36498 66.73292
# Shear Modulus (GPa) = 34.55209 39.36691 36.95950
#
# Velocity S-wave (km/s) = 3.94610 4.21207 4.08125
# Velocity P-wave (km/s) = 7.07823 7.38008 7.23073
#
# Compressibility (1/GPa) = 0.01536078
#
# Stress axis : x y z
#
# Youngs Moduli (GPa) = 99.55501 80.42072 107.71432
#
# Poissons Ratio (x) = 0.26543 0.28372
# Poissons Ratio (y) = 0.32859 0.24415
# Poissons Ratio (z) = 0.26222 0.18229
#
# Static dielectric constant tensor:
#      x y z
#    x 4.304930 -0.149010 -0.032760 
#    y -0.149010 4.006900 -0.075580 
#    z -0.032760 -0.075580 3.929200 
# 
# 
# High freq. dielectric constant tensor:
#      x y z
#    x 1.896020 -0.012260 -0.005390 
#    y -0.012260 1.871190 -0.002900 
#    z -0.005390 -0.002900 1.874870 
# 
# From -- ./inp_files/593367.got.cif
#   From: 2010.06.25/outbox.cif.g09.slc.cpg/sg2_297_cif.got.tgz:593367.got - 2010.06.27 13:26:56.
