data_PCOD8035740
_publ_section_title
;
Structure prediction by ZEFSAII (Michael W. Deem and Ramdas Pophale) SiO2 
 PCOD8035740
Probable space group: P -1
;
_chemical_formula_sum "Si O2"
_cell_formula_units_Z 10
_cell_length_a 8.250422
_cell_length_b 5.908020
_cell_length_c 10.937623
_cell_angle_alpha 58.354272
_cell_angle_beta 119.268302
_cell_angle_gamma 95.201632
_cell_volume 385.926261
_symmetry_space_group_name_H-M "P -1"
_symmetry_group_IT_number 2
_symmetry_cell_setting 'triclinic'
loop_
_space_group_symop_operation_xyz
x,y,z
-x,-y,-z
loop_
_atom_site_type_symbol
_atom_site_label
_atom_site_fract_x
_atom_site_fract_y
_atom_site_fract_z
Si Si1 0.179234 0.130955 0.046943
Si Si2 0.199209 0.606699 0.754605
Si Si3 0.162805 0.215781 0.544369
Si Si4 0.695800 0.799109 0.657620
Si Si5 0.494800 0.665357 0.228362
O O1 0.216663 0.124124 0.206364
O O2 0.366160 0.971397 0.085409
O O3 0.138011 0.440897 0.893304
O O4 0.000000 0.000000 0.000000
O O5 0.413131 0.458428 0.831239
O O6 0.056203 0.601392 0.584506
O O7 0.193147 0.918863 0.704464
O O8 0.165327 0.169691 0.410655
O O9 0.330102 0.358130 0.605553
O O10 0.656782 0.498018 0.732153
O O11 0.500000 0.000000 0.500000
#
# Coordination Sequence:
#
# PCOD8035740 Si02
#       5
#     2   2   2   2   2
#     4  12  29  47  72 107 145 185 238 296 355 415
#     4  11  26  45  70 108 144 186 237 291 353 419
#     4  11  25  46  75 104 147 186 237 288 355 424
#     4  12  25  47  73 104 141 189 238 286 350 425
#     4  12  24  45  76 102 144 189 234 289 357 421
#
# _framework density 25.911684000000001
#
# number of rings (size 3 to 8) (size 9 to 14) (size 15 to 20)
#    0.000    0.400    4.000    3.000    2.800   11.200 
#    0.000    0.000    0.000    0.000    0.000    0.000 
#    0.000    0.000    0.000    0.000    0.000    0.000 
#
# Total GULP energy -123978.121258 kJ/mol
# GULP energy per Si atom -12397.812126 kJ/mol
# Density = 2.585271 g / cm^3
# Si number density = 25.911684 Si / 1000 Ang^3
#
#
#
# Elastic Constant Matrix: (Units=GPa)
#
#
# Indices 1 2 3 4 5 6 
#
# 1 94.5600 13.0013 27.5481 -2.2332 2.2079 12.0815
# 2 13.0013 71.5551 35.9070 14.3234 -0.9969 29.8630
# 3 27.5481 35.9070 127.0919 -7.1348 -6.1445 4.7606
# 4 -2.2332 14.3234 -7.1348 44.4653 6.8111 5.7765
# 5 2.2079 -0.9969 -6.1445 6.8111 49.6639 -6.2797
# 6 12.0815 29.8630 4.7606 5.7765 -6.2797 39.2112
#
#
#
# Elastic Compliance Matrix: (Units=1/GPa)
#
#
# Indices 1 2 3 4 5 6 
#
# 1 0.011839 0.000819 -0.002670 0.000685 -0.001476 -0.004285
# 2 0.000819 0.027031 -0.007586 -0.007104 -0.001882 -0.019173
# 3 -0.002670 -0.007586 0.010648 0.003128 0.001498 0.005087
# 4 0.000685 -0.007104 0.003128 0.025747 -0.003253 0.000506
# 5 -0.001476 -0.001882 0.001498 -0.003253 0.021507 0.005630
# 6 -0.004285 -0.019173 0.005087 0.000506 0.005630 0.041634
#
#
# Mechanical properties :
#
#
# Convention : Reuss Voigt Hill
#
# Bulk Modulus (GPa) = 32.63350 49.56887 41.10118
# Shear Modulus (GPa) = 29.85201 41.11811 35.48506
#
# Velocity S-wave (km/s) = 3.39789 3.98786 3.70464
# Velocity P-wave (km/s) = 5.29299 6.35417 5.84770
#
# Compressibility (1/GPa) = 0.03064336
#
# Stress axis : x y z
#
# Youngs Moduli (GPa) = 84.46967 36.99508 93.91559
#
# Poissons Ratio (x) = -0.03031 0.25075
# Poissons Ratio (y) = -0.06921 0.71246
# Poissons Ratio (z) = 0.22553 0.28065
#
# Static dielectric constant tensor:
#      x y z
#    x 7.962530 2.147060 -0.871060 
#    y 2.147060 5.196040 -0.858240 
#    z -0.871060 -0.858240 5.138790 
# 
# 
# High freq. dielectric constant tensor:
#      x y z
#    x 2.056770 0.007470 0.020320 
#    y 0.007470 2.030390 -0.010760 
#    z 0.020320 -0.010760 2.040560 
# 
# From -- ./inp_files/16105.got.cif
#   From: 2010.06.25/outbox.cif.g09.slc.cpg/sg2_9_cif.got.tgz:16105.got - 2010.06.27 13:26:56.
