data_PCOD8035892
_publ_section_title
;
Structure prediction by ZEFSAII (Michael W. Deem and Ramdas Pophale) SiO2 
 PCOD8035892
Probable space group: P -1
;
_chemical_formula_sum "Si O2"
_cell_formula_units_Z 16
_cell_length_a 20.432645
_cell_length_b 9.175382
_cell_length_c 14.851827
_cell_angle_alpha 48.298339
_cell_angle_beta 159.384040
_cell_angle_gamma 132.617655
_cell_volume 716.100978
_symmetry_space_group_name_H-M "P -1"
_symmetry_group_IT_number 2
_symmetry_cell_setting 'triclinic'
loop_
_space_group_symop_operation_xyz
x,y,z
-x,-y,-z
loop_
_atom_site_type_symbol
_atom_site_label
_atom_site_fract_x
_atom_site_fract_y
_atom_site_fract_z
Si Si1 0.746047 0.146537 0.124327
Si Si2 0.925100 0.277049 0.024085
Si Si3 0.529548 0.337657 0.533265
Si Si4 0.453739 0.562786 0.815335
Si Si5 0.686454 0.561096 0.944456
Si Si6 0.024196 0.048147 0.905952
Si Si7 0.132637 0.206699 0.487206
Si Si8 0.388503 0.984397 0.604341
O O1 0.741032 0.348699 0.087332
O O2 0.936916 0.179872 0.299425
O O3 0.755181 0.970714 0.279340
O O4 0.557124 0.078879 0.850058
O O5 0.081059 0.206330 0.316235
O O6 0.732797 0.278951 0.829797
O O7 0.886433 0.126179 0.952286
O O8 0.000000 0.500000 0.000000
O O9 0.500000 0.500000 0.500000
O O10 0.379586 0.134988 0.447155
O O11 0.498477 0.418113 0.360769
O O12 0.267198 0.415393 0.600154
O O13 0.416288 0.782268 0.678634
O O14 0.500000 0.500000 0.000000
O O15 0.634606 0.570911 0.978860
O O16 0.855889 0.735547 0.056529
O O17 0.814661 0.045644 0.595841
O O18 0.000000 0.000000 0.000000
#
# Coordination Sequence:
#
# PCOD8035892 Si02
#       8
#     2   2   2   2   2   2   2   2
#     4  11  25  47  79 105 144 199 249 305 367 459
#     4  12  27  43  74 110 147 197 249 306 379 446
#     4  12  23  43  76 110 149 188 251 309 373 446
#     4  12  28  48  74 107 149 193 250 312 371 442
#     4  12  27  46  76 112 148 198 249 306 382 443
#     4  12  29  46  71 113 157 194 247 313 378 443
#     4  11  25  48  76 106 146 193 253 305 377 443
#     4  12  24  46  74 103 153 193 244 310 370 438
#
# _framework density 22.343216999999999
#
# number of rings (size 3 to 8) (size 9 to 14) (size 15 to 20)
#    0.000    0.250    5.000    3.000    7.000    2.500 
#    0.000    1.875    0.000    0.000    0.000    0.000 
#    0.000    0.000    0.000    0.000    0.000    0.000 
#
# Total GULP energy -198417.139641 kJ/mol
# GULP energy per Si atom -12401.071228 kJ/mol
# Density = 2.229236 g / cm^3
# Si number density = 22.343217 Si / 1000 Ang^3
#
#
#
# Elastic Constant Matrix: (Units=GPa)
#
#
# Indices 1 2 3 4 5 6 
#
# 1 136.7079 68.0587 57.2346 -4.4707 -6.6922 -3.8413
# 2 68.0587 193.0431 44.7943 -15.1829 12.8822 -10.6276
# 3 57.2346 44.7943 98.0360 -3.2497 14.4492 -0.5856
# 4 -4.4707 -15.1829 -3.2497 45.6361 8.8108 8.3623
# 5 -6.6922 12.8822 14.4492 8.8108 34.6581 -6.0144
# 6 -3.8413 -10.6276 -0.5856 8.3623 -6.0144 39.3793
#
#
#
# Elastic Compliance Matrix: (Units=1/GPa)
#
#
# Indices 1 2 3 4 5 6 
#
# 1 0.012051 -0.003246 -0.006662 -0.002069 0.007137 0.001730
# 2 -0.003246 0.006939 -0.000675 0.002528 -0.003484 0.000477
# 3 -0.006662 -0.000675 0.015730 0.002347 -0.008609 -0.002411
# 4 -0.002069 0.002528 0.002347 0.025843 -0.010016 -0.006502
# 5 0.007137 -0.003484 -0.008609 -0.010016 0.039000 0.007711
# 6 0.001730 0.000477 -0.002411 -0.006502 0.007711 0.028214
#
#
# Mechanical properties :
#
#
# Convention : Reuss Voigt Hill
#
# Bulk Modulus (GPa) = 73.78528 85.32912 79.55720
# Shear Modulus (GPa) = 32.58145 41.11464 36.84804
#
# Velocity S-wave (km/s) = 3.82281 4.29434 4.06542
# Velocity P-wave (km/s) = 7.25124 7.92853 7.59743
#
# Compressibility (1/GPa) = 0.01355284
#
# Stress axis : x y z
#
# Youngs Moduli (GPa) = 82.98389 144.11381 63.57132
#
# Poissons Ratio (x) = 0.46785 0.42352
# Poissons Ratio (y) = 0.26940 0.04291
# Poissons Ratio (z) = 0.55284 0.09729
#
# Static dielectric constant tensor:
#      x y z
#    x 4.259310 0.412640 -0.130290 
#    y 0.412640 4.521570 -0.184120 
#    z -0.130290 -0.184120 4.489890 
# 
# 
# High freq. dielectric constant tensor:
#      x y z
#    x 1.880230 0.007910 0.004670 
#    y 0.007910 1.902140 -0.002160 
#    z 0.004670 -0.002160 1.890630 
# 
# From -- ./inp_files/185710.got.cif
#   From: 2010.06.25/outbox.cif.g09.slc.cpg/sg2_93_cif.got.tgz:185710.got - 2010.06.27 13:26:56.
