data_PCOD8035403
_publ_section_title
;
Structure prediction by ZEFSAII (Michael W. Deem and Ramdas Pophale) SiO2 
 PCOD8035403
Probable space group: P -1
;
_chemical_formula_sum "Si O2"
_cell_formula_units_Z 12
_cell_length_a 20.546171
_cell_length_b 7.883570
_cell_length_c 4.872792
_cell_angle_alpha 64.434924
_cell_angle_beta 112.414342
_cell_angle_gamma 137.291007
_cell_volume 480.270444
_symmetry_space_group_name_H-M "P -1"
_symmetry_group_IT_number 2
_symmetry_cell_setting 'triclinic'
loop_
_space_group_symop_operation_xyz
x,y,z
-x,-y,-z
loop_
_atom_site_type_symbol
_atom_site_label
_atom_site_fract_x
_atom_site_fract_y
_atom_site_fract_z
Si Si1 0.453049 0.743884 0.787629
Si Si2 0.175179 0.194448 0.396261
Si Si3 0.634612 0.616509 0.612093
Si Si4 0.187516 0.464835 0.715739
Si Si5 0.612280 0.998968 0.290223
Si Si6 0.994155 0.626612 0.648956
O O1 0.437984 0.600753 0.582393
O O2 0.435221 0.940958 0.601494
O O3 0.373862 0.530649 0.032487
O O4 0.558799 0.906016 0.975602
O O5 0.253989 0.183303 0.442345
O O6 0.226110 0.409026 0.565584
O O7 0.081963 0.932632 0.567519
O O8 0.144207 0.264807 0.037307
O O9 0.604488 0.771220 0.543877
O O10 0.276635 0.750688 0.767626
O O11 0.105367 0.443675 0.465699
O O12 0.000000 0.500000 0.500000
O O13 0.000000 0.500000 0.000000
#
# Coordination Sequence:
#
# PCOD8035403 Si02
#       6
#     2   2   2   2   2   2
#     4  11  26  45  66 106 143 183 244 289 349 410
#     4  12  24  45  69 102 141 183 233 292 349 426
#     4  12  24  45  69 103 141 187 240 287 350 416
#     4  12  25  46  69 103 140 186 232 289 358 416
#     4  11  25  44  73 100 143 192 232 294 349 420
#     4  12  26  46  71 104 135 181 236 286 353 429
#
# _framework density 24.98592
#
# number of rings (size 3 to 8) (size 9 to 14) (size 15 to 20)
#    0.000    0.333    3.333    5.000    0.000    8.000 
#    0.000    0.000    0.000    0.000    0.000    0.000 
#    0.000    0.000    0.000    0.000    0.000    0.000 
#
# Total GULP energy -148859.109817 kJ/mol
# GULP energy per Si atom -12404.925818 kJ/mol
# Density = 2.492905 g / cm^3
# Si number density = 24.985920 Si / 1000 Ang^3
#
#
#
# Elastic Constant Matrix: (Units=GPa)
#
#
# Indices 1 2 3 4 5 6 
#
# 1 126.4351 49.9851 41.3707 -2.3986 18.8836 -14.1648
# 2 49.9851 114.7862 27.5981 -10.5265 28.9373 9.1359
# 3 41.3707 27.5981 145.5421 -3.5084 13.3408 -13.3112
# 4 -2.3986 -10.5265 -3.5084 33.7769 -0.2018 2.1884
# 5 18.8836 28.9373 13.3408 -0.2018 42.5260 10.3939
# 6 -14.1648 9.1359 -13.3112 2.1884 10.3939 50.6456
#
#
#
# Elastic Compliance Matrix: (Units=1/GPa)
#
#
# Indices 1 2 3 4 5 6 
#
# 1 0.010884 -0.004095 -0.001763 -0.000951 -0.002442 0.003862
# 2 -0.004095 0.012746 -0.000859 0.003726 -0.005929 -0.002614
# 3 -0.001763 -0.000859 0.007876 0.000283 -0.001603 0.002049
# 4 -0.000951 0.003726 0.000283 0.030841 -0.001599 -0.001868
# 5 -0.002442 -0.005929 -0.001603 -0.001599 0.030658 -0.006258
# 6 0.003862 -0.002614 0.002049 -0.001868 -0.006258 0.023200
#
#
# Mechanical properties :
#
#
# Convention : Reuss Voigt Hill
#
# Bulk Modulus (GPa) = 55.33283 69.40792 62.37038
# Shear Modulus (GPa) = 36.85604 43.24367 40.04986
#
# Velocity S-wave (km/s) = 3.84483 4.16471 4.00796
# Velocity P-wave (km/s) = 6.47333 7.13901 6.81431
#
# Compressibility (1/GPa) = 0.01807245
#
# Stress axis : x y z
#
# Youngs Moduli (GPa) = 91.87562 78.45712 126.96739
#
# Poissons Ratio (x) = 0.32126 0.22389
# Poissons Ratio (y) = 0.37620 0.10904
# Poissons Ratio (z) = 0.16201 0.06738
#
# Static dielectric constant tensor:
#      x y z
#    x 4.465240 -0.134990 0.095780 
#    y -0.134990 4.574460 -0.070500 
#    z 0.095780 -0.070500 4.536270 
# 
# 
# High freq. dielectric constant tensor:
#      x y z
#    x 2.006190 0.003940 0.000100 
#    y 0.003940 2.014420 -0.003270 
#    z 0.000100 -0.003270 2.007250 
# 
# From -- ./inp_files/116746.got.cif
#   From: 2010.06.25/outbox.cif.g09.slc.cpg/sg2_59_cif.got.tgz:116746.got - 2010.06.27 13:26:56.
