data_PCOD8035067
_publ_section_title
;
Structure prediction by ZEFSAII (Michael W. Deem and Ramdas Pophale) SiO2 
 PCOD8035067
Probable space group: P -1
;
_chemical_formula_sum "Si O2"
_cell_formula_units_Z 14
_cell_length_a 5.217403
_cell_length_b 25.488474
_cell_length_c 8.896574
_cell_angle_alpha 150.518920
_cell_angle_beta 110.200880
_cell_angle_gamma 74.141370
_cell_volume 545.472472
_symmetry_space_group_name_H-M "P -1"
_symmetry_group_IT_number 2
_symmetry_cell_setting 'triclinic'
loop_
_space_group_symop_operation_xyz
x,y,z
-x,-y,-z
loop_
_atom_site_type_symbol
_atom_site_label
_atom_site_fract_x
_atom_site_fract_y
_atom_site_fract_z
Si Si1 0.909468 0.607980 0.676723
Si Si2 0.998093 0.240319 0.396454
Si Si3 0.096614 0.803547 0.392980
Si Si4 0.789067 0.564961 0.207497
Si Si5 0.204508 0.085523 0.833506
Si Si6 0.524645 0.250788 0.114419
Si Si7 0.478201 0.097728 0.475848
O O1 0.935661 0.597347 0.476384
O O2 0.594877 0.643542 0.724884
O O3 0.000000 0.500000 0.500000
O O4 0.092337 0.703833 0.029406
O O5 0.747413 0.287818 0.373376
O O6 0.899827 0.238378 0.542081
O O7 0.250524 0.327381 0.631393
O O8 0.071783 0.125389 0.061336
O O9 0.839410 0.878665 0.518834
O O10 0.376350 0.873927 0.585134
O O11 0.500000 0.500000 0.000000
O O12 0.000000 0.500000 0.000000
O O13 0.481432 0.025976 0.784180
O O14 0.274435 0.184042 0.982468
O O15 0.000000 0.000000 0.500000
O O16 0.644239 0.173071 0.820077
#
# Coordination Sequence:
#
# PCOD8035067 Si02
#       7
#     2   2   2   2   2   2   2
#     4  11  24  48  75 107 147 196 250 321 390 449
#     4  12  27  47  77 111 157 203 260 322 379 468
#     4  11  28  48  73 114 162 200 255 316 391 458
#     4  12  27  50  78 111 146 199 263 314 380 457
#     4  12  24  45  80 113 155 207 266 316 386 454
#     4  11  24  47  77 109 154 203 266 314 384 467
#     4  11  25  46  73 110 154 205 251 313 381 457
#
# _framework density 25.665823
#
# number of rings (size 3 to 8) (size 9 to 14) (size 15 to 20)
#    0.000    0.571    2.857    4.714    4.000    3.429 
#    0.000    9.286    0.000    0.000    0.000    0.000 
#    0.000    0.000    0.000    0.000    0.000    0.000 
#
# Total GULP energy -173495.350035 kJ/mol
# GULP energy per Si atom -12392.525002 kJ/mol
# Density = 2.560741 g / cm^3
# Si number density = 25.665823 Si / 1000 Ang^3
#
#
#
# Elastic Constant Matrix: (Units=GPa)
#
#
# Indices 1 2 3 4 5 6 
#
# 1 96.0182 18.4556 42.7790 6.6527 -11.1327 15.9943
# 2 18.4556 126.3450 42.4205 4.7245 -13.8994 8.5178
# 3 42.7790 42.4205 122.7594 1.9938 -29.9688 1.0857
# 4 6.6527 4.7245 1.9938 51.3200 -3.6313 -14.6764
# 5 -11.1327 -13.8994 -29.9688 -3.6313 40.1228 2.3739
# 6 15.9943 8.5178 1.0857 -14.6764 2.3739 48.2472
#
#
#
# Elastic Compliance Matrix: (Units=1/GPa)
#
#
# Indices 1 2 3 4 5 6 
#
# 1 0.013593 0.000071 -0.004559 -0.003100 0.000429 -0.005380
# 2 0.000071 0.009175 -0.002905 -0.001242 0.001035 -0.002007
# 3 -0.004559 -0.002905 0.012413 0.001394 0.007019 0.001823
# 4 -0.003100 -0.001242 0.001394 0.022310 0.001301 0.007938
# 5 0.000429 0.001035 0.007019 0.001301 0.030856 -0.001605
# 6 -0.005380 -0.002007 0.001823 0.007938 -0.001605 0.025317
#
#
# Mechanical properties :
#
#
# Convention : Reuss Voigt Hill
#
# Bulk Modulus (GPa) = 49.02905 61.38141 55.20523
# Shear Modulus (GPa) = 36.96922 44.03583 40.50252
#
# Velocity S-wave (km/s) = 3.79939 4.14664 3.97681
# Velocity P-wave (km/s) = 6.19608 6.84790 6.53013
#
# Compressibility (1/GPa) = 0.02039607
#
# Stress axis : x y z
#
# Youngs Moduli (GPa) = 73.56857 108.98812 80.56032
#
# Poissons Ratio (x) = -0.00772 0.36725
# Poissons Ratio (y) = -0.00521 0.23401
# Poissons Ratio (z) = 0.33537 0.31658
#
# Static dielectric constant tensor:
#      x y z
#    x 4.301720 -0.008890 -0.339320 
#    y -0.008890 4.820410 0.012180 
#    z -0.339320 0.012180 4.901540 
# 
# 
# High freq. dielectric constant tensor:
#      x y z
#    x 2.026030 0.003930 -0.018830 
#    y 0.003930 2.022350 -0.001030 
#    z -0.018830 -0.001030 2.039380 
# 
# From -- ./inp_files/142747.got.cif
#   From: 2010.06.25/outbox.cif.g09.slc.cpg/sg2_72_cif.got.tgz:142747.got - 2010.06.27 13:26:56.
