data_PCOD8035373
_publ_section_title
;
Structure prediction by ZEFSAII (Michael W. Deem and Ramdas Pophale) SiO2 
 PCOD8035373
Probable space group: P -1
;
_chemical_formula_sum "Si O2"
_cell_formula_units_Z 16
_cell_length_a 14.827901
_cell_length_b 8.932007
_cell_length_c 9.406033
_cell_angle_alpha 68.855059
_cell_angle_beta 145.094622
_cell_angle_gamma 100.162523
_cell_volume 648.007944
_symmetry_space_group_name_H-M "P -1"
_symmetry_group_IT_number 2
_symmetry_cell_setting 'triclinic'
loop_
_space_group_symop_operation_xyz
x,y,z
-x,-y,-z
loop_
_atom_site_type_symbol
_atom_site_label
_atom_site_fract_x
_atom_site_fract_y
_atom_site_fract_z
Si Si1 0.312554 0.085732 0.759586
Si Si2 0.787267 0.213049 0.393717
Si Si3 0.359558 0.034177 0.152702
Si Si4 0.279891 0.702229 0.190396
Si Si5 0.097978 0.227860 0.944595
Si Si6 0.064057 0.306365 0.185670
Si Si7 0.745358 0.495179 0.031322
Si Si8 0.439696 0.725179 0.669904
O O1 0.206710 0.960415 0.612482
O O2 0.227211 0.259171 0.511357
O O3 0.500000 0.000000 0.000000
O O4 0.292385 0.123066 0.887618
O O5 0.622418 0.280069 0.247383
O O6 0.925856 0.195137 0.694923
O O7 0.819013 0.330063 0.268060
O O8 0.528605 0.090310 0.388071
O O9 0.377369 0.839251 0.219550
O O10 0.232980 0.087552 0.096325
O O11 0.335450 0.547800 0.207327
O O12 0.324709 0.663850 0.427034
O O13 0.084183 0.755359 0.909599
O O14 0.117545 0.205667 0.145605
O O15 0.113528 0.410478 0.854055
O O16 0.000000 0.500000 0.000000
O O17 0.614641 0.605131 0.927198
#
# Coordination Sequence:
#
# PCOD8035373 Si02
#       8
#     2   2   2   2   2   2   2   2
#     4  12  28  48  75 111 152 196 244 308 374 436
#     4  12  24  46  74 106 147 193 251 306 370 437
#     4  11  26  47  73 106 145 195 248 307 365 445
#     4  12  24  46  74 106 147 193 251 306 370 437
#     4  11  26  47  73 106 145 195 248 307 365 445
#     4  12  28  48  75 111 152 196 244 308 374 436
#     4  11  25  44  70 110 150 197 244 306 371 442
#     4  11  25  44  70 110 150 197 244 306 371 442
#
# _framework density 24.691057000000001
#
# number of rings (size 3 to 8) (size 9 to 14) (size 15 to 20)
#    0.000    0.500    5.000    2.250    3.500    7.000 
#    0.000    0.000    0.000    0.000    0.000    0.000 
#    0.000    0.000    0.000    0.000    0.000    0.000 
#
# Total GULP energy -198363.805324 kJ/mol
# GULP energy per Si atom -12397.737833 kJ/mol
# Density = 2.463486 g / cm^3
# Si number density = 24.691057 Si / 1000 Ang^3
#
#
#
# Elastic Constant Matrix: (Units=GPa)
#
#
# Indices 1 2 3 4 5 6 
#
# 1 93.4045 9.9253 2.1165 12.5399 2.5913 -12.4457
# 2 9.9253 106.0882 7.8704 14.0216 8.8089 -2.8949
# 3 2.1165 7.8704 87.5936 1.2209 11.1552 -6.4163
# 4 12.5399 14.0216 1.2209 39.7728 1.9200 -6.7889
# 5 2.5913 8.8089 11.1552 1.9200 27.8113 11.4255
# 6 -12.4457 -2.8949 -6.4163 -6.7889 11.4255 41.5149
#
#
#
# Elastic Compliance Matrix: (Units=1/GPa)
#
#
# Indices 1 2 3 4 5 6 
#
# 1 0.011686 -0.000449 0.000383 -0.002780 -0.002450 0.003751
# 2 -0.000449 0.010200 -0.000393 -0.003140 -0.003174 0.000876
# 3 0.000383 -0.000393 0.012566 0.000627 -0.006619 0.003954
# 4 -0.002780 -0.003140 0.000627 0.027984 -0.002726 0.004371
# 5 -0.002450 -0.003174 -0.006619 -0.002726 0.046260 -0.015156
# 6 0.003751 0.000876 0.003954 0.004371 -0.015156 0.030770
#
#
# Mechanical properties :
#
#
# Convention : Reuss Voigt Hill
#
# Bulk Modulus (GPa) = 29.81988 36.32340 33.07164
# Shear Modulus (GPa) = 32.98982 39.63140 36.31061
#
# Velocity S-wave (km/s) = 3.65924 4.01071 3.83900
# Velocity P-wave (km/s) = 5.47328 6.01588 5.75098
#
# Compressibility (1/GPa) = 0.03353467
#
# Stress axis : x y z
#
# Youngs Moduli (GPa) = 85.57225 98.04211 79.57813
#
# Poissons Ratio (x) = 0.04398 -0.03051
# Poissons Ratio (y) = 0.03839 0.03131
# Poissons Ratio (z) = -0.03281 0.03857
#
# Static dielectric constant tensor:
#      x y z
#    x 4.470310 -0.020510 -0.113430 
#    y -0.020510 4.593120 0.338730 
#    z -0.113430 0.338730 4.237500 
# 
# 
# High freq. dielectric constant tensor:
#      x y z
#    x 1.992040 -0.005890 -0.010410 
#    y -0.005890 1.988460 0.019880 
#    z -0.010410 0.019880 1.969970 
# 
# From -- ./inp_files/298041.got.cif
#   From: 2010.06.25/outbox.cif.g09.slc.cpg/sg2_150_cif.got.tgz:298041.got - 2010.06.27 13:26:56.
