data_PCOD8035044
_publ_section_title
;
Structure prediction by ZEFSAII (Michael W. Deem and Ramdas Pophale) SiO2 
 PCOD8035044
Probable space group: P -1
;
_chemical_formula_sum "Si O2"
_cell_formula_units_Z 16
_cell_length_a 9.322121
_cell_length_b 18.857832
_cell_length_c 12.207671
_cell_angle_alpha 26.466595
_cell_angle_beta 129.871130
_cell_angle_gamma 131.518731
_cell_volume 708.780419
_symmetry_space_group_name_H-M "P -1"
_symmetry_group_IT_number 2
_symmetry_cell_setting 'triclinic'
loop_
_space_group_symop_operation_xyz
x,y,z
-x,-y,-z
loop_
_atom_site_type_symbol
_atom_site_label
_atom_site_fract_x
_atom_site_fract_y
_atom_site_fract_z
Si Si1 0.530836 0.169782 0.216688
Si Si2 0.402806 0.368420 0.045157
Si Si3 0.818789 0.862967 0.572861
Si Si4 0.783861 0.874838 0.057497
Si Si5 0.875357 0.540657 0.561058
Si Si6 0.237171 0.602576 0.510391
Si Si7 0.938970 0.367222 0.057652
Si Si8 0.482477 0.949664 0.183144
O O1 0.559276 0.316175 0.117372
O O2 0.327242 0.144606 0.086476
O O3 0.730105 0.232103 0.158085
O O4 0.500000 0.000000 0.500000
O O5 0.282157 0.204491 0.270339
O O6 0.500000 0.500000 0.000000
O O7 0.262825 0.435112 0.805809
O O8 0.695702 0.971205 0.302577
O O9 0.885580 0.721762 0.732698
O O10 0.000000 0.000000 0.500000
O O11 0.642176 0.940852 0.974482
O O12 0.787947 0.690107 0.351695
O O13 0.000000 0.000000 0.000000
O O14 0.740339 0.402179 0.605948
O O15 0.037145 0.623151 0.434758
O O16 0.937604 0.456865 0.814974
O O17 0.395693 0.755210 0.424718
O O18 0.000000 0.500000 0.000000
O O19 0.500000 0.000000 0.000000
#
# Coordination Sequence:
#
# PCOD8035044 Si02
#       8
#     2   2   2   2   2   2   2   2
#     4  12  29  48  73 114 154 201 252 312 385 451
#     4  12  23  46  77 101 142 198 256 302 370 449
#     4  12  27  48  72 107 151 197 245 312 371 453
#     4  12  27  49  75 109 151 202 249 314 379 455
#     4  11  26  47  77 108 152 192 257 311 381 449
#     4  11  24  47  74 108 144 201 249 310 373 449
#     4  12  29  48  78 113 151 197 254 318 380 450
#     4  12  29  45  75 108 149 198 252 306 385 453
#
# _framework density 22.573986999999999
#
# number of rings (size 3 to 8) (size 9 to 14) (size 15 to 20)
#    0.000    0.250    5.000    3.000    7.000    1.500 
#    0.000    0.000    0.000    0.000    0.000    0.000 
#    0.000    0.000    0.000    0.000    0.000    0.000 
#
# Total GULP energy -198230.446739 kJ/mol
# GULP energy per Si atom -12389.402921 kJ/mol
# Density = 2.252261 g / cm^3
# Si number density = 22.573987 Si / 1000 Ang^3
#
#
#
# Elastic Constant Matrix: (Units=GPa)
#
#
# Indices 1 2 3 4 5 6 
#
# 1 131.8921 53.4941 65.8232 7.2360 18.6537 -14.4312
# 2 53.4941 119.8454 38.6407 9.0036 2.2962 -12.3221
# 3 65.8232 38.6407 138.9405 15.1983 9.9227 -11.9565
# 4 7.2360 9.0036 15.1983 36.4783 -2.3473 1.5364
# 5 18.6537 2.2962 9.9227 -2.3473 48.9846 -1.7856
# 6 -14.4312 -12.3221 -11.9565 1.5364 -1.7856 46.3090
#
#
#
# Elastic Compliance Matrix: (Units=1/GPa)
#
#
# Indices 1 2 3 4 5 6 
#
# 1 0.011829 -0.003709 -0.004205 0.000038 -0.003423 0.001480
# 2 -0.003709 0.010554 -0.000968 -0.001458 0.001099 0.001493
# 3 -0.004205 -0.000968 0.009929 -0.003140 -0.000476 0.001081
# 4 0.000038 -0.001458 -0.003140 0.029291 0.002018 -0.002081
# 5 -0.003423 0.001099 -0.000476 0.002018 0.021855 -0.000122
# 6 0.001480 0.001493 0.001081 -0.002081 -0.000122 0.022796
#
#
# Mechanical properties :
#
#
# Convention : Reuss Voigt Hill
#
# Bulk Modulus (GPa) = 68.74160 78.51045 73.62602
# Shear Modulus (GPa) = 38.79918 41.86905 40.33411
#
# Velocity S-wave (km/s) = 4.15029 4.31135 4.23158
# Velocity P-wave (km/s) = 7.31330 7.72259 7.52073
#
# Compressibility (1/GPa) = 0.01454723
#
# Stress axis : x y z
#
# Youngs Moduli (GPa) = 84.53912 94.75099 100.71385
#
# Poissons Ratio (x) = 0.35146 0.42347
# Poissons Ratio (y) = 0.31358 0.09753
# Poissons Ratio (z) = 0.35546 0.09175
#
# Static dielectric constant tensor:
#      x y z
#    x 4.056380 -0.119790 -0.114670 
#    y -0.119790 4.341160 0.033620 
#    z -0.114670 0.033620 3.708910 
# 
# 
# High freq. dielectric constant tensor:
#      x y z
#    x 1.896180 -0.007810 0.011340 
#    y -0.007810 1.905370 -0.003760 
#    z 0.011340 -0.003760 1.902670 
# 
# From -- ./inp_files/402740.got.cif
#   From: 2010.06.25/outbox.cif.g09.slc.cpg/sg2_202_cif.got.tgz:402740.got - 2010.06.27 13:26:56.
