data_PCOD8035119
_publ_section_title
;
Structure prediction by ZEFSAII (Michael W. Deem and Ramdas Pophale) SiO2 
 PCOD8035119
Probable space group: P -1
;
_chemical_formula_sum "Si O2"
_cell_formula_units_Z 16
_cell_length_a 8.835692
_cell_length_b 8.685560
_cell_length_c 24.893911
_cell_angle_alpha 40.666889
_cell_angle_beta 144.798206
_cell_angle_gamma 143.637731
_cell_volume 624.076564
_symmetry_space_group_name_H-M "P -1"
_symmetry_group_IT_number 2
_symmetry_cell_setting 'triclinic'
loop_
_space_group_symop_operation_xyz
x,y,z
-x,-y,-z
loop_
_atom_site_type_symbol
_atom_site_label
_atom_site_fract_x
_atom_site_fract_y
_atom_site_fract_z
Si Si1 0.387761 0.959891 0.082383
Si Si2 0.859401 0.682006 0.928393
Si Si3 0.185260 0.621908 0.373709
Si Si4 0.739860 0.033811 0.351660
Si Si5 0.221179 0.437757 0.546114
Si Si6 0.630807 0.326905 0.151645
Si Si7 0.240272 0.485765 0.244743
Si Si8 0.975340 0.031144 0.203784
O O1 0.370485 0.713600 0.177230
O O2 0.474488 0.217854 0.077254
O O3 0.650508 0.007550 0.103523
O O4 0.086737 0.901522 0.979309
O O5 0.533466 0.521680 0.906818
O O6 0.812289 0.819058 0.825509
O O7 0.000000 0.500000 0.000000
O O8 0.308818 0.610102 0.471224
O O9 0.983255 0.319023 0.372201
O O10 0.479075 0.824111 0.371441
O O11 0.957811 0.742111 0.281558
O O12 0.576619 0.076327 0.241058
O O13 0.924792 0.883038 0.425654
O O14 0.523670 0.518627 0.644970
O O15 0.000000 0.500000 0.500000
O O16 0.988338 0.521258 0.196334
O O17 0.094251 0.194075 0.250614
#
# Coordination Sequence:
#
# PCOD8035119 Si02
#       8
#     2   2   2   2   2   2   2   2
#     4  11  24  48  72 108 153 200 261 320 397 471
#     4  12  25  47  79 112 150 202 266 327 396 474
#     4  12  29  50  82 112 165 207 269 325 404 470
#     4  12  27  54  76 117 160 215 259 330 401 476
#     4  12  28  51  83 118 154 210 268 328 388 480
#     4  11  26  47  76 108 156 206 254 323 399 471
#     4  11  25  50  76 109 159 201 264 317 407 465
#     4  11  26  48  76 115 153 210 257 341 389 475
#
# _framework density 25.637879000000002
#
# number of rings (size 3 to 8) (size 9 to 14) (size 15 to 20)
#    0.000    0.500    3.750    3.000    7.000    2.000 
#    2.250    0.000    0.000    0.000    0.000    0.000 
#    0.000    0.000    0.000    0.000    0.000    0.000 
#
# Total GULP energy -198386.440699 kJ/mol
# GULP energy per Si atom -12399.152544 kJ/mol
# Density = 2.557953 g / cm^3
# Si number density = 25.637879 Si / 1000 Ang^3
#
#
#
# Elastic Constant Matrix: (Units=GPa)
#
#
# Indices 1 2 3 4 5 6 
#
# 1 147.4320 47.8716 24.6278 8.2343 21.7981 -9.3445
# 2 47.8716 108.4341 22.5057 3.0720 8.0115 -0.3709
# 3 24.6278 22.5057 84.5566 20.0803 1.2461 -20.2092
# 4 8.2343 3.0720 20.0803 38.9380 -6.3005 11.3835
# 5 21.7981 8.0115 1.2461 -6.3005 55.3580 -9.1199
# 6 -9.3445 -0.3709 -20.2092 11.3835 -9.1199 30.9538
#
#
#
# Elastic Compliance Matrix: (Units=1/GPa)
#
#
# Indices 1 2 3 4 5 6 
#
# 1 0.008681 -0.003467 -0.000381 -0.002531 -0.002794 0.002438
# 2 -0.003467 0.011517 -0.003963 0.003183 -0.000650 -0.004858
# 3 -0.000381 -0.003963 0.021901 -0.016696 0.001756 0.020794
# 4 -0.002531 0.003183 -0.016696 0.042663 0.001332 -0.026924
# 5 -0.002794 -0.000650 0.001756 0.001332 0.020325 0.005794
# 6 0.002438 -0.004858 0.020794 -0.026924 0.005794 0.058168
#
#
# Mechanical properties :
#
#
# Convention : Reuss Voigt Hill
#
# Bulk Modulus (GPa) = 37.76879 58.93702 48.35291
# Shear Modulus (GPa) = 26.63792 41.41113 34.02452
#
# Velocity S-wave (km/s) = 3.22686 4.02336 3.64692
# Velocity P-wave (km/s) = 5.35230 6.67992 6.05262
#
# Compressibility (1/GPa) = 0.02647688
#
# Stress axis : x y z
#
# Youngs Moduli (GPa) = 115.19145 86.83104 45.66022
#
# Poissons Ratio (x) = 0.30105 0.01739
# Poissons Ratio (y) = 0.39937 0.18096
# Poissons Ratio (z) = 0.04386 0.34412
#
# Static dielectric constant tensor:
#      x y z
#    x 4.971770 -0.166890 -0.116880 
#    y -0.166890 4.584530 0.100650 
#    z -0.116880 0.100650 5.236320 
# 
# 
# High freq. dielectric constant tensor:
#      x y z
#    x 2.046590 -0.006680 -0.004620 
#    y -0.006680 2.011030 0.000480 
#    z -0.004620 0.000480 2.036880 
# 
# From -- ./inp_files/606639.got.cif
#   From: 2010.06.25/outbox.cif.g09.slc.cpg/sg2_304_cif.got.tgz:606639.got - 2010.06.27 13:26:56.
