data_PCOD8035396
_publ_section_title
;
Structure prediction by ZEFSAII (Michael W. Deem and Ramdas Pophale) SiO2 
 PCOD8035396
Probable space group: P -1
;
_chemical_formula_sum "Si O2"
_cell_formula_units_Z 16
_cell_length_a 11.289542
_cell_length_b 11.603400
_cell_length_c 6.487385
_cell_angle_alpha 99.460402
_cell_angle_beta 84.303560
_cell_angle_gamma 123.087807
_cell_volume 702.285450
_symmetry_space_group_name_H-M "P -1"
_symmetry_group_IT_number 2
_symmetry_cell_setting 'triclinic'
loop_
_space_group_symop_operation_xyz
x,y,z
-x,-y,-z
loop_
_atom_site_type_symbol
_atom_site_label
_atom_site_fract_x
_atom_site_fract_y
_atom_site_fract_z
Si Si1 0.262685 0.438394 0.075636
Si Si2 0.122747 0.847516 0.421387
Si Si3 0.613028 0.649416 0.619630
Si Si4 0.994990 0.605804 0.678049
Si Si5 0.727374 0.957898 0.205216
Si Si6 0.774602 0.208349 0.008726
Si Si7 0.852490 0.801216 0.281521
Si Si8 0.533548 0.262839 0.045941
O O1 0.328141 0.374247 0.188333
O O2 0.162451 0.471017 0.230572
O O3 0.171965 0.330443 0.879510
O O4 0.383452 0.580676 0.999663
O O5 0.027847 0.738292 0.581358
O O6 0.016281 0.885952 0.350537
O O7 0.257417 0.979072 0.548914
O O8 0.183593 0.783503 0.234968
O O9 0.500000 0.500000 0.500000
O O10 0.738166 0.746098 0.469223
O O11 0.543663 0.736590 0.729049
O O12 0.000000 0.500000 0.500000
O O13 0.106814 0.651681 0.857467
O O14 0.834759 0.904446 0.166822
O O15 0.766252 0.072827 0.058430
O O16 0.570635 0.828505 0.148978
O O17 0.628520 0.200134 0.059947
#
# Coordination Sequence:
#
# PCOD8035396 Si02
#       8
#     2   2   2   2   2   2   2   2
#     4  12  24  45  73 109 142 174 236 297 350 410
#     4  11  25  47  72 105 135 187 237 285 351 406
#     4  12  25  43  70 106 144 180 230 286 359 412
#     4  11  25  44  72 108 140 179 234 290 351 415
#     4  11  27  48  68 103 143 189 239 279 341 421
#     4  11  27  48  70 101 144 188 234 285 343 417
#     4  12  24  46  74 105 139 181 235 296 348 404
#     4  12  26  47  70 103 147 187 228 287 349 419
#
# _framework density 22.782758999999999
#
# number of rings (size 3 to 8) (size 9 to 14) (size 15 to 20)
#    0.000    0.500    5.000    2.625    5.250    2.000 
#    4.500    0.000    0.000    0.000    0.000    0.000 
#    0.000    0.000    0.000    0.000    0.000    0.000 
#
# Total GULP energy -198439.147804 kJ/mol
# GULP energy per Si atom -12402.446738 kJ/mol
# Density = 2.273090 g / cm^3
# Si number density = 22.782759 Si / 1000 Ang^3
#
#
#
# Elastic Constant Matrix: (Units=GPa)
#
#
# Indices 1 2 3 4 5 6 
#
# 1 137.4193 18.2274 54.9743 12.9739 -10.2384 -5.7496
# 2 18.2274 62.6685 33.1950 19.7670 2.1460 -8.4806
# 3 54.9743 33.1950 129.9528 29.7603 -11.1081 10.4275
# 4 12.9739 19.7670 29.7603 44.4727 2.6802 7.6534
# 5 -10.2384 2.1460 -11.1081 2.6802 50.1775 2.9989
# 6 -5.7496 -8.4806 10.4275 7.6534 2.9989 14.9160
#
#
#
# Elastic Compliance Matrix: (Units=1/GPa)
#
#
# Indices 1 2 3 4 5 6 
#
# 1 0.009492 0.001371 -0.004598 -0.001788 0.000449 0.008480
# 2 0.001371 0.027187 -0.007275 -0.012231 -0.003517 0.028055
# 3 -0.004598 -0.007275 0.013456 -0.002062 0.003354 -0.014932
# 4 -0.001788 -0.012231 -0.002062 0.033903 -0.000707 -0.023455
# 5 0.000449 -0.003517 0.003354 -0.000707 0.021437 -0.008118
# 6 0.008480 0.028055 -0.014932 -0.023455 -0.008118 0.110367
#
#
# Mechanical properties :
#
#
# Convention : Reuss Voigt Hill
#
# Bulk Modulus (GPa) = 34.32963 60.31489 47.32226
# Shear Modulus (GPa) = 20.27949 36.82283 28.55116
#
# Velocity S-wave (km/s) = 2.98673 4.02463 3.54388
# Velocity P-wave (km/s) = 5.19568 6.93746 6.12876
#
# Compressibility (1/GPa) = 0.02912936
#
# Stress axis : x y z
#
# Youngs Moduli (GPa) = 105.35603 36.78250 74.31851
#
# Poissons Ratio (x) = -0.05042 0.34172
# Poissons Ratio (y) = -0.14443 0.54068
# Poissons Ratio (z) = 0.48444 0.26760
#
# Static dielectric constant tensor:
#      x y z
#    x 4.147070 0.042140 0.141280 
#    y 0.042140 4.241340 0.126500 
#    z 0.141280 0.126500 4.269000 
# 
# 
# High freq. dielectric constant tensor:
#      x y z
#    x 1.902970 -0.003060 0.005270 
#    y -0.003060 1.901030 0.013280 
#    z 0.005270 0.013280 1.910290 
# 
# From -- ./inp_files/71246.got.cif
#   From: 2010.06.25/outbox.cif.g09.slc.cpg/sg2_36_cif.got.tgz:71246.got - 2010.06.27 13:26:56.
