data_PCOD8035662
_publ_section_title
;
Structure prediction by ZEFSAII (Michael W. Deem and Ramdas Pophale) SiO2 
 PCOD8035662
Probable space group: P -1
;
_chemical_formula_sum "Si O2"
_cell_formula_units_Z 16
_cell_length_a 8.546537
_cell_length_b 16.039156
_cell_length_c 5.172425
_cell_angle_alpha 58.804251
_cell_angle_beta 99.464583
_cell_angle_gamma 99.325343
_cell_volume 595.764079
_symmetry_space_group_name_H-M "P -1"
_symmetry_group_IT_number 2
_symmetry_cell_setting 'triclinic'
loop_
_space_group_symop_operation_xyz
x,y,z
-x,-y,-z
loop_
_atom_site_type_symbol
_atom_site_label
_atom_site_fract_x
_atom_site_fract_y
_atom_site_fract_z
Si Si1 0.901993 0.137183 0.043742
Si Si2 0.692498 0.828256 0.645871
Si Si3 0.677134 0.432751 0.440900
Si Si4 0.601692 0.097186 0.797293
Si Si5 0.636236 0.638218 0.282046
Si Si6 0.126443 0.587839 0.969309
Si Si7 0.125980 0.992297 0.292865
Si Si8 0.091509 0.271745 0.511945
O O1 0.955729 0.094874 0.402635
O O2 0.709070 0.148065 0.980418
O O3 0.981746 0.051704 0.028045
O O4 0.003186 0.234875 0.815209
O O5 0.512832 0.832642 0.481282
O O6 0.810189 0.808763 0.472394
O O7 0.753259 0.927417 0.650354
O O8 0.671492 0.738980 0.979805
O O9 0.629263 0.544564 0.242146
O O10 0.523837 0.360852 0.594089
O O11 0.730436 0.404710 0.213665
O O12 0.814033 0.422336 0.707028
O O13 0.756966 0.070488 0.731686
O O14 0.500000 0.000000 0.000000
O O15 0.784419 0.635467 0.525136
O O16 0.040797 0.689178 0.777090
O O17 0.000000 0.500000 0.000000
#
# Coordination Sequence:
#
# PCOD8035662 Si02
#       8
#     2   2   2   2   2   2   2   2
#     4  11  26  43  69 102 138 185 240 295 366 435
#     4  12  27  45  70 104 142 187 241 300 370 431
#     4  11  28  49  80 112 147 202 242 305 371 453
#     4  12  26  43  69  98 140 187 240 295 363 438
#     4  11  27  48  74 105 150 187 244 299 375 435
#     4  12  26  50  80 111 151 192 250 302 374 440
#     4  11  25  46  71  97 137 191 241 296 364 434
#     4  12  28  44  72 105 146 189 243 311 364 438
#
# _framework density 26.856272000000001
#
# number of rings (size 3 to 8) (size 9 to 14) (size 15 to 20)
#    0.000    0.500    3.750    2.625    8.750    2.000 
#    0.000    0.000    0.000    0.000    0.000    0.000 
#    0.000    0.000    0.000    0.000    0.000    0.000 
#
# Total GULP energy -198246.495638 kJ/mol
# GULP energy per Si atom -12390.405977 kJ/mol
# Density = 2.679515 g / cm^3
# Si number density = 26.856272 Si / 1000 Ang^3
#
#
#
# Elastic Constant Matrix: (Units=GPa)
#
#
# Indices 1 2 3 4 5 6 
#
# 1 164.4092 15.6649 41.7152 -5.1209 18.1011 10.4239
# 2 15.6649 40.2887 -2.3627 -1.0725 3.7950 2.6374
# 3 41.7152 -2.3627 91.1956 -13.2875 -3.1085 3.3007
# 4 -5.1209 -1.0725 -13.2875 23.1344 -0.8841 -4.1775
# 5 18.1011 3.7950 -3.1085 -0.8841 57.5848 -2.7749
# 6 10.4239 2.6374 3.3007 -4.1775 -2.7749 51.8830
#
#
#
# Elastic Compliance Matrix: (Units=1/GPa)
#
#
# Indices 1 2 3 4 5 6 
#
# 1 0.007638 -0.002890 -0.003740 -0.000932 -0.002492 -0.001358
# 2 -0.002890 0.026241 0.002254 0.001700 -0.000711 -0.000798
# 3 -0.003740 0.002254 0.013861 0.007392 0.001911 0.000453
# 4 -0.000932 0.001700 0.007392 0.048047 0.001490 0.003579
# 5 -0.002492 -0.000711 0.001911 0.001490 0.018395 0.001519
# 6 -0.001358 -0.000798 0.000453 0.003579 0.001519 0.019928
#
#
# Mechanical properties :
#
#
# Convention : Reuss Voigt Hill
#
# Bulk Modulus (GPa) = 25.64934 45.10315 35.37625
# Shear Modulus (GPa) = 32.08017 42.57886 37.32951
#
# Velocity S-wave (km/s) = 3.45992 3.98607 3.73228
# Velocity P-wave (km/s) = 5.05299 6.16569 5.63686
#
# Compressibility (1/GPa) = 0.03898736
#
# Stress axis : x y z
#
# Youngs Moduli (GPa) = 130.91933 38.10777 72.14671
#
# Poissons Ratio (x) = 0.11015 0.26986
# Poissons Ratio (y) = 0.37841 -0.16264
# Poissons Ratio (z) = 0.48969 -0.08591
#
# Static dielectric constant tensor:
#      x y z
#    x 5.214080 0.031470 0.290000 
#    y 0.031470 5.002830 0.123650 
#    z 0.290000 0.123650 5.050510 
# 
# 
# High freq. dielectric constant tensor:
#      x y z
#    x 2.109660 0.009400 0.008820 
#    y 0.009400 2.080090 0.001390 
#    z 0.008820 0.001390 2.084970 
# 
# From -- ./inp_files/46332.got.cif
#   From: 2010.06.25/outbox.cif.g09.slc.cpg/sg2_24_cif.got.tgz:46332.got - 2010.06.27 13:26:56.
