data_PCOD8035464
_publ_section_title
;
Structure prediction by ZEFSAII (Michael W. Deem and Ramdas Pophale) SiO2 
 PCOD8035464
Probable space group: P -1
;
_chemical_formula_sum "Si O2"
_cell_formula_units_Z 14
_cell_length_a 13.142381
_cell_length_b 21.540693
_cell_length_c 13.599836
_cell_angle_alpha 156.833827
_cell_angle_beta 33.810188
_cell_angle_gamma 156.426254
_cell_volume 604.042910
_symmetry_space_group_name_H-M "P -1"
_symmetry_group_IT_number 2
_symmetry_cell_setting 'triclinic'
loop_
_space_group_symop_operation_xyz
x,y,z
-x,-y,-z
loop_
_atom_site_type_symbol
_atom_site_label
_atom_site_fract_x
_atom_site_fract_y
_atom_site_fract_z
Si Si1 0.251769 0.794701 0.453796
Si Si2 0.639128 0.465588 0.716199
Si Si3 0.812268 0.577659 0.947211
Si Si4 0.162476 0.471828 0.759845
Si Si5 0.681075 0.776759 0.683656
Si Si6 0.336168 0.043434 0.231512
Si Si7 0.019040 0.882997 0.900763
O O1 0.257159 0.615096 0.213136
O O2 0.014997 0.692385 0.424871
O O3 0.233625 0.887415 0.701948
O O4 0.500000 0.000000 0.500000
O O5 0.842897 0.555740 0.773380
O O6 0.493667 0.213653 0.442886
O O7 0.770768 0.624696 0.746122
O O8 0.424742 0.452923 0.905163
O O9 0.056102 0.807079 0.136819
O O10 0.423261 0.689879 0.816630
O O11 0.270557 0.382056 0.598291
O O12 0.000000 0.500000 0.000000
O O13 0.693488 0.838860 0.653240
O O14 0.915490 0.991847 0.868260
O O15 0.500000 0.000000 0.000000
O O16 0.000000 0.000000 0.000000
#
# Coordination Sequence:
#
# PCOD8035464 Si02
#       7
#     2   2   2   2   2   2   2
#     4  12  26  45  73 104 137 186 241 303 364 437
#     4  11  26  46  72 103 140 192 237 298 362 432
#     4  11  26  48  70 103 144 183 245 297 360 439
#     4  11  25  45  69 107 144 191 243 301 368 433
#     4  11  25  45  71 104 147 190 244 304 362 434
#     4  12  26  46  71 103 143 193 241 293 368 437
#     4  12  23  44  71 100 141 184 237 297 362 426
#
# _framework density 23.177161000000002
#
# number of rings (size 3 to 8) (size 9 to 14) (size 15 to 20)
#    0.000    0.571    2.857    4.714    6.000    1.143 
#    5.143    0.000    0.000    0.000    0.000    0.000 
#    0.000    0.000    0.000    0.000    0.000    0.000 
#
# Total GULP energy -173488.878015 kJ/mol
# GULP energy per Si atom -12392.062715 kJ/mol
# Density = 2.312441 g / cm^3
# Si number density = 23.177161 Si / 1000 Ang^3
#
#
#
# Elastic Constant Matrix: (Units=GPa)
#
#
# Indices 1 2 3 4 5 6 
#
# 1 61.2703 22.2872 23.3693 19.2375 2.4108 3.2889
# 2 22.2872 130.3174 56.8977 15.6353 -8.1118 -2.7355
# 3 23.3693 56.8977 108.7310 9.3586 -4.6464 -7.5103
# 4 19.2375 15.6353 9.3586 54.1926 0.8236 -4.3887
# 5 2.4108 -8.1118 -4.6464 0.8236 32.2690 0.9829
# 6 3.2889 -2.7355 -7.5103 -4.3887 0.9829 31.5152
#
#
#
# Elastic Compliance Matrix: (Units=1/GPa)
#
#
# Indices 1 2 3 4 5 6 
#
# 1 0.020513 -0.001423 -0.003461 -0.006560 -0.002101 -0.003937
# 2 -0.001423 0.010393 -0.004926 -0.001708 0.002066 -0.000426
# 3 -0.003461 -0.004926 0.012700 0.000691 0.000739 0.003033
# 4 -0.006560 -0.001708 0.000691 0.021463 -0.000500 0.003706
# 5 -0.002101 0.002066 0.000739 -0.000500 0.031800 -0.000487
# 6 -0.003937 -0.000426 0.003033 0.003706 -0.000487 0.033359
#
#
# Mechanical properties :
#
#
# Convention : Reuss Voigt Hill
#
# Bulk Modulus (GPa) = 41.69441 56.15856 48.92649
# Shear Modulus (GPa) = 31.67700 36.77968 34.22834
#
# Velocity S-wave (km/s) = 3.70095 3.98790 3.84710
# Velocity P-wave (km/s) = 6.02421 6.74442 6.39447
#
# Compressibility (1/GPa) = 0.02398403
#
# Stress axis : x y z
#
# Youngs Moduli (GPa) = 48.75022 96.22258 78.73735
#
# Poissons Ratio (x) = 0.13696 0.27251
# Poissons Ratio (y) = 0.06939 0.38790
# Poissons Ratio (z) = 0.16872 0.47404
#
# Static dielectric constant tensor:
#      x y z
#    x 4.360670 -0.409640 0.242420 
#    y -0.409640 4.240010 -0.206040 
#    z 0.242420 -0.206040 4.609330 
# 
# 
# High freq. dielectric constant tensor:
#      x y z
#    x 1.919130 0.002890 -0.003050 
#    y 0.002890 1.920050 0.004710 
#    z -0.003050 0.004710 1.929540 
# 
# From -- ./inp_files/535442.got.cif
#   From: 2010.06.25/outbox.cif.g09.slc.cpg/sg2_268_cif.got.tgz:535442.got - 2010.06.27 13:26:56.
