data_PCOD8035781
_publ_section_title
;
Structure prediction by ZEFSAII (Michael W. Deem and Ramdas Pophale) SiO2 
 PCOD8035781
Probable space group: P -1
;
_chemical_formula_sum "Si O2"
_cell_formula_units_Z 14
_cell_length_a 12.668873
_cell_length_b 9.252778
_cell_length_c 8.673707
_cell_angle_alpha 136.876688
_cell_angle_beta 75.178661
_cell_angle_gamma 105.557842
_cell_volume 666.767297
_symmetry_space_group_name_H-M "P -1"
_symmetry_group_IT_number 2
_symmetry_cell_setting 'triclinic'
loop_
_space_group_symop_operation_xyz
x,y,z
-x,-y,-z
loop_
_atom_site_type_symbol
_atom_site_label
_atom_site_fract_x
_atom_site_fract_y
_atom_site_fract_z
Si Si1 0.708832 0.179735 0.765758
Si Si2 0.209232 0.217843 0.428151
Si Si3 0.308267 0.897301 0.636626
Si Si4 0.397069 0.504394 0.434809
Si Si5 0.471303 0.290885 0.948044
Si Si6 0.888539 0.068163 0.029778
Si Si7 0.892402 0.452864 0.103195
O O1 0.727845 0.202840 0.593322
O O2 0.584440 0.201419 0.878278
O O3 0.728735 0.945419 0.626192
O O4 0.790758 0.359644 0.960687
O O5 0.290828 0.423022 0.509344
O O6 0.122537 0.313611 0.645300
O O7 0.152496 0.111662 0.216838
O O8 0.384064 0.742737 0.572778
O O9 0.199538 0.925812 0.795887
O O10 0.387129 0.118748 0.754171
O O11 0.500000 0.500000 0.500000
O O12 0.407898 0.344036 0.165970
O O13 0.500000 0.500000 0.000000
O O14 0.910563 0.296176 0.115762
O O15 0.000000 0.000000 0.000000
O O16 0.000000 0.500000 0.000000
#
# Coordination Sequence:
#
# PCOD8035781 Si02
#       7
#     2   2   2   2   2   2   2
#     4  11  27  43  71 102 140 180 230 281 342 413
#     4  11  25  47  68 101 138 179 229 283 345 408
#     4  12  26  46  68 107 138 180 233 278 343 414
#     4  12  25  42  72  98 142 183 222 283 342 404
#     4  12  26  43  68 105 139 181 227 277 344 406
#     4  11  27  46  71 102 136 181 234 283 340 410
#     4  11  27  47  71 100 136 181 232 283 347 405
#
# _framework density 20.996832000000001
#
# number of rings (size 3 to 8) (size 9 to 14) (size 15 to 20)
#    0.000    0.571    4.286    2.143   10.000    4.000 
#    0.000    0.000    0.000    0.000    0.000    0.000 
#    0.000    0.000    0.000    0.000    0.000    0.000 
#
# Total GULP energy -173677.088736 kJ/mol
# GULP energy per Si atom -12405.506338 kJ/mol
# Density = 2.094904 g / cm^3
# Si number density = 20.996832 Si / 1000 Ang^3
#
#
#
# Elastic Constant Matrix: (Units=GPa)
#
#
# Indices 1 2 3 4 5 6 
#
# 1 130.0068 46.0303 38.1647 -1.5018 -22.6269 -11.6384
# 2 46.0303 102.7385 25.1199 6.7296 -8.5816 -5.6985
# 3 38.1647 25.1199 107.0601 -4.3737 -25.8221 -5.5978
# 4 -1.5018 6.7296 -4.3737 38.8431 2.9036 -4.8904
# 5 -22.6269 -8.5816 -25.8221 2.9036 36.0390 -6.9979
# 6 -11.6384 -5.6985 -5.5978 -4.8904 -6.9979 44.7673
#
#
#
# Elastic Compliance Matrix: (Units=1/GPa)
#
#
# Indices 1 2 3 4 5 6 
#
# 1 0.010689 -0.003891 -0.001430 0.000913 0.005275 0.003029
# 2 -0.003891 0.011988 -0.001671 -0.002376 -0.000603 -0.000048
# 3 -0.001430 -0.001671 0.012318 0.001326 0.007877 0.002332
# 4 0.000913 -0.002376 0.001326 0.026756 -0.000630 0.002925
# 5 0.005275 -0.000603 0.007877 -0.000630 0.038199 0.008182
# 6 0.003029 -0.000048 0.002332 0.002925 0.008182 0.025009
#
#
# Mechanical properties :
#
#
# Convention : Reuss Voigt Hill
#
# Bulk Modulus (GPa) = 47.59089 62.04836 54.81962
# Shear Modulus (GPa) = 34.25940 39.29592 36.77766
#
# Velocity S-wave (km/s) = 4.04375 4.33080 4.18973
# Velocity P-wave (km/s) = 6.67214 7.39075 7.04062
#
# Compressibility (1/GPa) = 0.02101243
#
# Stress axis : x y z
#
# Youngs Moduli (GPa) = 93.55527 83.41866 81.18155
#
# Poissons Ratio (x) = 0.32455 0.11605
# Poissons Ratio (y) = 0.36399 0.13565
# Poissons Ratio (z) = 0.13374 0.13939
#
# Static dielectric constant tensor:
#      x y z
#    x 3.804360 -0.069910 -0.034530 
#    y -0.069910 3.946350 -0.145480 
#    z -0.034530 -0.145480 4.775270 
# 
# 
# High freq. dielectric constant tensor:
#      x y z
#    x 1.829000 -0.001930 -0.008820 
#    y -0.001930 1.831510 -0.002770 
#    z -0.008820 -0.002770 1.843170 
# 
# From -- ./inp_files/24245.got.cif
#   From: 2010.06.25/outbox.cif.g09.slc.cpg/sg2_13_cif.got.tgz:24245.got - 2010.06.27 13:26:56.
