data_PCOD8035950
_publ_section_title
;
Structure prediction by ZEFSAII (Michael W. Deem and Ramdas Pophale) SiO2 
 PCOD8035950
Probable space group: P -1
;
_chemical_formula_sum "Si O2"
_cell_formula_units_Z 14
_cell_length_a 9.162517
_cell_length_b 18.130730
_cell_length_c 7.932971
_cell_angle_alpha 108.295209
_cell_angle_beta 60.702839
_cell_angle_gamma 148.948381
_cell_volume 576.342047
_symmetry_space_group_name_H-M "P -1"
_symmetry_group_IT_number 2
_symmetry_cell_setting 'triclinic'
loop_
_space_group_symop_operation_xyz
x,y,z
-x,-y,-z
loop_
_atom_site_type_symbol
_atom_site_label
_atom_site_fract_x
_atom_site_fract_y
_atom_site_fract_z
Si Si1 0.300578 0.883625 0.888477
Si Si2 0.211345 0.910012 0.483970
Si Si3 0.936184 0.363346 0.028571
Si Si4 0.857470 0.844380 0.103554
Si Si5 0.228268 0.525678 0.322953
Si Si6 0.747672 0.859340 0.826347
Si Si7 0.847628 0.610755 0.418260
O O1 0.070147 0.728291 0.979095
O O2 0.582876 0.959038 0.671150
O O3 0.084429 0.866341 0.913149
O O4 0.500000 0.000000 0.000000
O O5 0.929340 0.853885 0.662101
O O6 0.074665 0.774698 0.395529
O O7 0.500000 0.000000 0.500000
O O8 0.593465 0.270028 0.163942
O O9 0.169122 0.490934 0.129938
O O10 0.061069 0.415613 0.801202
O O11 0.589936 0.697520 0.263969
O O12 0.694369 0.829633 0.036100
O O13 0.055218 0.983577 0.206458
O O14 0.151258 0.422164 0.414009
O O15 0.000000 0.500000 0.500000
O O16 0.500000 0.500000 0.500000
#
# Coordination Sequence:
#
# PCOD8035950 Si02
#       7
#     2   2   2   2   2   2   2
#     4  12  23  45  74 108 145 193 248 311 368 444
#     4  12  26  46  77 110 148 191 257 312 374 446
#     4  12  28  51  78 111 156 201 252 313 385 445
#     4  11  25  48  75 111 147 197 257 306 379 449
#     4  12  31  48  77 113 156 196 253 312 378 457
#     4  11  26  46  81 109 146 197 253 321 373 440
#     4  12  29  51  77 113 154 205 252 305 382 460
#
# _framework density 24.291129999999999
#
# number of rings (size 3 to 8) (size 9 to 14) (size 15 to 20)
#    0.000    0.286    4.286    2.571   10.000    2.857 
#    0.000    0.000    0.000    0.000    0.000    0.000 
#    0.000    0.000    0.000    0.000    0.000    0.000 
#
# Total GULP energy -173443.224370 kJ/mol
# GULP energy per Si atom -12388.801741 kJ/mol
# Density = 2.423584 g / cm^3
# Si number density = 24.291130 Si / 1000 Ang^3
#
#
#
# Elastic Constant Matrix: (Units=GPa)
#
#
# Indices 1 2 3 4 5 6 
#
# 1 118.4348 31.5993 29.4661 -2.6566 -13.0573 11.2250
# 2 31.5993 106.5157 35.1477 -12.3355 -0.0326 3.9988
# 3 29.4661 35.1477 125.9252 -6.9651 -8.5084 9.1057
# 4 -2.6566 -12.3355 -6.9651 39.3245 2.1859 2.0374
# 5 -13.0573 -0.0326 -8.5084 2.1859 43.8214 -4.2725
# 6 11.2250 3.9988 9.1057 2.0374 -4.2725 44.1340
#
#
#
# Elastic Compliance Matrix: (Units=1/GPa)
#
#
# Indices 1 2 3 4 5 6 
#
# 1 0.009871 -0.002463 -0.001347 -0.000394 0.002527 -0.001747
# 2 -0.002463 0.011296 -0.002491 0.003020 -0.001375 -0.000156
# 3 -0.001347 -0.002491 0.009165 0.000747 0.001218 -0.001239
# 4 -0.000394 0.003020 0.000747 0.026652 -0.001465 -0.001700
# 5 0.002527 -0.001375 0.001218 -0.001465 0.024040 0.001625
# 6 -0.001747 -0.000156 -0.001239 -0.001700 0.001625 0.023608
#
#
# Mechanical properties :
#
#
# Convention : Reuss Voigt Hill
#
# Bulk Modulus (GPa) = 56.40316 60.36685 58.38500
# Shear Modulus (GPa) = 40.60240 42.43347 41.51794
#
# Velocity S-wave (km/s) = 4.09282 4.18409 4.13871
# Velocity P-wave (km/s) = 6.75315 6.94604 6.85027
#
# Compressibility (1/GPa) = 0.01772950
#
# Stress axis : x y z
#
# Youngs Moduli (GPa) = 101.30538 88.52478 109.11070
#
# Poissons Ratio (x) = 0.21806 0.14698
# Poissons Ratio (y) = 0.24954 0.27181
# Poissons Ratio (z) = 0.13646 0.22053
#
# Static dielectric constant tensor:
#      x y z
#    x 4.524370 0.309420 0.314470 
#    y 0.309420 4.230270 0.073730 
#    z 0.314470 0.073730 4.262410 
# 
# 
# High freq. dielectric constant tensor:
#      x y z
#    x 1.979660 0.004610 0.001440 
#    y 0.004610 1.970370 -0.008970 
#    z 0.001440 -0.008970 1.963140 
# 
# From -- ./inp_files/218003.got.cif
#   From: 2010.06.25/outbox.cif.g09.slc.cpg/sg2_110_cif.got.tgz:218003.got - 2010.06.27 13:26:56.
