data_PCOD8035225
_publ_section_title
;
Structure prediction by ZEFSAII (Michael W. Deem and Ramdas Pophale) SiO2 
 PCOD8035225
Probable space group: P -1
;
_chemical_formula_sum "Si O2"
_cell_formula_units_Z 16
_cell_length_a 8.781140
_cell_length_b 13.653164
_cell_length_c 12.298912
_cell_angle_alpha 136.256632
_cell_angle_beta 142.252297
_cell_angle_gamma 48.053584
_cell_volume 607.464948
_symmetry_space_group_name_H-M "P -1"
_symmetry_group_IT_number 2
_symmetry_cell_setting 'triclinic'
loop_
_space_group_symop_operation_xyz
x,y,z
-x,-y,-z
loop_
_atom_site_type_symbol
_atom_site_label
_atom_site_fract_x
_atom_site_fract_y
_atom_site_fract_z
Si Si1 0.026776 0.154643 0.592951
Si Si2 0.193898 0.286808 0.610166
Si Si3 0.486944 0.235491 0.406776
Si Si4 0.048664 0.132616 0.013788
Si Si5 0.676136 0.334626 0.816145
Si Si6 0.781013 0.523047 0.683784
Si Si7 0.142970 0.810234 0.817128
Si Si8 0.299054 0.367364 0.037291
O O1 0.202285 0.139405 0.569810
O O2 0.728553 0.233366 0.462110
O O3 0.127575 0.255095 0.818083
O O4 0.000000 0.000000 0.500000
O O5 0.462224 0.330095 0.783968
O O6 0.018634 0.396549 0.683857
O O7 0.061797 0.279479 0.413250
O O8 0.348905 0.102468 0.202294
O O9 0.584781 0.252964 0.596853
O O10 0.233094 0.354851 0.319378
O O11 0.857675 0.183570 0.048067
O O12 0.948027 0.245362 0.947424
O O13 0.045435 0.971663 0.841184
O O14 0.687342 0.500672 0.932420
O O15 0.500000 0.500000 0.500000
O O16 0.830738 0.562084 0.867961
O O17 0.416237 0.727569 0.859306
#
# Coordination Sequence:
#
# PCOD8035225 Si02
#       8
#     2   2   2   2   2   2   2   2
#     4  12  29  49  76 115 158 207 265 318 393 488
#     4  12  26  49  79 114 161 203 262 332 394 467
#     4  12  26  48  75 113 159 205 257 334 396 464
#     4  11  28  47  76 117 159 209 268 327 398 475
#     4  12  28  48  84 120 155 203 272 339 390 468
#     4  12  24  49  76 112 161 206 259 326 403 469
#     4  11  24  50  76 112 163 214 258 324 404 478
#     4  12  27  51  83 117 158 211 267 329 404 473
#
# _framework density 26.338965000000002
#
# number of rings (size 3 to 8) (size 9 to 14) (size 15 to 20)
#    0.000    0.250    5.000    1.500    7.000    4.500 
#    0.000    2.500    0.000    0.000    0.000    0.000 
#    0.000    0.000    0.000    0.000    0.000    0.000 
#
# Total GULP energy -198228.733414 kJ/mol
# GULP energy per Si atom -12389.295838 kJ/mol
# Density = 2.627902 g / cm^3
# Si number density = 26.338965 Si / 1000 Ang^3
#
#
#
# Elastic Constant Matrix: (Units=GPa)
#
#
# Indices 1 2 3 4 5 6 
#
# 1 126.3451 44.0041 43.9288 4.5354 17.1563 12.0637
# 2 44.0041 132.5259 49.7112 0.2252 -4.2488 22.6819
# 3 43.9288 49.7112 185.2128 -3.2512 11.6538 4.3454
# 4 4.5354 0.2252 -3.2512 37.9622 -0.0356 -0.7358
# 5 17.1563 -4.2488 11.6538 -0.0356 49.7533 -8.4517
# 6 12.0637 22.6819 4.3454 -0.7358 -8.4517 41.7068
#
#
#
# Elastic Compliance Matrix: (Units=1/GPa)
#
#
# Indices 1 2 3 4 5 6 
#
# 1 0.010063 -0.002549 -0.001442 -0.001356 -0.003716 -0.002151
# 2 -0.002549 0.009920 -0.002056 -0.000009 0.001505 -0.004139
# 3 -0.001442 -0.002056 0.006356 0.000741 -0.001052 0.000673
# 4 -0.001356 -0.000009 0.000741 0.026585 0.000462 0.000883
# 5 -0.003716 0.001505 -0.001052 0.000462 0.022597 0.004954
# 6 -0.002151 -0.004139 0.000673 0.000883 0.004954 0.027799
#
#
# Mechanical properties :
#
#
# Convention : Reuss Voigt Hill
#
# Bulk Modulus (GPa) = 70.19752 79.93020 75.06386
# Shear Modulus (GPa) = 41.61048 46.31379 43.96213
#
# Velocity S-wave (km/s) = 3.97899 4.19785 4.08988
# Velocity P-wave (km/s) = 6.91515 7.34224 7.13189
#
# Compressibility (1/GPa) = 0.01424552
#
# Stress axis : x y z
#
# Youngs Moduli (GPa) = 99.37732 100.80958 157.32222
#
# Poissons Ratio (x) = 0.25696 0.22686
# Poissons Ratio (y) = 0.25331 0.32339
# Poissons Ratio (z) = 0.14330 0.20723
#
# Static dielectric constant tensor:
#      x y z
#    x 4.936530 -0.344790 0.396370 
#    y -0.344790 4.621850 0.016850 
#    z 0.396370 0.016850 4.900360 
# 
# 
# High freq. dielectric constant tensor:
#      x y z
#    x 2.064120 0.011530 0.017920 
#    y 0.011530 2.054600 -0.003520 
#    z 0.017920 -0.003520 2.082180 
# 
# From -- ./inp_files/399697.got.cif
#   From: 2010.06.25/outbox.cif.g09.slc.cpg/sg2_200_cif.got.tgz:399697.got - 2010.06.27 13:26:56.
