data_PCOD8035904
_publ_section_title
;
Structure prediction by ZEFSAII (Michael W. Deem and Ramdas Pophale) SiO2 
 PCOD8035904
Probable space group: P -1
;
_chemical_formula_sum "Si O2"
_cell_formula_units_Z 14
_cell_length_a 20.107046
_cell_length_b 11.165778
_cell_length_c 11.998621
_cell_angle_alpha 51.784392
_cell_angle_beta 22.853418
_cell_angle_gamma 40.008200
_cell_volume 630.251217
_symmetry_space_group_name_H-M "P -1"
_symmetry_group_IT_number 2
_symmetry_cell_setting 'triclinic'
loop_
_space_group_symop_operation_xyz
x,y,z
-x,-y,-z
loop_
_atom_site_type_symbol
_atom_site_label
_atom_site_fract_x
_atom_site_fract_y
_atom_site_fract_z
Si Si1 0.716801 0.786942 0.827092
Si Si2 0.802320 0.229455 0.189737
Si Si3 0.558655 0.793629 0.295124
Si Si4 0.190902 0.601678 0.141757
Si Si5 0.636060 0.845236 0.474632
Si Si6 0.525516 0.574383 0.802742
Si Si7 0.853434 0.421622 0.199236
O O1 0.725698 0.619769 0.844983
O O2 0.932087 0.765003 0.480062
O O3 0.722891 0.764036 0.964300
O O4 0.500000 0.000000 0.000000
O O5 0.570152 0.272764 0.524004
O O6 0.828893 0.292326 0.231155
O O7 0.791537 0.362374 0.034499
O O8 0.000000 0.000000 0.000000
O O9 0.700716 0.652000 0.263022
O O10 0.380929 0.027090 0.469333
O O11 0.329324 0.637637 0.985027
O O12 0.511316 0.760549 0.749346
O O13 0.500000 0.000000 0.500000
O O14 0.890123 0.669482 0.143376
O O15 0.763873 0.415916 0.461815
O O16 0.500000 0.500000 0.000000
#
# Coordination Sequence:
#
# PCOD8035904 Si02
#       7
#     2   2   2   2   2   2   2
#     4  11  26  43  73 106 142 186 227 300 378 421
#     4  12  22  44  77 110 139 175 238 312 357 425
#     4  12  24  45  72 105 141 183 244 293 359 428
#     4  11  25  48  69 106 147 178 239 297 364 430
#     4  12  27  48  72 104 140 192 251 285 342 445
#     4  12  29  48  71 103 149 195 238 293 352 425
#     4  12  25  47  79 100 144 192 239 300 368 418
#
# _framework density 22.213363000000001
#
# number of rings (size 3 to 8) (size 9 to 14) (size 15 to 20)
#    0.000    0.286    5.714    2.571    4.000    0.000 
#    0.000    1.429    0.000    0.000    0.000    0.000 
#    0.000    0.000    0.000    0.000    0.000    0.000 
#
# Total GULP energy -173648.110189 kJ/mol
# GULP energy per Si atom -12403.436442 kJ/mol
# Density = 2.216280 g / cm^3
# Si number density = 22.213363 Si / 1000 Ang^3
#
#
#
# Elastic Constant Matrix: (Units=GPa)
#
#
# Indices 1 2 3 4 5 6 
#
# 1 83.1284 33.0430 57.0320 -13.2275 7.0062 -3.3847
# 2 33.0430 128.9467 56.1631 2.6652 -1.9974 2.4381
# 3 57.0320 56.1631 139.6319 -3.1910 -3.0365 9.1824
# 4 -13.2275 2.6652 -3.1910 45.0766 -2.4000 -2.0490
# 5 7.0062 -1.9974 -3.0365 -2.4000 49.5394 -1.1134
# 6 -3.3847 2.4381 9.1824 -2.0490 -1.1134 32.3194
#
#
#
# Elastic Compliance Matrix: (Units=1/GPa)
#
#
# Indices 1 2 3 4 5 6 
#
# 1 0.019009 -0.001969 -0.007205 0.005233 -0.002857 0.004420
# 2 -0.001969 0.009641 -0.003087 -0.001350 0.000410 -0.000128
# 3 -0.007205 -0.003087 0.011603 -0.001207 0.001461 -0.003845
# 4 0.005233 -0.001350 -0.001207 0.023847 0.000343 0.002517
# 5 -0.002857 0.000410 0.001461 0.000343 0.020712 -0.000010
# 6 0.004420 -0.000128 -0.003845 0.002517 -0.000010 0.032665
#
#
# Mechanical properties :
#
#
# Convention : Reuss Voigt Hill
#
# Bulk Modulus (GPa) = 63.57032 71.57591 67.57311
# Shear Modulus (GPa) = 33.95708 39.08503 36.52106
#
# Velocity S-wave (km/s) = 3.91407 4.19922 4.05915
# Velocity P-wave (km/s) = 7.00762 7.47016 7.24258
#
# Compressibility (1/GPa) = 0.01573061
#
# Stress axis : x y z
#
# Youngs Moduli (GPa) = 52.60648 103.72407 86.18100
#
# Poissons Ratio (x) = 0.20421 0.62097
# Poissons Ratio (y) = 0.10357 0.26606
# Poissons Ratio (z) = 0.37905 0.32022
#
# Static dielectric constant tensor:
#      x y z
#    x 4.027110 0.196660 0.069870 
#    y 0.196660 4.194320 0.052570 
#    z 0.069870 0.052570 4.278980 
# 
# 
# High freq. dielectric constant tensor:
#      x y z
#    x 1.878860 0.016880 0.001520 
#    y 0.016880 1.879840 0.001090 
#    z 0.001520 0.001090 1.888350 
# 
# From -- ./inp_files/223286.got.cif
#   From: 2010.06.25/outbox.cif.g09.slc.cpg/sg2_112_cif.got.tgz:223286.got - 2010.06.27 13:26:56.
