data_PCOD8035607
_publ_section_title
;
Structure prediction by ZEFSAII (Michael W. Deem and Ramdas Pophale) SiO2 
 PCOD8035607
Probable space group: P -1
;
_chemical_formula_sum "Si O2"
_cell_formula_units_Z 16
_cell_length_a 11.589251
_cell_length_b 9.244331
_cell_length_c 9.457004
_cell_angle_alpha 103.800093
_cell_angle_beta 136.039546
_cell_angle_gamma 79.784740
_cell_volume 682.981546
_symmetry_space_group_name_H-M "P -1"
_symmetry_group_IT_number 2
_symmetry_cell_setting 'triclinic'
loop_
_space_group_symop_operation_xyz
x,y,z
-x,-y,-z
loop_
_atom_site_type_symbol
_atom_site_label
_atom_site_fract_x
_atom_site_fract_y
_atom_site_fract_z
Si Si1 0.837414 0.067766 0.662278
Si Si2 0.342649 0.086789 0.314439
Si Si3 0.796069 0.983501 0.114586
Si Si4 0.192527 0.391600 0.276647
Si Si5 0.322121 0.711213 0.955733
Si Si6 0.319033 0.151842 0.732271
Si Si7 0.183809 0.652250 0.123676
Si Si8 0.820037 0.542396 0.404319
O O1 0.769962 0.230559 0.685219
O O2 0.020938 0.080746 0.764730
O O3 0.826920 0.968750 0.772169
O O4 0.711618 0.995792 0.421756
O O5 0.338383 0.265523 0.374787
O O6 0.500000 0.000000 0.500000
O O7 0.330950 0.046888 0.131514
O O8 0.715876 0.893656 0.149739
O O9 0.808855 0.162960 0.187143
O O10 0.223956 0.492583 0.190274
O O11 0.201614 0.482886 0.452796
O O12 0.008257 0.324149 0.084144
O O13 0.311278 0.562146 0.817249
O O14 0.498044 0.787307 0.109540
O O15 0.295919 0.672054 0.088089
O O16 0.197353 0.283905 0.606718
O O17 0.000000 0.500000 0.500000
#
# Coordination Sequence:
#
# PCOD8035607 Si02
#       8
#     2   2   2   2   2   2   2   2
#     4  12  24  46  76 110 140 196 256 309 365 444
#     4  12  25  47  76 108 152 193 244 317 381 435
#     4  12  26  46  77 104 148 197 254 308 368 450
#     4  11  25  48  75 113 146 195 254 309 370 451
#     4  12  26  48  69 108 150 196 240 313 379 436
#     4  12  29  47  71 108 151 195 253 308 377 440
#     4  11  25  45  81 110 146 192 255 309 377 442
#     4  12  26  46  74 103 151 199 245 300 374 456
#
# _framework density 23.426693
#
# number of rings (size 3 to 8) (size 9 to 14) (size 15 to 20)
#    0.000    0.250    5.000    3.750    5.250    0.000 
#    0.000    1.250    0.000    0.000    0.000    0.000 
#    0.000    0.000    0.000    0.000    0.000    0.000 
#
# Total GULP energy -198400.279573 kJ/mol
# GULP energy per Si atom -12400.017473 kJ/mol
# Density = 2.337337 g / cm^3
# Si number density = 23.426693 Si / 1000 Ang^3
#
#
#
# Elastic Constant Matrix: (Units=GPa)
#
#
# Indices 1 2 3 4 5 6 
#
# 1 143.9652 54.8614 63.5172 -2.2529 -18.1560 29.3952
# 2 54.8614 110.3964 47.6266 2.4030 -4.6688 2.3246
# 3 63.5172 47.6266 136.5491 21.6464 -12.8255 4.1097
# 4 -2.2529 2.4030 21.6464 48.0333 1.9029 -8.0825
# 5 -18.1560 -4.6688 -12.8255 1.9029 36.3369 -6.4119
# 6 29.3952 2.3246 4.1097 -8.0825 -6.4119 41.3523
#
#
#
# Elastic Compliance Matrix: (Units=1/GPa)
#
#
# Indices 1 2 3 4 5 6 
#
# 1 0.012085 -0.004074 -0.003908 0.001192 0.002783 -0.007309
# 2 -0.004074 0.012104 -0.002631 0.000848 -0.001015 0.002485
# 3 -0.003908 -0.002631 0.010990 -0.004884 0.002056 0.001198
# 4 0.001192 0.000848 -0.004884 0.023767 -0.001559 0.003994
# 5 0.002783 -0.001015 0.002056 -0.001559 0.029979 0.002218
# 6 -0.007309 0.002485 0.001198 0.003994 0.002218 0.030244
#
#
# Mechanical properties :
#
#
# Convention : Reuss Voigt Hill
#
# Bulk Modulus (GPa) = 71.66903 80.32458 75.99681
# Shear Modulus (GPa) = 34.47171 40.13818 37.30494
#
# Velocity S-wave (km/s) = 3.84014 4.14376 3.99483
# Velocity P-wave (km/s) = 7.09377 7.56679 7.33409
#
# Compressibility (1/GPa) = 0.01395303
#
# Stress axis : x y z
#
# Youngs Moduli (GPa) = 82.74934 82.61565 90.98970
#
# Poissons Ratio (x) = 0.33657 0.35558
# Poissons Ratio (y) = 0.33711 0.23942
# Poissons Ratio (z) = 0.32338 0.21739
#
# Static dielectric constant tensor:
#      x y z
#    x 4.366600 -0.043610 -0.224230 
#    y -0.043610 4.838210 0.187290 
#    z -0.224230 0.187290 4.270860 
# 
# 
# High freq. dielectric constant tensor:
#      x y z
#    x 1.937420 -0.001450 -0.009330 
#    y -0.001450 1.936030 0.005750 
#    z -0.009330 0.005750 1.925420 
# 
# From -- ./inp_files/244780.got.cif
#   From: 2010.06.25/outbox.cif.g09.slc.cpg/sg2_123_cif.got.tgz:244780.got - 2010.06.27 13:26:56.
