data_PCOD8035234
_publ_section_title
;
Structure prediction by ZEFSAII (Michael W. Deem and Ramdas Pophale) SiO2 
 PCOD8035234
Probable space group: P -1
;
_chemical_formula_sum "Si O2"
_cell_formula_units_Z 12
_cell_length_a 8.712140
_cell_length_b 5.837010
_cell_length_c 9.127003
_cell_angle_alpha 87.809964
_cell_angle_beta 90.043939
_cell_angle_gamma 70.546511
_cell_volume 437.273175
_symmetry_space_group_name_H-M "P -1"
_symmetry_group_IT_number 2
_symmetry_cell_setting 'triclinic'
loop_
_space_group_symop_operation_xyz
x,y,z
-x,-y,-z
loop_
_atom_site_type_symbol
_atom_site_label
_atom_site_fract_x
_atom_site_fract_y
_atom_site_fract_z
Si Si1 0.447867 0.570819 0.164766
Si Si2 0.586979 0.150832 0.401210
Si Si3 0.013884 0.452636 0.267865
Si Si4 0.711980 0.808927 0.168011
Si Si5 0.868772 0.261250 0.524673
Si Si6 0.161692 0.996431 0.087697
O O1 0.468597 0.346997 0.283351
O O2 0.561267 0.723953 0.210983
O O3 0.255753 0.733410 0.165292
O O4 0.500000 0.500000 0.000000
O O5 0.681523 0.267379 0.513153
O O6 0.500000 0.000000 0.500000
O O7 0.727843 0.970212 0.303430
O O8 0.115913 0.621231 0.320594
O O9 0.884546 0.595879 0.141042
O O10 0.891744 0.439906 0.396764
O O11 0.123677 0.190670 0.215048
O O12 0.697053 0.962914 0.015557
O O13 0.000000 0.000000 0.500000
O O14 0.000000 0.000000 0.000000
#
# Coordination Sequence:
#
# PCOD8035234 Si02
#       6
#     2   2   2   2   2   2
#     4  12  27  55  83 115 172 220 274 354 419 497
#     4  12  28  54  83 122 165 224 285 344 424 504
#     4  11  25  48  85 122 163 215 280 345 428 493
#     4  12  25  54  79 119 166 210 278 351 420 496
#     4  11  24  52  80 112 171 220 273 347 412 506
#     4  12  27  51  86 128 162 217 284 351 421 505
#
# _framework density 27.442799999999998
#
# number of rings (size 3 to 8) (size 9 to 14) (size 15 to 20)
#    0.000    0.333    5.000    3.000    0.000    2.000 
#    9.000    0.833    0.000    0.000    0.000    0.000 
#    0.000    0.000    0.000    0.000    0.000    0.000 
#
# Total GULP energy -148762.811927 kJ/mol
# GULP energy per Si atom -12396.900994 kJ/mol
# Density = 2.738034 g / cm^3
# Si number density = 27.442800 Si / 1000 Ang^3
#
#
#
# Elastic Constant Matrix: (Units=GPa)
#
#
# Indices 1 2 3 4 5 6 
#
# 1 151.0569 63.7289 68.8984 -9.5516 9.0458 8.9676
# 2 63.7289 173.1762 66.1324 -1.9143 17.6810 -23.0474
# 3 68.8984 66.1324 119.4740 -10.1577 8.5305 4.7672
# 4 -9.5516 -1.9143 -10.1577 64.6183 9.0611 -2.1268
# 5 9.0458 17.6810 8.5305 9.0611 56.9453 -9.4349
# 6 8.9676 -23.0474 4.7672 -2.1268 -9.4349 55.7298
#
#
#
# Elastic Compliance Matrix: (Units=1/GPa)
#
#
# Indices 1 2 3 4 5 6 
#
# 1 0.009656 -0.002173 -0.004164 0.000736 -0.000715 -0.002189
# 2 -0.002173 0.008596 -0.003620 -0.000355 -0.001059 0.004021
# 3 -0.004164 -0.003620 0.013022 0.001358 -0.000714 -0.002010
# 4 0.000736 -0.000355 0.001358 0.016175 -0.002824 -0.000242
# 5 -0.000715 -0.001059 -0.000714 -0.002824 0.019032 0.002853
# 6 -0.002189 0.004021 -0.002010 -0.000242 0.002853 0.020605
#
#
# Mechanical properties :
#
#
# Convention : Reuss Voigt Hill
#
# Bulk Modulus (GPa) = 88.03812 93.46961 90.75387
# Shear Modulus (GPa) = 45.13188 51.78851 48.46019
#
# Velocity S-wave (km/s) = 4.05974 4.34884 4.20677
# Velocity P-wave (km/s) = 7.35701 7.70391 7.53246
#
# Compressibility (1/GPa) = 0.01135872
#
# Stress axis : x y z
#
# Youngs Moduli (GPa) = 103.56718 116.33387 76.79407
#
# Poissons Ratio (x) = 0.25282 0.31979
# Poissons Ratio (y) = 0.22507 0.27799
# Poissons Ratio (z) = 0.43128 0.42112
#
# Static dielectric constant tensor:
#      x y z
#    x 4.813830 0.211200 0.049910 
#    y 0.211200 5.216160 -0.117540 
#    z 0.049910 -0.117540 5.150320 
# 
# 
# High freq. dielectric constant tensor:
#      x y z
#    x 2.109260 0.005200 -0.012380 
#    y 0.005200 2.117270 -0.009430 
#    z -0.012380 -0.009430 2.123930 
# 
# From -- ./inp_files/143780.got.cif
#   From: 2010.06.25/outbox.cif.g09.slc.cpg/sg2_72_cif.got.tgz:143780.got - 2010.06.27 13:26:56.
