data_PCOD8035784
_publ_section_title
;
Structure prediction by ZEFSAII (Michael W. Deem and Ramdas Pophale) SiO2 
 PCOD8035784
Probable space group: P -1
;
_chemical_formula_sum "Si O2"
_cell_formula_units_Z 16
_cell_length_a 18.995665
_cell_length_b 11.750562
_cell_length_c 9.443316
_cell_angle_alpha 71.448346
_cell_angle_beta 44.985664
_cell_angle_gamma 36.694317
_cell_volume 719.318249
_symmetry_space_group_name_H-M "P -1"
_symmetry_group_IT_number 2
_symmetry_cell_setting 'triclinic'
loop_
_space_group_symop_operation_xyz
x,y,z
-x,-y,-z
loop_
_atom_site_type_symbol
_atom_site_label
_atom_site_fract_x
_atom_site_fract_y
_atom_site_fract_z
Si Si1 0.296205 0.771282 0.347658
Si Si2 0.066953 0.384014 0.799479
Si Si3 0.922626 0.091558 0.916445
Si Si4 0.455787 0.361528 0.724195
Si Si5 0.703656 0.725908 0.972077
Si Si6 0.516249 0.307051 0.142132
Si Si7 0.283885 0.930576 0.779328
Si Si8 0.657003 0.736527 0.719672
O O1 0.394011 0.764567 0.316153
O O2 0.401624 0.533427 0.292749
O O3 0.313886 0.813132 0.151281
O O4 0.073749 0.985673 0.628201
O O5 0.218495 0.324153 0.550651
O O6 0.891257 0.551076 0.872575
O O7 0.171186 0.148185 0.764845
O O8 0.000000 0.500000 0.000000
O O9 0.746730 0.366403 0.061220
O O10 0.861189 0.023289 0.980530
O O11 0.000000 0.000000 0.000000
O O12 0.551527 0.302203 0.462659
O O13 0.424675 0.251529 0.798822
O O14 0.765673 0.636617 0.756001
O O15 0.566091 0.985180 0.068725
O O16 0.616715 0.123194 0.196612
O O17 0.362031 0.384185 0.246356
#
# Coordination Sequence:
#
# PCOD8035784 Si02
#       8
#     2   2   2   2   2   2   2   2
#     4  11  25  47  69 104 144 179 239 286 346 419
#     4  12  28  46  68 110 141 179 236 288 347 420
#     4  12  24  41  71 103 135 185 229 288 348 411
#     4  12  23  47  71 103 138 184 237 287 346 412
#     4  11  25  47  76 101 135 188 234 287 345 412
#     4  11  25  47  72 101 146 189 224 292 355 413
#     4  12  25  44  70 102 144 184 233 288 350 415
#     4  11  25  49  74  99 140 187 232 285 351 409
#
# _framework density 22.243283000000002
#
# number of rings (size 3 to 8) (size 9 to 14) (size 15 to 20)
#    0.000    0.500    5.000    3.000    3.500    1.500 
#    4.500    0.000    0.000    0.000    0.000    0.000 
#    0.000    0.000    0.000    0.000    0.000    0.000 
#
# Total GULP energy -198454.915026 kJ/mol
# GULP energy per Si atom -12403.432189 kJ/mol
# Density = 2.219266 g / cm^3
# Si number density = 22.243283 Si / 1000 Ang^3
#
#
#
# Elastic Constant Matrix: (Units=GPa)
#
#
# Indices 1 2 3 4 5 6 
#
# 1 122.4062 38.4128 42.6936 -1.0195 5.4712 -10.2149
# 2 38.4128 86.6055 44.3263 -9.1658 -2.0293 -15.1279
# 3 42.6936 44.3263 147.6807 4.9740 2.6473 -12.3956
# 4 -1.0195 -9.1658 4.9740 18.9763 -2.6688 1.4810
# 5 5.4712 -2.0293 2.6473 -2.6688 32.0125 -11.3007
# 6 -10.2149 -15.1279 -12.3956 1.4810 -11.3007 40.7287
#
#
#
# Elastic Compliance Matrix: (Units=1/GPa)
#
#
# Indices 1 2 3 4 5 6 
#
# 1 0.010010 -0.003700 -0.001702 -0.001074 -0.001843 0.000146
# 2 -0.003700 0.017306 -0.004091 0.009487 0.004699 0.005214
# 3 -0.001702 -0.004091 0.008712 -0.004519 -0.000841 0.000636
# 4 -0.001074 0.009487 -0.004519 0.059219 0.006650 0.001571
# 5 -0.001843 0.004699 -0.000841 0.006650 0.036308 0.010860
# 6 0.000146 0.005214 0.000636 0.001571 0.010860 0.029676
#
#
# Mechanical properties :
#
#
# Convention : Reuss Voigt Hill
#
# Bulk Modulus (GPa) = 58.67650 67.50644 63.09147
# Shear Modulus (GPa) = 26.89658 33.76080 30.32869
#
# Velocity S-wave (km/s) = 3.48113 3.90012 3.69656
# Velocity P-wave (km/s) = 6.52644 7.12013 6.82974
#
# Compressibility (1/GPa) = 0.01704260
#
# Stress axis : x y z
#
# Youngs Moduli (GPa) = 99.90208 57.78185 114.78546
#
# Poissons Ratio (x) = 0.21380 0.19534
# Poissons Ratio (y) = 0.36964 0.46959
# Poissons Ratio (z) = 0.17001 0.23639
#
# Static dielectric constant tensor:
#      x y z
#    x 4.120580 -0.016950 0.022050 
#    y -0.016950 3.998780 -0.084090 
#    z 0.022050 -0.084090 4.124850 
# 
# 
# High freq. dielectric constant tensor:
#      x y z
#    x 1.888810 0.001160 0.005190 
#    y 0.001160 1.873430 -0.012580 
#    z 0.005190 -0.012580 1.884260 
# 
# From -- ./inp_files/272631.got.cif
#   From: 2010.06.25/outbox.cif.g09.slc.cpg/sg2_137_cif.got.tgz:272631.got - 2010.06.27 13:26:56.
