data_PCOD8035970
_publ_section_title
;
Structure prediction by ZEFSAII (Michael W. Deem and Ramdas Pophale) SiO2 
 PCOD8035970
Probable space group: P -1
;
_chemical_formula_sum "Si O2"
_cell_formula_units_Z 14
_cell_length_a 11.103130
_cell_length_b 15.606244
_cell_length_c 7.862153
_cell_angle_alpha 115.705262
_cell_angle_beta 78.404544
_cell_angle_gamma 46.689626
_cell_volume 580.129592
_symmetry_space_group_name_H-M "P -1"
_symmetry_group_IT_number 2
_symmetry_cell_setting 'triclinic'
loop_
_space_group_symop_operation_xyz
x,y,z
-x,-y,-z
loop_
_atom_site_type_symbol
_atom_site_label
_atom_site_fract_x
_atom_site_fract_y
_atom_site_fract_z
Si Si1 0.002102 0.267303 0.925120
Si Si2 0.392771 0.324200 0.723441
Si Si3 0.790059 0.899446 0.751290
Si Si4 0.173187 0.975438 0.411773
Si Si5 0.717992 0.429537 0.493116
Si Si6 0.292466 0.776850 0.715042
Si Si7 0.495441 0.064280 0.318496
O O1 0.032598 0.150728 0.712299
O O2 0.272095 0.126463 0.791474
O O3 0.866214 0.439894 0.997173
O O4 0.824849 0.360542 0.212408
O O5 0.594667 0.220906 0.437169
O O6 0.536838 0.237274 0.788548
O O7 0.334334 0.255126 0.624779
O O8 0.810355 0.994557 0.759949
O O9 0.071098 0.669090 0.525043
O O10 0.688559 0.901340 0.628818
O O11 0.598898 0.030635 0.077551
O O12 0.000000 0.000000 0.500000
O O13 0.447036 0.670220 0.763514
O O14 0.672728 0.350815 0.489551
O O15 0.000000 0.000000 0.000000
#
# Coordination Sequence:
#
# PCOD8035970 Si02
#       7
#     2   2   2   2   2   2   2
#     4   9  20  39  58  83 116 155 197 236 288 355
#     4  10  21  38  59  83 116 159 196 233 293 356
#     4  10  20  39  60  88 120 151 195 248 292 335
#     4  11  23  38  59  87 121 153 189 242 299 351
#     4   9  19  34  55  81 113 152 194 240 285 335
#     4  10  17  31  56  81 107 148 198 236 276 336
#     4   9  20  40  63  82 115 156 199 246 284 337
#
# _framework density 24.132538
#
# number of rings (size 3 to 8) (size 9 to 14) (size 15 to 20)
#    0.000    2.286    0.000    3.429    0.000    4.000 
#    0.000   23.571    0.000    0.000    0.000    0.000 
#    0.000    0.000    0.000    0.000    0.000    0.000 
#
# Total GULP energy -173543.701904 kJ/mol
# GULP energy per Si atom -12395.978707 kJ/mol
# Density = 2.407761 g / cm^3
# Si number density = 24.132538 Si / 1000 Ang^3
#
#
#
# Elastic Constant Matrix: (Units=GPa)
#
#
# Indices 1 2 3 4 5 6 
#
# 1 131.2179 46.4672 29.9555 23.0680 -9.8540 -17.0096
# 2 46.4672 148.7534 44.4159 38.9476 -5.1230 -15.2436
# 3 29.9555 44.4159 49.3099 41.8318 -5.8242 -5.4410
# 4 23.0680 38.9476 41.8318 41.2932 3.0122 -7.6496
# 5 -9.8540 -5.1230 -5.8242 3.0122 24.4087 -1.6651
# 6 -17.0096 -15.2436 -5.4410 -7.6496 -1.6651 42.7843
#
#
#
# Elastic Compliance Matrix: (Units=1/GPa)
#
#
# Indices 1 2 3 4 5 6 
#
# 1 0.009648 -0.001475 -0.006974 0.003520 0.001700 0.003119
# 2 -0.001475 0.009655 -0.005305 -0.002631 0.000608 0.001732
# 3 -0.006974 -0.005305 0.288037 -0.293249 0.099858 -0.016577
# 4 0.003520 -0.002631 -0.293249 0.333182 -0.108959 0.018498
# 5 0.001700 0.000608 0.099858 -0.108959 0.078864 -0.002820
# 6 0.003119 0.001732 -0.016577 0.018498 -0.002820 0.026320
#
#
# Mechanical properties :
#
#
# Convention : Reuss Voigt Hill
#
# Bulk Modulus (GPa) = 3.57357 63.43982 33.50670
# Shear Modulus (GPa) = 5.77040 35.59341 20.68190
#
# Velocity S-wave (km/s) = 1.54801 3.84463 2.93065
# Velocity P-wave (km/s) = 2.16313 6.78626 5.03649
#
# Compressibility (1/GPa) = 0.27983248
#
# Stress axis : x y z
#
# Youngs Moduli (GPa) = 103.64313 103.57559 3.47178
#
# Poissons Ratio (x) = 0.15279 0.02421
# Poissons Ratio (y) = 0.15288 0.01842
# Poissons Ratio (z) = 0.72277 0.54948
#
# Static dielectric constant tensor:
#      x y z
#    x 4.376640 -0.109920 -0.193810 
#    y -0.109920 4.887430 0.279620 
#    z -0.193810 0.279620 4.136510 
# 
# 
# High freq. dielectric constant tensor:
#      x y z
#    x 1.959210 -0.004350 -0.014960 
#    y -0.004350 1.974840 0.009520 
#    z -0.014960 0.009520 1.937370 
# 
# From -- ./inp_files/273629.got.cif
#   From: 2010.06.25/outbox.cif.g09.slc.cpg/sg2_137_cif.got.tgz:273629.got - 2010.06.27 13:26:56.
