data_PCOD8035253
_publ_section_title
;
Structure prediction by ZEFSAII (Michael W. Deem and Ramdas Pophale) SiO2 
 PCOD8035253
Probable space group: P -1
;
_chemical_formula_sum "Si O2"
_cell_formula_units_Z 16
_cell_length_a 5.175781
_cell_length_b 13.973131
_cell_length_c 17.616460
_cell_angle_alpha 148.919257
_cell_angle_beta 75.114575
_cell_angle_gamma 100.503642
_cell_volume 633.834684
_symmetry_space_group_name_H-M "P -1"
_symmetry_group_IT_number 2
_symmetry_cell_setting 'triclinic'
loop_
_space_group_symop_operation_xyz
x,y,z
-x,-y,-z
loop_
_atom_site_type_symbol
_atom_site_label
_atom_site_fract_x
_atom_site_fract_y
_atom_site_fract_z
Si Si1 0.913264 0.251111 0.747714
Si Si2 0.264850 0.907817 0.496817
Si Si3 0.513589 0.193926 0.860140
Si Si4 0.366443 0.211548 0.376447
Si Si5 0.238350 0.636562 0.444843
Si Si6 0.049078 0.290105 0.149019
Si Si7 0.928124 0.368709 0.047504
Si Si8 0.631073 0.077430 0.117259
O O1 0.888331 0.208938 0.632104
O O2 0.630047 0.278992 0.831724
O O3 0.072962 0.435573 0.863218
O O4 0.076780 0.079904 0.662001
O O5 0.360235 0.767485 0.460825
O O6 0.500000 0.000000 0.500000
O O7 0.565950 0.972226 0.703620
O O8 0.198474 0.247103 0.922069
O O9 0.664547 0.273350 0.975754
O O10 0.565737 0.361495 0.495612
O O11 0.416384 0.169460 0.255062
O O12 0.061871 0.289293 0.460535
O O13 0.240131 0.426529 0.270606
O O14 0.909545 0.392846 0.156437
O O15 0.829445 0.233918 0.187769
O O16 0.212232 0.102893 0.978131
O O17 0.500000 0.000000 0.000000
#
# Coordination Sequence:
#
# PCOD8035253 Si02
#       8
#     2   2   2   2   2   2   2   2
#     4  11  25  42  64 104 142 192 243 302 356 424
#     4  11  25  43  70  98 150 201 240 296 367 434
#     4  12  25  44  70 105 145 193 245 300 364 425
#     4  12  27  49  79 107 151 192 244 307 371 440
#     4  12  28  49  76 112 150 197 247 301 367 445
#     4  11  27  48  77 110 147 194 247 306 374 443
#     4  12  26  44  72 105 142 193 247 300 360 439
#     4  11  27  51  80 108 148 192 243 310 380 443
#
# _framework density 25.243174
#
# number of rings (size 3 to 8) (size 9 to 14) (size 15 to 20)
#    0.000    0.500    3.750    3.000   10.500    1.000 
#    0.000    0.000    0.000    0.000    0.000    0.000 
#    0.000    0.000    0.000    0.000    0.000    0.000 
#
# Total GULP energy -198468.565607 kJ/mol
# GULP energy per Si atom -12404.285350 kJ/mol
# Density = 2.518572 g / cm^3
# Si number density = 25.243174 Si / 1000 Ang^3
#
#
#
# Elastic Constant Matrix: (Units=GPa)
#
#
# Indices 1 2 3 4 5 6 
#
# 1 71.0382 4.7667 18.6249 -3.3083 15.5708 13.5245
# 2 4.7667 106.6292 38.8339 -3.5085 5.0722 10.3743
# 3 18.6249 38.8339 97.9676 -6.3458 21.1599 7.3156
# 4 -3.3083 -3.5085 -6.3458 38.1686 2.3914 3.5295
# 5 15.5708 5.0722 21.1599 2.3914 43.5719 -6.4266
# 6 13.5245 10.3743 7.3156 3.5295 -6.4266 33.4905
#
#
#
# Elastic Compliance Matrix: (Units=1/GPa)
#
#
# Indices 1 2 3 4 5 6 
#
# 1 0.017772 0.001001 -0.001373 0.002678 -0.007254 -0.008861
# 2 0.001001 0.011242 -0.004374 0.000672 -0.000023 -0.003007
# 3 -0.001373 -0.004374 0.013906 0.002423 -0.006268 -0.002586
# 4 0.002678 0.000672 0.002423 0.027701 -0.004560 -0.005613
# 5 -0.007254 -0.000023 -0.006268 -0.004560 0.030406 0.010621
# 6 -0.008861 -0.003007 -0.002586 -0.005613 0.010621 0.037563
#
#
# Mechanical properties :
#
#
# Convention : Reuss Voigt Hill
#
# Bulk Modulus (GPa) = 29.91525 44.45401 37.18463
# Shear Modulus (GPa) = 31.40207 37.27352 34.33780
#
# Velocity S-wave (km/s) = 3.53084 3.84680 3.69220
# Velocity P-wave (km/s) = 5.33845 6.11384 5.73925
#
# Compressibility (1/GPa) = 0.03342776
#
# Stress axis : x y z
#
# Youngs Moduli (GPa) = 56.26951 88.95105 71.91104
#
# Poissons Ratio (x) = -0.08904 0.09876
# Poissons Ratio (y) = -0.05633 0.31451
# Poissons Ratio (z) = 0.07728 0.38904
#
# Static dielectric constant tensor:
#      x y z
#    x 4.486670 0.026000 0.067460 
#    y 0.026000 4.626130 0.059780 
#    z 0.067460 0.059780 4.798040 
# 
# 
# High freq. dielectric constant tensor:
#      x y z
#    x 1.998240 0.009320 0.006520 
#    y 0.009320 2.014580 0.000800 
#    z 0.006520 0.000800 2.017470 
# 
# From -- ./inp_files/142539.got.cif
#   From: 2010.06.25/outbox.cif.g09.slc.cpg/sg2_72_cif.got.tgz:142539.got - 2010.06.27 13:26:56.
