data_PCOD8035971
_publ_section_title
;
Structure prediction by ZEFSAII (Michael W. Deem and Ramdas Pophale) SiO2 
 PCOD8035971
Probable space group: P -1
;
_chemical_formula_sum "Si O2"
_cell_formula_units_Z 16
_cell_length_a 9.986347
_cell_length_b 5.277186
_cell_length_c 21.912279
_cell_angle_alpha 129.786985
_cell_angle_beta 50.930064
_cell_angle_gamma 108.752568
_cell_volume 682.412386
_symmetry_space_group_name_H-M "P -1"
_symmetry_group_IT_number 2
_symmetry_cell_setting 'triclinic'
loop_
_space_group_symop_operation_xyz
x,y,z
-x,-y,-z
loop_
_atom_site_type_symbol
_atom_site_label
_atom_site_fract_x
_atom_site_fract_y
_atom_site_fract_z
Si Si1 0.132847 0.062900 0.098333
Si Si2 0.613532 0.897330 0.509168
Si Si3 0.723306 0.171388 0.340145
Si Si4 0.949773 0.139018 0.469246
Si Si5 0.809557 0.762072 0.137933
Si Si6 0.031609 0.773643 0.267984
Si Si7 0.307776 0.937452 0.909556
Si Si8 0.628060 0.165024 0.899248
O O1 0.015171 0.379774 0.211574
O O2 0.302878 0.958048 0.073522
O O3 0.020852 0.752681 0.073946
O O4 0.197576 0.157286 0.027346
O O5 0.742834 0.556425 0.405628
O O6 0.479150 0.869015 0.597554
O O7 0.500000 0.000000 0.500000
O O8 0.740062 0.169171 0.529348
O O9 0.747751 0.066894 0.247422
O O10 0.861441 0.958947 0.312063
O O11 0.000000 0.500000 0.500000
O O12 0.000000 0.000000 0.500000
O O13 0.044665 0.898740 0.352648
O O14 0.753644 0.426341 0.130086
O O15 0.724935 0.860930 0.112416
O O16 0.210326 0.811056 0.187920
O O17 0.513171 0.902877 0.861258
O O18 0.500000 0.500000 0.000000
#
# Coordination Sequence:
#
# PCOD8035971 Si02
#       8
#     2   2   2   2   2   2   2   2
#     4  12  26  48  79 102 149 209 262 299 374 467
#     4  11  25  48  83 104 153 198 258 310 377 466
#     4  11  25  48  78 115 144 204 263 310 373 468
#     4  12  29  50  76 119 159 193 247 325 398 449
#     4  12  27  46  75 112 152 195 253 322 385 441
#     4  12  26  49  83 107 151 208 261 307 379 469
#     4  12  28  46  71 113 157 193 251 328 381 428
#     4  12  27  49  76 109 153 204 265 311 373 460
#
# _framework density 23.446234
#
# number of rings (size 3 to 8) (size 9 to 14) (size 15 to 20)
#    0.000    0.250    3.750    4.125    7.000    2.000 
#    0.000    0.000    0.000    0.000    0.000    0.000 
#    0.000    0.000    0.000    0.000    0.000    0.000 
#
# Total GULP energy -198417.014128 kJ/mol
# GULP energy per Si atom -12401.063383 kJ/mol
# Density = 2.339287 g / cm^3
# Si number density = 23.446234 Si / 1000 Ang^3
#
#
#
# Elastic Constant Matrix: (Units=GPa)
#
#
# Indices 1 2 3 4 5 6 
#
# 1 169.8559 51.8266 47.1902 9.6102 1.0637 -0.1318
# 2 51.8266 108.0292 19.6771 20.0879 0.2317 9.3694
# 3 47.1902 19.6771 111.1094 0.8050 7.5714 -9.0873
# 4 9.6102 20.0879 0.8050 33.7939 -10.7010 -2.6322
# 5 1.0637 0.2317 7.5714 -10.7010 44.1861 -8.8493
# 6 -0.1318 9.3694 -9.0873 -2.6322 -8.8493 57.0181
#
#
#
# Elastic Compliance Matrix: (Units=1/GPa)
#
#
# Indices 1 2 3 4 5 6 
#
# 1 0.007596 -0.003148 -0.002676 -0.000121 0.000292 0.000148
# 2 -0.003148 0.012587 -0.000924 -0.007499 -0.002232 -0.002916
# 3 -0.002676 -0.000924 0.010513 0.000810 -0.001201 0.001672
# 4 -0.000121 -0.007499 0.000810 0.037569 0.009931 0.004637
# 5 0.000292 -0.002232 -0.001201 0.009931 0.026188 0.004699
# 6 0.000148 -0.002916 0.001672 0.004637 0.004699 0.019228
#
#
# Mechanical properties :
#
#
# Convention : Reuss Voigt Hill
#
# Bulk Modulus (GPa) = 58.13648 69.59802 63.86725
# Shear Modulus (GPa) = 37.61909 45.01966 41.31938
#
# Velocity S-wave (km/s) = 4.00995 4.38668 4.20253
# Velocity P-wave (km/s) = 6.80360 7.44350 7.13074
#
# Compressibility (1/GPa) = 0.01720091
#
# Stress axis : x y z
#
# Youngs Moduli (GPa) = 131.64190 79.44491 95.12019
#
# Poissons Ratio (x) = 0.25008 0.25452
# Poissons Ratio (y) = 0.41440 0.08791
# Poissons Ratio (z) = 0.35224 0.07343
#
# Static dielectric constant tensor:
#      x y z
#    x 3.476020 -0.159110 0.876670 
#    y -0.159110 4.151830 0.244910 
#    z 0.876670 0.244910 3.839800 
# 
# 
# High freq. dielectric constant tensor:
#      x y z
#    x 1.936150 0.011660 0.002340 
#    y 0.011660 1.944970 -0.014320 
#    z 0.002340 -0.014320 1.935920 
# 
# From -- ./inp_files/605921.got.cif
#   From: 2010.06.25/outbox.cif.g09.slc.cpg/sg2_303_cif.got.tgz:605921.got - 2010.06.27 13:26:56.
