data_PCOD8035293
_publ_section_title
;
Structure prediction by ZEFSAII (Michael W. Deem and Ramdas Pophale) SiO2 
 PCOD8035293
Probable space group: P -1
;
_chemical_formula_sum "Si O2"
_cell_formula_units_Z 16
_cell_length_a 11.089651
_cell_length_b 11.129554
_cell_length_c 12.006713
_cell_angle_alpha 125.204239
_cell_angle_beta 103.039995
_cell_angle_gamma 119.299356
_cell_volume 740.878942
_symmetry_space_group_name_H-M "P -1"
_symmetry_group_IT_number 2
_symmetry_cell_setting 'triclinic'
loop_
_space_group_symop_operation_xyz
x,y,z
-x,-y,-z
loop_
_atom_site_type_symbol
_atom_site_label
_atom_site_fract_x
_atom_site_fract_y
_atom_site_fract_z
Si Si1 0.149186 0.514906 0.852168
Si Si2 0.728877 0.191823 0.164882
Si Si3 0.682084 0.260109 0.422655
Si Si4 0.022954 0.217459 0.206850
Si Si5 0.259946 0.890939 0.205738
Si Si6 0.721511 0.069824 0.520918
Si Si7 0.050141 0.156032 0.930288
Si Si8 0.580226 0.427934 0.922205
O O1 0.169204 0.585436 0.766799
O O2 0.951408 0.233747 0.668715
O O3 0.127298 0.632985 0.996118
O O4 0.339305 0.597990 0.974208
O O5 0.771078 0.245095 0.333271
O O6 0.817443 0.117792 0.104011
O O7 0.500000 0.000000 0.000000
O O8 0.721099 0.213982 0.521736
O O9 0.794994 0.517268 0.573616
O O10 0.448403 0.075347 0.260956
O O11 0.997856 0.061642 0.206571
O O12 0.086151 0.220308 0.100953
O O13 0.347350 0.945965 0.377782
O O14 0.134657 0.924070 0.197779
O O15 0.593410 0.818627 0.310138
O O16 0.247543 0.377659 0.024243
O O17 0.500000 0.500000 0.000000
#
# Coordination Sequence:
#
# PCOD8035293 Si02
#       8
#     2   2   2   2   2   2   2   2
#     4  12  25  44  77 104 141 183 238 295 343 415
#     4  12  23  43  68 102 136 181 232 287 344 410
#     4  12  24  41  74 104 137 180 238 292 347 412
#     4  11  25  43  69 102 140 188 232 283 357 415
#     4  12  23  45  72 108 141 180 242 289 349 421
#     4  12  25  44  76 106 136 186 238 293 351 414
#     4  11  25  46  67  98 147 187 226 294 350 415
#     4  12  29  49  70 103 145 188 234 291 360 417
#
# _framework density 21.595970000000001
#
# number of rings (size 3 to 8) (size 9 to 14) (size 15 to 20)
#    0.000    0.250    6.250    1.875    5.250    1.000 
#    2.250    0.000    0.000    0.000    0.000    0.000 
#    0.000    0.000    0.000    0.000    0.000    0.000 
#
# Total GULP energy -198421.233682 kJ/mol
# GULP energy per Si atom -12401.327105 kJ/mol
# Density = 2.154682 g / cm^3
# Si number density = 21.595970 Si / 1000 Ang^3
#
#
#
# Elastic Constant Matrix: (Units=GPa)
#
#
# Indices 1 2 3 4 5 6 
#
# 1 131.5286 59.5588 43.5506 11.5043 3.5788 0.3992
# 2 59.5588 118.5915 44.4552 -0.8144 -6.0448 -4.0132
# 3 43.5506 44.4552 114.6099 16.2272 1.6366 1.3302
# 4 11.5043 -0.8144 16.2272 41.2681 1.9197 0.3781
# 5 3.5788 -6.0448 1.6366 1.9197 30.1671 2.3684
# 6 0.3992 -4.0132 1.3302 0.3781 2.3684 42.1744
#
#
#
# Elastic Compliance Matrix: (Units=1/GPa)
#
#
# Indices 1 2 3 4 5 6 
#
# 1 0.010622 -0.004774 -0.001836 -0.002240 -0.001946 -0.000368
# 2 -0.004774 0.012316 -0.003410 0.002767 0.002954 0.001134
# 3 -0.001836 -0.003410 0.011325 -0.003967 -0.000782 -0.000585
# 4 -0.002240 0.002767 -0.003967 0.026500 -0.000667 0.000210
# 5 -0.001946 0.002954 -0.000782 -0.000667 0.034181 -0.001589
# 6 -0.000368 0.001134 -0.000585 0.000210 -0.001589 0.023928
#
#
# Mechanical properties :
#
#
# Convention : Reuss Voigt Hill
#
# Bulk Modulus (GPa) = 70.30175 73.31769 71.80972
# Shear Modulus (GPa) = 34.80605 37.19962 36.00284
#
# Velocity S-wave (km/s) = 4.01894 4.15484 4.08745
# Velocity P-wave (km/s) = 7.35933 7.55250 7.45654
#
# Compressibility (1/GPa) = 0.01422440
#
# Stress axis : x y z
#
# Youngs Moduli (GPa) = 94.14230 81.19487 88.29858
#
# Poissons Ratio (x) = 0.38759 0.16208
# Poissons Ratio (y) = 0.44940 0.30113
# Poissons Ratio (z) = 0.17281 0.27690
#
# Static dielectric constant tensor:
#      x y z
#    x 4.145150 0.302910 -0.076820 
#    y 0.302910 4.417990 -0.119350 
#    z -0.076820 -0.119350 4.127540 
# 
# 
# High freq. dielectric constant tensor:
#      x y z
#    x 1.844160 0.015260 0.012710 
#    y 0.015260 1.864370 -0.003330 
#    z 0.012710 -0.003330 1.848850 
# 
# From -- ./inp_files/428949.got.cif
#   From: 2010.06.25/outbox.cif.g09.slc.cpg/sg2_215_cif.got.tgz:428949.got - 2010.06.27 13:26:56.
