data_PCOD8035672
_publ_section_title
;
Structure prediction by ZEFSAII (Michael W. Deem and Ramdas Pophale) SiO2 
 PCOD8035672
Probable space group: P -1
;
_chemical_formula_sum "Si O2"
_cell_formula_units_Z 14
_cell_length_a 11.276078
_cell_length_b 14.502750
_cell_length_c 13.699869
_cell_angle_alpha 95.209652
_cell_angle_beta 146.505779
_cell_angle_gamma 60.731780
_cell_volume 811.864485
_symmetry_space_group_name_H-M "P -1"
_symmetry_group_IT_number 2
_symmetry_cell_setting 'triclinic'
loop_
_space_group_symop_operation_xyz
x,y,z
-x,-y,-z
loop_
_atom_site_type_symbol
_atom_site_label
_atom_site_fract_x
_atom_site_fract_y
_atom_site_fract_z
Si Si1 0.068897 0.577410 0.009972
Si Si2 0.255639 0.656119 0.644625
Si Si3 0.584909 0.686582 0.998929
Si Si4 0.735956 0.837422 0.143813
Si Si5 0.773399 0.612864 0.623768
Si Si6 0.222232 0.657895 0.286731
Si Si7 0.873847 0.474063 0.327905
O O1 0.450096 0.464401 0.236508
O O2 0.006401 0.680219 0.054710
O O3 0.000000 0.500000 0.000000
O O4 0.838519 0.663016 0.763840
O O5 0.248620 0.581779 0.717354
O O6 0.922969 0.768789 0.368019
O O7 0.315250 0.736203 0.743601
O O8 0.515236 0.816754 0.981878
O O9 0.577546 0.625643 0.086142
O O10 0.951555 0.558249 0.191417
O O11 0.982478 0.769305 0.217272
O O12 0.500000 0.000000 0.000000
O O13 0.409665 0.689611 0.381294
O O14 0.841794 0.639493 0.568440
O O15 0.500000 0.500000 0.500000
O O16 0.000000 0.500000 0.500000
#
# Coordination Sequence:
#
# PCOD8035672 Si02
#       7
#     2   2   2   2   2   2   2
#     4  11  18  28  51  79 108 133 171 222 268 318
#     4  11  19  34  55  80 113 143 172 229 277 310
#     4   9  19  33  51  83 108 136 179 218 270 319
#     4  12  24  36  52  80 114 147 181 219 269 328
#     4   9  19  30  50  83 105 128 174 222 268 317
#     4  12  17  33  54  74 103 141 177 222 270 309
#     4  10  17  31  55  85 113 134 175 231 277 313
#
# _framework density 17.244257000000001
#
# number of rings (size 3 to 8) (size 9 to 14) (size 15 to 20)
#    0.857    0.571    5.714    2.143    0.000    0.571 
#    0.000    0.000    0.000    0.857    0.000    2.000 
#    0.000    0.000    0.000    0.000    0.000    0.000 
#
# Total GULP energy -173497.141277 kJ/mol
# GULP energy per Si atom -12392.652948 kJ/mol
# Density = 1.720501 g / cm^3
# Si number density = 17.244257 Si / 1000 Ang^3
#
#
#
# Elastic Constant Matrix: (Units=GPa)
#
#
# Indices 1 2 3 4 5 6 
#
# 1 112.5021 39.9417 29.2337 3.0840 6.4596 -2.6285
# 2 39.9417 98.6122 45.1615 14.6539 -0.3992 -0.4304
# 3 29.2337 45.1615 51.5571 25.3569 1.1322 -5.3726
# 4 3.0840 14.6539 25.3569 34.8355 -6.4498 -3.6991
# 5 6.4596 -0.3992 1.1322 -6.4498 25.2041 11.6323
# 6 -2.6285 -0.4304 -5.3726 -3.6991 11.6323 25.7874
#
#
#
# Elastic Compliance Matrix: (Units=1/GPa)
#
#
# Indices 1 2 3 4 5 6 
#
# 1 0.011419 -0.002374 -0.006327 0.004332 -0.002234 0.001435
# 2 -0.002374 0.018955 -0.019378 0.006877 0.006204 -0.005775
# 3 -0.006327 -0.019378 0.059716 -0.036446 -0.017146 0.013979
# 4 0.004332 0.006877 -0.036446 0.054507 0.017963 -0.007321
# 5 -0.002234 0.006204 -0.017146 0.017963 0.058386 -0.027456
# 6 0.001435 -0.005775 0.013979 -0.007321 -0.027456 0.053076
#
#
# Mechanical properties :
#
#
# Convention : Reuss Voigt Hill
#
# Bulk Modulus (GPa) = 29.47138 54.59390 42.03264
# Shear Modulus (GPa) = 15.45475 27.05438 21.25456
#
# Velocity S-wave (km/s) = 2.99695 3.96522 3.51459
# Velocity P-wave (km/s) = 5.39474 7.25892 6.39512
#
# Compressibility (1/GPa) = 0.03393123
#
# Stress axis : x y z
#
# Youngs Moduli (GPa) = 87.57589 52.75780 16.74606
#
# Poissons Ratio (x) = 0.12524 0.10596
# Poissons Ratio (y) = 0.20789 0.32450
# Poissons Ratio (z) = 0.55412 1.02232
#
# Static dielectric constant tensor:
#      x y z
#    x 3.514170 -0.108710 0.026760 
#    y -0.108710 2.996280 0.487180 
#    z 0.026760 0.487180 3.146560 
# 
# 
# High freq. dielectric constant tensor:
#      x y z
#    x 1.678310 -0.011020 0.000350 
#    y -0.011020 1.629240 0.056760 
#    z 0.000350 0.056760 1.644590 
# 
# From -- ./inp_files/465914.got.cif
#   From: 2010.06.25/outbox.cif.g09.slc.cpg/sg2_233_cif.got.tgz:465914.got - 2010.06.27 13:26:56.
