data_PCOD8035478
_publ_section_title
;
Structure prediction by ZEFSAII (Michael W. Deem and Ramdas Pophale) SiO2 
 PCOD8035478
Probable space group: P -1
;
_chemical_formula_sum "Si O2"
_cell_formula_units_Z 16
_cell_length_a 5.534021
_cell_length_b 17.155125
_cell_length_c 9.111318
_cell_angle_alpha 111.819204
_cell_angle_beta 125.445846
_cell_angle_gamma 66.874221
_cell_volume 635.991207
_symmetry_space_group_name_H-M "P -1"
_symmetry_group_IT_number 2
_symmetry_cell_setting 'triclinic'
loop_
_space_group_symop_operation_xyz
x,y,z
-x,-y,-z
loop_
_atom_site_type_symbol
_atom_site_label
_atom_site_fract_x
_atom_site_fract_y
_atom_site_fract_z
Si Si1 0.704270 0.537252 0.708873
Si Si2 0.184155 0.327158 0.376722
Si Si3 0.559906 0.324747 0.069178
Si Si4 0.289786 0.931591 0.781876
Si Si5 0.337203 0.161401 0.896834
Si Si6 0.178020 0.785935 0.451057
Si Si7 0.364317 0.982490 0.285239
Si Si8 0.141469 0.368500 0.705599
O O1 0.500000 0.500000 0.500000
O O2 0.798276 0.616569 0.719365
O O3 0.531583 0.580027 0.823035
O O4 0.978850 0.456863 0.794289
O O5 0.460593 0.248243 0.463402
O O6 0.143690 0.389606 0.548702
O O7 0.908732 0.283469 0.205050
O O8 0.378387 0.256405 0.018321
O O9 0.477920 0.338393 0.876157
O O10 0.135327 0.857522 0.612540
O O11 0.444251 0.975451 0.738320
O O12 0.005435 0.989221 0.816036
O O13 0.572130 0.898510 0.970381
O O14 0.983658 0.172090 0.727884
O O15 0.549157 0.118943 0.802396
O O16 0.042107 0.706095 0.397350
O O17 0.500000 0.000000 0.500000
#
# Coordination Sequence:
#
# PCOD8035478 Si02
#       8
#     2   2   2   2   2   2   2   2
#     4  12  23  46  72  97 151 187 246 303 375 441
#     4  12  24  44  72 104 140 197 245 306 371 439
#     4  11  27  46  71 109 143 191 246 306 375 444
#     4  12  27  50  81 115 154 202 256 312 383 455
#     4  11  26  51  74 110 153 195 250 309 380 453
#     4  11  26  46  74 106 151 194 246 308 377 446
#     4  12  27  53  82 115 154 202 253 314 383 456
#     4  11  25  45  70 106 143 195 243 308 370 449
#
# _framework density 25.157579999999999
#
# number of rings (size 3 to 8) (size 9 to 14) (size 15 to 20)
#    0.000    0.500    3.750    3.375    3.500    3.500 
#    4.500    0.000    0.000    0.000    0.000    0.000 
#    0.000    0.000    0.000    0.000    0.000    0.000 
#
# Total GULP energy -198267.917011 kJ/mol
# GULP energy per Si atom -12391.744813 kJ/mol
# Density = 2.510032 g / cm^3
# Si number density = 25.157580 Si / 1000 Ang^3
#
#
#
# Elastic Constant Matrix: (Units=GPa)
#
#
# Indices 1 2 3 4 5 6 
#
# 1 97.8973 32.3964 49.7074 -11.0389 13.6156 -16.9953
# 2 32.3964 109.3409 43.5165 -2.7220 12.4903 -21.8685
# 3 49.7074 43.5165 168.4634 -16.0540 27.2329 -7.5851
# 4 -11.0389 -2.7220 -16.0540 54.6010 -8.9807 0.5719
# 5 13.6156 12.4903 27.2329 -8.9807 32.4615 -19.5371
# 6 -16.9953 -21.8685 -7.5851 0.5719 -19.5371 25.6087
#
#
#
# Elastic Compliance Matrix: (Units=1/GPa)
#
#
# Indices 1 2 3 4 5 6 
#
# 1 0.014063 -0.000800 -0.004074 0.002376 0.005421 0.011525
# 2 -0.000800 0.013061 -0.003661 0.000548 0.007888 0.015543
# 3 -0.004074 -0.003661 0.009516 -0.000118 -0.012405 -0.012473
# 4 0.002376 0.000548 -0.000118 0.020351 0.010091 0.009254
# 5 0.005421 0.007888 -0.012405 0.010091 0.078707 0.066480
# 6 0.011525 0.015543 -0.012473 0.009254 0.066480 0.106788
#
#
# Mechanical properties :
#
#
# Convention : Reuss Voigt Hill
#
# Bulk Modulus (GPa) = 51.09678 69.66024 60.37851
# Shear Modulus (GPa) = 18.79140 39.20634 28.99887
#
# Velocity S-wave (km/s) = 2.73600 3.95198 3.39881
# Velocity P-wave (km/s) = 5.50779 6.96949 6.28130
#
# Compressibility (1/GPa) = 0.01957070
#
# Stress axis : x y z
#
# Youngs Moduli (GPa) = 71.10912 76.56316 105.08401
#
# Poissons Ratio (x) = 0.06128 0.42807
# Poissons Ratio (y) = 0.05691 0.38469
# Poissons Ratio (z) = 0.28967 0.28028
#
# Static dielectric constant tensor:
#      x y z
#    x 4.166010 -0.563820 0.050710 
#    y -0.563820 4.525220 0.079550 
#    z 0.050710 0.079550 4.960510 
# 
# 
# High freq. dielectric constant tensor:
#      x y z
#    x 1.972190 -0.011410 0.010550 
#    y -0.011410 2.014270 0.003900 
#    z 0.010550 0.003900 2.033450 
# 
# From -- ./inp_files/139276.got.cif
#   From: 2010.06.25/outbox.cif.g09.slc.cpg/sg2_70_cif.got.tgz:139276.got - 2010.06.27 13:26:56.
