data_PCOD8035528
_publ_section_title
;
Structure prediction by ZEFSAII (Michael W. Deem and Ramdas Pophale) SiO2 
 PCOD8035528
Probable space group: P -1
;
_chemical_formula_sum "Si O2"
_cell_formula_units_Z 16
_cell_length_a 9.081840
_cell_length_b 13.725049
_cell_length_c 9.510435
_cell_angle_alpha 86.841877
_cell_angle_beta 114.930193
_cell_angle_gamma 47.715681
_cell_volume 686.515122
_symmetry_space_group_name_H-M "P -1"
_symmetry_group_IT_number 2
_symmetry_cell_setting 'triclinic'
loop_
_space_group_symop_operation_xyz
x,y,z
-x,-y,-z
loop_
_atom_site_type_symbol
_atom_site_label
_atom_site_fract_x
_atom_site_fract_y
_atom_site_fract_z
Si Si1 0.903583 0.934888 0.187895
Si Si2 0.118078 0.226136 0.007656
Si Si3 0.937505 0.262879 0.494562
Si Si4 0.591489 0.577156 0.726234
Si Si5 0.775949 0.913306 0.645698
Si Si6 0.572610 0.739986 0.949923
Si Si7 0.399166 0.801526 0.387676
Si Si8 0.807489 0.658890 0.338572
O O1 0.792227 0.894988 0.060523
O O2 0.960578 0.880677 0.376575
O O3 0.170171 0.841882 0.229314
O O4 0.702769 0.115296 0.103103
O O5 0.853126 0.397681 0.841470
O O6 0.103895 0.177488 0.152938
O O7 0.336062 0.207782 0.105729
O O8 0.630371 0.402257 0.368022
O O9 0.024787 0.222115 0.373141
O O10 0.057897 0.298691 0.622219
O O11 0.574153 0.645006 0.859616
O O12 0.572091 0.660174 0.578590
O O13 0.500000 0.000000 0.500000
O O14 0.750292 0.041430 0.608772
O O15 0.760311 0.638951 0.165489
O O16 0.555141 0.776165 0.323662
O O17 0.000000 0.500000 0.500000
#
# Coordination Sequence:
#
# PCOD8035528 Si02
#       8
#     2   2   2   2   2   2   2   2
#     4  11  25  45  73 102 136 182 231 287 343 415
#     4  12  26  43  73 105 140 179 235 286 347 408
#     4  11  25  46  70 100 140 182 227 279 352 409
#     4  11  27  47  73 101 141 185 230 286 343 417
#     4  12  24  42  70 102 137 179 230 286 342 407
#     4  12  25  46  72 101 139 183 233 282 348 414
#     4  11  25  46  71 102 140 181 230 284 350 408
#     4  12  27  43  70 100 142 181 229 283 347 410
#
# _framework density 23.306114000000001
#
# number of rings (size 3 to 8) (size 9 to 14) (size 15 to 20)
#    0.000    0.500    2.500    5.250    3.500    6.500 
#    0.000    0.000    0.000    0.000    0.000    0.000 
#    0.000    0.000    0.000    0.000    0.000    0.000 
#
# Total GULP energy -198432.499303 kJ/mol
# GULP energy per Si atom -12402.031206 kJ/mol
# Density = 2.325307 g / cm^3
# Si number density = 23.306114 Si / 1000 Ang^3
#
#
#
# Elastic Constant Matrix: (Units=GPa)
#
#
# Indices 1 2 3 4 5 6 
#
# 1 108.9095 2.1607 23.9825 1.9582 13.3641 -3.5475
# 2 2.1607 50.4469 2.5283 0.1981 -0.4505 -4.7422
# 3 23.9825 2.5283 93.1909 -0.6399 -5.7293 -1.5469
# 4 1.9582 0.1981 -0.6399 42.3364 -0.6158 -3.5957
# 5 13.3641 -0.4505 -5.7293 -0.6158 37.4762 -2.6064
# 6 -3.5475 -4.7422 -1.5469 -3.5957 -2.6064 27.2799
#
#
#
# Elastic Compliance Matrix: (Units=1/GPa)
#
#
# Indices 1 2 3 4 5 6 
#
# 1 0.010362 -0.000269 -0.002904 -0.000524 -0.004104 0.000675
# 2 -0.000269 0.020190 -0.000386 0.000220 0.000529 0.003532
# 3 -0.002904 -0.000386 0.011676 0.000400 0.002860 0.000543
# 4 -0.000524 0.000220 0.000400 0.023937 0.000869 0.003231
# 5 -0.004104 0.000529 0.002860 0.000869 0.028785 0.002585
# 6 0.000675 0.003532 0.000543 0.003231 0.002585 0.038063
#
#
# Mechanical properties :
#
#
# Convention : Reuss Voigt Hill
#
# Bulk Modulus (GPa) = 28.48259 34.43225 31.45742
# Shear Modulus (GPa) = 32.93097 36.34354 34.63726
#
# Velocity S-wave (km/s) = 3.76303 3.95321 3.85929
# Velocity P-wave (km/s) = 5.57926 5.97019 5.77803
#
# Compressibility (1/GPa) = 0.03510917
#
# Stress axis : x y z
#
# Youngs Moduli (GPa) = 96.50891 49.53039 85.64526
#
# Poissons Ratio (x) = 0.01334 0.24871
# Poissons Ratio (y) = 0.02600 0.03304
# Poissons Ratio (z) = 0.28026 0.01911
#
# Static dielectric constant tensor:
#      x y z
#    x 4.467700 -0.134240 0.006070 
#    y -0.134240 4.170280 0.083420 
#    z 0.006070 0.083420 4.305090 
# 
# 
# High freq. dielectric constant tensor:
#      x y z
#    x 1.930890 -0.004310 0.003600 
#    y -0.004310 1.917140 -0.000430 
#    z 0.003600 -0.000430 1.932610 
# 
# From -- ./inp_files/207013.got.cif
#   From: 2010.06.25/outbox.cif.g09.slc.cpg/sg2_104_cif.got.tgz:207013.got - 2010.06.27 13:26:56.
