data_PCOD8035670
_publ_section_title
;
Structure prediction by ZEFSAII (Michael W. Deem and Ramdas Pophale) SiO2 
 PCOD8035670
Probable space group: P -1
;
_chemical_formula_sum "Si O2"
_cell_formula_units_Z 12
_cell_length_a 9.205665
_cell_length_b 5.504580
_cell_length_c 12.640047
_cell_angle_alpha 127.622498
_cell_angle_beta 110.600883
_cell_angle_gamma 79.740558
_cell_volume 474.295756
_symmetry_space_group_name_H-M "P -1"
_symmetry_group_IT_number 2
_symmetry_cell_setting 'triclinic'
loop_
_space_group_symop_operation_xyz
x,y,z
-x,-y,-z
loop_
_atom_site_type_symbol
_atom_site_label
_atom_site_fract_x
_atom_site_fract_y
_atom_site_fract_z
Si Si1 0.271473 0.649034 0.026217
Si Si2 0.218570 0.656965 0.790319
Si Si3 0.359690 0.561486 0.403727
Si Si4 0.152123 0.077947 0.494690
Si Si5 0.435932 0.272111 0.141493
Si Si6 0.906594 0.954226 0.769325
O O1 0.375098 0.415410 0.054005
O O2 0.352159 0.969770 0.089582
O O3 0.132574 0.746181 0.093413
O O4 0.210226 0.483363 0.857358
O O5 0.193951 0.433630 0.624056
O O6 0.388543 0.824957 0.863465
O O7 0.087041 0.904069 0.825373
O O8 0.500000 0.500000 0.500000
O O9 0.426898 0.547772 0.298099
O O10 0.207417 0.336259 0.311510
O O11 0.303778 0.893128 0.513179
O O12 0.112512 0.981497 0.340840
O O13 0.000000 0.000000 0.500000
#
# Coordination Sequence:
#
# PCOD8035670 Si02
#       6
#     2   2   2   2   2   2
#     4  11  26  51  73 107 147 195 243 296 360 433
#     4  12  26  44  74 107 143 193 240 303 360 430
#     4  11  25  46  72 103 144 192 238 300 364 431
#     4  12  26  44  73 107 144 182 247 303 362 430
#     4  11  26  48  75 107 147 190 248 297 358 431
#     4  11  25  48  67 105 146 187 244 297 364 430
#
# _framework density 25.300668000000002
#
# number of rings (size 3 to 8) (size 9 to 14) (size 15 to 20)
#    0.000    0.667    3.333    3.000    7.000    2.667 
#    0.000    3.333    0.000    0.000    0.000    0.000 
#    0.000    0.000    0.000    0.000    0.000    0.000 
#
# Total GULP energy -148737.354515 kJ/mol
# GULP energy per Si atom -12394.779543 kJ/mol
# Density = 2.524308 g / cm^3
# Si number density = 25.300668 Si / 1000 Ang^3
#
#
#
# Elastic Constant Matrix: (Units=GPa)
#
#
# Indices 1 2 3 4 5 6 
#
# 1 166.9633 55.6747 41.4311 -14.3734 -9.4203 -37.7098
# 2 55.6747 109.5365 18.8019 -20.0752 3.3995 -15.5652
# 3 41.4311 18.8019 89.9146 -21.6369 -23.7981 -5.9378
# 4 -14.3734 -20.0752 -21.6369 43.9584 -2.5605 -1.2881
# 5 -9.4203 3.3995 -23.7981 -2.5605 53.2390 -5.3333
# 6 -37.7098 -15.5652 -5.9378 -1.2881 -5.3333 43.6527
#
#
#
# Elastic Compliance Matrix: (Units=1/GPa)
#
#
# Indices 1 2 3 4 5 6 
#
# 1 0.009415 -0.003307 -0.002716 0.000509 0.001365 0.006767
# 2 -0.003307 0.011831 -0.000121 0.004240 -0.001056 0.001342
# 3 -0.002716 -0.000121 0.016158 0.007456 0.007199 0.000908
# 4 0.000509 0.004240 0.007456 0.028942 0.004988 0.004430
# 5 0.001365 -0.001056 0.007199 0.004988 0.023025 0.004742
# 6 0.006767 0.001342 0.000908 0.004430 0.004742 0.030066
#
#
# Mechanical properties :
#
#
# Convention : Reuss Voigt Hill
#
# Bulk Modulus (GPa) = 39.81343 66.46999 53.14171
# Shear Modulus (GPa) = 35.68937 44.87047 40.27992
#
# Velocity S-wave (km/s) = 3.75988 4.21585 3.99438
# Velocity P-wave (km/s) = 5.88381 7.07297 6.50562
#
# Compressibility (1/GPa) = 0.02511715
#
# Stress axis : x y z
#
# Youngs Moduli (GPa) = 106.21157 84.52037 61.88839
#
# Poissons Ratio (x) = 0.27949 0.16809
# Poissons Ratio (y) = 0.35122 0.00749
# Poissons Ratio (z) = 0.28848 0.01022
#
# Static dielectric constant tensor:
#      x y z
#    x 4.958550 -0.052180 -0.455970 
#    y -0.052180 4.242980 0.082680 
#    z -0.455970 0.082680 7.875590 
# 
# 
# High freq. dielectric constant tensor:
#      x y z
#    x 2.033020 -0.011540 -0.022510 
#    y -0.011540 1.996160 -0.004690 
#    z -0.022510 -0.004690 2.030370 
# 
# From -- ./inp_files/21339.got.cif
#   From: 2010.06.25/outbox.cif.g09.slc.cpg/sg2_11_cif.got.tgz:21339.got - 2010.06.27 13:26:56.
