data_PCOD8035640
_publ_section_title
;
Structure prediction by ZEFSAII (Michael W. Deem and Ramdas Pophale) SiO2 
 PCOD8035640
Probable space group: P -1
;
_chemical_formula_sum "Si O2"
_cell_formula_units_Z 16
_cell_length_a 26.869879
_cell_length_b 6.418016
_cell_length_c 5.398767
_cell_angle_alpha 96.503042
_cell_angle_beta 118.381956
_cell_angle_gamma 56.077612
_cell_volume 664.796487
_symmetry_space_group_name_H-M "P -1"
_symmetry_group_IT_number 2
_symmetry_cell_setting 'triclinic'
loop_
_space_group_symop_operation_xyz
x,y,z
-x,-y,-z
loop_
_atom_site_type_symbol
_atom_site_label
_atom_site_fract_x
_atom_site_fract_y
_atom_site_fract_z
Si Si1 0.752556 0.955979 0.020156
Si Si2 0.210416 0.492499 0.256945
Si Si3 0.858688 0.049620 0.188492
Si Si4 0.676348 0.820528 0.178011
Si Si5 0.421452 0.600737 0.833043
Si Si6 0.994496 0.637500 0.255284
Si Si7 0.627053 0.513745 0.794290
Si Si8 0.075082 0.802010 0.266762
O O1 0.731721 0.858254 0.188659
O O2 0.828392 0.898202 0.204947
O O3 0.754020 0.802590 0.767788
O O4 0.701943 0.256571 0.900846
O O5 0.272239 0.444693 0.576974
O O6 0.135100 0.594233 0.199552
O O7 0.200914 0.672478 0.029271
O O8 0.896143 0.053089 0.520493
O O9 0.917166 0.901728 0.094597
O O10 0.623316 0.086194 0.237984
O O11 0.634471 0.752274 0.882989
O O12 0.411317 0.468597 0.551525
O O13 0.500000 0.500000 0.000000
O O14 0.409281 0.502854 0.048591
O O15 0.000000 0.500000 0.500000
O O16 0.058161 0.665550 0.419159
O O17 0.000000 0.500000 0.000000
O O18 0.000000 0.000000 0.000000
#
# Coordination Sequence:
#
# PCOD8035640 Si02
#       8
#     2   2   2   2   2   2   2   2
#     4  11  25  46  70 112 148 197 259 318 388 464
#     4  12  25  45  75 103 148 194 260 319 397 461
#     4  12  28  45  75 103 144 192 257 321 399 465
#     4  11  27  48  79 112 161 206 263 316 391 458
#     4  11  26  49  80 123 166 208 261 316 377 459
#     4  12  28  48  73 101 139 189 246 313 394 468
#     4  11  25  47  80 114 163 207 262 315 384 454
#     4  12  26  49  68 103 143 193 252 325 397 476
#
# _framework density 24.067516999999999
#
# number of rings (size 3 to 8) (size 9 to 14) (size 15 to 20)
#    0.000    0.500    2.500    4.500    8.750    2.000 
#    0.000    0.000    0.000    0.000    0.000    0.000 
#    0.000    0.000    0.000    0.000    0.000    0.000 
#
# Total GULP energy -198230.544261 kJ/mol
# GULP energy per Si atom -12389.409016 kJ/mol
# Density = 2.401274 g / cm^3
# Si number density = 24.067517 Si / 1000 Ang^3
#
#
#
# Elastic Constant Matrix: (Units=GPa)
#
#
# Indices 1 2 3 4 5 6 
#
# 1 137.5680 49.6562 48.0022 4.8265 -1.1054 -4.6429
# 2 49.6562 100.5056 42.0612 8.1289 5.2240 -3.3676
# 3 48.0022 42.0612 147.0793 13.7363 -0.3674 1.3940
# 4 4.8265 8.1289 13.7363 37.6956 0.8438 5.4887
# 5 -1.1054 5.2240 -0.3674 0.8438 37.0369 2.5251
# 6 -4.6429 -3.3676 1.3940 5.4887 2.5251 40.5439
#
#
#
# Elastic Compliance Matrix: (Units=1/GPa)
#
#
# Indices 1 2 3 4 5 6 
#
# 1 0.009368 -0.003828 -0.001989 0.000225 0.000744 0.000746
# 2 -0.003828 0.013099 -0.002364 -0.001584 -0.002022 0.001071
# 3 -0.001989 -0.002364 0.008337 -0.002220 0.000437 -0.000438
# 4 0.000225 -0.001584 -0.002220 0.028213 -0.000173 -0.003838
# 5 0.000744 -0.002022 0.000437 -0.000173 0.027437 -0.001783
# 6 0.000746 0.001071 -0.000438 -0.003838 -0.001783 0.025485
#
#
# Mechanical properties :
#
#
# Convention : Reuss Voigt Hill
#
# Bulk Modulus (GPa) = 69.24127 73.84357 71.54242
# Shear Modulus (GPa) = 37.56143 39.41750 38.48947
#
# Velocity S-wave (km/s) = 3.95482 4.05135 4.00337
# Velocity P-wave (km/s) = 7.04884 7.25486 7.15259
#
# Compressibility (1/GPa) = 0.01444225
#
# Stress axis : x y z
#
# Youngs Moduli (GPa) = 106.74445 76.33930 119.94986
#
# Poissons Ratio (x) = 0.29222 0.23859
# Poissons Ratio (y) = 0.40861 0.28357
# Poissons Ratio (z) = 0.21232 0.18047
#
# Static dielectric constant tensor:
#      x y z
#    x 6.017150 -0.422130 1.032770 
#    y -0.422130 4.803770 -0.101250 
#    z 1.032770 -0.101250 4.978930 
# 
# 
# High freq. dielectric constant tensor:
#      x y z
#    x 1.972020 -0.004280 -0.001120 
#    y -0.004280 1.958990 0.010580 
#    z -0.001120 0.010580 1.951370 
# 
# From -- ./inp_files/125896.got.cif
#   From: 2010.06.25/outbox.cif.g09.slc.cpg/sg2_63_cif.got.tgz:125896.got - 2010.06.27 13:26:56.
