data_PCOD8035114
_publ_section_title
;
Structure prediction by ZEFSAII (Michael W. Deem and Ramdas Pophale) SiO2 
 PCOD8035114
Probable space group: P -1
;
_chemical_formula_sum "Si O2"
_cell_formula_units_Z 12
_cell_length_a 6.692054
_cell_length_b 5.150642
_cell_length_c 21.416861
_cell_angle_alpha 110.495769
_cell_angle_beta 69.629855
_cell_angle_gamma 131.443962
_cell_volume 511.168288
_symmetry_space_group_name_H-M "P -1"
_symmetry_group_IT_number 2
_symmetry_cell_setting 'triclinic'
loop_
_space_group_symop_operation_xyz
x,y,z
-x,-y,-z
loop_
_atom_site_type_symbol
_atom_site_label
_atom_site_fract_x
_atom_site_fract_y
_atom_site_fract_z
Si Si1 0.240699 0.412321 0.842590
Si Si2 0.206007 0.356941 0.149244
Si Si3 0.662334 0.870066 0.637874
Si Si4 0.719361 0.287556 0.547336
Si Si5 0.889878 0.554847 0.274115
Si Si6 0.995360 0.313084 0.046216
O O1 0.496153 0.452308 0.842676
O O2 0.227743 0.371684 0.766087
O O3 0.254695 0.748396 0.892194
O O4 0.968875 0.065036 0.873717
O O5 0.233312 0.520705 0.090929
O O6 0.051391 0.416205 0.222058
O O7 0.635461 0.528388 0.595227
O O8 0.369197 0.741750 0.682021
O O9 0.744639 0.116943 0.590677
O O10 0.898975 0.084793 0.681482
O O11 0.000000 0.500000 0.500000
O O12 0.500000 0.000000 0.500000
O O13 0.000000 0.500000 0.000000
O O14 0.000000 0.000000 0.000000
#
# Coordination Sequence:
#
# PCOD8035114 Si02
#       6
#     2   2   2   2   2   2
#     4  11  25  46  73 102 149 186 235 311 358 420
#     4  11  25  46  73 102 149 186 235 311 358 420
#     4  12  26  45  78 105 144 191 238 292 350 431
#     4  12  26  48  72 107 148 188 236 290 350 416
#     4  11  26  43  70 112 142 187 246 294 364 423
#     4  11  24  48  72 106 140 192 246 294 362 438
#
# _framework density 23.475636000000002
#
# number of rings (size 3 to 8) (size 9 to 14) (size 15 to 20)
#    0.000    0.667    1.667    5.000    7.000    5.333 
#    0.000    0.000    0.000    0.000    0.000    0.000 
#    0.000    0.000    0.000    0.000    0.000    0.000 
#
# Total GULP energy -148700.927501 kJ/mol
# GULP energy per Si atom -12391.743958 kJ/mol
# Density = 2.342220 g / cm^3
# Si number density = 23.475636 Si / 1000 Ang^3
#
#
#
# Elastic Constant Matrix: (Units=GPa)
#
#
# Indices 1 2 3 4 5 6 
#
# 1 161.3114 51.0145 86.1598 15.4394 27.0648 -5.5782
# 2 51.0145 110.7808 62.3993 9.1779 15.4351 2.0548
# 3 86.1598 62.3993 175.2070 9.3133 16.5979 -4.4070
# 4 15.4394 9.1779 9.3133 23.8632 -6.0935 4.1689
# 5 27.0648 15.4351 16.5979 -6.0935 30.5701 8.2688
# 6 -5.5782 2.0548 -4.4070 4.1689 8.2688 55.3224
#
#
#
# Elastic Compliance Matrix: (Units=1/GPa)
#
#
# Indices 1 2 3 4 5 6 
#
# 1 0.010962 -0.001049 -0.003588 -0.008268 -0.009667 0.002926
# 2 -0.001049 0.012250 -0.003228 -0.003894 -0.004312 0.000120
# 3 -0.003588 -0.003228 0.008622 0.000132 0.000035 0.000430
# 4 -0.008268 -0.003894 0.000132 0.055916 0.022597 -0.008270
# 5 -0.009667 -0.004312 0.000035 0.022597 0.050661 -0.010087
# 6 0.002926 0.000120 0.000430 -0.008270 -0.010087 0.020531
#
#
# Mechanical properties :
#
#
# Convention : Reuss Voigt Hill
#
# Bulk Modulus (GPa) = 62.10183 94.04959 78.07571
# Shear Modulus (GPa) = 27.77156 38.46619 33.11888
#
# Velocity S-wave (km/s) = 3.44320 4.05230 3.76011
# Velocity P-wave (km/s) = 6.50528 7.87683 7.22368
#
# Compressibility (1/GPa) = 0.01610258
#
# Stress axis : x y z
#
# Youngs Moduli (GPa) = 91.22497 81.63572 115.98076
#
# Poissons Ratio (x) = 0.08567 0.41614
# Poissons Ratio (y) = 0.09573 0.37439
# Poissons Ratio (z) = 0.32732 0.26353
#
# Static dielectric constant tensor:
#      x y z
#    x 4.347710 0.229970 0.075330 
#    y 0.229970 2.882380 0.018290 
#    z 0.075330 0.018290 4.767000 
# 
# 
# High freq. dielectric constant tensor:
#      x y z
#    x 1.951620 -0.007550 0.005160 
#    y -0.007550 1.912130 0.004670 
#    z 0.005160 0.004670 1.958810 
# 
# From -- ./inp_files/113637.got.cif
#   From: 2010.06.25/outbox.cif.g09.slc.cpg/sg2_57_cif.got.tgz:113637.got - 2010.06.27 13:26:56.
