data_PCOD8035933
_publ_section_title
;
Structure prediction by ZEFSAII (Michael W. Deem and Ramdas Pophale) SiO2 
 PCOD8035933
Probable space group: P -1
;
_chemical_formula_sum "Si O2"
_cell_formula_units_Z 10
_cell_length_a 13.208374
_cell_length_b 9.632232
_cell_length_c 8.391384
_cell_angle_alpha 57.145596
_cell_angle_beta 44.487594
_cell_angle_gamma 30.272043
_cell_volume 368.855693
_symmetry_space_group_name_H-M "P -1"
_symmetry_group_IT_number 2
_symmetry_cell_setting 'triclinic'
loop_
_space_group_symop_operation_xyz
x,y,z
-x,-y,-z
loop_
_atom_site_type_symbol
_atom_site_label
_atom_site_fract_x
_atom_site_fract_y
_atom_site_fract_z
Si Si1 0.756637 0.206370 0.540517
Si Si2 0.217677 0.425738 0.275316
Si Si3 0.067718 0.733737 0.961838
Si Si4 0.488783 0.139260 0.769182
Si Si5 0.524129 0.250302 0.328787
O O1 0.804405 0.231573 0.292619
O O2 0.663664 0.105937 0.689739
O O3 0.536838 0.513096 0.678759
O O4 0.000000 0.000000 0.500000
O O5 0.305200 0.408225 0.357130
O O6 0.000000 0.500000 0.500000
O O7 0.430396 0.127325 0.119051
O O8 0.129845 0.668758 0.122529
O O9 0.196156 0.446818 0.927665
O O10 0.775762 0.013990 0.090775
O O11 0.542686 0.099757 0.543042
#
# Coordination Sequence:
#
# PCOD8035933 Si02
#       5
#     2   2   2   2   2
#     4  11  27  50  73 106 148 189 240 301 355 429
#     4  12  25  48  75 108 146 188 240 300 353 429
#     4  11  26  46  78 103 145 193 241 288 367 424
#     4  11  25  49  70 108 150 184 240 299 356 427
#     4  11  25  48  74 105 145 188 243 291 358 424
#
# _framework density 27.110875
#
# number of rings (size 3 to 8) (size 9 to 14) (size 15 to 20)
#    0.000    0.800    2.000    4.800    2.800    4.800 
#    3.600    0.000    0.000    0.000    0.000    0.000 
#    0.000    0.000    0.000    0.000    0.000    0.000 
#
# Total GULP energy -123992.938395 kJ/mol
# GULP energy per Si atom -12399.293840 kJ/mol
# Density = 2.704917 g / cm^3
# Si number density = 27.110875 Si / 1000 Ang^3
#
#
#
# Elastic Constant Matrix: (Units=GPa)
#
#
# Indices 1 2 3 4 5 6 
#
# 1 166.7673 35.3394 53.9119 -12.5510 1.8262 -26.2659
# 2 35.3394 109.1978 51.0576 -0.5179 4.0443 -14.2237
# 3 53.9119 51.0576 138.0515 16.4437 -7.8117 -1.3381
# 4 -12.5510 -0.5179 16.4437 58.6858 0.0470 -1.2742
# 5 1.8262 4.0443 -7.8117 0.0470 17.4604 4.9784
# 6 -26.2659 -14.2237 -1.3381 -1.2742 4.9784 28.8832
#
#
#
# Elastic Compliance Matrix: (Units=1/GPa)
#
#
# Indices 1 2 3 4 5 6 
#
# 1 0.009121 0.000587 -0.004420 0.003406 -0.005793 0.009528
# 2 0.000587 0.012956 -0.005627 0.001999 -0.007895 0.008102
# 3 -0.004420 -0.005627 0.012051 -0.004554 0.009469 -0.008066
# 4 0.003406 0.001999 -0.004554 0.019185 -0.004473 0.005488
# 5 -0.005793 -0.007895 0.009469 -0.004473 0.069935 -0.020969
# 6 0.009528 0.008102 -0.008066 0.005488 -0.020969 0.050759
#
#
# Mechanical properties :
#
#
# Convention : Reuss Voigt Hill
#
# Bulk Modulus (GPa) = 65.75828 77.18160 71.46994
# Shear Modulus (GPa) = 25.25277 39.25305 32.25291
#
# Velocity S-wave (km/s) = 3.05530 3.80922 3.45290
# Velocity P-wave (km/s) = 6.06254 6.91936 6.50507
#
# Compressibility (1/GPa) = 0.01520721
#
# Stress axis : x y z
#
# Youngs Moduli (GPa) = 109.63203 77.18307 82.97952
#
# Poissons Ratio (x) = -0.04527 0.36679
# Poissons Ratio (y) = -0.06431 0.46694
# Poissons Ratio (z) = 0.48460 0.43432
#
# Static dielectric constant tensor:
#      x y z
#    x 4.553980 -0.117960 0.493540 
#    y -0.117960 5.485110 0.130140 
#    z 0.493540 0.130140 5.228770 
# 
# 
# High freq. dielectric constant tensor:
#      x y z
#    x 2.076510 -0.012960 0.023560 
#    y -0.012960 2.116270 0.006770 
#    z 0.023560 0.006770 2.108670 
# 
# From -- ./inp_files/230585.got.cif
#   From: 2010.06.25/outbox.cif.g09.slc.cpg/sg2_116_cif.got.tgz:230585.got - 2010.06.27 13:26:56.
