data_PCOD8035957
_publ_section_title
;
Structure prediction by ZEFSAII (Michael W. Deem and Ramdas Pophale) SiO2 
 PCOD8035957
Probable space group: P -1
;
_chemical_formula_sum "Si O2"
_cell_formula_units_Z 16
_cell_length_a 18.676858
_cell_length_b 6.697588
_cell_length_c 9.577261
_cell_angle_alpha 129.436050
_cell_angle_beta 123.233032
_cell_angle_gamma 61.490893
_cell_volume 758.312393
_symmetry_space_group_name_H-M "P -1"
_symmetry_group_IT_number 2
_symmetry_cell_setting 'triclinic'
loop_
_space_group_symop_operation_xyz
x,y,z
-x,-y,-z
loop_
_atom_site_type_symbol
_atom_site_label
_atom_site_fract_x
_atom_site_fract_y
_atom_site_fract_z
Si Si1 0.964823 0.283463 0.272450
Si Si2 0.224042 0.791741 0.887499
Si Si3 0.764026 0.611995 0.809881
Si Si4 0.570326 0.983311 0.447197
Si Si5 0.677172 0.448174 0.374250
Si Si6 0.477712 0.775031 0.783809
Si Si7 0.050629 0.691821 0.060104
Si Si8 0.346527 0.596099 0.178629
O O1 0.866792 0.294873 0.222787
O O2 0.000000 0.500000 0.500000
O O3 0.967507 0.347472 0.139944
O O4 0.021710 0.988750 0.220192
O O5 0.254422 0.726496 0.733334
O O6 0.295202 0.620669 0.989629
O O7 0.211216 0.102981 0.035236
O O8 0.730784 0.568467 0.601429
O O9 0.846880 0.386022 0.834620
O O10 0.690851 0.592843 0.838293
O O11 0.517483 0.136407 0.330831
O O12 0.653878 0.112425 0.633174
O O13 0.500000 0.000000 0.500000
O O14 0.613394 0.680383 0.324484
O O15 0.619292 0.263542 0.303427
O O16 0.550104 0.516518 0.779808
O O17 0.500000 0.000000 0.000000
O O18 0.000000 0.500000 0.000000
#
# Coordination Sequence:
#
# PCOD8035957 Si02
#       8
#     2   2   2   2   2   2   2   2
#     4  11  27  48  74 109 146 181 232 290 357 433
#     4  12  27  45  70 107 140 180 232 294 349 414
#     4  12  25  47  71 103 140 182 235 291 346 417
#     4  12  24  43  69  94 134 192 235 282 348 403
#     4  12  27  43  70 103 139 186 234 288 349 408
#     4  12  26  43  64  98 139 184 236 283 343 415
#     4  11  25  48  77 103 143 191 227 285 364 426
#     4  12  24  44  69  96 140 181 234 291 341 406
#
# _framework density 21.099481999999998
#
# number of rings (size 3 to 8) (size 9 to 14) (size 15 to 20)
#    0.000    0.250    6.250    2.625    3.500    3.500 
#    2.250    0.000    0.000    0.000    0.000    0.000 
#    0.000    0.000    0.000    0.000    0.000    0.000 
#
# Total GULP energy -198458.669276 kJ/mol
# GULP energy per Si atom -12403.666830 kJ/mol
# Density = 2.105146 g / cm^3
# Si number density = 21.099482 Si / 1000 Ang^3
#
#
#
# Elastic Constant Matrix: (Units=GPa)
#
#
# Indices 1 2 3 4 5 6 
#
# 1 123.1869 45.9872 56.6531 2.6841 -5.7417 11.5182
# 2 45.9872 119.8349 56.0966 -0.2236 -4.5373 1.0344
# 3 56.6531 56.0966 134.2343 17.7897 -2.1792 9.4241
# 4 2.6841 -0.2236 17.7897 32.1883 3.4054 0.8572
# 5 -5.7417 -4.5373 -2.1792 3.4054 33.9436 3.8656
# 6 11.5182 1.0344 9.4241 0.8572 3.8656 39.0493
#
#
#
# Elastic Compliance Matrix: (Units=1/GPa)
#
#
# Indices 1 2 3 4 5 6 
#
# 1 0.010935 -0.002477 -0.003503 0.000916 0.001484 -0.002481
# 2 -0.002477 0.011197 -0.004042 0.002439 0.000424 0.001314
# 3 -0.003503 -0.004042 0.011543 -0.006117 0.000398 -0.001551
# 4 0.000916 0.002439 -0.006117 0.034737 -0.003479 0.000723
# 5 0.001484 0.000424 0.000398 -0.003479 0.030541 -0.003492
# 6 -0.002481 0.001314 -0.001551 0.000723 -0.003492 0.027010
#
#
# Mechanical properties :
#
#
# Convention : Reuss Voigt Hill
#
# Bulk Modulus (GPa) = 73.36588 77.19220 75.27904
# Shear Modulus (GPa) = 33.21147 35.60419 34.40783
#
# Velocity S-wave (km/s) = 3.97172 4.11231 4.04263
# Velocity P-wave (km/s) = 7.47527 7.69496 7.58591
#
# Compressibility (1/GPa) = 0.01363031
#
# Stress axis : x y z
#
# Youngs Moduli (GPa) = 91.45220 89.30993 86.63095
#
# Poissons Ratio (x) = 0.22124 0.30345
# Poissons Ratio (y) = 0.22654 0.35019
# Poissons Ratio (z) = 0.32034 0.36102
#
# Static dielectric constant tensor:
#      x y z
#    x 3.840110 0.064640 0.115520 
#    y 0.064640 3.667690 0.008080 
#    z 0.115520 0.008080 3.868950 
# 
# 
# High freq. dielectric constant tensor:
#      x y z
#    x 1.835210 0.005540 0.003670 
#    y 0.005540 1.841840 0.001700 
#    z 0.003670 0.001700 1.832320 
# 
# From -- ./inp_files/107485.got.cif
#   From: 2010.06.25/outbox.cif.g09.slc.cpg/sg2_54_cif.got.tgz:107485.got - 2010.06.27 13:26:56.
