data_PCOD8035400
_publ_section_title
;
Structure prediction by ZEFSAII (Michael W. Deem and Ramdas Pophale) SiO2 
 PCOD8035400
Probable space group: P -1
;
_chemical_formula_sum "Si O2"
_cell_formula_units_Z 14
_cell_length_a 12.117200
_cell_length_b 18.805430
_cell_length_c 9.080413
_cell_angle_alpha 49.832473
_cell_angle_beta 35.836720
_cell_angle_gamma 32.523183
_cell_volume 646.421665
_symmetry_space_group_name_H-M "P -1"
_symmetry_group_IT_number 2
_symmetry_cell_setting 'triclinic'
loop_
_space_group_symop_operation_xyz
x,y,z
-x,-y,-z
loop_
_atom_site_type_symbol
_atom_site_label
_atom_site_fract_x
_atom_site_fract_y
_atom_site_fract_z
Si Si1 0.066630 0.551589 0.064574
Si Si2 0.787960 0.019673 0.374903
Si Si3 0.061585 0.876092 0.545124
Si Si4 0.213463 0.166277 0.912006
Si Si5 0.376128 0.423377 0.596916
Si Si6 0.958224 0.156745 0.928542
Si Si7 0.528010 0.438300 0.898593
O O1 0.926622 0.699553 0.034171
O O2 0.838285 0.552996 0.308144
O O3 0.243545 0.488747 0.809670
O O4 0.264315 0.469295 0.101652
O O5 0.518417 0.082416 0.660674
O O6 0.795344 0.129846 0.217962
O O7 0.033632 0.889794 0.379529
O O8 0.804965 0.973092 0.253028
O O9 0.353402 0.733718 0.467090
O O10 0.000000 0.000000 0.500000
O O11 0.815073 0.905948 0.843555
O O12 0.068733 0.188821 0.886498
O O13 0.439680 0.498978 0.351737
O O14 0.773664 0.280252 0.851990
O O15 0.500000 0.500000 0.000000
#
# Coordination Sequence:
#
# PCOD8035400 Si02
#       7
#     2   2   2   2   2   2   2
#     4  11  25  44  72  98 133 178 225 286 330 398
#     4  11  26  44  70  98 138 174 226 276 336 401
#     4  12  23  45  72  96 136 173 223 283 330 396
#     4  12  24  44  70 100 130 178 228 274 339 397
#     4  11  26  46  66 104 135 173 232 276 339 396
#     4  11  25  47  66  99 137 180 217 279 336 403
#     4  12  24  44  71  97 138 175 223 275 339 403
#
# _framework density 21.657689999999999
#
# number of rings (size 3 to 8) (size 9 to 14) (size 15 to 20)
#    0.000    0.571    4.286    3.000    4.000    1.714 
#    2.571    0.000    0.000    0.000    0.000    0.000 
#    0.000    0.000    0.000    0.000    0.000    0.000 
#
# Total GULP energy -173579.231672 kJ/mol
# GULP energy per Si atom -12398.516548 kJ/mol
# Density = 2.160840 g / cm^3
# Si number density = 21.657690 Si / 1000 Ang^3
#
#
#
# Elastic Constant Matrix: (Units=GPa)
#
#
# Indices 1 2 3 4 5 6 
#
# 1 129.4199 38.2347 34.3909 2.4513 -11.5490 0.1871
# 2 38.2347 127.3077 47.5183 -5.3513 -7.4797 -5.1326
# 3 34.3909 47.5183 98.9579 7.2638 -7.9253 2.4170
# 4 2.4513 -5.3513 7.2638 32.9638 -0.4318 8.8927
# 5 -11.5490 -7.4797 -7.9253 -0.4318 33.5953 -3.3815
# 6 0.1871 -5.1326 2.4170 8.8927 -3.3815 37.8806
#
#
#
# Elastic Compliance Matrix: (Units=1/GPa)
#
#
# Indices 1 2 3 4 5 6 
#
# 1 0.009018 -0.001832 -0.002042 -0.000532 0.002220 0.000161
# 2 -0.001832 0.010257 -0.004438 0.002474 0.000756 0.001169
# 3 -0.002042 -0.004438 0.013313 -0.003340 0.001354 -0.000536
# 4 -0.000532 0.002474 -0.003340 0.033494 -0.000732 -0.007377
# 5 0.002220 0.000756 0.001354 -0.000732 0.031307 0.002972
# 6 0.000161 0.001169 -0.000536 -0.007377 0.002972 0.028588
#
#
# Mechanical properties :
#
#
# Convention : Reuss Voigt Hill
#
# Bulk Modulus (GPa) = 62.63784 66.21925 64.42854
# Shear Modulus (GPa) = 33.80150 36.59071 35.19611
#
# Velocity S-wave (km/s) = 3.95488 4.11481 4.03564
# Velocity P-wave (km/s) = 7.05969 7.29502 7.17832
#
# Compressibility (1/GPa) = 0.01596479
#
# Stress axis : x y z
#
# Youngs Moduli (GPa) = 110.88335 97.49067 75.11626
#
# Poissons Ratio (x) = 0.17860 0.15335
# Poissons Ratio (y) = 0.20314 0.33339
# Poissons Ratio (z) = 0.22637 0.43270
#
# Static dielectric constant tensor:
#      x y z
#    x 4.343820 -0.094440 -0.095540 
#    y -0.094440 4.357330 -0.776460 
#    z -0.095540 -0.776460 5.472650 
# 
# 
# High freq. dielectric constant tensor:
#      x y z
#    x 1.872440 0.008630 0.002780 
#    y 0.008630 1.854480 0.001230 
#    z 0.002780 0.001230 1.851970 
# 
# From -- ./inp_files/261905.got.cif
#   From: 2010.06.25/outbox.cif.g09.slc.cpg/sg2_131_cif.got.tgz:261905.got - 2010.06.27 13:26:56.
