data_PCOD8035045
_publ_section_title
;
Structure prediction by ZEFSAII (Michael W. Deem and Ramdas Pophale) SiO2 
 PCOD8035045
Probable space group: P -1
;
_chemical_formula_sum "Si O2"
_cell_formula_units_Z 14
_cell_length_a 10.803962
_cell_length_b 12.819522
_cell_length_c 7.889056
_cell_angle_alpha 83.064670
_cell_angle_beta 118.499946
_cell_angle_gamma 49.288200
_cell_volume 554.073363
_symmetry_space_group_name_H-M "P -1"
_symmetry_group_IT_number 2
_symmetry_cell_setting 'triclinic'
loop_
_space_group_symop_operation_xyz
x,y,z
-x,-y,-z
loop_
_atom_site_type_symbol
_atom_site_label
_atom_site_fract_x
_atom_site_fract_y
_atom_site_fract_z
Si Si1 0.660180 0.478314 0.287129
Si Si2 0.120077 0.301462 0.046115
Si Si3 0.907323 0.945784 0.382101
Si Si4 0.668468 0.506713 0.908587
Si Si5 0.411851 0.861790 0.556513
Si Si6 0.677294 0.027179 0.877715
Si Si7 0.171374 0.420147 0.473252
O O1 0.416529 0.562608 0.162235
O O2 0.709618 0.535495 0.449929
O O3 0.873966 0.265656 0.453601
O O4 0.638943 0.551570 0.079536
O O5 0.944758 0.352659 0.058718
O O6 0.987469 0.478443 0.823960
O O7 0.352698 0.208604 0.308783
O O8 0.214265 0.156228 0.002109
O O9 0.724346 0.012100 0.391384
O O10 0.000000 0.000000 0.500000
O O11 0.775279 0.037901 0.095657
O O12 0.488650 0.693850 0.655694
O O13 0.248171 0.969986 0.258344
O O14 0.383204 0.205267 0.655624
O O15 0.000000 0.500000 0.500000
#
# Coordination Sequence:
#
# PCOD8035045 Si02
#       7
#     2   2   2   2   2   2   2
#     4  11  25  47  74 106 155 197 251 316 376 452
#     4  12  26  49  75 111 154 197 250 315 375 450
#     4  12  26  49  73 110 153 198 250 312 380 447
#     4  11  24  47  74 108 148 202 251 312 380 446
#     4  12  26  48  78 113 152 197 257 311 377 452
#     4  12  28  49  75 114 148 199 254 311 375 451
#     4  12  27  46  76 111 149 200 251 311 379 450
#
# _framework density 25.267415
#
# number of rings (size 3 to 8) (size 9 to 14) (size 15 to 20)
#    0.000    0.286    4.286    4.286    6.000    2.286 
#    2.571    0.000    0.000    0.000    0.000    0.000 
#    0.000    0.000    0.000    0.000    0.000    0.000 
#
# Total GULP energy -173626.709526 kJ/mol
# GULP energy per Si atom -12401.907823 kJ/mol
# Density = 2.520990 g / cm^3
# Si number density = 25.267415 Si / 1000 Ang^3
#
#
#
# Elastic Constant Matrix: (Units=GPa)
#
#
# Indices 1 2 3 4 5 6 
#
# 1 142.4697 28.0002 33.7594 6.0238 6.5565 -27.9106
# 2 28.0002 78.7745 24.4657 -2.0382 0.3495 -14.8667
# 3 33.7594 24.4657 128.2760 20.6204 -14.2972 -11.5907
# 4 6.0238 -2.0382 20.6204 56.6616 -3.3135 -1.3543
# 5 6.5565 0.3495 -14.2972 -3.3135 33.8251 0.2477
# 6 -27.9106 -14.8667 -11.5907 -1.3543 0.2477 34.9577
#
#
#
# Elastic Compliance Matrix: (Units=1/GPa)
#
#
# Indices 1 2 3 4 5 6 
#
# 1 0.009048 -0.001534 -0.001773 -0.000379 -0.002568 0.005987
# 2 -0.001534 0.014848 -0.002376 0.001623 -0.000733 0.004370
# 3 -0.001773 -0.002376 0.009752 -0.003186 0.004173 0.000654
# 4 -0.000379 0.001623 -0.003186 0.018941 0.000565 0.000061
# 5 -0.002568 -0.000733 0.004173 0.000565 0.031897 -0.001183
# 6 0.005987 0.004370 0.000654 0.000061 -0.001183 0.035472
#
#
# Mechanical properties :
#
#
# Convention : Reuss Voigt Hill
#
# Bulk Modulus (GPa) = 44.88004 57.99676 51.43840
# Shear Modulus (GPa) = 36.03577 42.64186 39.33881
#
# Velocity S-wave (km/s) = 3.78057 4.11253 3.95004
# Velocity P-wave (km/s) = 6.07104 6.74933 6.41915
#
# Compressibility (1/GPa) = 0.02228162
#
# Stress axis : x y z
#
# Youngs Moduli (GPa) = 110.52476 67.35103 102.54395
#
# Poissons Ratio (x) = 0.10331 0.18181
# Poissons Ratio (y) = 0.16953 0.24364
# Poissons Ratio (z) = 0.19596 0.16003
#
# Static dielectric constant tensor:
#      x y z
#    x 4.715420 -0.140400 0.010620 
#    y -0.140400 4.860050 0.008090 
#    z 0.010620 0.008090 4.797150 
# 
# 
# High freq. dielectric constant tensor:
#      x y z
#    x 1.999620 -0.007350 -0.002090 
#    y -0.007350 2.019890 -0.003250 
#    z -0.002090 -0.003250 2.017860 
# 
# From -- ./inp_files/272582.got.cif
#   From: 2010.06.25/outbox.cif.g09.slc.cpg/sg2_137_cif.got.tgz:272582.got - 2010.06.27 13:26:56.
