data_PCOD8035944
_publ_section_title
;
Structure prediction by ZEFSAII (Michael W. Deem and Ramdas Pophale) SiO2 
 PCOD8035944
Probable space group: P -1
;
_chemical_formula_sum "Si O2"
_cell_formula_units_Z 16
_cell_length_a 17.548619
_cell_length_b 11.686308
_cell_length_c 8.432429
_cell_angle_alpha 102.010662
_cell_angle_beta 141.324906
_cell_angle_gamma 51.581043
_cell_volume 698.095613
_symmetry_space_group_name_H-M "P -1"
_symmetry_group_IT_number 2
_symmetry_cell_setting 'triclinic'
loop_
_space_group_symop_operation_xyz
x,y,z
-x,-y,-z
loop_
_atom_site_type_symbol
_atom_site_label
_atom_site_fract_x
_atom_site_fract_y
_atom_site_fract_z
Si Si1 0.175078 0.960764 0.265099
Si Si2 0.014309 0.276770 0.289545
Si Si3 0.817770 0.026802 0.079518
Si Si4 0.267491 0.245611 0.911190
Si Si5 0.818130 0.280730 0.245181
Si Si6 0.155899 0.415140 0.099797
Si Si7 0.486985 0.873086 0.198184
Si Si8 0.446971 0.326052 0.060671
O O1 0.361930 0.766114 0.577879
O O2 0.154680 0.090423 0.375346
O O3 0.212319 0.978644 0.154162
O O4 0.000000 0.000000 0.000000
O O5 0.125562 0.299894 0.564843
O O6 0.899883 0.280088 0.222261
O O7 0.881274 0.429001 0.984686
O O8 0.739484 0.212329 0.044039
O O9 0.708841 0.016661 0.010589
O O10 0.033760 0.852321 0.415562
O O11 0.164076 0.319608 0.936049
O O12 0.324215 0.338284 0.988371
O O13 0.457033 0.032351 0.157866
O O14 0.658887 0.480194 0.110298
O O15 0.352907 0.267826 0.459506
O O16 0.000000 0.500000 0.000000
O O17 0.521038 0.776771 0.068439
#
# Coordination Sequence:
#
# PCOD8035944 Si02
#       8
#     2   2   2   2   2   2   2   2
#     4  12  27  48  74 105 144 194 244 299 365 433
#     4  12  25  47  73 106 148 193 242 297 371 431
#     4  11  26  48  74 104 147 190 244 305 362 429
#     4  12  25  50  73 102 154 193 238 301 370 436
#     4  11  25  48  75 105 144 193 243 302 364 427
#     4  12  29  43  72 114 145 191 244 298 363 437
#     4  12  27  46  72 108 150 194 241 301 366 432
#     4  12  27  47  75 110 143 197 246 298 364 440
#
# _framework density 22.919497
#
# number of rings (size 3 to 8) (size 9 to 14) (size 15 to 20)
#    0.000    0.250    5.000    2.625    8.750    2.000 
#    0.000    0.000    0.000    0.000    0.000    0.000 
#    0.000    0.000    0.000    0.000    0.000    0.000 
#
# Total GULP energy -198448.491947 kJ/mol
# GULP energy per Si atom -12403.030747 kJ/mol
# Density = 2.286733 g / cm^3
# Si number density = 22.919497 Si / 1000 Ang^3
#
#
#
# Elastic Constant Matrix: (Units=GPa)
#
#
# Indices 1 2 3 4 5 6 
#
# 1 71.1556 33.8303 9.0811 3.0545 -10.5026 -13.3868
# 2 33.8303 125.4298 37.2099 -13.0377 -11.1786 -14.0098
# 3 9.0811 37.2099 102.2369 -7.6989 -14.3446 4.0726
# 4 3.0545 -13.0377 -7.6989 41.5778 6.9479 -6.9476
# 5 -10.5026 -11.1786 -14.3446 6.9479 38.3017 0.4644
# 6 -13.3868 -14.0098 4.0726 -6.9476 0.4644 46.1959
#
#
#
# Elastic Compliance Matrix: (Units=1/GPa)
#
#
# Indices 1 2 3 4 5 6 
#
# 1 0.017408 -0.004331 0.000265 -0.002723 0.004063 0.003258
# 2 -0.004331 0.010844 -0.003405 0.003564 0.000021 0.002869
# 3 0.000265 -0.003405 0.011566 0.000153 0.003407 -0.001987
# 4 -0.002723 0.003564 0.000153 0.026893 -0.004580 0.004369
# 5 0.004063 0.000021 0.003407 -0.004580 0.029337 -0.000100
# 6 0.003258 0.002869 -0.001987 0.004369 -0.000100 0.024294
#
#
# Mechanical properties :
#
#
# Convention : Reuss Voigt Hill
#
# Bulk Modulus (GPa) = 40.19884 51.00722 45.60303
# Shear Modulus (GPa) = 34.82505 39.79515 37.31010
#
# Velocity S-wave (km/s) = 3.90224 4.17142 4.03907
# Velocity P-wave (km/s) = 6.15472 6.74568 6.45696
#
# Compressibility (1/GPa) = 0.02487634
#
# Stress axis : x y z
#
# Youngs Moduli (GPa) = 57.44335 92.21984 86.46364
#
# Poissons Ratio (x) = 0.39941 -0.02294
# Poissons Ratio (y) = 0.24879 0.29440
# Poissons Ratio (z) = -0.01524 0.31400
#
# Static dielectric constant tensor:
#      x y z
#    x 4.207660 -0.080660 -0.166410 
#    y -0.080660 4.565830 -0.251000 
#    z -0.166410 -0.251000 4.250920 
# 
# 
# High freq. dielectric constant tensor:
#      x y z
#    x 1.908970 -0.006710 -0.014400 
#    y -0.006710 1.918060 -0.012520 
#    z -0.014400 -0.012520 1.909240 
# 
# From -- ./inp_files/333453.got.cif
#   From: 2010.06.25/outbox.cif.g09.slc.cpg/sg2_167_cif.got.tgz:333453.got - 2010.06.27 13:26:56.
