data_PCOD8035545
_publ_section_title
;
Structure prediction by ZEFSAII (Michael W. Deem and Ramdas Pophale) SiO2 
 PCOD8035545
Probable space group: P -1
;
_chemical_formula_sum "Si O2"
_cell_formula_units_Z 16
_cell_length_a 9.226214
_cell_length_b 11.236662
_cell_length_c 9.934617
_cell_angle_alpha 76.732909
_cell_angle_beta 105.841493
_cell_angle_gamma 129.726657
_cell_volume 759.934471
_symmetry_space_group_name_H-M "P -1"
_symmetry_group_IT_number 2
_symmetry_cell_setting 'triclinic'
loop_
_space_group_symop_operation_xyz
x,y,z
-x,-y,-z
loop_
_atom_site_type_symbol
_atom_site_label
_atom_site_fract_x
_atom_site_fract_y
_atom_site_fract_z
Si Si1 0.517366 0.586463 0.348153
Si Si2 0.773177 0.352918 0.826362
Si Si3 0.156506 0.057108 0.637683
Si Si4 0.097729 0.054665 0.152679
Si Si5 0.512113 0.601573 0.857191
Si Si6 0.791568 0.361514 0.133742
Si Si7 0.730127 0.109004 0.679012
Si Si8 0.300635 0.881627 0.626634
O O1 0.500000 0.500000 0.500000
O O2 0.334063 0.582437 0.278040
O O3 0.713865 0.759699 0.354081
O O4 0.533609 0.493361 0.263498
O O5 0.728173 0.213297 0.761974
O O6 0.999618 0.477899 0.856334
O O7 0.707199 0.297333 0.978738
O O8 0.296307 0.021118 0.630798
O O9 0.000000 0.000000 0.500000
O O10 0.050747 0.964068 0.772265
O O11 0.281782 0.232559 0.144368
O O12 0.134695 0.933691 0.234317
O O13 0.000000 0.000000 0.000000
O O14 0.349712 0.621066 0.826888
O O15 0.500000 0.500000 0.000000
O O16 0.809663 0.245978 0.252147
O O17 0.794838 0.189119 0.526409
O O18 0.518832 0.946642 0.656601
#
# Coordination Sequence:
#
# PCOD8035545 Si02
#       8
#     2   2   2   2   2   2   2   2
#     4  12  28  45  73 104 144 188 229 289 352 413
#     4  11  27  47  69 105 139 178 234 285 348 419
#     4  12  26  47  69 106 142 184 238 285 347 417
#     4  12  28  43  73 105 139 187 233 289 347 412
#     4  12  26  49  69 101 146 185 235 283 348 420
#     4  11  27  46  73 100 138 186 226 288 351 410
#     4  11  25  46  69 101 137 177 236 283 340 413
#     4  11  25  45  73  96 137 182 231 286 341 408
#
# _framework density 21.054445000000001
#
# number of rings (size 3 to 8) (size 9 to 14) (size 15 to 20)
#    0.000    0.500    5.000    1.500   10.500    1.000 
#    0.000    0.000    0.000    0.000    0.000    0.000 
#    0.000    0.000    0.000    0.000    0.000    0.000 
#
# Total GULP energy -198450.111736 kJ/mol
# GULP energy per Si atom -12403.131983 kJ/mol
# Density = 2.100652 g / cm^3
# Si number density = 21.054445 Si / 1000 Ang^3
#
#
#
# Elastic Constant Matrix: (Units=GPa)
#
#
# Indices 1 2 3 4 5 6 
#
# 1 94.4531 37.7618 43.0945 9.7385 -9.3288 -1.9070
# 2 37.7618 121.7032 61.2508 8.3737 -8.7518 -0.5333
# 3 43.0945 61.2508 177.9309 5.8411 -7.0355 -8.3992
# 4 9.7385 8.3737 5.8411 42.2936 -4.5046 -4.1962
# 5 -9.3288 -8.7518 -7.0355 -4.5046 40.3702 3.4334
# 6 -1.9070 -0.5333 -8.3992 -4.1962 3.4334 38.8745
#
#
#
# Elastic Compliance Matrix: (Units=1/GPa)
#
#
# Indices 1 2 3 4 5 6 
#
# 1 0.013010 -0.002716 -0.002088 -0.001995 0.001850 -0.000229
# 2 -0.002716 0.010715 -0.002991 -0.001046 0.001129 -0.000845
# 3 -0.002088 -0.002991 0.007217 0.000222 0.000029 0.001437
# 4 -0.001995 -0.001046 0.000222 0.024725 0.001902 0.002437
# 5 0.001850 0.001129 0.000029 0.001902 0.025827 -0.001963
# 6 -0.000229 -0.000845 0.001437 0.002437 -0.001963 0.026448
#
#
# Mechanical properties :
#
#
# Convention : Reuss Voigt Hill
#
# Bulk Modulus (GPa) = 65.14645 75.36681 70.25663
# Shear Modulus (GPa) = 38.86522 41.10633 39.98578
#
# Velocity S-wave (km/s) = 4.30110 4.42337 4.36266
# Velocity P-wave (km/s) = 7.46157 7.87160 7.66933
#
# Compressibility (1/GPa) = 0.01535003
#
# Stress axis : x y z
#
# Youngs Moduli (GPa) = 76.86526 93.33127 138.55561
#
# Poissons Ratio (x) = 0.25353 0.28930
# Poissons Ratio (y) = 0.20880 0.41447
# Poissons Ratio (z) = 0.16049 0.27919
#
# Static dielectric constant tensor:
#      x y z
#    x 3.962770 -0.010090 -0.068500 
#    y -0.010090 3.716620 0.016860 
#    z -0.068500 0.016860 4.152190 
# 
# 
# High freq. dielectric constant tensor:
#      x y z
#    x 1.840950 -0.001050 -0.003290 
#    y -0.001050 1.822790 0.003010 
#    z -0.003290 0.003010 1.847430 
# 
# From -- ./inp_files/186736.got.cif
#   From: 2010.06.25/outbox.cif.g09.slc.cpg/sg2_94_cif.got.tgz:186736.got - 2010.06.27 13:26:56.
