data_PCOD8035237
_publ_section_title
;
Structure prediction by ZEFSAII (Michael W. Deem and Ramdas Pophale) SiO2 
 PCOD8035237
Probable space group: P -1
;
_chemical_formula_sum "Si O2"
_cell_formula_units_Z 10
_cell_length_a 14.620971
_cell_length_b 9.550058
_cell_length_c 6.921967
_cell_angle_alpha 118.264947
_cell_angle_beta 108.027197
_cell_angle_gamma 37.331818
_cell_volume 512.156362
_symmetry_space_group_name_H-M "P -1"
_symmetry_group_IT_number 2
_symmetry_cell_setting 'triclinic'
loop_
_space_group_symop_operation_xyz
x,y,z
-x,-y,-z
loop_
_atom_site_type_symbol
_atom_site_label
_atom_site_fract_x
_atom_site_fract_y
_atom_site_fract_z
Si Si1 0.350939 0.089535 0.494191
Si Si2 0.905989 0.358618 0.146858
Si Si3 0.224387 0.036305 0.062336
Si Si4 0.155011 0.884205 0.215192
Si Si5 0.647374 0.205103 0.421587
O O1 0.223144 0.358235 0.686831
O O2 0.288227 0.109671 0.260838
O O3 0.500000 0.000000 0.500000
O O4 0.391514 0.892257 0.530698
O O5 0.040380 0.287010 0.082182
O O6 0.835067 0.319171 0.927682
O O7 0.980237 0.168342 0.254846
O O8 0.258815 0.834197 0.082406
O O9 0.306008 0.921167 0.837205
O O10 0.215217 0.863034 0.449002
O O11 0.500000 0.500000 0.500000
#
# Coordination Sequence:
#
# PCOD8035237 Si02
#       5
#     2   2   2   2   2
#     4  11  25  40  63  89 129 163 199 256 305 360
#     4   9  19  43  65  90 120 163 207 244 309 361
#     4   9  21  41  62  87 122 166 198 250 303 359
#     4   8  20  40  65  88 123 161 202 249 306 359
#     4  11  25  39  62  95 124 160 207 249 309 362
#
# _framework density 19.525288
#
# number of rings (size 3 to 8) (size 9 to 14) (size 15 to 20)
#    1.200    1.200    0.000    0.600    5.600    4.000 
#    0.000    0.000    0.000    0.000    0.000    0.000 
#    0.000    0.000    0.000    0.000    0.000    0.000 
#
# Total GULP energy -123938.211220 kJ/mol
# GULP energy per Si atom -12393.821122 kJ/mol
# Density = 1.948085 g / cm^3
# Si number density = 19.525288 Si / 1000 Ang^3
#
#
#
# Elastic Constant Matrix: (Units=GPa)
#
#
# Indices 1 2 3 4 5 6 
#
# 1 127.2362 38.0867 67.2505 11.8515 21.4524 -12.4292
# 2 38.0867 105.2295 49.0768 26.3482 2.8028 -0.2132
# 3 67.2505 49.0768 115.1807 18.9457 9.1973 3.8546
# 4 11.8515 26.3482 18.9457 25.9738 -2.3505 -6.4675
# 5 21.4524 2.8028 9.1973 -2.3505 39.7729 3.7197
# 6 -12.4292 -0.2132 3.8546 -6.4675 3.7197 20.7648
#
#
#
# Elastic Compliance Matrix: (Units=1/GPa)
#
#
# Indices 1 2 3 4 5 6 
#
# 1 0.015059 -0.002424 -0.008351 0.004317 -0.006994 0.013137
# 2 -0.002424 0.014914 -0.002623 -0.013319 0.000549 -0.005057
# 3 -0.008351 -0.002623 0.016218 -0.007905 0.001478 -0.010763
# 4 0.004317 -0.013319 -0.007905 0.061653 0.001952 0.022768
# 5 -0.006994 0.000549 0.001478 0.001952 0.029504 -0.009132
# 6 0.013137 -0.005057 -0.010763 0.022768 -0.009132 0.066695
#
#
# Mechanical properties :
#
#
# Convention : Reuss Voigt Hill
#
# Bulk Modulus (GPa) = 51.55993 72.94159 62.25076
# Shear Modulus (GPa) = 21.06997 30.18447 25.62722
#
# Velocity S-wave (km/s) = 3.28855 3.93608 3.62679
# Velocity P-wave (km/s) = 6.39402 7.62204 7.03488
#
# Compressibility (1/GPa) = 0.01939491
#
# Stress axis : x y z
#
# Youngs Moduli (GPa) = 66.40394 67.05238 61.65975
#
# Poissons Ratio (x) = 0.16252 0.51493
# Poissons Ratio (y) = 0.16095 0.16174
# Poissons Ratio (z) = 0.55455 0.17589
#
# Static dielectric constant tensor:
#      x y z
#    x 3.280700 0.060140 0.286130 
#    y 0.060140 3.338950 -0.051700 
#    z 0.286130 -0.051700 3.493050 
# 
# 
# High freq. dielectric constant tensor:
#      x y z
#    x 1.756620 -0.007550 0.023080 
#    y -0.007550 1.743700 0.002290 
#    z 0.023080 0.002290 1.761850 
# 
# From -- ./inp_files/22840.got.cif
#   From: 2010.06.25/outbox.cif.g09.slc.cpg/sg2_12_cif.got.tgz:22840.got - 2010.06.27 13:26:56.
