data_PCOD8035109
_publ_section_title
;
Structure prediction by ZEFSAII (Michael W. Deem and Ramdas Pophale) SiO2 
 PCOD8035109
Probable space group: P -1
;
_chemical_formula_sum "Si O2"
_cell_formula_units_Z 14
_cell_length_a 6.689293
_cell_length_b 11.823897
_cell_length_c 7.895935
_cell_angle_alpha 83.658005
_cell_angle_beta 82.841708
_cell_angle_gamma 94.972656
_cell_volume 612.654359
_symmetry_space_group_name_H-M "P -1"
_symmetry_group_IT_number 2
_symmetry_cell_setting 'triclinic'
loop_
_space_group_symop_operation_xyz
x,y,z
-x,-y,-z
loop_
_atom_site_type_symbol
_atom_site_label
_atom_site_fract_x
_atom_site_fract_y
_atom_site_fract_z
Si Si1 0.456434 0.026267 0.810364
Si Si2 0.062054 0.626605 0.042260
Si Si3 0.211993 0.543970 0.384298
Si Si4 0.281969 0.795934 0.724680
Si Si5 0.874267 0.093745 0.581499
Si Si6 0.440096 0.344767 0.440161
Si Si7 0.817641 0.778029 0.237195
O O1 0.652546 0.037148 0.667818
O O2 0.355397 0.143826 0.807131
O O3 0.299877 0.922827 0.778286
O O4 0.500000 0.000000 0.000000
O O5 0.182059 0.619931 0.208409
O O6 0.871726 0.699504 0.085922
O O7 0.192518 0.697508 0.876361
O O8 0.000000 0.500000 0.000000
O O9 0.345097 0.442575 0.325556
O O10 0.346383 0.614297 0.499519
O O11 0.000000 0.500000 0.500000
O O12 0.145304 0.804325 0.569073
O O13 0.507499 0.761132 0.663839
O O14 0.983156 0.145565 0.729735
O O15 0.000000 0.000000 0.500000
O O16 0.263689 0.308335 0.595333
#
# Coordination Sequence:
#
# PCOD8035109 Si02
#       7
#     2   2   2   2   2   2   2
#     4  12  28  47  73 110 146 188 239 294 365 435
#     4  12  29  46  72 109 148 190 242 297 360 424
#     4  11  24  48  72 102 139 192 246 291 352 420
#     4  12  26  47  71 111 146 185 243 297 360 431
#     4  12  25  47  77 107 146 188 239 297 360 428
#     4  11  25  44  79 100 140 193 239 296 358 425
#     4  12  26  48  75 105 147 191 238 295 362 429
#
# _framework density 22.851385000000001
#
# number of rings (size 3 to 8) (size 9 to 14) (size 15 to 20)
#    0.000    0.286    4.286    3.857    8.000    2.857 
#    0.000    0.000    0.000    0.000    0.000    0.000 
#    0.000    0.000    0.000    0.000    0.000    0.000 
#
# Total GULP energy -173605.974514 kJ/mol
# GULP energy per Si atom -12400.426751 kJ/mol
# Density = 2.279937 g / cm^3
# Si number density = 22.851385 Si / 1000 Ang^3
#
#
#
# Elastic Constant Matrix: (Units=GPa)
#
#
# Indices 1 2 3 4 5 6 
#
# 1 107.6279 47.3197 41.4065 -2.2266 -4.6608 -19.8495
# 2 47.3197 125.8165 27.2505 4.8045 -18.3126 -24.4656
# 3 41.4065 27.2505 117.3385 -16.6023 -0.3875 -10.5947
# 4 -2.2266 4.8045 -16.6023 43.5854 -11.0307 -8.1943
# 5 -4.6608 -18.3126 -0.3875 -11.0307 29.8906 -3.3940
# 6 -19.8495 -24.4656 -10.5947 -8.1943 -3.3940 56.6934
#
#
#
# Elastic Compliance Matrix: (Units=1/GPa)
#
#
# Indices 1 2 3 4 5 6 
#
# 1 0.012581 -0.003555 -0.003382 0.000190 0.000068 0.002270
# 2 -0.003555 0.011245 -0.000863 0.000788 0.007067 0.003984
# 3 -0.003382 -0.000863 0.010642 0.004397 0.000832 0.001118
# 4 0.000190 0.000788 0.004397 0.028682 0.011845 0.006083
# 5 0.000068 0.007067 0.000832 0.011845 0.043031 0.007517
# 6 0.002270 0.003984 0.001118 0.006083 0.007517 0.021691
#
#
# Mechanical properties :
#
#
# Convention : Reuss Voigt Hill
#
# Bulk Modulus (GPa) = 52.99716 64.74847 58.87282
# Shear Modulus (GPa) = 33.38661 41.68762 37.53711
#
# Velocity S-wave (km/s) = 3.82649 4.27581 4.05737
# Velocity P-wave (km/s) = 6.53951 7.26449 6.91151
#
# Compressibility (1/GPa) = 0.01886893
#
# Stress axis : x y z
#
# Youngs Moduli (GPa) = 79.48522 88.92705 93.96950
#
# Poissons Ratio (x) = 0.31615 0.31778
# Poissons Ratio (y) = 0.28259 0.08105
# Poissons Ratio (z) = 0.26880 0.07670
#
# Static dielectric constant tensor:
#      x y z
#    x 4.334660 0.053980 0.158010 
#    y 0.053980 1.443460 -0.982840 
#    z 0.158010 -0.982840 3.832420 
# 
# 
# High freq. dielectric constant tensor:
#      x y z
#    x 1.907730 -0.021260 -0.003220 
#    y -0.021260 1.922020 -0.004350 
#    z -0.003220 -0.004350 1.899160 
# 
# From -- ./inp_files/131448.got.cif
#   From: 2010.06.25/outbox.cif.g09.slc.cpg/sg2_66_cif.got.tgz:131448.got - 2010.06.27 13:26:56.
