data_PCOD8035086
_publ_section_title
;
Structure prediction by ZEFSAII (Michael W. Deem and Ramdas Pophale) SiO2 
 PCOD8035086
Probable space group: P -1
;
_chemical_formula_sum "Si O2"
_cell_formula_units_Z 12
_cell_length_a 6.756398
_cell_length_b 16.335293
_cell_length_c 9.170406
_cell_angle_alpha 131.532211
_cell_angle_beta 52.711208
_cell_angle_gamma 98.111977
_cell_volume 542.022250
_symmetry_space_group_name_H-M "P -1"
_symmetry_group_IT_number 2
_symmetry_cell_setting 'triclinic'
loop_
_space_group_symop_operation_xyz
x,y,z
-x,-y,-z
loop_
_atom_site_type_symbol
_atom_site_label
_atom_site_fract_x
_atom_site_fract_y
_atom_site_fract_z
Si Si1 0.206167 0.114570 0.024920
Si Si2 0.718265 0.734969 0.603649
Si Si3 0.405901 0.837828 0.592914
Si Si4 0.261184 0.535727 0.265884
Si Si5 0.681950 0.373059 0.339169
Si Si6 0.719764 0.715213 0.036187
O O1 0.320515 0.190625 0.963661
O O2 0.375100 0.973612 0.746884
O O3 0.276842 0.143619 0.189458
O O4 0.876325 0.157286 0.206787
O O5 0.676032 0.760103 0.478786
O O6 0.449158 0.717891 0.751034
O O7 0.986978 0.615131 0.389043
O O8 0.469255 0.773275 0.331065
O O9 0.295020 0.612172 0.476792
O O10 0.500000 0.500000 0.000000
O O11 0.261401 0.412210 0.184490
O O12 0.500000 0.500000 0.500000
O O13 0.982333 0.315761 0.061654
#
# Coordination Sequence:
#
# PCOD8035086 Si02
#       6
#     2   2   2   2   2   2
#     4  11  24  48  68  95 136 175 228 274 325 386
#     4  12  22  44  67  96 138 172 218 274 336 390
#     4  11  26  44  70  98 130 181 224 275 325 390
#     4  12  26  42  68 103 133 173 219 275 335 398
#     4  12  24  41  65 100 134 176 214 271 336 397
#     4  12  23  45  68  98 136 171 223 271 333 393
#
# _framework density 22.139310999999999
#
# number of rings (size 3 to 8) (size 9 to 14) (size 15 to 20)
#    0.000    0.333    5.000    4.500    2.333    1.333 
#    3.000    0.833    0.000    0.000    0.000    0.000 
#    0.000    0.000    0.000    0.000    0.000    0.000 
#
# Total GULP energy -148746.755822 kJ/mol
# GULP energy per Si atom -12395.562985 kJ/mol
# Density = 2.208892 g / cm^3
# Si number density = 22.139311 Si / 1000 Ang^3
#
#
#
# Elastic Constant Matrix: (Units=GPa)
#
#
# Indices 1 2 3 4 5 6 
#
# 1 107.1117 26.5840 20.2166 8.1346 1.5196 -2.5476
# 2 26.5840 90.1160 23.4256 18.8558 -0.7070 -12.6729
# 3 20.2166 23.4256 91.3503 9.6044 3.9316 -0.4047
# 4 8.1346 18.8558 9.6044 43.5221 7.4065 8.4531
# 5 1.5196 -0.7070 3.9316 7.4065 31.9870 3.3216
# 6 -2.5476 -12.6729 -0.4047 8.4531 3.3216 31.9606
#
#
#
# Elastic Compliance Matrix: (Units=1/GPa)
#
#
# Indices 1 2 3 4 5 6 
#
# 1 0.010300 -0.002557 -0.001570 -0.000414 -0.000249 -0.000077
# 2 -0.002557 0.015104 -0.002585 -0.007235 0.001670 0.007492
# 3 -0.001570 -0.002585 0.012104 -0.000933 -0.001189 -0.000627
# 4 -0.000414 -0.007235 -0.000933 0.029333 -0.005772 -0.010072
# 5 -0.000249 0.001670 -0.001189 -0.005772 0.032926 -0.001268
# 6 -0.000077 0.007492 -0.000627 -0.010072 -0.001268 0.037041
#
#
# Mechanical properties :
#
#
# Convention : Reuss Voigt Hill
#
# Bulk Modulus (GPa) = 41.52239 47.67007 44.59623
# Shear Modulus (GPa) = 31.59390 36.05074 33.82232
#
# Velocity S-wave (km/s) = 3.78173 4.03967 3.91283
# Velocity P-wave (km/s) = 6.15341 6.58310 6.37188
#
# Compressibility (1/GPa) = 0.02408339
#
# Stress axis : x y z
#
# Youngs Moduli (GPa) = 97.08728 66.20968 82.61830
#
# Poissons Ratio (x) = 0.16927 0.12971
# Poissons Ratio (y) = 0.24822 0.21360
# Poissons Ratio (z) = 0.15243 0.17118
#
# Static dielectric constant tensor:
#      x y z
#    x 4.127090 0.069720 0.004150 
#    y 0.069720 4.310080 0.233160 
#    z 0.004150 0.233160 3.871330 
# 
# 
# High freq. dielectric constant tensor:
#      x y z
#    x 1.873790 0.005440 -0.002460 
#    y 0.005440 1.890760 0.017700 
#    z -0.002460 0.017700 1.857620 
# 
# From -- ./inp_files/18286.got.cif
#   From: 2010.06.25/outbox.cif.g09.slc.cpg/sg2_10_cif.got.tgz:18286.got - 2010.06.27 13:26:56.
