data_PCOD8035069
_publ_section_title
;
Structure prediction by ZEFSAII (Michael W. Deem and Ramdas Pophale) SiO2 
 PCOD8035069
Probable space group: P -1
;
_chemical_formula_sum "Si O2"
_cell_formula_units_Z 16
_cell_length_a 9.917872
_cell_length_b 17.467557
_cell_length_c 5.461043
_cell_angle_alpha 62.269535
_cell_angle_beta 111.194939
_cell_angle_gamma 127.793343
_cell_volume 657.789805
_symmetry_space_group_name_H-M "P -1"
_symmetry_group_IT_number 2
_symmetry_cell_setting 'triclinic'
loop_
_space_group_symop_operation_xyz
x,y,z
-x,-y,-z
loop_
_atom_site_type_symbol
_atom_site_label
_atom_site_fract_x
_atom_site_fract_y
_atom_site_fract_z
Si Si1 0.029659 0.600432 0.498833
Si Si2 0.926800 0.232423 0.082376
Si Si3 0.727377 0.892038 0.052262
Si Si4 0.221585 0.406124 0.308136
Si Si5 0.025779 0.081668 0.197825
Si Si6 0.658670 0.382594 0.109612
Si Si7 0.448937 0.315827 0.573272
Si Si8 0.549959 0.064027 0.190125
O O1 0.103086 0.700626 0.229694
O O2 0.177448 0.629769 0.756583
O O3 0.000000 0.500000 0.500000
O O4 0.840011 0.566580 0.523138
O O5 0.751312 0.143656 0.215779
O O6 0.047982 0.302908 0.272232
O O7 0.022590 0.180639 0.112347
O O8 0.708233 0.804893 0.358818
O O9 0.786488 0.870451 0.866388
O O10 0.539737 0.872380 0.947323
O O11 0.864973 0.011685 0.017688
O O12 0.377544 0.389363 0.462572
O O13 0.278353 0.497609 0.018000
O O14 0.000000 0.000000 0.500000
O O15 0.546745 0.335809 0.352083
O O16 0.561544 0.331088 0.867544
O O17 0.500000 0.000000 0.500000
O O18 0.500000 0.000000 0.000000
#
# Coordination Sequence:
#
# PCOD8035069 Si02
#       8
#     2   2   2   2   2   2   2   2
#     4  12  27  50  79 112 157 204 266 320 390 476
#     4  12  27  47  82 110 158 209 258 327 396 463
#     4  11  26  46  75 108 153 199 259 317 384 466
#     4  12  28  48  80 113 156 205 267 321 393 473
#     4  11  24  47  77 110 151 204 261 322 386 463
#     4  12  28  50  78 113 157 207 259 326 390 469
#     4  12  29  49  79 115 157 206 261 324 402 457
#     4  12  28  49  74 112 154 202 259 321 384 466
#
# _framework density 24.323879000000002
#
# number of rings (size 3 to 8) (size 9 to 14) (size 15 to 20)
#    0.000    0.250    2.500    4.875   10.500    2.000 
#    0.000    0.000    0.000    0.000    0.000    0.000 
#    0.000    0.000    0.000    0.000    0.000    0.000 
#
# Total GULP energy -198344.686356 kJ/mol
# GULP energy per Si atom -12396.542897 kJ/mol
# Density = 2.426852 g / cm^3
# Si number density = 24.323879 Si / 1000 Ang^3
#
#
#
# Elastic Constant Matrix: (Units=GPa)
#
#
# Indices 1 2 3 4 5 6 
#
# 1 134.5078 6.9384 33.7960 -11.7654 -13.4232 -12.1383
# 2 6.9384 97.1712 24.7487 -17.6107 -14.4960 -8.3744
# 3 33.7960 24.7487 136.8785 -17.0828 -14.0895 -6.7246
# 4 -11.7654 -17.6107 -17.0828 48.1751 2.6363 6.5394
# 5 -13.4232 -14.4960 -14.0895 2.6363 54.4170 -10.6380
# 6 -12.1383 -8.3744 -6.7246 6.5394 -10.6380 36.5946
#
#
#
# Elastic Compliance Matrix: (Units=1/GPa)
#
#
# Indices 1 2 3 4 5 6 
#
# 1 0.008439 0.000655 -0.001659 0.001157 0.002382 0.003130
# 2 0.000655 0.012003 -0.001397 0.003445 0.003435 0.003090
# 3 -0.001659 -0.001397 0.008388 0.001877 0.001448 0.000757
# 4 0.001157 0.003445 0.001877 0.023321 0.000044 -0.002638
# 5 0.002382 0.003435 0.001448 0.000044 0.021852 0.008187
# 6 0.003130 0.003090 0.000757 -0.002638 0.008187 0.032062
#
#
# Mechanical properties :
#
#
# Convention : Reuss Voigt Hill
#
# Bulk Modulus (GPa) = 41.61596 55.50263 48.55929
# Shear Modulus (GPa) = 42.06050 48.04229 45.05140
#
# Velocity S-wave (km/s) = 4.16286 4.44904 4.30833
# Velocity P-wave (km/s) = 6.34445 7.01852 6.68998
#
# Compressibility (1/GPa) = 0.02402924
#
# Stress axis : x y z
#
# Youngs Moduli (GPa) = 118.49904 83.31177 119.21450
#
# Poissons Ratio (x) = -0.05454 0.19773
# Poissons Ratio (y) = -0.07758 0.16650
# Poissons Ratio (z) = 0.19654 0.11635
#
# Static dielectric constant tensor:
#      x y z
#    x 4.688940 0.042540 0.237490 
#    y 0.042540 5.280660 -0.218480 
#    z 0.237490 -0.218480 4.520940 
# 
# 
# High freq. dielectric constant tensor:
#      x y z
#    x 1.985000 -0.000620 0.002110 
#    y -0.000620 1.981870 -0.014000 
#    z 0.002110 -0.014000 1.968420 
# 
# From -- ./inp_files/46774.got.cif
#   From: 2010.06.25/outbox.cif.g09.slc.cpg/sg2_24_cif.got.tgz:46774.got - 2010.06.27 13:26:56.
