data_PCOD8035831
_publ_section_title
;
Structure prediction by ZEFSAII (Michael W. Deem and Ramdas Pophale) SiO2 
 PCOD8035831
Probable space group: P -1
;
_chemical_formula_sum "Si O2"
_cell_formula_units_Z 14
_cell_length_a 14.086279
_cell_length_b 9.770121
_cell_length_c 15.380250
_cell_angle_alpha 133.067557
_cell_angle_beta 152.274775
_cell_angle_gamma 65.908605
_cell_volume 587.338248
_symmetry_space_group_name_H-M "P -1"
_symmetry_group_IT_number 2
_symmetry_cell_setting 'triclinic'
loop_
_space_group_symop_operation_xyz
x,y,z
-x,-y,-z
loop_
_atom_site_type_symbol
_atom_site_label
_atom_site_fract_x
_atom_site_fract_y
_atom_site_fract_z
Si Si1 0.270074 0.056213 0.761442
Si Si2 0.169460 0.356609 0.337404
Si Si3 0.114572 0.002006 0.798293
Si Si4 0.094613 0.752883 0.212182
Si Si5 0.792501 0.522531 0.384313
Si Si6 0.581515 0.180708 0.347831
Si Si7 0.258820 0.990206 0.276566
O O1 0.270623 0.010410 0.844988
O O2 0.283905 0.877390 0.639127
O O3 0.506657 0.314390 0.040404
O O4 0.000000 0.000000 0.500000
O O5 0.165249 0.459111 0.470213
O O6 0.312138 0.554649 0.467049
O O7 0.319717 0.239553 0.416312
O O8 0.887752 0.172735 0.995212
O O9 0.081947 0.211433 0.853382
O O10 0.282986 0.029037 0.029322
O O11 0.846298 0.757415 0.488107
O O12 0.355943 0.856243 0.519737
O O13 0.099319 0.889471 0.191623
O O14 0.000000 0.500000 0.000000
O O15 0.000000 0.500000 0.500000
O O16 0.500000 0.000000 0.500000
#
# Coordination Sequence:
#
# PCOD8035831 Si02
#       7
#     2   2   2   2   2   2   2
#     4  12  26  48  76 113 153 199 251 315 385 453
#     4  11  25  47  73 106 147 199 245 309 380 445
#     4  12  26  48  76 109 154 192 254 310 382 454
#     4  12  27  47  70 110 143 194 255 309 373 447
#     4  12  25  46  78 111 151 199 250 308 380 460
#     4  12  25  46  78 106 145 199 248 309 377 453
#     4  11  27  46  71 106 149 193 252 312 377 443
#
# _framework density 23.836349999999999
#
# number of rings (size 3 to 8) (size 9 to 14) (size 15 to 20)
#    0.000    0.286    7.143    1.286    4.000    2.286 
#    0.000    0.000    0.000    0.000    0.000    0.000 
#    0.000    0.000    0.000    0.000    0.000    0.000 
#
# Total GULP energy -173546.478801 kJ/mol
# GULP energy per Si atom -12396.177057 kJ/mol
# Density = 2.378210 g / cm^3
# Si number density = 23.836350 Si / 1000 Ang^3
#
#
#
# Elastic Constant Matrix: (Units=GPa)
#
#
# Indices 1 2 3 4 5 6 
#
# 1 53.8996 20.4660 37.6587 0.9461 -5.6448 -3.3310
# 2 20.4660 127.2970 57.7606 -0.1025 -4.2262 -13.1915
# 3 37.6587 57.7606 148.0296 -10.2528 5.3095 -9.6295
# 4 0.9461 -0.1025 -10.2528 51.6471 3.8407 3.5516
# 5 -5.6448 -4.2262 5.3095 3.8407 42.1718 -1.7593
# 6 -3.3310 -13.1915 -9.6295 3.5516 -1.7593 34.9636
#
#
#
# Elastic Compliance Matrix: (Units=1/GPa)
#
#
# Indices 1 2 3 4 5 6 
#
# 1 0.023482 -0.000921 -0.005848 -0.001936 0.003992 0.000677
# 2 -0.000921 0.009984 -0.003599 -0.000989 0.001540 0.002866
# 3 -0.005848 -0.003599 0.009924 0.002230 -0.002577 0.000462
# 4 -0.001936 -0.000989 0.002230 0.020175 -0.002565 -0.002122
# 5 0.003992 0.001540 -0.002577 -0.002565 0.025033 0.001772
# 6 0.000677 0.002866 0.000462 -0.002122 0.001772 0.030179
#
#
# Mechanical properties :
#
#
# Convention : Reuss Voigt Hill
#
# Bulk Modulus (GPa) = 44.13916 62.33299 53.23608
# Shear Modulus (GPa) = 33.99873 39.97923 36.98898
#
# Velocity S-wave (km/s) = 3.78079 4.09985 3.94355
# Velocity P-wave (km/s) = 6.13326 6.97272 6.56642
#
# Compressibility (1/GPa) = 0.02265562
#
# Stress axis : x y z
#
# Youngs Moduli (GPa) = 42.58531 100.16081 100.76317
#
# Poissons Ratio (x) = 0.09223 0.58925
# Poissons Ratio (y) = 0.03921 0.36262
# Poissons Ratio (z) = 0.24903 0.36046
#
# Static dielectric constant tensor:
#      x y z
#    x 4.797990 0.337720 -0.334390 
#    y 0.337720 4.566390 -0.010650 
#    z -0.334390 -0.010650 4.432920 
# 
# 
# High freq. dielectric constant tensor:
#      x y z
#    x 1.948660 -0.003840 -0.016520 
#    y -0.003840 1.951400 -0.000990 
#    z -0.016520 -0.000990 1.947900 
# 
# From -- ./inp_files/279004.got.cif
#   From: 2010.06.25/outbox.cif.g09.slc.cpg/sg2_140_cif.got.tgz:279004.got - 2010.06.27 13:26:56.
