data_PCOD8035232
_publ_section_title
;
Structure prediction by ZEFSAII (Michael W. Deem and Ramdas Pophale) SiO2 
 PCOD8035232
Probable space group: P -1
;
_chemical_formula_sum "Si O2"
_cell_formula_units_Z 14
_cell_length_a 19.895579
_cell_length_b 15.350947
_cell_length_c 11.161429
_cell_angle_alpha 151.217216
_cell_angle_beta 30.426219
_cell_angle_gamma 161.058885
_cell_volume 520.548746
_symmetry_space_group_name_H-M "P -1"
_symmetry_group_IT_number 2
_symmetry_cell_setting 'triclinic'
loop_
_space_group_symop_operation_xyz
x,y,z
-x,-y,-z
loop_
_atom_site_type_symbol
_atom_site_label
_atom_site_fract_x
_atom_site_fract_y
_atom_site_fract_z
Si Si1 0.022747 0.008051 0.834271
Si Si2 0.612092 0.487755 0.720060
Si Si3 0.869593 0.488101 0.773156
Si Si4 0.699501 0.592423 0.446459
Si Si5 0.454067 0.969770 0.673948
Si Si6 0.281002 0.066733 0.347813
Si Si7 0.969182 0.541438 0.944391
O O1 0.229031 0.113451 0.609624
O O2 0.013770 0.195337 0.013103
O O3 0.841624 0.694722 0.673489
O O4 0.000000 0.000000 0.000000
O O5 0.619075 0.572012 0.676306
O O6 0.499540 0.174798 0.511577
O O7 0.500000 0.500000 0.000000
O O8 0.872126 0.397200 0.788844
O O9 0.000000 0.500000 0.500000
O O10 0.634013 0.283507 0.838251
O O11 0.531778 0.303002 0.270258
O O12 0.769064 0.850069 0.583926
O O13 0.895706 0.662147 0.247188
O O14 0.225144 0.806348 0.863130
O O15 0.500000 0.000000 0.500000
O O16 0.141743 0.735250 0.136050
#
# Coordination Sequence:
#
# PCOD8035232 Si02
#       7
#     2   2   2   2   2   2   2
#     4  12  24  47  75 109 156 205 260 331 391 466
#     4  12  27  51  79 116 152 204 270 336 400 478
#     4  12  24  46  78 114 159 211 264 326 398 472
#     4  11  27  51  80 116 160 211 265 333 405 482
#     4  12  26  48  79 120 155 210 268 331 398 471
#     4  11  24  51  78 118 158 214 263 325 407 476
#     4  12  25  52  79 117 165 207 271 326 404 478
#
# _framework density 26.894697000000001
#
# number of rings (size 3 to 8) (size 9 to 14) (size 15 to 20)
#    0.000    0.286    4.286    4.714    0.000    1.143 
#    5.143    0.000    0.000    0.000    0.000    0.000 
#    0.000    0.000    0.000    0.000    0.000    0.000 
#
# Total GULP energy -173630.873295 kJ/mol
# GULP energy per Si atom -12402.205235 kJ/mol
# Density = 2.683348 g / cm^3
# Si number density = 26.894697 Si / 1000 Ang^3
#
#
#
# Elastic Constant Matrix: (Units=GPa)
#
#
# Indices 1 2 3 4 5 6 
#
# 1 122.1262 55.4844 34.6821 -17.2875 -0.5727 -21.1262
# 2 55.4844 124.9028 30.0722 -10.6554 -8.7583 -0.1466
# 3 34.6821 30.0722 121.0537 -25.4012 -6.7536 -12.7450
# 4 -17.2875 -10.6554 -25.4012 36.0657 -2.6282 0.3143
# 5 -0.5727 -8.7583 -6.7536 -2.6282 49.1141 -2.3754
# 6 -21.1262 -0.1466 -12.7450 0.3143 -2.3754 59.0109
#
#
#
# Elastic Compliance Matrix: (Units=1/GPa)
#
#
# Indices 1 2 3 4 5 6 
#
# 1 0.011808 -0.004717 -0.001106 0.003418 -0.000482 0.003939
# 2 -0.004717 0.010540 -0.001378 0.000011 0.001544 -0.001898
# 3 -0.001106 -0.001378 0.010607 0.006636 0.001648 0.001922
# 4 0.003418 0.000011 0.006636 0.034232 0.002912 0.002592
# 5 -0.000482 0.001544 0.001648 0.002912 0.021062 0.001019
# 6 0.003939 -0.001898 0.001922 0.002592 0.001019 0.018794
#
#
# Mechanical properties :
#
#
# Convention : Reuss Voigt Hill
#
# Bulk Modulus (GPa) = 53.90017 67.61778 60.75897
# Shear Modulus (GPa) = 39.17526 45.36108 42.26817
#
# Velocity S-wave (km/s) = 3.82070 4.11130 3.96866
# Velocity P-wave (km/s) = 6.28875 6.90893 6.60612
#
# Compressibility (1/GPa) = 0.01855282
#
# Stress axis : x y z
#
# Youngs Moduli (GPa) = 84.68587 94.87328 94.27686
#
# Poissons Ratio (x) = 0.44749 0.10430
# Poissons Ratio (y) = 0.39944 0.12995
# Poissons Ratio (z) = 0.09369 0.13077
#
# Static dielectric constant tensor:
#      x y z
#    x 4.277590 -0.681820 0.503730 
#    y -0.681820 4.699200 0.232240 
#    z 0.503730 0.232240 4.439190 
# 
# 
# High freq. dielectric constant tensor:
#      x y z
#    x 2.096240 -0.000410 0.010610 
#    y -0.000410 2.093340 -0.006820 
#    z 0.010610 -0.006820 2.089940 
# 
# From -- ./inp_files/471991.got.cif
#   From: 2010.06.25/outbox.cif.g09.slc.cpg/sg2_236_cif.got.tgz:471991.got - 2010.06.27 13:26:56.
