data_PCOD8035773
_publ_section_title
;
Structure prediction by ZEFSAII (Michael W. Deem and Ramdas Pophale) SiO2 
 PCOD8035773
Probable space group: P -1
;
_chemical_formula_sum "Si O2"
_cell_formula_units_Z 10
_cell_length_a 10.010664
_cell_length_b 5.775398
_cell_length_c 13.384984
_cell_angle_alpha 91.288656
_cell_angle_beta 31.084315
_cell_angle_gamma 78.053869
_cell_volume 359.024337
_symmetry_space_group_name_H-M "P -1"
_symmetry_group_IT_number 2
_symmetry_cell_setting 'triclinic'
loop_
_space_group_symop_operation_xyz
x,y,z
-x,-y,-z
loop_
_atom_site_type_symbol
_atom_site_label
_atom_site_fract_x
_atom_site_fract_y
_atom_site_fract_z
Si Si1 0.551357 0.639326 0.370932
Si Si2 0.171125 0.042869 0.484548
Si Si3 0.372584 0.000448 0.943418
Si Si4 0.755115 0.579866 0.830851
Si Si5 0.050502 0.775020 0.040522
O O1 0.500000 0.500000 0.500000
O O2 0.760735 0.769813 0.268643
O O3 0.231018 0.841253 0.536646
O O4 0.715002 0.471108 0.168404
O O5 0.498673 0.982041 0.246147
O O6 0.034158 0.338793 0.610916
O O7 0.000000 0.000000 0.500000
O O8 0.657877 0.831733 0.824565
O O9 0.180780 0.843204 0.058299
O O10 0.196978 0.300864 0.094018
O O11 0.500000 0.500000 0.000000
O O12 0.000000 0.000000 0.000000
#
# Coordination Sequence:
#
# PCOD8035773 Si02
#       5
#     2   2   2   2   2
#     4  11  28  54  82 121 163 222 276 335 411 501
#     4  12  24  51  83 119 161 212 274 340 408 487
#     4  11  25  50  77 119 160 212 270 342 412 481
#     4  11  25  46  78 120 160 208 267 344 408 488
#     4  11  25  54  82 111 170 217 270 343 412 483
#
# _framework density 27.853266000000001
#
# number of rings (size 3 to 8) (size 9 to 14) (size 15 to 20)
#    0.000    0.800    4.000    1.800    0.000    2.400 
#   10.800    1.000    0.000    0.000    0.000    0.000 
#    0.000    0.000    0.000    0.000    0.000    0.000 
#
# Total GULP energy -123919.514545 kJ/mol
# GULP energy per Si atom -12391.951454 kJ/mol
# Density = 2.778987 g / cm^3
# Si number density = 27.853266 Si / 1000 Ang^3
#
#
#
# Elastic Constant Matrix: (Units=GPa)
#
#
# Indices 1 2 3 4 5 6 
#
# 1 146.2950 70.1965 63.3646 8.9628 -7.2782 10.7573
# 2 70.1965 159.8792 79.9616 20.4301 2.1340 6.6845
# 3 63.3646 79.9616 132.8260 8.1894 12.7515 19.6253
# 4 8.9628 20.4301 8.1894 70.6469 6.7801 -1.5254
# 5 -7.2782 2.1340 12.7515 6.7801 34.4450 -0.4912
# 6 10.7573 6.6845 19.6253 -1.5254 -0.4912 68.6053
#
#
#
# Elastic Compliance Matrix: (Units=1/GPa)
#
#
# Indices 1 2 3 4 5 6 
#
# 1 0.009759 -0.002574 -0.003375 -0.000450 0.003555 -0.000298
# 2 -0.002574 0.010069 -0.004925 -0.002101 0.001080 0.000792
# 3 -0.003375 -0.004925 0.012975 0.000809 -0.005410 -0.002723
# 4 -0.000450 -0.002101 0.000809 0.015043 -0.003220 0.000355
# 5 0.003555 0.001080 -0.005410 -0.003220 0.032368 0.001045
# 6 -0.000298 0.000792 -0.002723 0.000355 0.001045 0.015340
#
#
# Mechanical properties :
#
#
# Convention : Reuss Voigt Hill
#
# Bulk Modulus (GPa) = 90.45829 96.22727 93.34278
# Shear Modulus (GPa) = 41.32670 49.77126 45.54898
#
# Velocity S-wave (km/s) = 3.85610 4.23177 4.04830
# Velocity P-wave (km/s) = 7.23694 7.64854 7.44558
#
# Compressibility (1/GPa) = 0.01105482
#
# Stress axis : x y z
#
# Youngs Moduli (GPa) = 102.46942 99.31591 77.06835
#
# Poissons Ratio (x) = 0.25565 0.26014
# Poissons Ratio (y) = 0.26376 0.37954
# Poissons Ratio (z) = 0.34588 0.48911
#
# Static dielectric constant tensor:
#      x y z
#    x 4.629450 -0.578940 -0.104150 
#    y -0.578940 5.984260 0.181290 
#    z -0.104150 0.181290 5.087340 
# 
# 
# High freq. dielectric constant tensor:
#      x y z
#    x 2.131650 -0.005450 0.004900 
#    y -0.005450 2.146480 -0.004390 
#    z 0.004900 -0.004390 2.125680 
# 
# From -- ./inp_files/510918.got.cif
#   From: 2010.06.25/outbox.cif.g09.slc.cpg/sg2_256_cif.got.tgz:510918.got - 2010.06.27 13:26:56.
