data_PCOD8035704
_publ_section_title
;
Structure prediction by ZEFSAII (Michael W. Deem and Ramdas Pophale) SiO2 
 PCOD8035704
Probable space group: P -1
;
_chemical_formula_sum "Si O2"
_cell_formula_units_Z 16
_cell_length_a 11.134425
_cell_length_b 20.469328
_cell_length_c 8.673729
_cell_angle_alpha 139.785261
_cell_angle_beta 49.856790
_cell_angle_gamma 145.383968
_cell_volume 724.361670
_symmetry_space_group_name_H-M "P -1"
_symmetry_group_IT_number 2
_symmetry_cell_setting 'triclinic'
loop_
_space_group_symop_operation_xyz
x,y,z
-x,-y,-z
loop_
_atom_site_type_symbol
_atom_site_label
_atom_site_fract_x
_atom_site_fract_y
_atom_site_fract_z
Si Si1 0.352812 0.704156 0.945385
Si Si2 0.340759 0.491880 0.725609
Si Si3 0.068413 0.108198 0.762611
Si Si4 0.768983 0.357274 0.418321
Si Si5 0.899271 0.209658 0.678481
Si Si6 0.475679 0.382612 0.882042
Si Si7 0.252627 0.875260 0.996218
Si Si8 0.202399 0.048071 0.832929
O O1 0.216278 0.737930 0.185966
O O2 0.594685 0.832661 0.020586
O O3 0.262297 0.559649 0.826423
O O4 0.329668 0.686476 0.749027
O O5 0.500000 0.500000 0.500000
O O6 0.148804 0.338023 0.669043
O O7 0.483616 0.592675 0.927185
O O8 0.234263 0.254759 0.811603
O O9 0.198665 0.106350 0.781591
O O10 0.000000 0.000000 0.500000
O O11 0.865963 0.089802 0.945451
O O12 0.622575 0.359035 0.651690
O O13 0.787418 0.250936 0.273952
O O14 0.000000 0.500000 0.500000
O O15 0.814507 0.079929 0.411849
O O16 0.842336 0.161618 0.817562
O O17 0.500000 0.500000 0.000000
O O18 0.500000 0.000000 0.000000
O O19 0.000000 0.000000 0.000000
#
# Coordination Sequence:
#
# PCOD8035704 Si02
#       8
#     2   2   2   2   2   2   2   2
#     4  11  25  48  71 106 145 189 240 299 363 430
#     4  12  25  47  73 108 144 189 240 295 362 430
#     4  12  25  45  73 102 141 189 243 295 353 432
#     4  11  25  47  74 105 144 187 241 300 360 430
#     4  11  25  46  73 103 146 189 238 296 357 429
#     4  12  25  44  72 105 142 185 239 299 359 422
#     4  11  25  46  73 106 141 188 242 295 360 423
#     4  12  27  46  70 107 145 192 240 294 364 421
#
# _framework density 22.088415000000001
#
# number of rings (size 3 to 8) (size 9 to 14) (size 15 to 20)
#    0.000    0.500    2.500    6.000    5.250    0.000 
#    2.250    0.000    0.000    0.000    0.000    0.000 
#    0.000    0.000    0.000    0.000    0.000    0.000 
#
# Total GULP energy -198357.096624 kJ/mol
# GULP energy per Si atom -12397.318539 kJ/mol
# Density = 2.203814 g / cm^3
# Si number density = 22.088415 Si / 1000 Ang^3
#
#
#
# Elastic Constant Matrix: (Units=GPa)
#
#
# Indices 1 2 3 4 5 6 
#
# 1 120.7442 37.7526 64.6337 6.2381 -9.6801 13.7311
# 2 37.7526 152.8990 61.0272 11.6352 1.2326 25.9697
# 3 64.6337 61.0272 175.7406 4.6242 -11.4452 7.7841
# 4 6.2381 11.6352 4.6242 48.5092 3.9133 -1.9806
# 5 -9.6801 1.2326 -11.4452 3.9133 49.5999 6.8527
# 6 13.7311 25.9697 7.7841 -1.9806 6.8527 43.2981
#
#
#
# Elastic Compliance Matrix: (Units=1/GPa)
#
#
# Indices 1 2 3 4 5 6 
#
# 1 0.010893 -0.000773 -0.003470 -0.001141 0.001808 -0.002705
# 2 -0.000773 0.008639 -0.002474 -0.001910 -0.000156 -0.004554
# 3 -0.003470 -0.002474 0.007841 0.000251 0.001032 0.001023
# 4 -0.001141 -0.001910 0.000251 0.021487 -0.002199 0.002793
# 5 0.001808 -0.000156 0.001032 -0.002199 0.021506 -0.004169
# 6 -0.002705 -0.004554 0.001023 0.002793 -0.004169 0.027289
#
#
# Mechanical properties :
#
#
# Convention : Reuss Voigt Hill
#
# Bulk Modulus (GPa) = 71.74260 86.24564 78.99412
# Shear Modulus (GPa) = 43.20262 47.34613 45.27437
#
# Velocity S-wave (km/s) = 4.42735 4.63480 4.53226
# Velocity P-wave (km/s) = 7.66064 8.23239 7.95166
#
# Compressibility (1/GPa) = 0.01393872
#
# Stress axis : x y z
#
# Youngs Moduli (GPa) = 91.80461 115.75975 127.53699
#
# Poissons Ratio (x) = 0.08945 0.44258
# Poissons Ratio (y) = 0.07094 0.31550
# Poissons Ratio (z) = 0.31858 0.28637
#
# Static dielectric constant tensor:
#      x y z
#    x 5.489870 0.202510 -0.326660 
#    y 0.202510 4.133960 0.176760 
#    z -0.326660 0.176760 4.286380 
# 
# 
# High freq. dielectric constant tensor:
#      x y z
#    x 1.879050 0.004940 -0.014430 
#    y 0.004940 1.881750 0.012230 
#    z -0.014430 0.012230 1.886870 
# 
# From -- ./inp_files/205983.got.cif
#   From: 2010.06.25/outbox.cif.g09.slc.cpg/sg2_103_cif.got.tgz:205983.got - 2010.06.27 13:26:56.
