data_PCOD8035643
_publ_section_title
;
Structure prediction by ZEFSAII (Michael W. Deem and Ramdas Pophale) SiO2 
 PCOD8035643
Probable space group: P -1
;
_chemical_formula_sum "Si O2"
_cell_formula_units_Z 16
_cell_length_a 9.226351
_cell_length_b 8.741644
_cell_length_c 17.953891
_cell_angle_alpha 148.760948
_cell_angle_beta 80.069893
_cell_angle_gamma 98.537087
_cell_volume 739.717969
_symmetry_space_group_name_H-M "P -1"
_symmetry_group_IT_number 2
_symmetry_cell_setting 'triclinic'
loop_
_space_group_symop_operation_xyz
x,y,z
-x,-y,-z
loop_
_atom_site_type_symbol
_atom_site_label
_atom_site_fract_x
_atom_site_fract_y
_atom_site_fract_z
Si Si1 0.496429 0.697351 0.781648
Si Si2 0.514314 0.328376 0.774735
Si Si3 0.841975 0.215458 0.185151
Si Si4 0.586223 0.328420 0.483835
Si Si5 0.792685 0.163801 0.758838
Si Si6 0.134728 0.496255 0.541369
Si Si7 0.310338 0.763917 0.038196
Si Si8 0.023135 0.637976 0.917313
O O1 0.482970 0.506145 0.776911
O O2 0.334705 0.781116 0.800955
O O3 0.584255 0.509658 0.635385
O O4 0.592871 0.989308 0.910853
O O5 0.684854 0.352047 0.793325
O O6 0.479670 0.988031 0.624544
O O7 0.404642 0.461973 0.902591
O O8 0.901637 0.365887 0.317771
O O9 0.914032 0.394575 0.185068
O O10 0.895190 0.879622 0.036287
O O11 0.500000 0.500000 0.500000
O O12 0.750223 0.295549 0.424977
O O13 0.715638 0.135140 0.833582
O O14 0.950282 0.326239 0.816787
O O15 0.809670 0.836171 0.588573
O O16 0.000000 0.500000 0.500000
O O17 0.154046 0.720178 0.995091
#
# Coordination Sequence:
#
# PCOD8035643 Si02
#       8
#     2   2   2   2   2   2   2   2
#     4  12  24  46  73 103 142 183 235 288 343 414
#     4  12  26  41  72 105 136 185 234 285 351 410
#     4  11  25  46  71 101 142 186 225 292 348 409
#     4  12  24  47  70 102 140 182 235 287 345 411
#     4  12  26  46  67 104 141 181 235 287 343 415
#     4  12  27  45  73 101 139 185 229 285 354 413
#     4  12  25  45  71 106 139 186 233 288 345 409
#     4  11  27  44  69 103 144 184 231 284 348 415
#
# _framework density 21.629863
#
# number of rings (size 3 to 8) (size 9 to 14) (size 15 to 20)
#    0.000    0.250    5.000    3.000    7.000    0.500 
#    0.000    0.000    0.000    0.000    0.000    0.000 
#    0.000    0.000    0.000    0.000    0.000    0.000 
#
# Total GULP energy -198489.846094 kJ/mol
# GULP energy per Si atom -12405.615381 kJ/mol
# Density = 2.158063 g / cm^3
# Si number density = 21.629863 Si / 1000 Ang^3
#
#
#
# Elastic Constant Matrix: (Units=GPa)
#
#
# Indices 1 2 3 4 5 6 
#
# 1 116.0672 31.9949 25.9587 4.1990 17.3740 -3.4235
# 2 31.9949 67.3629 33.7541 0.5992 8.4444 5.1534
# 3 25.9587 33.7541 91.1992 -8.6135 2.1311 6.4701
# 4 4.1990 0.5992 -8.6135 42.0130 6.8798 2.5955
# 5 17.3740 8.4444 2.1311 6.8798 38.2369 -1.1876
# 6 -3.4235 5.1534 6.4701 2.5955 -1.1876 37.0294
#
#
#
# Elastic Compliance Matrix: (Units=1/GPa)
#
#
# Indices 1 2 3 4 5 6 
#
# 1 0.010712 -0.003883 -0.001734 -0.000874 -0.003701 0.001776
# 2 -0.003883 0.020285 -0.006262 -0.000676 -0.002310 -0.002115
# 3 -0.001734 -0.006262 0.014198 0.003173 0.000748 -0.001968
# 4 -0.000874 -0.000676 0.003173 0.025402 -0.004277 -0.002459
# 5 -0.003701 -0.002310 0.000748 -0.004277 0.029106 0.001082
# 6 0.001776 -0.002115 -0.001968 -0.002459 0.001082 0.028015
#
#
# Mechanical properties :
#
#
# Convention : Reuss Voigt Hill
#
# Bulk Modulus (GPa) = 46.65045 50.89384 48.77215
# Shear Modulus (GPa) = 31.52165 35.65062 33.58613
#
# Velocity S-wave (km/s) = 3.82163 4.06422 3.94479
# Velocity P-wave (km/s) = 6.40996 6.75310 6.58377
#
# Compressibility (1/GPa) = 0.02143602
#
# Stress axis : x y z
#
# Youngs Moduli (GPa) = 93.35432 49.29857 70.43209
#
# Poissons Ratio (x) = 0.19143 0.12213
# Poissons Ratio (y) = 0.36251 0.44106
# Poissons Ratio (z) = 0.16187 0.30872
#
# Static dielectric constant tensor:
#      x y z
#    x 3.785800 -0.016410 -0.000970 
#    y -0.016410 3.833710 -0.154040 
#    z -0.000970 -0.154040 3.709100 
# 
# 
# High freq. dielectric constant tensor:
#      x y z
#    x 1.863800 0.002300 -0.000760 
#    y 0.002300 1.850300 -0.004350 
#    z -0.000760 -0.004350 1.863070 
# 
# From -- ./inp_files/187527.got.cif
#   From: 2010.06.25/outbox.cif.g09.slc.cpg/sg2_94_cif.got.tgz:187527.got - 2010.06.27 13:26:56.
