data_PCOD8035181
_publ_section_title
;
Structure prediction by ZEFSAII (Michael W. Deem and Ramdas Pophale) SiO2 
 PCOD8035181
Probable space group: P -1
;
_chemical_formula_sum "Si O2"
_cell_formula_units_Z 14
_cell_length_a 30.034385
_cell_length_b 8.655010
_cell_length_c 6.800933
_cell_angle_alpha 122.959823
_cell_angle_beta 133.786702
_cell_angle_gamma 30.902879
_cell_volume 649.561543
_symmetry_space_group_name_H-M "P -1"
_symmetry_group_IT_number 2
_symmetry_cell_setting 'triclinic'
loop_
_space_group_symop_operation_xyz
x,y,z
-x,-y,-z
loop_
_atom_site_type_symbol
_atom_site_label
_atom_site_fract_x
_atom_site_fract_y
_atom_site_fract_z
Si Si1 0.197424 0.394016 0.226013
Si Si2 0.587374 0.255432 0.440121
Si Si3 0.641036 0.525194 0.629861
Si Si4 0.098190 0.346298 0.592787
Si Si5 0.960579 0.269582 0.683270
Si Si6 0.162878 0.862415 0.243945
Si Si7 0.482508 0.933720 0.099340
O O1 0.137282 0.543065 0.351551
O O2 0.190860 0.606114 0.252416
O O3 0.315193 0.067804 0.385580
O O4 0.152310 0.354026 0.911384
O O5 0.500000 0.500000 0.500000
O O6 0.618042 0.371720 0.512724
O O7 0.545802 0.212246 0.120393
O O8 0.760880 0.271200 0.793012
O O9 0.585162 0.703039 0.378398
O O10 0.609272 0.746851 0.850273
O O11 0.071124 0.502997 0.411836
O O12 0.000000 0.500000 0.500000
O O13 0.172583 0.998934 0.532432
O O14 0.000000 0.000000 0.500000
O O15 0.048950 0.133749 0.000141
O O16 0.500000 0.000000 0.000000
#
# Coordination Sequence:
#
# PCOD8035181 Si02
#       7
#     2   2   2   2   2   2   2
#     4  12  28  48  70 108 143 193 241 294 360 422
#     4  12  27  47  74 103 144 187 240 296 355 424
#     4  11  27  45  73 106 138 188 236 294 362 420
#     4  12  26  46  74 103 148 190 238 292 351 431
#     4  12  25  48  73 107 150 187 236 297 358 426
#     4  12  26  46  75 106 144 188 239 293 360 429
#     4  11  24  49  72 101 143 184 238 297 355 424
#
# _framework density 21.553000000000001
#
# number of rings (size 3 to 8) (size 9 to 14) (size 15 to 20)
#    0.000    0.286    4.286    3.857    8.000    2.286 
#    0.000    0.000    0.000    0.000    0.000    0.000 
#    0.000    0.000    0.000    0.000    0.000    0.000 
#
# Total GULP energy -173682.056318 kJ/mol
# GULP energy per Si atom -12405.861166 kJ/mol
# Density = 2.150394 g / cm^3
# Si number density = 21.553000 Si / 1000 Ang^3
#
#
#
# Elastic Constant Matrix: (Units=GPa)
#
#
# Indices 1 2 3 4 5 6 
#
# 1 195.8532 96.2264 22.0755 4.4463 -15.2614 10.5912
# 2 96.2264 180.6397 42.3750 14.9918 -7.8860 4.4097
# 3 22.0755 42.3750 102.8847 28.2128 1.1815 -9.8784
# 4 4.4463 14.9918 28.2128 50.6669 9.7978 5.6262
# 5 -15.2614 -7.8860 1.1815 9.7978 37.9277 -4.2935
# 6 10.5912 4.4097 -9.8784 5.6262 -4.2935 51.7941
#
#
#
# Elastic Compliance Matrix: (Units=1/GPa)
#
#
# Indices 1 2 3 4 5 6 
#
# 1 0.007130 -0.003661 -0.000241 0.000342 0.001906 -0.001071
# 2 -0.003661 0.008138 -0.002370 -0.000830 0.000477 -0.000267
# 3 -0.000241 -0.002370 0.013054 -0.007196 0.001273 0.003628
# 4 0.000342 -0.000830 -0.007196 0.025847 -0.007027 -0.004762
# 5 0.001906 0.000477 0.001273 -0.007027 0.029348 0.003009
# 6 -0.001071 -0.000267 0.003628 -0.004762 0.003009 0.021008
#
#
# Mechanical properties :
#
#
# Convention : Reuss Voigt Hill
#
# Bulk Modulus (GPa) = 63.37175 88.97015 76.17095
# Shear Modulus (GPa) = 40.87376 49.32446 45.09911
#
# Velocity S-wave (km/s) = 4.35953 4.78904 4.57932
# Velocity P-wave (km/s) = 7.40319 8.48228 7.96104
#
# Compressibility (1/GPa) = 0.01577990
#
# Stress axis : x y z
#
# Youngs Moduli (GPa) = 140.24584 122.87782 76.60344
#
# Poissons Ratio (x) = 0.44984 0.01843
# Poissons Ratio (y) = 0.51342 0.18154
# Poissons Ratio (z) = 0.03375 0.29121
#
# Static dielectric constant tensor:
#      x y z
#    x 4.216610 0.191360 0.311740 
#    y 0.191360 4.390600 0.417280 
#    z 0.311740 0.417280 4.420350 
# 
# 
# High freq. dielectric constant tensor:
#      x y z
#    x 1.863030 0.002990 0.002500 
#    y 0.002990 1.867650 0.012210 
#    z 0.002500 0.012210 1.854300 
# 
# From -- ./inp_files/37145.got.cif
#   From: 2010.06.25/outbox.cif.g09.slc.cpg/sg2_19_cif.got.tgz:37145.got - 2010.06.27 13:26:56.
