data_PCOD8035594
_publ_section_title
;
Structure prediction by ZEFSAII (Michael W. Deem and Ramdas Pophale) SiO2 
 PCOD8035594
Probable space group: P -1
;
_chemical_formula_sum "Si O2"
_cell_formula_units_Z 16
_cell_length_a 12.198980
_cell_length_b 8.581495
_cell_length_c 21.288663
_cell_angle_alpha 39.216894
_cell_angle_beta 29.595851
_cell_angle_gamma 50.290330
_cell_volume 691.574567
_symmetry_space_group_name_H-M "P -1"
_symmetry_group_IT_number 2
_symmetry_cell_setting 'triclinic'
loop_
_space_group_symop_operation_xyz
x,y,z
-x,-y,-z
loop_
_atom_site_type_symbol
_atom_site_label
_atom_site_fract_x
_atom_site_fract_y
_atom_site_fract_z
Si Si1 0.848824 0.747967 0.132361
Si Si2 0.862265 0.707747 0.477335
Si Si3 0.580844 0.286553 0.565950
Si Si4 0.032551 0.378061 0.686484
Si Si5 0.021944 0.850109 0.889089
Si Si6 0.060503 0.244708 0.186080
Si Si7 0.475819 0.543812 0.072482
Si Si8 0.517479 0.230986 0.267250
O O1 0.594303 0.761277 0.274912
O O2 0.950347 0.493731 0.184872
O O3 0.830997 0.746895 0.065588
O O4 0.000000 0.000000 0.000000
O O5 0.843128 0.670646 0.424665
O O6 0.628317 0.638146 0.650900
O O7 0.000000 0.500000 0.500000
O O8 0.952356 0.998125 0.353039
O O9 0.500000 0.500000 0.500000
O O10 0.839360 0.363893 0.433344
O O11 0.579944 0.054443 0.593612
O O12 0.766425 0.376367 0.814947
O O13 0.077366 0.146402 0.780424
O O14 0.232621 0.715396 0.848606
O O15 0.952723 0.785289 0.873121
O O16 0.321542 0.253785 0.071685
O O17 0.502400 0.309474 0.177188
O O18 0.500000 0.500000 0.000000
#
# Coordination Sequence:
#
# PCOD8035594 Si02
#       8
#     2   2   2   2   2   2   2   2
#     4  12  23  44  74 116 146 187 246 313 372 438
#     4  11  26  49  71 106 152 197 250 297 364 455
#     4  12  25  42  74 108 147 193 241 311 376 427
#     4  11  27  48  71 110 148 196 249 305 370 443
#     4  11  25  45  77 111 148 188 255 311 369 444
#     4  11  27  47  77 108 149 202 242 311 379 433
#     4  12  29  47  72 106 155 191 249 311 369 449
#     4  12  25  47  75 108 150 193 249 311 367 445
#
# _framework density 23.135611999999998
#
# number of rings (size 3 to 8) (size 9 to 14) (size 15 to 20)
#    0.000    0.500    5.000    1.125    8.750    4.500 
#    0.000    0.000    0.000    0.000    0.000    0.000 
#    0.000    0.000    0.000    0.000    0.000    0.000 
#
# Total GULP energy -198269.284945 kJ/mol
# GULP energy per Si atom -12391.830309 kJ/mol
# Density = 2.308295 g / cm^3
# Si number density = 23.135612 Si / 1000 Ang^3
#
#
#
# Elastic Constant Matrix: (Units=GPa)
#
#
# Indices 1 2 3 4 5 6 
#
# 1 113.1516 26.2923 47.8794 14.7316 6.5358 -6.7780
# 2 26.2923 82.1031 22.4588 2.4006 9.0795 -4.7445
# 3 47.8794 22.4588 97.8765 15.8807 10.9327 -2.6228
# 4 14.7316 2.4006 15.8807 52.6802 -3.0075 1.9687
# 5 6.5358 9.0795 10.9327 -3.0075 44.0960 -5.0798
# 6 -6.7780 -4.7445 -2.6228 1.9687 -5.0798 34.6604
#
#
#
# Elastic Compliance Matrix: (Units=1/GPa)
#
#
# Indices 1 2 3 4 5 6 
#
# 1 0.011776 -0.002280 -0.004906 -0.001774 0.000018 0.001723
# 2 -0.002280 0.013669 -0.001855 0.000430 -0.001874 0.000986
# 3 -0.004906 -0.001855 0.013775 -0.002827 -0.002543 -0.000383
# 4 -0.001774 0.000430 -0.002827 0.020483 0.002116 -0.001355
# 5 0.000018 -0.001874 -0.002543 0.002116 0.024179 0.002978
# 6 0.001723 0.000986 -0.000383 -0.001355 0.002978 0.029808
#
#
# Mechanical properties :
#
#
# Convention : Reuss Voigt Hill
#
# Bulk Modulus (GPa) = 47.30670 54.04357 50.67513
# Shear Modulus (GPa) = 36.01860 39.38738 37.70299
#
# Velocity S-wave (km/s) = 3.94997 4.13056 4.04127
# Velocity P-wave (km/s) = 6.42612 6.79403 6.61263
#
# Compressibility (1/GPa) = 0.02113865
#
# Stress axis : x y z
#
# Youngs Moduli (GPa) = 84.91580 73.15826 72.59572
#
# Poissons Ratio (x) = 0.16679 0.35613
# Poissons Ratio (y) = 0.19359 0.13469
# Poissons Ratio (z) = 0.41657 0.13573
#
# Static dielectric constant tensor:
#      x y z
#    x 4.222360 -0.205950 -0.127250 
#    y -0.205950 4.097440 -0.080490 
#    z -0.127250 -0.080490 4.240870 
# 
# 
# High freq. dielectric constant tensor:
#      x y z
#    x 1.907250 0.003630 0.013590 
#    y 0.003630 1.917840 -0.000900 
#    z 0.013590 -0.000900 1.937370 
# 
# From -- ./inp_files/243957.got.cif
#   From: 2010.06.25/outbox.cif.g09.slc.cpg/sg2_122_cif.got.tgz:243957.got - 2010.06.27 13:26:56.
