data_PCOD8035506
_publ_section_title
;
Structure prediction by ZEFSAII (Michael W. Deem and Ramdas Pophale) SiO2 
 PCOD8035506
Probable space group: P -1
;
_chemical_formula_sum "Si O2"
_cell_formula_units_Z 14
_cell_length_a 6.733225
_cell_length_b 9.510818
_cell_length_c 20.301834
_cell_angle_alpha 133.831671
_cell_angle_beta 133.488163
_cell_angle_gamma 48.808347
_cell_volume 637.982598
_symmetry_space_group_name_H-M "P -1"
_symmetry_group_IT_number 2
_symmetry_cell_setting 'triclinic'
loop_
_space_group_symop_operation_xyz
x,y,z
-x,-y,-z
loop_
_atom_site_type_symbol
_atom_site_label
_atom_site_fract_x
_atom_site_fract_y
_atom_site_fract_z
Si Si1 0.273211 0.070563 0.101004
Si Si2 0.258975 0.380903 0.676084
Si Si3 0.676161 0.615326 0.886400
Si Si4 0.344461 0.337336 0.321177
Si Si5 0.667972 0.632906 0.045636
Si Si6 0.674336 0.045448 0.413622
Si Si7 0.328607 0.362359 0.541970
O O1 0.360255 0.166457 0.085997
O O2 0.211319 0.228495 0.199487
O O3 0.543315 0.868747 0.119091
O O4 0.000000 0.000000 0.000000
O O5 0.437017 0.530521 0.777067
O O6 0.339297 0.271635 0.588025
O O7 0.918336 0.523066 0.647531
O O8 0.348925 0.181103 0.680384
O O9 0.994026 0.456693 0.888166
O O10 0.622913 0.639796 0.959519
O O11 0.597661 0.173926 0.369809
O O12 0.477542 0.491323 0.366642
O O13 0.500000 0.500000 0.000000
O O14 0.439903 0.173160 0.455317
O O15 0.000000 0.000000 0.500000
O O16 0.000000 0.500000 0.500000
#
# Coordination Sequence:
#
# PCOD8035506 Si02
#       7
#     2   2   2   2   2   2   2
#     4  12  25  46  75 101 147 196 235 297 375 431
#     4  12  26  45  73 104 145 186 244 295 366 434
#     4  11  26  45  70 107 138 191 242 299 357 440
#     4  12  27  46  71 109 147 187 244 307 360 436
#     4  11  25  45  72 102 146 183 243 301 358 430
#     4  12  26  46  76 104 146 195 237 302 371 431
#     4  12  24  48  72 102 146 188 241 300 362 431
#
# _framework density 21.944172999999999
#
# number of rings (size 3 to 8) (size 9 to 14) (size 15 to 20)
#    0.000    0.286    5.714    3.000    2.000    3.429 
#    0.000    0.000    0.000    0.000    0.000    0.000 
#    0.000    0.000    0.000    0.000    0.000    0.000 
#
# Total GULP energy -173615.861505 kJ/mol
# GULP energy per Si atom -12401.132965 kJ/mol
# Density = 2.189423 g / cm^3
# Si number density = 21.944173 Si / 1000 Ang^3
#
#
#
# Elastic Constant Matrix: (Units=GPa)
#
#
# Indices 1 2 3 4 5 6 
#
# 1 117.2569 46.5736 30.5481 3.3777 8.2016 3.0119
# 2 46.5736 139.2985 21.7564 9.2677 10.2436 7.5430
# 3 30.5481 21.7564 83.3486 5.6750 13.2559 -0.8014
# 4 3.3777 9.2677 5.6750 36.6600 3.8640 3.5706
# 5 8.2016 10.2436 13.2559 3.8640 41.1069 -2.3950
# 6 3.0119 7.5430 -0.8014 3.5706 -2.3950 44.5992
#
#
#
# Elastic Compliance Matrix: (Units=1/GPa)
#
#
# Indices 1 2 3 4 5 6 
#
# 1 0.010549 -0.003028 -0.003035 0.000337 -0.000421 -0.000304
# 2 -0.003028 0.008577 -0.000849 -0.001516 -0.001187 -0.001204
# 3 -0.003035 -0.000849 0.013991 -0.001349 -0.003538 0.000518
# 4 0.000337 -0.001516 -0.001349 0.028264 -0.002037 -0.002163
# 5 -0.000421 -0.001187 -0.003538 -0.002037 0.026140 0.001732
# 6 -0.000304 -0.001204 0.000518 -0.002163 0.001732 0.022922
#
#
# Mechanical properties :
#
#
# Convention : Reuss Voigt Hill
#
# Bulk Modulus (GPa) = 51.82894 59.74004 55.78449
# Shear Modulus (GPa) = 38.25622 40.54160 39.39891
#
# Velocity S-wave (km/s) = 4.17987 4.30290 4.24183
# Velocity P-wave (km/s) = 6.85309 7.20898 7.03329
#
# Compressibility (1/GPa) = 0.01929424
#
# Stress axis : x y z
#
# Youngs Moduli (GPa) = 94.79367 116.58939 71.47367
#
# Poissons Ratio (x) = 0.35304 0.21692
# Poissons Ratio (y) = 0.28704 0.06065
# Poissons Ratio (z) = 0.28769 0.09894
#
# Static dielectric constant tensor:
#      x y z
#    x 4.177350 -0.003230 -0.355390 
#    y -0.003230 4.378530 0.177150 
#    z -0.355390 0.177150 3.808160 
# 
# 
# High freq. dielectric constant tensor:
#      x y z
#    x 1.878810 0.003340 0.002490 
#    y 0.003340 1.880350 0.002720 
#    z 0.002490 0.002720 1.857410 
# 
# From -- ./inp_files/34900.got.cif
#   From: 2010.06.25/outbox.cif.g09.slc.cpg/sg2_18_cif.got.tgz:34900.got - 2010.06.27 13:26:56.
