data_PCOD8035549
_publ_section_title
;
Structure prediction by ZEFSAII (Michael W. Deem and Ramdas Pophale) SiO2 
 PCOD8035549
Probable space group: P -1
;
_chemical_formula_sum "Si O2"
_cell_formula_units_Z 14
_cell_length_a 11.415617
_cell_length_b 13.173904
_cell_length_c 10.865482
_cell_angle_alpha 108.166756
_cell_angle_beta 144.797411
_cell_angle_gamma 96.605408
_cell_volume 660.249664
_symmetry_space_group_name_H-M "P -1"
_symmetry_group_IT_number 2
_symmetry_cell_setting 'triclinic'
loop_
_space_group_symop_operation_xyz
x,y,z
-x,-y,-z
loop_
_atom_site_type_symbol
_atom_site_label
_atom_site_fract_x
_atom_site_fract_y
_atom_site_fract_z
Si Si1 0.766349 0.397451 0.661080
Si Si2 0.945691 0.885796 0.253836
Si Si3 0.428077 0.090084 0.923889
Si Si4 0.985585 0.618609 0.524317
Si Si5 0.278425 0.403910 0.459882
Si Si6 0.157907 0.152023 0.124476
Si Si7 0.161408 0.388261 0.865825
O O1 0.704429 0.486499 0.571649
O O2 0.486804 0.250693 0.425486
O O3 0.878774 0.348044 0.644161
O O4 0.000000 0.500000 0.000000
O O5 0.708848 0.889519 0.076675
O O6 0.846430 0.740103 0.169889
O O7 0.993793 0.891352 0.152429
O O8 0.230360 0.021247 0.610224
O O9 0.704817 0.237001 0.169540
O O10 0.500000 0.000000 0.000000
O O11 0.872370 0.627816 0.554914
O O12 0.793195 0.582728 0.230375
O O13 0.000000 0.500000 0.500000
O O14 0.118150 0.249908 0.198749
O O15 0.588212 0.475616 0.786401
O O16 0.000000 0.000000 0.000000
#
# Coordination Sequence:
#
# PCOD8035549 Si02
#       7
#     2   2   2   2   2   2   2
#     4  12  24  46  75  98 140 190 239 285 359 425
#     4  11  25  45  74 102 140 190 236 285 363 425
#     4  11  25  46  73 102 142 188 234 295 354 426
#     4  12  25  44  73 110 140 180 242 295 360 418
#     4  12  26  46  71 106 145 186 239 298 350 435
#     4  12  28  46  72 105 146 189 237 299 358 418
#     4  12  23  45  77 102 139 188 235 295 354 432
#
# _framework density 21.204101999999999
#
# number of rings (size 3 to 8) (size 9 to 14) (size 15 to 20)
#    0.000    0.286    5.714    3.429    2.000    2.286 
#    0.000    2.143    0.000    0.000    0.000    0.000 
#    0.000    0.000    0.000    0.000    0.000    0.000 
#
# Total GULP energy -173625.979135 kJ/mol
# GULP energy per Si atom -12401.855653 kJ/mol
# Density = 2.115584 g / cm^3
# Si number density = 21.204102 Si / 1000 Ang^3
#
#
#
# Elastic Constant Matrix: (Units=GPa)
#
#
# Indices 1 2 3 4 5 6 
#
# 1 144.4451 77.6704 44.0618 -5.0759 -4.6096 -1.7856
# 2 77.6704 174.9148 56.2258 8.5942 5.4711 1.3834
# 3 44.0618 56.2258 112.1815 2.0390 8.5101 15.7549
# 4 -5.0759 8.5942 2.0390 37.9202 3.2412 -1.0636
# 5 -4.6096 5.4711 8.5101 3.2412 37.7394 -4.9539
# 6 -1.7856 1.3834 15.7549 -1.0636 -4.9539 46.5404
#
#
#
# Elastic Compliance Matrix: (Units=1/GPa)
#
#
# Indices 1 2 3 4 5 6 
#
# 1 0.009872 -0.003799 -0.002415 0.002159 0.002327 0.001606
# 2 -0.003799 0.008390 -0.002661 -0.002185 -0.000845 0.000366
# 3 -0.002415 -0.002661 0.012066 -0.000221 -0.003195 -0.004443
# 4 0.002159 -0.002185 -0.000221 0.027325 -0.001628 0.000674
# 5 0.002327 -0.000845 -0.003195 -0.001628 0.028312 0.004172
# 6 0.001606 0.000366 -0.004443 0.000674 0.004172 0.023501
#
#
# Mechanical properties :
#
#
# Convention : Reuss Voigt Hill
#
# Bulk Modulus (GPa) = 79.49045 87.49528 83.49287
# Shear Modulus (GPa) = 38.04896 41.34556 39.69726
#
# Velocity S-wave (km/s) = 4.24065 4.42054 4.33153
# Velocity P-wave (km/s) = 7.84520 8.21023 8.02979
#
# Compressibility (1/GPa) = 0.01258013
#
# Stress axis : x y z
#
# Youngs Moduli (GPa) = 101.29178 119.18720 82.87457
#
# Poissons Ratio (x) = 0.45281 0.20012
# Poissons Ratio (y) = 0.38482 0.22049
# Poissons Ratio (z) = 0.24460 0.31710
#
# Static dielectric constant tensor:
#      x y z
#    x 4.407950 0.246670 -0.380880 
#    y 0.246670 4.307590 -0.428280 
#    z -0.380880 -0.428280 4.404350 
# 
# 
# High freq. dielectric constant tensor:
#      x y z
#    x 1.847710 -0.006430 -0.011380 
#    y -0.006430 1.834830 -0.003020 
#    z -0.011380 -0.003020 1.847620 
# 
# From -- ./inp_files/78258.got.cif
#   From: 2010.06.25/outbox.cif.g09.slc.cpg/sg2_40_cif.got.tgz:78258.got - 2010.06.27 13:26:56.
