data_PCOD8035502
_publ_section_title
;
Structure prediction by ZEFSAII (Michael W. Deem and Ramdas Pophale) SiO2 
 PCOD8035502
Probable space group: P -1
;
_chemical_formula_sum "Si O2"
_cell_formula_units_Z 14
_cell_length_a 8.089156
_cell_length_b 11.319275
_cell_length_c 11.826393
_cell_angle_alpha 144.359901
_cell_angle_beta 79.039267
_cell_angle_gamma 98.643280
_cell_volume 619.448910
_symmetry_space_group_name_H-M "P -1"
_symmetry_group_IT_number 2
_symmetry_cell_setting 'triclinic'
loop_
_space_group_symop_operation_xyz
x,y,z
-x,-y,-z
loop_
_atom_site_type_symbol
_atom_site_label
_atom_site_fract_x
_atom_site_fract_y
_atom_site_fract_z
Si Si1 0.259844 0.884703 0.948303
Si Si2 0.751481 0.740839 0.917943
Si Si3 0.710892 0.910126 0.286874
Si Si4 0.943082 0.481403 0.366043
Si Si5 0.617106 0.825085 0.476819
Si Si6 0.090173 0.060582 0.327799
Si Si7 0.484441 0.555762 0.675673
O O1 0.443901 0.802642 0.898709
O O2 0.224552 0.653645 0.723404
O O3 0.250647 0.035417 0.962540
O O4 0.144457 0.969311 0.129288
O O5 0.941611 0.662818 0.838853
O O6 0.666553 0.562205 0.716625
O O7 0.684290 0.756692 0.066801
O O8 0.574760 0.090953 0.427499
O O9 0.906268 0.980389 0.323406
O O10 0.669328 0.789227 0.312301
O O11 0.000000 0.500000 0.500000
O O12 0.922718 0.699172 0.485239
O O13 0.756327 0.979794 0.634276
O O14 0.626574 0.610695 0.373687
O O15 0.500000 0.500000 0.500000
#
# Coordination Sequence:
#
# PCOD8035502 Si02
#       7
#     2   2   2   2   2   2   2
#     4  12  23  41  67 103 137 173 229 286 347 413
#     4  12  23  41  66 102 138 181 230 283 351 412
#     4  11  25  45  71  99 139 188 233 285 346 413
#     4  12  22  39  65 100 141 176 219 287 346 404
#     4  11  25  47  69 100 140 185 234 287 345 413
#     4  12  23  46  72 102 141 180 233 287 351 409
#     4  12  24  43  68 102 138 180 230 292 352 411
#
# _framework density 22.600733000000002
#
# number of rings (size 3 to 8) (size 9 to 14) (size 15 to 20)
#    0.000    0.286    4.286    6.429    0.000    0.571 
#    0.000    4.286    0.000    0.000    0.000    0.000 
#    0.000    0.000    0.000    0.000    0.000    0.000 
#
# Total GULP energy -173454.300922 kJ/mol
# GULP energy per Si atom -12389.592923 kJ/mol
# Density = 2.254929 g / cm^3
# Si number density = 22.600733 Si / 1000 Ang^3
#
#
#
# Elastic Constant Matrix: (Units=GPa)
#
#
# Indices 1 2 3 4 5 6 
#
# 1 99.2710 39.8393 34.1568 -6.7708 -8.8325 3.3138
# 2 39.8393 125.9574 71.5982 -25.6628 -2.3508 2.6687
# 3 34.1568 71.5982 124.9815 -16.9911 -0.0733 4.1491
# 4 -6.7708 -25.6628 -16.9911 44.4715 -2.2988 -2.6881
# 5 -8.8325 -2.3508 -0.0733 -2.2988 46.0663 -3.9100
# 6 3.3138 2.6687 4.1491 -2.6881 -3.9100 24.6682
#
#
#
# Elastic Compliance Matrix: (Units=1/GPa)
#
#
# Indices 1 2 3 4 5 6 
#
# 1 0.011978 -0.002876 -0.001655 -0.000406 0.002064 -0.000737
# 2 -0.002876 0.013401 -0.006235 0.004971 0.000421 0.000594
# 3 -0.001655 -0.006235 0.012158 0.000689 -0.000682 -0.001181
# 4 -0.000406 0.004971 0.000689 0.025792 0.001674 0.002477
# 5 0.002064 0.000421 -0.000682 0.001674 0.022508 0.003542
# 6 -0.000737 0.000594 -0.001181 0.002477 0.003542 0.041603
#
#
# Mechanical properties :
#
#
# Convention : Reuss Voigt Hill
#
# Bulk Modulus (GPa) = 62.48430 71.26649 66.87539
# Shear Modulus (GPa) = 32.40301 36.68223 34.54262
#
# Velocity S-wave (km/s) = 3.79055 4.03309 3.91370
# Velocity P-wave (km/s) = 6.84578 7.29993 7.07650
#
# Compressibility (1/GPa) = 0.01600402
#
# Stress axis : x y z
#
# Youngs Moduli (GPa) = 83.48767 74.62181 82.25282
#
# Poissons Ratio (x) = 0.21463 0.13616
# Poissons Ratio (y) = 0.24013 0.51281
# Poissons Ratio (z) = 0.13820 0.46524
#
# Static dielectric constant tensor:
#      x y z
#    x 6.120410 -0.754360 -0.531530 
#    y -0.754360 4.185910 0.231930 
#    z -0.531530 0.231930 4.163060 
# 
# 
# High freq. dielectric constant tensor:
#      x y z
#    x 1.935310 -0.003550 0.000100 
#    y -0.003550 1.868030 -0.005730 
#    z 0.000100 -0.005730 1.896540 
# 
# From -- ./inp_files/27091.got.cif
#   From: 2010.06.25/outbox.cif.g09.slc.cpg/sg2_14_cif.got.tgz:27091.got - 2010.06.27 13:26:56.
