data_PCOD8035759
_publ_section_title
;
Structure prediction by ZEFSAII (Michael W. Deem and Ramdas Pophale) SiO2 
 PCOD8035759
Probable space group: P -1
;
_chemical_formula_sum "Si O2"
_cell_formula_units_Z 16
_cell_length_a 7.834112
_cell_length_b 8.461409
_cell_length_c 11.982433
_cell_angle_alpha 104.063742
_cell_angle_beta 51.572179
_cell_angle_gamma 105.416893
_cell_volume 596.658577
_symmetry_space_group_name_H-M "P -1"
_symmetry_group_IT_number 2
_symmetry_cell_setting 'triclinic'
loop_
_space_group_symop_operation_xyz
x,y,z
-x,-y,-z
loop_
_atom_site_type_symbol
_atom_site_label
_atom_site_fract_x
_atom_site_fract_y
_atom_site_fract_z
Si Si1 0.063128 0.796982 0.322203
Si Si2 0.287405 0.765980 0.623009
Si Si3 0.069999 0.329805 0.414369
Si Si4 0.413187 0.663125 0.784008
Si Si5 0.685428 0.855380 0.338575
Si Si6 0.848205 0.822016 0.041483
Si Si7 0.493996 0.987528 0.129657
Si Si8 0.742919 0.484511 0.946779
O O1 0.138500 0.638831 0.199353
O O2 0.032760 0.784381 0.463798
O O3 0.837115 0.851054 0.383304
O O4 0.240683 0.959945 0.264001
O O5 0.330421 0.637682 0.683591
O O6 0.452731 0.745425 0.447836
O O7 0.037453 0.728487 0.671785
O O8 0.342421 0.961836 0.663900
O O9 0.332252 0.349713 0.303094
O O10 0.000000 0.500000 0.500000
O O11 0.368728 0.849571 0.847476
O O12 0.274744 0.565856 0.923173
O O13 0.809036 0.767554 0.176633
O O14 0.604499 0.833037 0.096446
O O15 0.908222 0.664900 0.919077
O O16 0.000000 0.000000 0.000000
O O17 0.500000 0.000000 0.000000
O O18 0.500000 0.500000 0.000000
#
# Coordination Sequence:
#
# PCOD8035759 Si02
#       8
#     2   2   2   2   2   2   2   2
#     4  12  25  47  79 117 154 214 261 328 403 474
#     4  11  26  49  77 115 158 209 263 330 394 478
#     4  12  29  47  77 112 160 207 268 328 395 474
#     4  12  26  51  80 118 154 216 265 326 401 481
#     4  11  25  46  76 114 156 198 267 332 393 466
#     4  12  27  47  76 109 153 207 259 328 394 471
#     4  12  23  46  76 110 153 204 261 321 394 466
#     4  12  27  51  80 114 163 208 265 327 406 481
#
# _framework density 26.816005000000001
#
# number of rings (size 3 to 8) (size 9 to 14) (size 15 to 20)
#    0.000    0.250    5.000    3.000    3.500    5.000 
#    0.000    0.000    0.000    0.000    0.000    0.000 
#    0.000    0.000    0.000    0.000    0.000    0.000 
#
# Total GULP energy -198218.577788 kJ/mol
# GULP energy per Si atom -12388.661112 kJ/mol
# Density = 2.675497 g / cm^3
# Si number density = 26.816005 Si / 1000 Ang^3
#
#
#
# Elastic Constant Matrix: (Units=GPa)
#
#
# Indices 1 2 3 4 5 6 
#
# 1 135.8679 10.1770 22.5169 -20.0850 13.0750 -19.1525
# 2 10.1770 88.0200 -3.2189 1.1799 9.7631 11.7272
# 3 22.5169 -3.2189 114.8394 -12.3126 12.7677 -6.3019
# 4 -20.0850 1.1799 -12.3126 24.8951 -9.4505 7.7743
# 5 13.0750 9.7631 12.7677 -9.4505 46.6303 -1.0045
# 6 -19.1525 11.7272 -6.3019 7.7743 -1.0045 40.3939
#
#
#
# Elastic Compliance Matrix: (Units=1/GPa)
#
#
# Indices 1 2 3 4 5 6 
#
# 1 0.009009 -0.001531 -0.000944 0.005496 -0.000758 0.003492
# 2 -0.001531 0.012414 0.000586 -0.001283 -0.002678 -0.004058
# 3 -0.000944 0.000586 0.009458 0.003137 -0.001807 0.000209
# 4 0.005496 -0.001283 0.003137 0.051229 0.008118 -0.006190
# 5 -0.000758 -0.002678 -0.001807 0.008118 0.024341 -0.000821
# 6 0.003492 -0.004058 0.000209 -0.006190 -0.000821 0.028794
#
#
# Mechanical properties :
#
#
# Convention : Reuss Voigt Hill
#
# Bulk Modulus (GPa) = 36.89748 44.18638 40.54193
# Shear Modulus (GPa) = 33.77040 43.00069 38.38554
#
# Velocity S-wave (km/s) = 3.55256 4.00877 3.78754
# Velocity P-wave (km/s) = 5.53326 6.15958 5.85480
#
# Compressibility (1/GPa) = 0.02710213
#
# Stress axis : x y z
#
# Youngs Moduli (GPa) = 111.00201 80.55153 105.72963
#
# Poissons Ratio (x) = 0.12333 0.09983
# Poissons Ratio (y) = 0.16995 -0.06191
# Poissons Ratio (z) = 0.10481 -0.04717
#
# Static dielectric constant tensor:
#      x y z
#    x 4.272430 -0.367510 0.553960 
#    y -0.367510 4.880970 0.326170 
#    z 0.553960 0.326170 4.271840 
# 
# 
# High freq. dielectric constant tensor:
#      x y z
#    x 2.092970 -0.012480 0.002710 
#    y -0.012480 2.073880 -0.007060 
#    z 0.002710 -0.007060 2.090380 
# 
# From -- ./inp_files/382517.got.cif
#   From: 2010.06.25/outbox.cif.g09.slc.cpg/sg2_192_cif.got.tgz:382517.got - 2010.06.27 13:26:56.
