data_PCOD8035501
_publ_section_title
;
Structure prediction by ZEFSAII (Michael W. Deem and Ramdas Pophale) SiO2 
 PCOD8035501
Probable space group: P -1
;
_chemical_formula_sum "Si O2"
_cell_formula_units_Z 14
_cell_length_a 13.405926
_cell_length_b 8.913761
_cell_length_c 13.432626
_cell_angle_alpha 94.546066
_cell_angle_beta 30.959879
_cell_angle_gamma 113.908594
_cell_volume 620.027125
_symmetry_space_group_name_H-M "P -1"
_symmetry_group_IT_number 2
_symmetry_cell_setting 'triclinic'
loop_
_space_group_symop_operation_xyz
x,y,z
-x,-y,-z
loop_
_atom_site_type_symbol
_atom_site_label
_atom_site_fract_x
_atom_site_fract_y
_atom_site_fract_z
Si Si1 0.258565 0.722039 0.288043
Si Si2 0.802503 0.151115 0.458450
Si Si3 0.263076 0.192694 0.076393
Si Si4 0.996396 0.139904 0.586257
Si Si5 0.442963 0.514478 0.324537
Si Si6 0.159932 0.583161 0.717403
Si Si7 0.380377 0.693999 0.745098
O O1 0.326495 0.807724 0.347103
O O2 0.488806 0.723081 0.060949
O O3 0.222241 0.849708 0.256510
O O4 0.000000 0.500000 0.500000
O O5 0.845453 0.257914 0.323310
O O6 0.622006 0.914682 0.584988
O O7 0.085383 0.244753 0.263720
O O8 0.347883 0.266075 0.893540
O O9 0.079022 0.954197 0.242010
O O10 0.279128 0.358259 0.364914
O O11 0.000000 0.000000 0.500000
O O12 0.251867 0.506092 0.557758
O O13 0.585477 0.462701 0.264696
O O14 0.355592 0.696067 0.647811
O O15 0.880398 0.384777 0.982313
#
# Coordination Sequence:
#
# PCOD8035501 Si02
#       7
#     2   2   2   2   2   2   2
#     4  12  25  45  66  99 134 178 221 269 328 393
#     4  12  24  45  68  99 136 172 221 277 328 397
#     4  12  25  43  70  94 139 174 222 270 336 379
#     4  12  25  45  66  99 134 178 221 269 328 393
#     4  12  24  45  68  99 136 172 221 277 328 397
#     4  11  25  45  71  99 132 175 221 277 337 394
#     4  11  25  45  71  99 132 175 221 277 337 394
#
# _framework density 22.579657000000001
#
# number of rings (size 3 to 8) (size 9 to 14) (size 15 to 20)
#    0.000    0.286    7.143    1.286    2.000    2.286 
#    5.143    0.714    0.000    0.000    0.000    0.000 
#    0.000    0.000    0.000    0.000    0.000    0.000 
#
# Total GULP energy -173490.844862 kJ/mol
# GULP energy per Si atom -12392.203204 kJ/mol
# Density = 2.252826 g / cm^3
# Si number density = 22.579657 Si / 1000 Ang^3
#
#
#
# Elastic Constant Matrix: (Units=GPa)
#
#
# Indices 1 2 3 4 5 6 
#
# 1 131.5315 50.7789 41.6334 -6.1700 4.1384 -28.5423
# 2 50.7789 100.9747 48.8673 0.3348 1.2170 -12.2657
# 3 41.6334 48.8673 98.5445 1.8575 -2.6533 -2.2020
# 4 -6.1700 0.3348 1.8575 29.9147 -12.3197 0.5401
# 5 4.1384 1.2170 -2.6533 -12.3197 45.1558 -3.5378
# 6 -28.5423 -12.2657 -2.2020 0.5401 -3.5378 37.0932
#
#
#
# Elastic Compliance Matrix: (Units=1/GPa)
#
#
# Indices 1 2 3 4 5 6 
#
# 1 0.011695 -0.003464 -0.003097 0.002562 0.000137 0.007646
# 2 -0.003464 0.014664 -0.005767 -0.000751 -0.000480 0.001806
# 3 -0.003097 -0.005767 0.014281 -0.001107 0.000713 -0.003358
# 4 0.002562 -0.000751 -0.001107 0.038246 0.010318 0.002085
# 5 0.000137 -0.000480 0.000713 0.010318 0.025178 0.002241
# 6 0.007646 0.001806 -0.003358 0.002085 0.002241 0.033424
#
#
# Mechanical properties :
#
#
# Convention : Reuss Voigt Hill
#
# Bulk Modulus (GPa) = 62.55978 68.17887 65.36933
# Shear Modulus (GPa) = 29.85584 35.08416 32.47000
#
# Velocity S-wave (km/s) = 3.64021 3.94610 3.79624
# Velocity P-wave (km/s) = 6.74052 7.14301 6.94468
#
# Compressibility (1/GPa) = 0.01598471
#
# Stress axis : x y z
#
# Youngs Moduli (GPa) = 85.50414 68.19433 70.02399
#
# Poissons Ratio (x) = 0.23622 0.21687
# Poissons Ratio (y) = 0.29619 0.40380
# Poissons Ratio (z) = 0.26481 0.39325
#
# Static dielectric constant tensor:
#      x y z
#    x 4.251600 -0.590840 -0.149370 
#    y -0.590840 3.790830 -0.192960 
#    z -0.149370 -0.192960 4.088120 
# 
# 
# High freq. dielectric constant tensor:
#      x y z
#    x 1.895180 -0.041050 -0.000680 
#    y -0.041050 1.877710 -0.002520 
#    z -0.000680 -0.002520 1.904290 
# 
# From -- ./inp_files/529753.got.cif
#   From: 2010.06.25/outbox.cif.g09.slc.cpg/sg2_265_cif.got.tgz:529753.got - 2010.06.27 13:26:56.
