data_PCOD8035771
_publ_section_title
;
Structure prediction by ZEFSAII (Michael W. Deem and Ramdas Pophale) SiO2 
 PCOD8035771
Probable space group: P -1
;
_chemical_formula_sum "Si O2"
_cell_formula_units_Z 14
_cell_length_a 9.287019
_cell_length_b 18.708308
_cell_length_c 8.800854
_cell_angle_alpha 38.552154
_cell_angle_beta 131.292828
_cell_angle_gamma 143.735556
_cell_volume 561.907813
_symmetry_space_group_name_H-M "P -1"
_symmetry_group_IT_number 2
_symmetry_cell_setting 'triclinic'
loop_
_space_group_symop_operation_xyz
x,y,z
-x,-y,-z
loop_
_atom_site_type_symbol
_atom_site_label
_atom_site_fract_x
_atom_site_fract_y
_atom_site_fract_z
Si Si1 0.009706 0.010735 0.724785
Si Si2 0.301046 0.511249 0.779763
Si Si3 0.882243 0.177785 0.528145
Si Si4 0.405533 0.997506 0.121303
Si Si5 0.180334 0.691909 0.026311
Si Si6 0.389893 0.162891 0.495674
Si Si7 0.731798 0.529026 0.535548
O O1 0.179398 0.131984 0.511827
O O2 0.000502 0.096980 0.713255
O O3 0.132357 0.935724 0.984976
O O4 0.735265 0.888302 0.673361
O O5 0.376621 0.667724 0.622771
O O6 0.294245 0.496579 0.619469
O O7 0.500000 0.500000 0.000000
O O8 0.039846 0.387660 0.874910
O O9 0.868322 0.241744 0.256593
O O10 0.040397 0.306571 0.545136
O O11 0.623160 0.062564 0.625321
O O12 0.581386 0.173143 0.944390
O O13 0.525186 0.932626 0.223521
O O14 0.230041 0.583009 0.179246
O O15 0.500000 0.500000 0.500000
#
# Coordination Sequence:
#
# PCOD8035771 Si02
#       7
#     2   2   2   2   2   2   2
#     4  11  25  46  77 113 147 198 251 313 376 456
#     4  12  28  50  78 110 152 202 252 314 380 455
#     4  12  26  50  72 112 151 198 252 315 380 446
#     4  12  26  46  79 107 153 196 258 312 380 442
#     4  12  26  50  75 109 156 198 255 313 380 457
#     4  11  25  47  76 108 153 192 256 306 381 450
#     4  12  27  47  77 113 153 197 253 310 386 453
#
# _framework density 24.915119000000001
#
# number of rings (size 3 to 8) (size 9 to 14) (size 15 to 20)
#    0.000    0.286    1.429    7.286    4.000    2.286 
#    0.000    0.000    0.000    0.000    0.000    0.000 
#    0.000    0.000    0.000    0.000    0.000    0.000 
#
# Total GULP energy -173662.153844 kJ/mol
# GULP energy per Si atom -12404.439560 kJ/mol
# Density = 2.485841 g / cm^3
# Si number density = 24.915119 Si / 1000 Ang^3
#
#
#
# Elastic Constant Matrix: (Units=GPa)
#
#
# Indices 1 2 3 4 5 6 
#
# 1 133.1269 55.1602 36.9796 -19.1341 17.8212 4.4597
# 2 55.1602 145.3945 49.1020 -13.8348 2.0477 -15.8495
# 3 36.9796 49.1020 107.3305 -5.3591 17.3906 1.4557
# 4 -19.1341 -13.8348 -5.3591 44.6907 6.6892 0.3766
# 5 17.8212 2.0477 17.3906 6.6892 48.6423 -9.3851
# 6 4.4597 -15.8495 1.4557 0.3766 -9.3851 38.2641
#
#
#
# Elastic Compliance Matrix: (Units=1/GPa)
#
#
# Indices 1 2 3 4 5 6 
#
# 1 0.010654 -0.003695 -0.000960 0.004042 -0.004719 -0.003933
# 2 -0.003695 0.010258 -0.004014 0.000560 0.003371 0.005654
# 3 -0.000960 -0.004014 0.012291 0.000528 -0.004552 -0.003140
# 4 0.004042 0.000560 0.000528 0.025184 -0.005515 -0.001860
# 5 -0.004719 0.003371 -0.004552 -0.005515 0.026190 0.008597
# 6 -0.003933 0.005654 -0.003140 -0.001860 0.008597 0.031181
#
#
# Mechanical properties :
#
#
# Convention : Reuss Voigt Hill
#
# Bulk Modulus (GPa) = 63.04311 74.25950 68.65130
# Shear Modulus (GPa) = 36.13113 42.62678 39.37895
#
# Velocity S-wave (km/s) = 3.81224 4.14077 3.97989
# Velocity P-wave (km/s) = 6.68847 7.26161 6.98092
#
# Compressibility (1/GPa) = 0.01586216
#
# Stress axis : x y z
#
# Youngs Moduli (GPa) = 93.86226 97.48890 81.36087
#
# Poissons Ratio (x) = 0.36025 0.07814
# Poissons Ratio (y) = 0.34685 0.32662
# Poissons Ratio (z) = 0.09015 0.39137
#
# Static dielectric constant tensor:
#      x y z
#    x -0.610790 0.768110 -3.529830 
#    y 0.768110 4.600920 0.449180 
#    z -3.529830 0.449180 2.305230 
# 
# 
# High freq. dielectric constant tensor:
#      x y z
#    x 2.008610 -0.002870 -0.000670 
#    y -0.002870 1.996510 0.001350 
#    z -0.000670 0.001350 2.007160 
# 
# From -- ./inp_files/214174.got.cif
#   From: 2010.06.25/outbox.cif.g09.slc.cpg/sg2_108_cif.got.tgz:214174.got - 2010.06.27 13:26:56.
