data_PCOD8035556
_publ_section_title
;
Structure prediction by ZEFSAII (Michael W. Deem and Ramdas Pophale) SiO2 
 PCOD8035556
Probable space group: P -1
;
_chemical_formula_sum "Si O2"
_cell_formula_units_Z 14
_cell_length_a 8.899618
_cell_length_b 12.884828
_cell_length_c 9.143664
_cell_angle_alpha 65.268207
_cell_angle_beta 75.941992
_cell_angle_gamma 126.020458
_cell_volume 574.870277
_symmetry_space_group_name_H-M "P -1"
_symmetry_group_IT_number 2
_symmetry_cell_setting 'triclinic'
loop_
_space_group_symop_operation_xyz
x,y,z
-x,-y,-z
loop_
_atom_site_type_symbol
_atom_site_label
_atom_site_fract_x
_atom_site_fract_y
_atom_site_fract_z
Si Si1 0.749654 0.012855 0.326908
Si Si2 0.309626 0.912667 0.417594
Si Si3 0.856479 0.701791 0.172547
Si Si4 0.420507 0.486847 0.187233
Si Si5 0.881194 0.843354 0.367203
Si Si6 0.537954 0.813619 0.968309
Si Si7 0.131993 0.690501 0.312879
O O1 0.850124 0.142988 0.367825
O O2 0.472883 0.896425 0.425911
O O3 0.737784 0.871307 0.446084
O O4 0.923614 0.123979 0.081134
O O5 0.145799 0.788079 0.386293
O O6 0.480493 0.123694 0.215304
O O7 0.615358 0.545383 0.222039
O O8 0.776845 0.745315 0.291840
O O9 0.957722 0.644317 0.255980
O O10 0.162342 0.278484 0.423563
O O11 0.500000 0.500000 0.000000
O O12 0.396088 0.610370 0.121862
O O13 0.171580 0.039566 0.157232
O O14 0.410789 0.821141 0.115949
O O15 0.000000 0.500000 0.500000
#
# Coordination Sequence:
#
# PCOD8035556 Si02
#       7
#     2   2   2   2   2   2   2
#     4  11  25  45  74 108 145 197 244 311 367 444
#     4  11  25  46  72 106 151 194 248 298 379 434
#     4  12  25  48  73 108 147 196 251 305 372 441
#     4  12  30  48  73 114 151 193 249 307 377 440
#     4  12  26  48  77 109 150 194 252 306 370 444
#     4  12  25  48  78 106 148 198 244 308 371 437
#     4  12  27  48  75 109 150 199 251 305 363 451
#
# _framework density 24.35332
#
# number of rings (size 3 to 8) (size 9 to 14) (size 15 to 20)
#    0.000    0.286    4.286    3.857    6.000    1.143 
#    0.000    1.429    0.000    0.000    0.000    0.000 
#    0.000    0.000    0.000    0.000    0.000    0.000 
#
# Total GULP energy -173555.927651 kJ/mol
# GULP energy per Si atom -12396.851975 kJ/mol
# Density = 2.429789 g / cm^3
# Si number density = 24.353320 Si / 1000 Ang^3
#
#
#
# Elastic Constant Matrix: (Units=GPa)
#
#
# Indices 1 2 3 4 5 6 
#
# 1 151.0978 43.2672 33.0506 10.1479 4.5110 -24.5539
# 2 43.2672 84.8019 42.6407 29.1581 6.0085 -24.7008
# 3 33.0506 42.6407 122.8144 19.6028 3.1632 -24.8712
# 4 10.1479 29.1581 19.6028 50.0533 -10.7737 8.2909
# 5 4.5110 6.0085 3.1632 -10.7737 39.1641 0.4359
# 6 -24.5539 -24.7008 -24.8712 8.2909 0.4359 43.5190
#
#
#
# Elastic Compliance Matrix: (Units=1/GPa)
#
#
# Indices 1 2 3 4 5 6 
#
# 1 0.008037 -0.002945 -0.000565 -0.000234 -0.000522 0.002590
# 2 -0.002945 0.025351 -0.001900 -0.017748 -0.008447 0.015108
# 3 -0.000565 -0.001900 0.010834 -0.004338 -0.001775 0.005639
# 4 -0.000234 -0.017748 -0.004338 0.038388 0.013884 -0.020137
# 5 -0.000522 -0.008447 -0.001775 0.013884 0.030953 -0.009058
# 6 0.002590 0.015108 0.005639 -0.020137 -0.009058 0.040165
#
#
# Mechanical properties :
#
#
# Convention : Reuss Voigt Hill
#
# Bulk Modulus (GPa) = 29.93693 66.29235 48.11464
# Shear Modulus (GPa) = 28.46061 42.53100 35.49580
#
# Velocity S-wave (km/s) = 3.42227 4.18355 3.82191
# Velocity P-wave (km/s) = 5.28539 7.11451 6.26704
#
# Compressibility (1/GPa) = 0.03340356
#
# Stress axis : x y z
#
# Youngs Moduli (GPa) = 124.42042 39.44588 92.30229
#
# Poissons Ratio (x) = 0.11615 0.05217
# Poissons Ratio (y) = 0.36637 0.17533
# Poissons Ratio (z) = 0.07033 0.07493
#
# Static dielectric constant tensor:
#      x y z
#    x 4.924140 -0.279040 -0.060840 
#    y -0.279040 4.285860 0.162910 
#    z -0.060840 0.162910 4.749070 
# 
# 
# High freq. dielectric constant tensor:
#      x y z
#    x 1.990820 -0.016530 0.000910 
#    y -0.016530 1.947120 0.015350 
#    z 0.000910 0.015350 1.985210 
# 
# From -- ./inp_files/185829.got.cif
#   From: 2010.06.25/outbox.cif.g09.slc.cpg/sg2_93_cif.got.tgz:185829.got - 2010.06.27 13:26:56.
