data_PCOD8035792
_publ_section_title
;
Structure prediction by ZEFSAII (Michael W. Deem and Ramdas Pophale) SiO2 
 PCOD8035792
Probable space group: P -1
;
_chemical_formula_sum "Si O2"
_cell_formula_units_Z 16
_cell_length_a 5.691968
_cell_length_b 20.284215
_cell_length_c 22.413494
_cell_angle_alpha 20.965445
_cell_angle_beta 119.195846
_cell_angle_gamma 129.789047
_cell_volume 652.288691
_symmetry_space_group_name_H-M "P -1"
_symmetry_group_IT_number 2
_symmetry_cell_setting 'triclinic'
loop_
_space_group_symop_operation_xyz
x,y,z
-x,-y,-z
loop_
_atom_site_type_symbol
_atom_site_label
_atom_site_fract_x
_atom_site_fract_y
_atom_site_fract_z
Si Si1 0.422851 0.678146 0.847633
Si Si2 0.178982 0.020711 0.149532
Si Si3 0.074312 0.330822 0.677706
Si Si4 0.814706 0.615716 0.541176
Si Si5 0.941341 0.181051 0.478163
Si Si6 0.667217 0.773541 0.624517
Si Si7 0.137111 0.783151 0.121145
Si Si8 0.296025 0.593759 0.034221
O O1 0.094355 0.589175 0.843094
O O2 0.740713 0.914509 0.663038
O O3 0.500000 0.500000 0.000000
O O4 0.350041 0.718190 0.872610
O O5 0.186399 0.918504 0.173469
O O6 0.021280 0.812373 0.351958
O O7 0.543092 0.219525 0.050937
O O8 0.987967 0.136205 0.016337
O O9 0.454329 0.447961 0.608190
O O10 0.000000 0.500000 0.500000
O O11 0.072589 0.296633 0.776652
O O12 0.917634 0.448427 0.711488
O O13 0.846332 0.743710 0.498080
O O14 0.652517 0.221175 0.417286
O O15 0.229545 0.293010 0.368679
O O16 0.549617 0.547756 0.838431
O O17 0.000000 0.000000 0.500000
O O18 0.500000 0.000000 0.000000
#
# Coordination Sequence:
#
# PCOD8035792 Si02
#       8
#     2   2   2   2   2   2   2   2
#     4  11  25  47  70 106 148 201 245 317 379 460
#     4  12  25  49  72 109 147 196 254 310 385 458
#     4  12  26  46  77 105 152 202 245 317 386 457
#     4  12  27  49  73 108 152 196 248 318 382 458
#     4  12  28  47  79 107 154 201 253 313 393 454
#     4  12  26  49  78 111 151 202 255 322 384 455
#     4  12  26  48  76 106 151 196 253 312 382 454
#     4  11  26  45  73 105 148 194 257 312 383 459
#
# _framework density 24.529017
#
# number of rings (size 3 to 8) (size 9 to 14) (size 15 to 20)
#    0.000    0.250    5.000    3.375    7.000    1.000 
#    2.250    0.000    0.000    0.000    0.000    0.000 
#    0.000    0.000    0.000    0.000    0.000    0.000 
#
# Total GULP energy -198213.108611 kJ/mol
# GULP energy per Si atom -12388.319288 kJ/mol
# Density = 2.447319 g / cm^3
# Si number density = 24.529017 Si / 1000 Ang^3
#
#
#
# Elastic Constant Matrix: (Units=GPa)
#
#
# Indices 1 2 3 4 5 6 
#
# 1 96.1450 25.4255 22.1036 1.6473 15.5950 -2.3489
# 2 25.4255 125.2668 29.4098 -26.2423 6.5235 5.7793
# 3 22.1036 29.4098 140.7996 -4.4693 21.6460 12.6513
# 4 1.6473 -26.2423 -4.4693 46.8904 2.3982 2.9066
# 5 15.5950 6.5235 21.6460 2.3982 40.6520 5.9913
# 6 -2.3489 5.7793 12.6513 2.9066 5.9913 24.9446
#
#
#
# Elastic Compliance Matrix: (Units=1/GPa)
#
#
# Indices 1 2 3 4 5 6 
#
# 1 0.012110 -0.002560 -0.001123 -0.001976 -0.004037 0.003503
# 2 -0.002560 0.010141 -0.001312 0.005798 0.000098 -0.002624
# 3 -0.001123 -0.001312 0.008382 0.000481 -0.003363 -0.003301
# 4 -0.001976 0.005798 0.000481 0.025023 -0.001258 -0.004387
# 5 -0.004037 0.000098 -0.003363 -0.001258 0.028803 -0.005468
# 6 0.003503 -0.002624 -0.003301 -0.004387 -0.005468 0.044526
#
#
# Mechanical properties :
#
#
# Convention : Reuss Voigt Hill
#
# Bulk Modulus (GPa) = 48.44074 57.34325 52.89200
# Shear Modulus (GPa) = 34.28075 41.51555 37.89815
#
# Velocity S-wave (km/s) = 3.74245 4.11847 3.93496
# Velocity P-wave (km/s) = 6.20208 6.78559 6.50039
#
# Compressibility (1/GPa) = 0.02064378
#
# Stress axis : x y z
#
# Youngs Moduli (GPa) = 82.57449 98.60920 119.30958
#
# Poissons Ratio (x) = 0.25240 0.13403
# Poissons Ratio (y) = 0.21136 0.15648
# Poissons Ratio (z) = 0.09276 0.12933
#
# Static dielectric constant tensor:
#      x y z
#    x 4.712310 0.069110 -0.049360 
#    y 0.069110 4.910290 0.066400 
#    z -0.049360 0.066400 4.791950 
# 
# 
# High freq. dielectric constant tensor:
#      x y z
#    x 1.958470 -0.005250 0.003820 
#    y -0.005250 1.992340 -0.001960 
#    z 0.003820 -0.001960 1.996190 
# 
# From -- ./inp_files/53739.got.cif
#   From: 2010.06.25/outbox.cif.g09.slc.cpg/sg2_27_cif.got.tgz:53739.got - 2010.06.27 13:26:56.
