data_PCOD8035866
_publ_section_title
;
Structure prediction by ZEFSAII (Michael W. Deem and Ramdas Pophale) SiO2 
 PCOD8035866
Probable space group: P -1
;
_chemical_formula_sum "Si O2"
_cell_formula_units_Z 12
_cell_length_a 14.391129
_cell_length_b 11.806410
_cell_length_c 9.055392
_cell_angle_alpha 67.784877
_cell_angle_beta 109.604939
_cell_angle_gamma 159.479741
_cell_volume 498.479891
_symmetry_space_group_name_H-M "P -1"
_symmetry_group_IT_number 2
_symmetry_cell_setting 'triclinic'
loop_
_space_group_symop_operation_xyz
x,y,z
-x,-y,-z
loop_
_atom_site_type_symbol
_atom_site_label
_atom_site_fract_x
_atom_site_fract_y
_atom_site_fract_z
Si Si1 0.473793 0.675980 0.421525
Si Si2 0.261755 0.371984 0.008531
Si Si3 0.037792 0.816422 0.773110
Si Si4 0.616877 0.596935 0.228557
Si Si5 0.720136 0.187486 0.427636
Si Si6 0.727056 0.328337 0.053154
O O1 0.391428 0.467276 0.580302
O O2 0.215034 0.445465 0.333715
O O3 0.687270 0.881969 0.313257
O O4 0.621275 0.937431 0.479993
O O5 0.428572 0.553039 0.852881
O O6 0.301083 0.558398 0.985741
O O7 0.391650 0.441661 0.173878
O O8 0.000000 0.000000 0.000000
O O9 0.092558 0.996708 0.823368
O O10 0.982685 0.627827 0.930674
O O11 0.772932 0.311806 0.237171
O O12 0.000000 0.500000 0.500000
O O13 0.500000 0.000000 0.500000
O O14 0.500000 0.000000 0.000000
#
# Coordination Sequence:
#
# PCOD8035866 Si02
#       6
#     2   2   2   2   2   2
#     4  12  27  47  76 114 156 201 258 328 391 459
#     4  11  25  47  75 112 149 209 261 318 395 457
#     4  12  26  47  75 118 147 206 256 316 397 461
#     4  11  26  45  77 109 157 197 264 325 386 466
#     4  12  29  50  77 113 156 209 260 319 394 467
#     4  12  27  52  82 111 162 207 262 322 387 480
#
# _framework density 24.073184999999999
#
# number of rings (size 3 to 8) (size 9 to 14) (size 15 to 20)
#    0.000    0.333    3.333    4.000    4.667    3.333 
#    0.000    0.000    0.000    0.000    0.000    0.000 
#    0.000    0.000    0.000    0.000    0.000    0.000 
#
# Total GULP energy -148668.208348 kJ/mol
# GULP energy per Si atom -12389.017362 kJ/mol
# Density = 2.401839 g / cm^3
# Si number density = 24.073185 Si / 1000 Ang^3
#
#
#
# Elastic Constant Matrix: (Units=GPa)
#
#
# Indices 1 2 3 4 5 6 
#
# 1 84.1074 55.6388 17.4521 10.7363 -1.4333 -21.4247
# 2 55.6388 179.3116 70.0394 14.8775 7.4558 -18.2127
# 3 17.4521 70.0394 179.8288 -8.2942 14.2203 5.0294
# 4 10.7363 14.8775 -8.2942 51.8108 -2.8996 3.2645
# 5 -1.4333 7.4558 14.2203 -2.8996 32.5742 7.6928
# 6 -21.4247 -18.2127 5.0294 3.2645 7.6928 50.1247
#
#
#
# Elastic Compliance Matrix: (Units=1/GPa)
#
#
# Indices 1 2 3 4 5 6 
#
# 1 0.016535 -0.004253 -0.000245 -0.002589 0.000236 0.005679
# 2 -0.004253 0.008485 -0.002930 -0.002231 -0.001506 0.001936
# 3 -0.000245 -0.002930 0.007011 0.002022 -0.001813 -0.001726
# 4 -0.002589 -0.002231 0.002022 0.021174 0.002309 -0.003853
# 5 0.000236 -0.001506 -0.001813 0.002309 0.033358 -0.005534
# 6 0.005679 0.001936 -0.001726 -0.003853 -0.005534 0.024354
#
#
# Mechanical properties :
#
#
# Convention : Reuss Voigt Hill
#
# Bulk Modulus (GPa) = 58.22563 81.05649 69.64106
# Shear Modulus (GPa) = 38.02310 46.90977 42.46644
#
# Velocity S-wave (km/s) = 3.97858 4.41912 4.20462
# Velocity P-wave (km/s) = 6.73386 7.73189 7.25007
#
# Compressibility (1/GPa) = 0.01717457
#
# Stress axis : x y z
#
# Youngs Moduli (GPa) = 60.47732 117.85022 142.63877
#
# Poissons Ratio (x) = 0.50123 0.03497
# Poissons Ratio (y) = 0.25722 0.41794
# Poissons Ratio (z) = 0.01483 0.34530
#
# Static dielectric constant tensor:
#      x y z
#    x 5.438450 -0.443670 -0.554230 
#    y -0.443670 4.664470 0.008940 
#    z -0.554230 0.008940 4.598240 
# 
# 
# High freq. dielectric constant tensor:
#      x y z
#    x 1.967100 -0.016350 -0.020260 
#    y -0.016350 1.978770 -0.000890 
#    z -0.020260 -0.000890 1.974950 
# 
# From -- ./inp_files/65909.got.cif
#   From: 2010.06.25/outbox.cif.g09.slc.cpg/sg2_33_cif.got.tgz:65909.got - 2010.06.27 13:26:56.
