data_PCOD8035744
_publ_section_title
;
Structure prediction by ZEFSAII (Michael W. Deem and Ramdas Pophale) SiO2 
 PCOD8035744
Probable space group: P -1
;
_chemical_formula_sum "Si O2"
_cell_formula_units_Z 14
_cell_length_a 9.143256
_cell_length_b 9.323652
_cell_length_c 11.384365
_cell_angle_alpha 137.979335
_cell_angle_beta 103.114521
_cell_angle_gamma 59.269360
_cell_volume 538.396615
_symmetry_space_group_name_H-M "P -1"
_symmetry_group_IT_number 2
_symmetry_cell_setting 'triclinic'
loop_
_space_group_symop_operation_xyz
x,y,z
-x,-y,-z
loop_
_atom_site_type_symbol
_atom_site_label
_atom_site_fract_x
_atom_site_fract_y
_atom_site_fract_z
Si Si1 0.946254 0.348653 0.119304
Si Si2 0.279760 0.997927 0.653256
Si Si3 0.370627 0.104138 0.258637
Si Si4 0.183062 0.155834 0.488671
Si Si5 0.347045 0.482281 0.305127
Si Si6 0.109964 0.723914 0.186148
Si Si7 0.729063 0.164516 0.088925
O O1 0.962792 0.573652 0.316145
O O2 0.831215 0.306633 0.168848
O O3 0.841716 0.416937 0.017086
O O4 0.137857 0.099053 0.980844
O O5 0.419554 0.022726 0.770865
O O6 0.294368 0.733829 0.519545
O O7 0.323371 0.006392 0.528000
O O8 0.081769 0.224026 0.782293
O O9 0.274576 0.206401 0.427563
O O10 0.292675 0.324436 0.281266
O O11 0.333171 0.891910 0.079964
O O12 0.096361 0.993543 0.339388
O O13 0.251418 0.538574 0.195173
O O14 0.559205 0.330214 0.238645
#
# Coordination Sequence:
#
# PCOD8035744 Si02
#       7
#     2   2   2   2   2   2   2
#     4  11  26  49  76 108 151 192 248 306 361 436
#     4  11  26  48  73 111 146 193 246 301 368 439
#     4  12  25  46  75 110 149 192 246 302 366 437
#     4  11  25  48  80 109 140 200 248 296 370 433
#     4  11  25  46  75 107 149 194 242 303 369 433
#     4  11  26  51  77 107 152 190 247 302 367 437
#     4  11  26  46  70 116 146 191 251 300 366 438
#
# _framework density 26.003136000000001
#
# number of rings (size 3 to 8) (size 9 to 14) (size 15 to 20)
#    0.000    0.857    1.429    4.714    6.000    5.143 
#    0.000    0.000    0.000    0.000    0.000    0.000 
#    0.000    0.000    0.000    0.000    0.000    0.000 
#
# Total GULP energy -173601.073591 kJ/mol
# GULP energy per Si atom -12400.076685 kJ/mol
# Density = 2.594395 g / cm^3
# Si number density = 26.003136 Si / 1000 Ang^3
#
#
#
# Elastic Constant Matrix: (Units=GPa)
#
#
# Indices 1 2 3 4 5 6 
#
# 1 89.4842 49.2565 2.4588 0.0823 -7.2712 -4.7211
# 2 49.2565 112.3288 4.2275 -5.8897 -9.9827 8.3923
# 3 2.4588 4.2275 59.3204 -0.0592 3.7109 9.8454
# 4 0.0823 -5.8897 -0.0592 36.2658 -6.8255 0.5374
# 5 -7.2712 -9.9827 3.7109 -6.8255 37.2718 -5.6586
# 6 -4.7211 8.3923 9.8454 0.5374 -5.6586 47.9507
#
#
#
# Elastic Compliance Matrix: (Units=1/GPa)
#
#
# Indices 1 2 3 4 5 6 
#
# 1 0.015212 -0.006780 -0.000746 -0.000895 0.001521 0.003027
# 2 -0.006780 0.012393 -0.000306 0.002459 0.002089 -0.002555
# 3 -0.000746 -0.000306 0.017737 -0.000465 -0.002682 -0.003973
# 4 -0.000895 0.002459 -0.000465 0.029076 0.005846 -0.000059
# 5 0.001521 0.002089 -0.002682 0.005846 0.029595 0.003762
# 6 0.003027 -0.002555 -0.003973 -0.000059 0.003762 0.022860
#
#
# Mechanical properties :
#
#
# Convention : Reuss Voigt Hill
#
# Bulk Modulus (GPa) = 33.69658 41.44657 37.57158
# Shear Modulus (GPa) = 32.80193 37.97705 35.38949
#
# Velocity S-wave (km/s) = 3.55556 3.82577 3.69314
# Velocity P-wave (km/s) = 5.46285 5.95726 5.71541
#
# Compressibility (1/GPa) = 0.02967660
#
# Stress axis : x y z
#
# Youngs Moduli (GPa) = 65.73731 80.69309 56.37917
#
# Poissons Ratio (x) = 0.54713 0.04205
# Poissons Ratio (y) = 0.44572 0.01727
# Poissons Ratio (z) = 0.04903 0.02472
#
# Static dielectric constant tensor:
#      x y z
#    x 4.567730 0.043370 0.187920 
#    y 0.043370 4.813000 -0.033410 
#    z 0.187920 -0.033410 4.525440 
# 
# 
# High freq. dielectric constant tensor:
#      x y z
#    x 2.040860 0.006030 0.013090 
#    y 0.006030 2.049540 -0.004070 
#    z 0.013090 -0.004070 2.037720 
# 
# From -- ./inp_files/383573.got.cif
#   From: 2010.06.25/outbox.cif.g09.slc.cpg/sg2_192_cif.got.tgz:383573.got - 2010.06.27 13:26:56.
