data_PCOD8035143
_publ_section_title
;
Structure prediction by ZEFSAII (Michael W. Deem and Ramdas Pophale) SiO2 
 PCOD8035143
Probable space group: P -1
;
_chemical_formula_sum "Si O2"
_cell_formula_units_Z 12
_cell_length_a 14.578159
_cell_length_b 14.510427
_cell_length_c 5.135810
_cell_angle_alpha 65.933185
_cell_angle_beta 75.960674
_cell_angle_gamma 28.238789
_cell_volume 451.903606
_symmetry_space_group_name_H-M "P -1"
_symmetry_group_IT_number 2
_symmetry_cell_setting 'triclinic'
loop_
_space_group_symop_operation_xyz
x,y,z
-x,-y,-z
loop_
_atom_site_type_symbol
_atom_site_label
_atom_site_fract_x
_atom_site_fract_y
_atom_site_fract_z
Si Si1 0.616393 0.487903 0.695495
Si Si2 0.807166 0.147908 0.624416
Si Si3 0.779379 0.751152 0.353792
Si Si4 0.711181 0.523192 0.095119
Si Si5 0.472298 0.896497 0.512295
Si Si6 0.837552 0.898049 0.831211
O O1 0.774710 0.250132 0.779410
O O2 0.389285 0.657375 0.654479
O O3 0.679865 0.468225 0.956397
O O4 0.628543 0.565069 0.381108
O O5 0.000000 0.000000 0.500000
O O6 0.836265 0.004554 0.868857
O O7 0.627918 0.803358 0.306250
O O8 0.772946 0.860498 0.076135
O O9 0.000000 0.500000 0.500000
O O10 0.691467 0.863593 0.569303
O O11 0.600164 0.731144 0.855636
O O12 0.948039 0.321935 0.197748
O O13 0.343814 0.922935 0.460031
#
# Coordination Sequence:
#
# PCOD8035143 Si02
#       6
#     2   2   2   2   2   2
#     4  11  27  50  75 114 159 203 256 315 378 455
#     4  11  24  48  74 115 150 209 252 318 377 459
#     4  11  25  48  74 110 148 200 256 320 387 459
#     4  12  26  50  81 114 156 207 254 316 384 460
#     4  11  26  48  75 110 150 200 252 324 384 454
#     4  12  25  47  76 108 151 202 254 314 384 456
#
# _framework density 26.554333
#
# number of rings (size 3 to 8) (size 9 to 14) (size 15 to 20)
#    0.000    0.667    5.000    1.500    2.333    4.000 
#    6.000    0.000    0.000    0.000    0.000    0.000 
#    0.000    0.000    0.000    0.000    0.000    0.000 
#
# Total GULP energy -148754.674040 kJ/mol
# GULP energy per Si atom -12396.222837 kJ/mol
# Density = 2.649389 g / cm^3
# Si number density = 26.554333 Si / 1000 Ang^3
#
#
#
# Elastic Constant Matrix: (Units=GPa)
#
#
# Indices 1 2 3 4 5 6 
#
# 1 144.4145 55.5728 29.1961 -5.7259 -23.1820 -27.1345
# 2 55.5728 174.7537 12.1939 -13.9509 -7.0576 -33.6635
# 3 29.1961 12.1939 51.9811 -8.3821 -20.6987 -20.9038
# 4 -5.7259 -13.9509 -8.3821 37.7330 7.9036 -10.1751
# 5 -23.1820 -7.0576 -20.6987 7.9036 47.2049 -8.5102
# 6 -27.1345 -33.6635 -20.9038 -10.1751 -8.5102 56.0972
#
#
#
# Elastic Compliance Matrix: (Units=1/GPa)
#
#
# Indices 1 2 3 4 5 6 
#
# 1 0.009349 -0.002019 -0.001773 0.000325 0.004057 0.003324
# 2 -0.002019 0.007717 0.003175 0.004458 0.001877 0.005931
# 3 -0.001773 0.003175 0.035264 0.010251 0.016701 0.018582
# 4 0.000325 0.004458 0.010251 0.033566 0.002054 0.013053
# 5 0.004057 0.001877 0.016701 0.002054 0.033087 0.014704
# 6 0.003324 0.005931 0.018582 0.013053 0.014704 0.034516
#
#
# Mechanical properties :
#
#
# Convention : Reuss Voigt Hill
#
# Bulk Modulus (GPa) = 19.57051 62.78611 41.17831
# Shear Modulus (GPa) = 29.10970 46.48612 37.79791
#
# Velocity S-wave (km/s) = 3.31453 4.18856 3.77691
# Velocity P-wave (km/s) = 4.69405 6.86205 5.87886
#
# Compressibility (1/GPa) = 0.05109728
#
# Stress axis : x y z
#
# Youngs Moduli (GPa) = 106.96883 129.58203 28.35743
#
# Poissons Ratio (x) = 0.26164 0.05026
# Poissons Ratio (y) = 0.21598 -0.09005
# Poissons Ratio (z) = 0.18961 -0.41147
#
# Static dielectric constant tensor:
#      x y z
#    x 5.314020 -0.134530 -0.078670 
#    y -0.134530 5.053430 -0.282470 
#    z -0.078670 -0.282470 4.569460 
# 
# 
# High freq. dielectric constant tensor:
#      x y z
#    x 2.088990 -0.008760 -0.021410 
#    y -0.008760 2.092150 -0.018510 
#    z -0.021410 -0.018510 2.031700 
# 
# From -- ./inp_files/97695.got.cif
#   From: 2010.06.25/outbox.cif.g09.slc.cpg/sg2_49_cif.got.tgz:97695.got - 2010.06.27 13:26:56.
