data_PCOD8035219
_publ_section_title
;
Structure prediction by ZEFSAII (Michael W. Deem and Ramdas Pophale) SiO2 
 PCOD8035219
Probable space group: P -1
;
_chemical_formula_sum "Si O2"
_cell_formula_units_Z 14
_cell_length_a 16.186068
_cell_length_b 6.525623
_cell_length_c 23.143904
_cell_angle_alpha 130.388744
_cell_angle_beta 157.706230
_cell_angle_gamma 62.179327
_cell_volume 627.274598
_symmetry_space_group_name_H-M "P -1"
_symmetry_group_IT_number 2
_symmetry_cell_setting 'triclinic'
loop_
_space_group_symop_operation_xyz
x,y,z
-x,-y,-z
loop_
_atom_site_type_symbol
_atom_site_label
_atom_site_fract_x
_atom_site_fract_y
_atom_site_fract_z
Si Si1 0.087292 0.253644 0.993200
Si Si2 0.478986 0.786334 0.110927
Si Si3 0.336967 0.689170 0.870357
Si Si4 0.163498 0.776479 0.012673
Si Si5 0.758566 0.125438 0.658295
Si Si6 0.858774 0.470168 0.461465
Si Si7 0.548364 0.758067 0.342008
O O1 0.930301 0.050058 0.799551
O O2 0.073723 0.034276 0.996594
O O3 0.372878 0.432046 0.195943
O O4 0.000000 0.500000 0.000000
O O5 0.600675 0.566922 0.163288
O O6 0.681249 0.132052 0.304485
O O7 0.360200 0.707528 0.957001
O O8 0.266703 0.724673 0.009112
O O9 0.054566 0.605260 0.663818
O O10 0.500000 0.000000 0.000000
O O11 0.914765 0.487254 0.818228
O O12 0.382962 0.875265 0.220154
O O13 0.500000 0.000000 0.500000
O O14 0.713227 0.986403 0.539966
O O15 0.728710 0.684809 0.405763
O O16 0.000000 0.500000 0.500000
#
# Coordination Sequence:
#
# PCOD8035219 Si02
#       7
#     2   2   2   2   2   2   2
#     4  11  24  50  72 102 143 183 232 303 361 428
#     4  11  25  45  66 106 140 192 240 291 355 423
#     4  11  25  42  71 101 147 186 241 295 354 412
#     4  11  27  44  75 102 146 186 238 296 361 427
#     4  11  26  47  72 106 142 181 242 295 367 429
#     4  12  24  43  73  98 147 189 236 290 352 421
#     4  11  26  45  70 106 144 187 242 294 360 426
#
# _framework density 22.318774000000001
#
# number of rings (size 3 to 8) (size 9 to 14) (size 15 to 20)
#    0.000    0.857    4.286    1.286    4.000    5.143 
#    0.000    0.000    0.000    0.000    0.000    0.000 
#    0.000    0.000    0.000    0.000    0.000    0.000 
#
# Total GULP energy -173514.747140 kJ/mol
# GULP energy per Si atom -12393.910510 kJ/mol
# Density = 2.226798 g / cm^3
# Si number density = 22.318774 Si / 1000 Ang^3
#
#
#
# Elastic Constant Matrix: (Units=GPa)
#
#
# Indices 1 2 3 4 5 6 
#
# 1 104.0870 43.4967 31.4087 1.4446 0.7372 3.2241
# 2 43.4967 170.3455 65.9918 -14.6057 -0.5310 4.9781
# 3 31.4087 65.9918 147.6564 -10.0381 -14.2971 -1.4331
# 4 1.4446 -14.6057 -10.0381 24.4282 5.8367 -0.4539
# 5 0.7372 -0.5310 -14.2971 5.8367 44.4815 -3.0113
# 6 3.2241 4.9781 -1.4331 -0.4539 -3.0113 34.8446
#
#
#
# Elastic Compliance Matrix: (Units=1/GPa)
#
#
# Indices 1 2 3 4 5 6 
#
# 1 0.011159 -0.002477 -0.001495 -0.002675 -0.000399 -0.000809
# 2 -0.002477 0.008011 -0.002925 0.004051 -0.001410 -0.001105
# 3 -0.001495 -0.002925 0.008761 0.001313 0.002713 0.001168
# 4 -0.002675 0.004051 0.001313 0.045355 -0.005447 -0.000157
# 5 -0.000399 -0.001410 0.002713 -0.005447 0.024218 0.002372
# 6 -0.000809 -0.001105 0.001168 -0.000157 0.002372 0.029183
#
#
# Mechanical properties :
#
#
# Convention : Reuss Voigt Hill
#
# Bulk Modulus (GPa) = 70.73942 78.20922 74.47432
# Shear Modulus (GPa) = 34.43676 39.49697 36.96686
#
# Velocity S-wave (km/s) = 3.93230 4.21131 4.07420
# Velocity P-wave (km/s) = 7.23748 7.66582 7.45473
#
# Compressibility (1/GPa) = 0.01413639
#
# Stress axis : x y z
#
# Youngs Moduli (GPa) = 89.61698 124.82074 114.13975
#
# Poissons Ratio (x) = 0.30920 0.17062
# Poissons Ratio (y) = 0.22199 0.33392
# Poissons Ratio (z) = 0.13396 0.36516
#
# Static dielectric constant tensor:
#      x y z
#    x 4.428950 0.108990 0.045690 
#    y 0.108990 4.190010 -0.209140 
#    z 0.045690 -0.209140 4.547950 
# 
# 
# High freq. dielectric constant tensor:
#      x y z
#    x 1.892300 0.008220 -0.000350 
#    y 0.008220 1.878640 -0.008780 
#    z -0.000350 -0.008780 1.892340 
# 
# From -- ./inp_files/142720.got.cif
#   From: 2010.06.25/outbox.cif.g09.slc.cpg/sg2_72_cif.got.tgz:142720.got - 2010.06.27 13:26:56.
