data_PCOD8035402
_publ_section_title
;
Structure prediction by ZEFSAII (Michael W. Deem and Ramdas Pophale) SiO2 
 PCOD8035402
Probable space group: P -1
;
_chemical_formula_sum "Si O2"
_cell_formula_units_Z 14
_cell_length_a 9.414409
_cell_length_b 9.844538
_cell_length_c 8.469583
_cell_angle_alpha 69.203955
_cell_angle_beta 72.571320
_cell_angle_gamma 63.730987
_cell_volume 648.479061
_symmetry_space_group_name_H-M "P -1"
_symmetry_group_IT_number 2
_symmetry_cell_setting 'triclinic'
loop_
_space_group_symop_operation_xyz
x,y,z
-x,-y,-z
loop_
_atom_site_type_symbol
_atom_site_label
_atom_site_fract_x
_atom_site_fract_y
_atom_site_fract_z
Si Si1 0.917687 0.388277 0.139980
Si Si2 0.009286 0.656998 0.499755
Si Si3 0.105447 0.074528 0.028219
Si Si4 0.714411 0.895741 0.339985
Si Si5 0.456492 0.499277 0.833820
Si Si6 0.427827 0.799860 0.550753
Si Si7 0.276075 0.779115 0.293877
O O1 0.952740 0.363002 0.321982
O O2 0.729404 0.469525 0.137051
O O3 0.985582 0.221476 0.101633
O O4 0.000000 0.500000 0.000000
O O5 0.144504 0.700713 0.345310
O O6 0.000000 0.500000 0.500000
O O7 0.838789 0.796598 0.471936
O O8 0.221757 0.948866 0.161914
O O9 0.210851 0.130047 0.848635
O O10 0.000000 0.000000 0.000000
O O11 0.566157 0.840381 0.402885
O O12 0.657950 0.077167 0.333467
O O13 0.504157 0.629339 0.674082
O O14 0.556885 0.331206 0.794105
O O15 0.500000 0.500000 0.000000
O O16 0.297187 0.801432 0.463493
#
# Coordination Sequence:
#
# PCOD8035402 Si02
#       7
#     2   2   2   2   2   2   2
#     4  12  29  46  73 107 145 187 238 293 358 425
#     4  12  26  45  73 102 144 190 243 292 350 426
#     4  12  25  47  74 105 142 188 236 294 356 428
#     4  11  25  44  73 100 142 183 241 290 357 424
#     4  12  27  46  70 103 144 183 232 292 359 423
#     4  11  25  46  70 103 139 188 234 299 353 422
#     4  12  26  45  75 100 141 188 240 290 360 416
#
# _framework density 21.588977
#
# number of rings (size 3 to 8) (size 9 to 14) (size 15 to 20)
#    0.000    0.286    2.857    5.571    8.000    1.714 
#    0.000    0.000    0.000    0.000    0.000    0.000 
#    0.000    0.000    0.000    0.000    0.000    0.000 
#
# Total GULP energy -173725.759084 kJ/mol
# GULP energy per Si atom -12408.982792 kJ/mol
# Density = 2.153984 g / cm^3
# Si number density = 21.588977 Si / 1000 Ang^3
#
#
#
# Elastic Constant Matrix: (Units=GPa)
#
#
# Indices 1 2 3 4 5 6 
#
# 1 99.3888 45.2556 22.4036 -0.6728 -1.2709 1.6944
# 2 45.2556 118.8736 20.4699 1.1379 -8.9163 -5.6430
# 3 22.4036 20.4699 91.0037 -2.5840 8.5566 4.2307
# 4 -0.6728 1.1379 -2.5840 40.6416 -3.7644 2.8528
# 5 -1.2709 -8.9163 8.5566 -3.7644 45.4508 -0.5626
# 6 1.6944 -5.6430 4.2307 2.8528 -0.5626 40.6380
#
#
#
# Elastic Compliance Matrix: (Units=1/GPa)
#
#
# Indices 1 2 3 4 5 6 
#
# 1 0.012583 -0.004501 -0.002020 0.000260 -0.000141 -0.000960
# 2 -0.004501 0.010665 -0.001603 -0.000399 0.002258 0.001895
# 3 -0.002020 -0.001603 0.012181 0.000647 -0.002629 -0.001488
# 4 0.000260 -0.000399 0.000647 0.024964 0.001852 -0.001860
# 5 -0.000141 0.002258 -0.002629 0.001852 0.023099 0.000783
# 6 -0.000960 0.001895 -0.001488 -0.001860 0.000783 0.025207
#
#
# Mechanical properties :
#
#
# Convention : Reuss Voigt Hill
#
# Bulk Modulus (GPa) = 52.13350 53.94715 53.04032
# Shear Modulus (GPa) = 38.06924 40.08855 39.07889
#
# Velocity S-wave (km/s) = 4.20380 4.31385 4.25918
# Velocity P-wave (km/s) = 6.91109 7.06080 6.98635
#
# Compressibility (1/GPa) = 0.01918153
#
# Stress axis : x y z
#
# Youngs Moduli (GPa) = 79.47459 93.76472 82.09469
#
# Poissons Ratio (x) = 0.42204 0.16582
# Poissons Ratio (y) = 0.35772 0.13156
# Poissons Ratio (z) = 0.16053 0.15027
#
# Static dielectric constant tensor:
#      x y z
#    x 8.331480 -3.377930 -4.494530 
#    y -3.377930 6.642870 3.263840 
#    z -4.494530 3.263840 8.695080 
# 
# 
# High freq. dielectric constant tensor:
#      x y z
#    x 1.860480 -0.002370 0.000720 
#    y -0.002370 1.862700 -0.003980 
#    z 0.000720 -0.003980 1.861220 
# 
# From -- ./inp_files/157111.got.cif
#   From: 2010.06.25/outbox.cif.g09.slc.cpg/sg2_79_cif.got.tgz:157111.got - 2010.06.27 13:26:56.
