data_PCOD8035923
_publ_section_title
;
Structure prediction by ZEFSAII (Michael W. Deem and Ramdas Pophale) SiO2 
 PCOD8035923
Probable space group: P -1
;
_chemical_formula_sum "Si O2"
_cell_formula_units_Z 16
_cell_length_a 16.236844
_cell_length_b 8.739277
_cell_length_c 6.647536
_cell_angle_alpha 83.301833
_cell_angle_beta 119.763853
_cell_angle_gamma 119.555151
_cell_volume 701.945326
_symmetry_space_group_name_H-M "P -1"
_symmetry_group_IT_number 2
_symmetry_cell_setting 'triclinic'
loop_
_space_group_symop_operation_xyz
x,y,z
-x,-y,-z
loop_
_atom_site_type_symbol
_atom_site_label
_atom_site_fract_x
_atom_site_fract_y
_atom_site_fract_z
Si Si1 0.459730 0.369443 0.657075
Si Si2 0.207877 0.813881 0.514570
Si Si3 0.988113 0.662363 0.046216
Si Si4 0.139374 0.458315 0.706613
Si Si5 0.609687 0.000461 0.579964
Si Si6 0.018731 0.858205 0.671190
Si Si7 0.655142 0.577278 0.134812
Si Si8 0.266968 0.039816 0.918962
O O1 0.500000 0.500000 0.500000
O O2 0.373697 0.406369 0.670540
O O3 0.409889 0.171938 0.540322
O O4 0.558212 0.406640 0.927246
O O5 0.102538 0.797235 0.275258
O O6 0.170935 0.654835 0.652065
O O7 0.302573 0.830296 0.473921
O O8 0.263322 0.994285 0.686196
O O9 0.880703 0.572894 0.074252
O O10 0.961609 0.776127 0.832246
O O11 0.000000 0.500000 0.000000
O O12 0.231621 0.421513 0.736747
O O13 0.022149 0.316044 0.489494
O O14 0.500000 0.000000 0.500000
O O15 0.665210 0.025937 0.859600
O O16 0.144600 0.947758 0.868964
O O17 0.000000 0.000000 0.500000
O O18 0.671602 0.749098 0.008459
#
# Coordination Sequence:
#
# PCOD8035923 Si02
#       8
#     2   2   2   2   2   2   2   2
#     4  11  25  48  72 100 144 194 247 311 384 440
#     4  12  26  45  73 103 154 196 246 311 375 443
#     4  12  25  46  73 107 153 203 248 303 377 454
#     4  12  27  44  73 112 147 199 252 299 374 461
#     4  12  29  46  74 111 142 194 258 313 373 446
#     4  12  25  45  74 112 151 190 248 304 376 455
#     4  11  26  46  72 104 146 192 242 314 377 446
#     4  12  24  48  71 105 148 192 238 311 381 438
#
# _framework density 22.793799
#
# number of rings (size 3 to 8) (size 9 to 14) (size 15 to 20)
#    0.000    0.250    7.500    1.125    3.500    2.000 
#    2.250    0.000    0.000    0.000    0.000    0.000 
#    0.000    0.000    0.000    0.000    0.000    0.000 
#
# Total GULP energy -198302.509322 kJ/mol
# GULP energy per Si atom -12393.906833 kJ/mol
# Density = 2.274192 g / cm^3
# Si number density = 22.793799 Si / 1000 Ang^3
#
#
#
# Elastic Constant Matrix: (Units=GPa)
#
#
# Indices 1 2 3 4 5 6 
#
# 1 146.6248 29.8518 47.5097 -16.6624 -11.7341 10.8446
# 2 29.8518 79.8524 42.5159 -14.9390 -5.7165 9.2541
# 3 47.5097 42.5159 131.5473 -9.9043 -4.3022 -1.7059
# 4 -16.6624 -14.9390 -9.9043 53.6563 4.9143 -7.4826
# 5 -11.7341 -5.7165 -4.3022 4.9143 38.5948 -2.0091
# 6 10.8446 9.2541 -1.7059 -7.4826 -2.0091 30.5878
#
#
#
# Elastic Compliance Matrix: (Units=1/GPa)
#
#
# Indices 1 2 3 4 5 6 
#
# 1 0.008330 -0.001132 -0.002514 0.001321 0.001796 -0.002310
# 2 -0.001132 0.016535 -0.004752 0.002705 0.001015 -0.004138
# 3 -0.002514 -0.004752 0.010091 0.000186 -0.000215 0.002923
# 4 0.001321 0.002705 0.000186 0.020487 -0.001597 0.003631
# 5 0.001796 0.001015 -0.000215 -0.001597 0.026808 0.000414
# 6 -0.002310 -0.004138 0.002923 0.003631 0.000414 0.035842
#
#
# Mechanical properties :
#
#
# Convention : Reuss Voigt Hill
#
# Bulk Modulus (GPa) = 55.06999 66.41994 60.74497
# Shear Modulus (GPa) = 35.47570 40.44426 37.95998
#
# Velocity S-wave (km/s) = 3.94937 4.21688 4.08531
# Velocity P-wave (km/s) = 6.70889 7.27407 6.99719
#
# Compressibility (1/GPa) = 0.01815871
#
# Stress axis : x y z
#
# Youngs Moduli (GPa) = 120.04792 60.47929 99.10176
#
# Poissons Ratio (x) = 0.06846 0.24918
# Poissons Ratio (y) = 0.13588 0.47093
# Poissons Ratio (z) = 0.30185 0.28739
#
# Static dielectric constant tensor:
#      x y z
#    x 4.003600 0.369760 -0.322970 
#    y 0.369760 4.267740 0.167690 
#    z -0.322970 0.167690 3.774080 
# 
# 
# High freq. dielectric constant tensor:
#      x y z
#    x 1.896570 0.024480 -0.015050 
#    y 0.024480 1.906810 0.005920 
#    z -0.015050 0.005920 1.908390 
# 
# From -- ./inp_files/106773.got.cif
#   From: 2010.06.25/outbox.cif.g09.slc.cpg/sg2_54_cif.got.tgz:106773.got - 2010.06.27 13:26:56.
