data_PCOD8035645
_publ_section_title
;
Structure prediction by ZEFSAII (Michael W. Deem and Ramdas Pophale) SiO2 
 PCOD8035645
Probable space group: P -1
;
_chemical_formula_sum "Si O2"
_cell_formula_units_Z 14
_cell_length_a 8.580312
_cell_length_b 11.508585
_cell_length_c 6.488397
_cell_angle_alpha 80.905112
_cell_angle_beta 100.503953
_cell_angle_gamma 101.667347
_cell_volume 612.051368
_symmetry_space_group_name_H-M "P -1"
_symmetry_group_IT_number 2
_symmetry_cell_setting 'triclinic'
loop_
_space_group_symop_operation_xyz
x,y,z
-x,-y,-z
loop_
_atom_site_type_symbol
_atom_site_label
_atom_site_fract_x
_atom_site_fract_y
_atom_site_fract_z
Si Si1 0.121348 0.099928 0.621712
Si Si2 0.456682 0.629280 0.975930
Si Si3 0.676962 0.010949 0.955876
Si Si4 0.343682 0.751455 0.284459
Si Si5 0.100239 0.543395 0.813621
Si Si6 0.989819 0.326454 0.604653
Si Si7 0.610417 0.822729 0.648505
O O1 0.245472 0.181163 0.475675
O O2 0.022540 0.192578 0.677544
O O3 0.207202 0.037346 0.839883
O O4 0.000000 0.000000 0.500000
O O5 0.272506 0.623848 0.871077
O O6 0.581405 0.713623 0.834238
O O7 0.500000 0.500000 0.000000
O O8 0.462060 0.682821 0.195453
O O9 0.665464 0.944237 0.753368
O O10 0.734053 0.152023 0.893481
O O11 0.500000 0.000000 0.000000
O O12 0.189131 0.661630 0.358756
O O13 0.447425 0.819243 0.478921
O O14 0.001413 0.629738 0.641591
O O15 0.120546 0.422259 0.730994
O O16 0.000000 0.500000 0.000000
#
# Coordination Sequence:
#
# PCOD8035645 Si02
#       7
#     2   2   2   2   2   2   2
#     4  12  30  47  75 114 146 190 246 308 363 437
#     4  12  28  44  75 109 143 193 249 299 365 431
#     4  12  26  46  76 107 146 191 240 297 376 433
#     4  12  25  48  75 106 146 195 243 299 368 444
#     4  11  25  46  71 102 145 195 238 301 361 431
#     4  11  27  46  71 105 147 190 245 294 371 427
#     4  12  26  48  74 105 149 192 241 304 364 437
#
# _framework density 22.873896999999999
#
# number of rings (size 3 to 8) (size 9 to 14) (size 15 to 20)
#    0.000    0.286    5.714    1.286   10.000    2.857 
#    0.000    0.000    0.000    0.000    0.000    0.000 
#    0.000    0.000    0.000    0.000    0.000    0.000 
#
# Total GULP energy -173577.055366 kJ/mol
# GULP energy per Si atom -12398.361098 kJ/mol
# Density = 2.282183 g / cm^3
# Si number density = 22.873897 Si / 1000 Ang^3
#
#
#
# Elastic Constant Matrix: (Units=GPa)
#
#
# Indices 1 2 3 4 5 6 
#
# 1 76.2786 18.3360 33.3162 -3.0243 -7.6098 3.2075
# 2 18.3360 120.9968 39.9704 -2.1941 8.2903 -16.8814
# 3 33.3162 39.9704 126.8533 -0.2990 0.9673 -9.8017
# 4 -3.0243 -2.1941 -0.2990 43.4484 11.9207 1.9288
# 5 -7.6098 8.2903 0.9673 11.9207 42.4562 -3.8472
# 6 3.2075 -16.8814 -9.8017 1.9288 -3.8472 48.0863
#
#
#
# Elastic Compliance Matrix: (Units=1/GPa)
#
#
# Indices 1 2 3 4 5 6 
#
# 1 0.015529 -0.001605 -0.003760 0.000270 0.002912 -0.002144
# 2 -0.001605 0.009880 -0.002451 0.000828 -0.002133 0.002872
# 3 -0.003760 -0.002451 0.009750 -0.000324 -0.000202 0.001374
# 4 0.000270 0.000828 -0.000324 0.025135 -0.007289 -0.001385
# 5 0.002912 -0.002133 -0.000202 -0.007289 0.026674 0.001442
# 6 -0.002144 0.002872 0.001374 -0.001385 0.001442 0.022398
#
#
# Mechanical properties :
#
#
# Convention : Reuss Voigt Hill
#
# Bulk Modulus (GPa) = 51.21315 56.37488 53.79401
# Shear Modulus (GPa) = 38.02050 42.29859 40.15954
#
# Velocity S-wave (km/s) = 4.08141 4.30491 4.19464
# Velocity P-wave (km/s) = 6.68195 7.02916 6.85775
#
# Compressibility (1/GPa) = 0.01952624
#
# Stress axis : x y z
#
# Youngs Moduli (GPa) = 64.39430 101.21944 102.56396
#
# Poissons Ratio (x) = 0.16245 0.38565
# Poissons Ratio (y) = 0.10335 0.25142
# Poissons Ratio (z) = 0.24213 0.24812
#
# Static dielectric constant tensor:
#      x y z
#    x 4.096800 0.379040 -0.151220 
#    y 0.379040 3.897830 -0.060120 
#    z -0.151220 -0.060120 3.143960 
# 
# 
# High freq. dielectric constant tensor:
#      x y z
#    x 1.896570 0.017150 -0.009480 
#    y 0.017150 1.913660 0.003570 
#    z -0.009480 0.003570 1.915740 
# 
# From -- ./inp_files/27294.got.cif
#   From: 2010.06.25/outbox.cif.g09.slc.cpg/sg2_14_cif.got.tgz:27294.got - 2010.06.27 13:26:56.
