data_PCOD8035857
_publ_section_title
;
Structure prediction by ZEFSAII (Michael W. Deem and Ramdas Pophale) SiO2 
 PCOD8035857
Probable space group: P -1
;
_chemical_formula_sum "Si O2"
_cell_formula_units_Z 16
_cell_length_a 13.695478
_cell_length_b 9.487479
_cell_length_c 8.334593
_cell_angle_alpha 92.711634
_cell_angle_beta 57.872900
_cell_angle_gamma 107.080812
_cell_volume 868.706289
_symmetry_space_group_name_H-M "P -1"
_symmetry_group_IT_number 2
_symmetry_cell_setting 'triclinic'
loop_
_space_group_symop_operation_xyz
x,y,z
-x,-y,-z
loop_
_atom_site_type_symbol
_atom_site_label
_atom_site_fract_x
_atom_site_fract_y
_atom_site_fract_z
Si Si1 0.575780 0.100557 0.802447
Si Si2 0.938330 0.260025 0.401849
Si Si3 0.783174 0.232571 0.832577
Si Si4 0.334445 0.057607 0.869795
Si Si5 0.888307 0.865760 0.895360
Si Si6 0.078080 0.172245 0.771558
Si Si7 0.992854 0.444212 0.821836
Si Si8 0.258581 0.006050 0.573803
O O1 0.677215 0.245594 0.800761
O O2 0.478044 0.144279 0.778677
O O3 0.641353 0.997346 0.645266
O O4 0.500000 0.000000 0.000000
O O5 0.891525 0.219434 0.621133
O O6 0.852055 0.148033 0.342203
O O7 0.070410 0.235295 0.275592
O O8 0.946597 0.425792 0.350834
O O9 0.848447 0.371556 0.898754
O O10 0.717441 0.090897 0.989196
O O11 0.319523 0.018081 0.694253
O O12 0.256400 0.164847 0.994187
O O13 0.921097 0.817510 0.037337
O O14 0.957290 0.041329 0.814970
O O15 0.066839 0.327237 0.725678
O O16 0.200820 0.139928 0.600017
O O17 0.000000 0.500000 0.000000
#
# Coordination Sequence:
#
# PCOD8035857 Si02
#       8
#     2   2   2   2   2   2   2   2
#     4   9  19  34  51  80 105 132 172 216 261 296
#     4  10  20  32  50  78 113 135 164 206 270 307
#     4  10  21  34  47  76 110 133 170 217 251 309
#     4  10  17  31  56  77 101 136 176 208 255 292
#     4   9  16  31  50  80 106 128 166 220 250 307
#     4   9  17  30  51  79 108 127 171 213 259 297
#     4  12  20  33  53  77 102 146 171 203 259 316
#     4   9  18  34  55  82 104 130 170 222 247 308
#
# _framework density 18.418192999999999
#
# number of rings (size 3 to 8) (size 9 to 14) (size 15 to 20)
#    0.000    2.250    2.500    2.250    0.000    0.500 
#    4.500    0.000    0.000    0.750    9.750   11.375 
#    0.000    0.000    0.000    0.000    0.000    0.000 
#
# Total GULP energy -198210.141482 kJ/mol
# GULP energy per Si atom -12388.133843 kJ/mol
# Density = 1.837627 g / cm^3
# Si number density = 18.418193 Si / 1000 Ang^3
#
#
#
# Elastic Constant Matrix: (Units=GPa)
#
#
# Indices 1 2 3 4 5 6 
#
# 1 125.9896 46.2904 42.2696 16.0507 -11.8844 17.2842
# 2 46.2904 84.6593 24.9355 4.8826 -4.6301 -7.0024
# 3 42.2696 24.9355 99.5961 11.8531 -15.8635 0.8332
# 4 16.0507 4.8826 11.8531 16.3797 -3.2544 1.8967
# 5 -11.8844 -4.6301 -15.8635 -3.2544 28.9640 6.2868
# 6 17.2842 -7.0024 0.8332 1.8967 6.2868 31.0853
#
#
#
# Elastic Compliance Matrix: (Units=1/GPa)
#
#
# Indices 1 2 3 4 5 6 
#
# 1 0.014186 -0.007135 -0.002480 -0.007928 0.004574 -0.009870
# 2 -0.007135 0.016690 -0.001900 0.001865 -0.002881 0.008247
# 3 -0.002480 -0.001900 0.013047 -0.005387 0.005248 -0.000132
# 4 -0.007928 0.001865 -0.005387 0.072595 0.002231 0.000092
# 5 0.004574 -0.002881 0.005248 0.002231 0.041648 -0.011892
# 6 -0.009870 0.008247 -0.000132 0.000092 -0.011892 0.041918
#
#
# Mechanical properties :
#
#
# Convention : Reuss Voigt Hill
#
# Bulk Modulus (GPa) = 47.86338 59.69289 53.77814
# Shear Modulus (GPa) = 21.73162 28.40244 25.06703
#
# Velocity S-wave (km/s) = 3.43869 3.93120 3.69317
# Velocity P-wave (km/s) = 6.46603 7.28601 6.88823
#
# Compressibility (1/GPa) = 0.02089280
#
# Stress axis : x y z
#
# Youngs Moduli (GPa) = 70.49070 59.91506 76.64731
#
# Poissons Ratio (x) = 0.42752 0.19006
# Poissons Ratio (y) = 0.50298 0.14564
# Poissons Ratio (z) = 0.17480 0.11384
#
# Static dielectric constant tensor:
#      x y z
#    x 4.151600 0.211990 -0.169720 
#    y 0.211990 3.179950 0.132400 
#    z -0.169720 0.132400 3.474090 
# 
# 
# High freq. dielectric constant tensor:
#      x y z
#    x 1.723940 0.003740 0.007560 
#    y 0.003740 1.668500 0.012540 
#    z 0.007560 0.012540 1.717530 
# 
# From -- ./inp_files/171490.got.cif
#   From: 2010.06.25/outbox.cif.g09.slc.cpg/sg2_86_cif.got.tgz:171490.got - 2010.06.27 13:26:56.
