data_PCOD8035977
_publ_section_title
;
Structure prediction by ZEFSAII (Michael W. Deem and Ramdas Pophale) SiO2 
 PCOD8035977
Probable space group: P -1
;
_chemical_formula_sum "Si O2"
_cell_formula_units_Z 16
_cell_length_a 5.574622
_cell_length_b 17.496601
_cell_length_c 11.773283
_cell_angle_alpha 51.645594
_cell_angle_beta 48.944296
_cell_angle_gamma 70.220003
_cell_volume 674.387472
_symmetry_space_group_name_H-M "P -1"
_symmetry_group_IT_number 2
_symmetry_cell_setting 'triclinic'
loop_
_space_group_symop_operation_xyz
x,y,z
-x,-y,-z
loop_
_atom_site_type_symbol
_atom_site_label
_atom_site_fract_x
_atom_site_fract_y
_atom_site_fract_z
Si Si1 0.278517 0.879914 0.969963
Si Si2 0.304939 0.384141 0.422074
Si Si3 0.405884 0.089440 0.795169
Si Si4 0.393073 0.561872 0.079957
Si Si5 0.621815 0.212543 0.416553
Si Si6 0.259047 0.403158 0.670714
Si Si7 0.353435 0.221612 0.234895
Si Si8 0.713405 0.249761 0.703044
O O1 0.246023 0.788310 0.148355
O O2 0.922203 0.908992 0.033003
O O3 0.430700 0.847241 0.836965
O O4 0.489530 0.977333 0.865317
O O5 0.421232 0.494889 0.244489
O O6 0.604284 0.320599 0.378350
O O7 0.142211 0.385611 0.594357
O O8 0.014376 0.324990 0.494198
O O9 0.381286 0.132987 0.634705
O O10 0.683885 0.158369 0.709857
O O11 0.023706 0.582167 0.167060
O O12 0.500000 0.500000 0.000000
O O13 0.605817 0.665830 0.924581
O O14 0.484994 0.211927 0.331282
O O15 0.982347 0.185560 0.351974
O O16 0.500000 0.500000 0.500000
O O17 0.402051 0.306113 0.754973
#
# Coordination Sequence:
#
# PCOD8035977 Si02
#       8
#     2   2   2   2   2   2   2   2
#     4  11  27  47  76 112 142 193 254 327 372 453
#     4  12  25  46  71 106 146 199 255 301 370 449
#     4  11  25  48  80 106 142 195 261 310 384 448
#     4  12  27  45  68 112 150 196 247 307 367 451
#     4  12  27  50  78 106 155 208 244 312 381 458
#     4  12  27  42  76 104 143 204 252 306 369 453
#     4  12  30  50  73 113 159 200 251 310 388 443
#     4  12  22  46  76 108 147 190 255 314 375 442
#
# _framework density 23.725232999999999
#
# number of rings (size 3 to 8) (size 9 to 14) (size 15 to 20)
#    0.000    0.250    5.000    3.000    7.000    1.500 
#    0.000    0.000    0.000    0.000    0.000    0.000 
#    0.000    0.000    0.000    0.000    0.000    0.000 
#
# Total GULP energy -198338.317973 kJ/mol
# GULP energy per Si atom -12396.144873 kJ/mol
# Density = 2.367123 g / cm^3
# Si number density = 23.725233 Si / 1000 Ang^3
#
#
#
# Elastic Constant Matrix: (Units=GPa)
#
#
# Indices 1 2 3 4 5 6 
#
# 1 92.1439 26.7690 31.9440 14.6277 -2.8360 3.4343
# 2 26.7690 147.4157 43.1996 18.3846 -9.0636 1.1033
# 3 31.9440 43.1996 90.7609 10.8237 -3.3517 -5.5505
# 4 14.6277 18.3846 10.8237 47.3382 -0.9213 -3.5937
# 5 -2.8360 -9.0636 -3.3517 -0.9213 31.5745 -5.9321
# 6 3.4343 1.1033 -5.5505 -3.5937 -5.9321 33.3762
#
#
#
# Elastic Compliance Matrix: (Units=1/GPa)
#
#
# Indices 1 2 3 4 5 6 
#
# 1 0.013027 -0.000810 -0.003986 -0.002974 -0.000004 -0.002297
# 2 -0.000810 0.008312 -0.003383 -0.002222 0.001762 -0.000680
# 3 -0.003986 -0.003383 0.014298 -0.000483 0.000734 0.002978
# 4 -0.002974 -0.002222 -0.000483 0.023238 0.000257 0.002847
# 5 -0.000004 0.001762 0.000734 0.000257 0.033394 0.006027
# 6 -0.002297 -0.000680 0.002978 0.002847 0.006027 0.032093
#
#
# Mechanical properties :
#
#
# Convention : Reuss Voigt Hill
#
# Bulk Modulus (GPa) = 51.86526 59.34952 55.60739
# Shear Modulus (GPa) = 33.97963 37.68496 35.83230
#
# Velocity S-wave (km/s) = 3.78857 3.98979 3.89048
# Velocity P-wave (km/s) = 6.40671 6.80398 6.60833
#
# Compressibility (1/GPa) = 0.01928073
#
# Stress axis : x y z
#
# Youngs Moduli (GPa) = 76.76255 120.30103 69.94075
#
# Poissons Ratio (x) = 0.09741 0.27875
# Poissons Ratio (y) = 0.06216 0.23661
# Poissons Ratio (z) = 0.30594 0.40699
#
# Static dielectric constant tensor:
#      x y z
#    x 4.141300 0.121060 0.002710 
#    y 0.121060 4.957760 -0.012570 
#    z 0.002710 -0.012570 4.582280 
# 
# 
# High freq. dielectric constant tensor:
#      x y z
#    x 1.923350 -0.002570 -0.001640 
#    y -0.002570 1.955880 -0.003220 
#    z -0.001640 -0.003220 1.946170 
# 
# From -- ./inp_files/37830.got.cif
#   From: 2010.06.25/outbox.cif.g09.slc.cpg/sg2_19_cif.got.tgz:37830.got - 2010.06.27 13:26:56.
