data_PCOD8035261
_publ_section_title
;
Structure prediction by ZEFSAII (Michael W. Deem and Ramdas Pophale) SiO2 
 PCOD8035261
Probable space group: P -1
;
_chemical_formula_sum "Si O2"
_cell_formula_units_Z 14
_cell_length_a 9.776392
_cell_length_b 27.316614
_cell_length_c 30.091306
_cell_angle_alpha 171.144155
_cell_angle_beta 32.057536
_cell_angle_gamma 149.164941
_cell_volume 634.084544
_symmetry_space_group_name_H-M "P -1"
_symmetry_group_IT_number 2
_symmetry_cell_setting 'triclinic'
loop_
_space_group_symop_operation_xyz
x,y,z
-x,-y,-z
loop_
_atom_site_type_symbol
_atom_site_label
_atom_site_fract_x
_atom_site_fract_y
_atom_site_fract_z
Si Si1 0.545254 0.726028 0.275781
Si Si2 0.736319 0.739037 0.675866
Si Si3 0.738234 0.410361 0.630289
Si Si4 0.487759 0.492492 0.609812
Si Si5 0.973428 0.575554 0.808547
Si Si6 0.277429 0.914462 0.358548
Si Si7 0.305660 0.134987 0.024833
O O1 0.253012 0.480013 0.141841
O O2 0.500000 0.000000 0.500000
O O3 0.646302 0.925405 0.471120
O O4 0.734401 0.481497 0.991058
O O5 0.500000 0.500000 0.500000
O O6 0.638415 0.767191 0.778504
O O7 0.016941 0.643662 0.514410
O O8 0.805213 0.079873 0.935909
O O9 0.846464 0.572097 0.792168
O O10 0.626004 0.660910 0.856629
O O11 0.500900 0.080212 0.408853
O O12 0.535128 0.641767 0.779570
O O13 0.169319 0.338664 0.549381
O O14 0.599293 0.183296 0.295944
O O15 0.000000 0.000000 0.500000
O O16 0.000000 0.000000 0.000000
#
# Coordination Sequence:
#
# PCOD8035261 Si02
#       7
#     2   2   2   2   2   2   2
#     4  11  25  46  75 103 137 175 227 300 347 402
#     4  12  22  41  68  97 135 179 233 269 330 396
#     4  11  25  42  69  95 136 181 224 278 331 407
#     4  12  26  40  64  94 132 180 218 276 323 398
#     4  11  25  43  68  99 134 175 237 270 340 404
#     4  11  25  47  73 102 137 180 231 280 353 420
#     4  12  26  41  59  94 137 174 222 270 335 384
#
# _framework density 22.079073000000001
#
# number of rings (size 3 to 8) (size 9 to 14) (size 15 to 20)
#    0.000    0.571    4.286    3.429    2.000    2.286 
#    0.000    0.000    0.000    0.000    0.000    0.000 
#    0.000    0.000    0.000    0.000    0.000    0.000 
#
# Total GULP energy -173497.201293 kJ/mol
# GULP energy per Si atom -12392.657235 kJ/mol
# Density = 2.202882 g / cm^3
# Si number density = 22.079073 Si / 1000 Ang^3
#
#
#
# Elastic Constant Matrix: (Units=GPa)
#
#
# Indices 1 2 3 4 5 6 
#
# 1 140.1119 59.4214 56.2080 3.7433 -8.1071 -3.5659
# 2 59.4214 111.9318 45.2432 -6.5018 -10.2431 10.6536
# 3 56.2080 45.2432 144.3167 -12.9896 -7.9415 3.8855
# 4 3.7433 -6.5018 -12.9896 38.8996 -2.1327 -5.9657
# 5 -8.1071 -10.2431 -7.9415 -2.1327 41.7313 -2.8587
# 6 -3.5659 10.6536 3.8855 -5.9657 -2.8587 24.5290
#
#
#
# Elastic Compliance Matrix: (Units=1/GPa)
#
#
# Indices 1 2 3 4 5 6 
#
# 1 0.010516 -0.004865 -0.002841 -0.002196 0.000443 0.003609
# 2 -0.004865 0.013006 -0.001832 0.001262 0.001581 -0.005575
# 3 -0.002841 -0.001832 0.008928 0.002961 0.000834 -0.000214
# 4 -0.002196 0.001262 0.002961 0.028128 0.002280 0.005770
# 5 0.000443 0.001581 0.000834 0.002280 0.024897 0.002702
# 6 0.003609 -0.005575 -0.000214 0.005770 0.002702 0.045466
#
#
# Mechanical properties :
#
#
# Convention : Reuss Voigt Hill
#
# Bulk Modulus (GPa) = 74.76930 79.78951 77.27941
# Shear Modulus (GPa) = 32.36745 36.73115 34.54930
#
# Velocity S-wave (km/s) = 3.83296 4.08317 3.96004
# Velocity P-wave (km/s) = 7.31619 7.64502 7.48241
#
# Compressibility (1/GPa) = 0.01337447
#
# Stress axis : x y z
#
# Youngs Moduli (GPa) = 95.09023 76.88940 112.00399
#
# Poissons Ratio (x) = 0.37406 0.31822
# Poissons Ratio (y) = 0.46261 0.20517
# Poissons Ratio (z) = 0.27017 0.14085
#
# Static dielectric constant tensor:
#      x y z
#    x 4.038720 0.040610 -0.333070 
#    y 0.040610 4.259570 -0.012250 
#    z -0.333070 -0.012250 4.316540 
# 
# 
# High freq. dielectric constant tensor:
#      x y z
#    x 1.874090 0.006030 -0.012000 
#    y 0.006030 1.868270 -0.010650 
#    z -0.012000 -0.010650 1.880990 
# 
# From -- ./inp_files/46790.got.cif
#   From: 2010.06.25/outbox.cif.g09.slc.cpg/sg2_24_cif.got.tgz:46790.got - 2010.06.27 13:26:56.
