data_PCOD8035854
_publ_section_title
;
Structure prediction by ZEFSAII (Michael W. Deem and Ramdas Pophale) SiO2 
 PCOD8035854
Probable space group: P -1
;
_chemical_formula_sum "Si O2"
_cell_formula_units_Z 16
_cell_length_a 12.077095
_cell_length_b 12.661903
_cell_length_c 12.459368
_cell_angle_alpha 154.982421
_cell_angle_beta 124.434446
_cell_angle_gamma 55.308144
_cell_volume 655.691822
_symmetry_space_group_name_H-M "P -1"
_symmetry_group_IT_number 2
_symmetry_cell_setting 'triclinic'
loop_
_space_group_symop_operation_xyz
x,y,z
-x,-y,-z
loop_
_atom_site_type_symbol
_atom_site_label
_atom_site_fract_x
_atom_site_fract_y
_atom_site_fract_z
Si Si1 0.450461 0.629245 0.369147
Si Si2 0.011485 0.235590 0.647476
Si Si3 0.833551 0.155771 0.971109
Si Si4 0.265278 0.634670 0.680013
Si Si5 0.369288 0.911355 0.799044
Si Si6 0.972551 0.657337 0.485548
Si Si7 0.420600 0.766754 0.246555
Si Si8 0.782661 0.635084 0.959769
O O1 0.614114 0.569330 0.390946
O O2 0.410834 0.814254 0.615134
O O3 0.384408 0.752426 0.338288
O O4 0.374483 0.387764 0.123270
O O5 0.047350 0.197377 0.506522
O O6 0.863218 0.407730 0.724794
O O7 0.132797 0.361757 0.881045
O O8 0.000000 0.000000 0.500000
O O9 0.718422 0.155563 0.820006
O O10 0.934748 0.888527 0.763713
O O11 0.770286 0.146842 0.047824
O O12 0.891376 0.422260 0.235059
O O13 0.327301 0.710806 0.673052
O O14 0.127617 0.528366 0.477661
O O15 0.500000 0.000000 0.000000
O O16 0.232749 0.118836 0.898635
O O17 0.500000 0.000000 0.500000
O O18 0.500000 0.500000 0.000000
#
# Coordination Sequence:
#
# PCOD8035854 Si02
#       8
#     2   2   2   2   2   2   2   2
#     4  12  27  48  75 113 154 201 259 319 402 464
#     4  11  26  47  77 110 151 203 256 329 385 468
#     4  12  29  53  78 116 152 214 259 329 383 469
#     4  12  27  51  75 111 159 204 263 322 391 470
#     4  12  28  45  78 113 155 202 253 329 396 478
#     4  12  29  50  80 111 157 207 270 312 397 462
#     4  12  28  51  81 114 154 205 261 327 393 461
#     4  11  25  47  74 112 151 197 255 318 401 459
#
# _framework density 24.401709
#
# number of rings (size 3 to 8) (size 9 to 14) (size 15 to 20)
#    0.000    0.250    2.500    4.875   14.000    0.000 
#    0.000    0.000    0.000    0.000    0.000    0.000 
#    0.000    0.000    0.000    0.000    0.000    0.000 
#
# Total GULP energy -198302.995519 kJ/mol
# GULP energy per Si atom -12393.937220 kJ/mol
# Density = 2.434617 g / cm^3
# Si number density = 24.401709 Si / 1000 Ang^3
#
#
#
# Elastic Constant Matrix: (Units=GPa)
#
#
# Indices 1 2 3 4 5 6 
#
# 1 88.9067 21.1206 47.8211 -8.1812 -8.3241 -11.9097
# 2 21.1206 85.5100 19.4553 -14.1455 -7.7728 -9.7971
# 3 47.8211 19.4553 133.4166 -0.4015 -2.2967 3.5354
# 4 -8.1812 -14.1455 -0.4015 44.7949 0.8425 -6.5195
# 5 -8.3241 -7.7728 -2.2967 0.8425 44.1918 -14.2007
# 6 -11.9097 -9.7971 3.5354 -6.5195 -14.2007 55.0095
#
#
#
# Elastic Compliance Matrix: (Units=1/GPa)
#
#
# Indices 1 2 3 4 5 6 
#
# 1 0.015856 -0.001197 -0.005562 0.003118 0.004030 0.004987
# 2 -0.001197 0.013836 -0.001617 0.004612 0.003221 0.003687
# 3 -0.005562 -0.001617 0.009764 -0.001810 -0.001680 -0.002768
# 4 0.003118 0.004612 -0.001810 0.025047 0.002507 0.005229
# 5 0.004030 0.003221 -0.001680 0.002507 0.026623 0.008724
# 6 0.004987 0.003687 -0.002768 0.005229 0.008724 0.022965
#
#
# Mechanical properties :
#
#
# Convention : Reuss Voigt Hill
#
# Bulk Modulus (GPa) = 44.04614 53.84746 48.94680
# Shear Modulus (GPa) = 36.12408 43.42833 39.77621
#
# Velocity S-wave (km/s) = 3.85176 4.22326 4.04178
# Velocity P-wave (km/s) = 6.15394 6.77467 6.47175
#
# Compressibility (1/GPa) = 0.02270347
#
# Stress axis : x y z
#
# Youngs Moduli (GPa) = 63.06636 72.27346 102.41953
#
# Poissons Ratio (x) = 0.08654 0.56968
# Poissons Ratio (y) = 0.07552 0.16560
# Poissons Ratio (z) = 0.35079 0.11685
#
# Static dielectric constant tensor:
#      x y z
#    x 5.144250 1.201870 -0.406340 
#    y 1.201870 4.528470 -0.502740 
#    z -0.406340 -0.502740 4.514750 
# 
# 
# High freq. dielectric constant tensor:
#      x y z
#    x 1.975550 -0.005910 0.001580 
#    y -0.005910 1.996380 -0.021320 
#    z 0.001580 -0.021320 1.970230 
# 
# From -- ./inp_files/429280.got.cif
#   From: 2010.06.25/outbox.cif.g09.slc.cpg/sg2_215_cif.got.tgz:429280.got - 2010.06.27 13:26:56.
