data_PCOD8035743
_publ_section_title
;
Structure prediction by ZEFSAII (Michael W. Deem and Ramdas Pophale) SiO2 
 PCOD8035743
Probable space group: P -1
;
_chemical_formula_sum "Si O2"
_cell_formula_units_Z 14
_cell_length_a 9.558096
_cell_length_b 9.282272
_cell_length_c 12.021455
_cell_angle_alpha 135.500932
_cell_angle_beta 56.163462
_cell_angle_gamma 114.517031
_cell_volume 620.642606
_symmetry_space_group_name_H-M "P -1"
_symmetry_group_IT_number 2
_symmetry_cell_setting 'triclinic'
loop_
_space_group_symop_operation_xyz
x,y,z
-x,-y,-z
loop_
_atom_site_type_symbol
_atom_site_label
_atom_site_fract_x
_atom_site_fract_y
_atom_site_fract_z
Si Si1 0.822957 0.653209 0.738588
Si Si2 0.824952 0.216701 0.402937
Si Si3 0.635193 0.917761 0.810425
Si Si4 0.085577 0.830940 0.289653
Si Si5 0.490945 0.710221 0.554163
Si Si6 0.760564 0.773194 0.280767
Si Si7 0.303561 0.462541 0.048026
O O1 0.843753 0.409009 0.584439
O O2 0.697293 0.709588 0.725233
O O3 0.751105 0.693321 0.915202
O O4 0.990540 0.798307 0.740218
O O5 0.698764 0.249649 0.375131
O O6 0.768539 0.016947 0.388070
O O7 0.553039 0.886759 0.708858
O O8 0.797186 0.068075 0.803047
O O9 0.500000 0.000000 0.000000
O O10 0.198148 0.671228 0.219094
O O11 0.932870 0.707755 0.227653
O O12 0.000000 0.000000 0.500000
O O13 0.500000 0.500000 0.500000
O O14 0.604742 0.715327 0.396972
O O15 0.733482 0.644401 0.110984
O O16 0.500000 0.500000 0.000000
#
# Coordination Sequence:
#
# PCOD8035743 Si02
#       7
#     2   2   2   2   2   2   2
#     4  11  25  47  72 107 147 193 243 307 374 447
#     4  11  25  46  75 107 145 194 249 302 380 452
#     4  12  27  47  74 107 149 193 247 314 376 446
#     4  12  26  50  78 109 150 200 257 308 382 453
#     4  12  27  45  73 107 149 191 248 310 378 446
#     4  12  27  48  75 109 148 201 247 310 378 450
#     4  12  29  47  74 112 156 195 253 317 373 445
#
# _framework density 22.557262999999999
#
# number of rings (size 3 to 8) (size 9 to 14) (size 15 to 20)
#    0.000    0.286    4.286    3.429   10.000    1.714 
#    0.000    0.000    0.000    0.000    0.000    0.000 
#    0.000    0.000    0.000    0.000    0.000    0.000 
#
# Total GULP energy -173617.387749 kJ/mol
# GULP energy per Si atom -12401.241982 kJ/mol
# Density = 2.250592 g / cm^3
# Si number density = 22.557263 Si / 1000 Ang^3
#
#
#
# Elastic Constant Matrix: (Units=GPa)
#
#
# Indices 1 2 3 4 5 6 
#
# 1 169.3083 33.6511 49.1904 -9.3490 -3.0844 -3.0116
# 2 33.6511 135.4208 34.1666 -17.3827 -9.5159 -3.4277
# 3 49.1904 34.1666 101.1488 -24.0878 4.9465 7.4255
# 4 -9.3490 -17.3827 -24.0878 46.3161 -5.5172 -2.9213
# 5 -3.0844 -9.5159 4.9465 -5.5172 42.2955 0.2481
# 6 -3.0116 -3.4277 7.4255 -2.9213 0.2481 38.8197
#
#
#
# Elastic Compliance Matrix: (Units=1/GPa)
#
#
# Indices 1 2 3 4 5 6 
#
# 1 0.007065 -0.000902 -0.003364 -0.000519 0.000632 0.001069
# 2 -0.000902 0.008649 -0.002142 0.002319 0.002426 0.001262
# 3 -0.003364 -0.002142 0.013791 0.005326 -0.001630 -0.002677
# 4 -0.000519 0.002319 0.005326 0.025572 0.003190 0.001050
# 5 0.000632 0.002426 -0.001630 0.003190 0.024838 0.000656
# 6 0.001069 0.001262 -0.002677 0.001050 0.000656 0.026541
#
#
# Mechanical properties :
#
#
# Convention : Reuss Voigt Hill
#
# Bulk Modulus (GPa) = 59.92274 71.09934 65.51104
# Shear Modulus (GPa) = 40.05282 44.74425 42.39853
#
# Velocity S-wave (km/s) = 4.21837 4.45858 4.34013
# Velocity P-wave (km/s) = 7.09567 7.62188 7.36348
#
# Compressibility (1/GPa) = 0.01668816
#
# Stress axis : x y z
#
# Youngs Moduli (GPa) = 141.54441 115.62076 72.51312
#
# Poissons Ratio (x) = 0.10429 0.24394
# Poissons Ratio (y) = 0.12768 0.15532
# Poissons Ratio (z) = 0.47618 0.24766
#
# Static dielectric constant tensor:
#      x y z
#    x 4.608930 -0.213330 -0.035520 
#    y -0.213330 4.335170 -0.165260 
#    z -0.035520 -0.165260 3.922540 
# 
# 
# High freq. dielectric constant tensor:
#      x y z
#    x 1.912450 -0.002990 -0.002960 
#    y -0.002990 1.901910 -0.012380 
#    z -0.002960 -0.012380 1.880050 
# 
# From -- ./inp_files/242741.got.cif
#   From: 2010.06.25/outbox.cif.g09.slc.cpg/sg2_122_cif.got.tgz:242741.got - 2010.06.27 13:26:56.
