data_PCOD8035995
_publ_section_title
;
Structure prediction by ZEFSAII (Michael W. Deem and Ramdas Pophale) SiO2 
 PCOD8035995
Probable space group: P -1
;
_chemical_formula_sum "Si O2"
_cell_formula_units_Z 14
_cell_length_a 8.883928
_cell_length_b 20.420734
_cell_length_c 6.728798
_cell_angle_alpha 110.814487
_cell_angle_beta 58.505138
_cell_angle_gamma 143.095557
_cell_volume 620.374349
_symmetry_space_group_name_H-M "P -1"
_symmetry_group_IT_number 2
_symmetry_cell_setting 'triclinic'
loop_
_space_group_symop_operation_xyz
x,y,z
-x,-y,-z
loop_
_atom_site_type_symbol
_atom_site_label
_atom_site_fract_x
_atom_site_fract_y
_atom_site_fract_z
Si Si1 0.996298 0.819343 0.650146
Si Si2 0.298327 0.788566 0.194110
Si Si3 0.542578 0.626628 0.033044
Si Si4 0.124429 0.113703 0.538017
Si Si5 0.907033 0.620170 0.943682
Si Si6 0.294401 0.974188 0.963814
Si Si7 0.667345 0.300068 0.561960
O O1 0.700932 0.713647 0.839409
O O2 0.959138 0.874374 0.594193
O O3 0.089491 0.781545 0.419167
O O4 0.242338 0.912170 0.736306
O O5 0.388112 0.760164 0.265202
O O6 0.579006 0.910978 0.052503
O O7 0.141567 0.699358 0.032506
O O8 0.767833 0.653267 0.037745
O O9 0.324580 0.505408 0.957336
O O10 0.372912 0.629942 0.288888
O O11 0.452371 0.211439 0.443685
O O12 0.000000 0.000000 0.500000
O O13 0.001876 0.113457 0.818835
O O14 0.034036 0.627699 0.658571
O O15 0.500000 0.000000 0.000000
#
# Coordination Sequence:
#
# PCOD8035995 Si02
#       7
#     2   2   2   2   2   2   2
#     4  12  25  47  69 106 141 184 234 284 353 419
#     4  12  26  43  74 104 138 185 235 288 349 416
#     4  11  25  49  73 102 142 185 234 291 349 414
#     4  12  27  42  69 102 145 187 228 289 347 416
#     4  11  26  50  72 101 142 186 234 290 350 413
#     4  12  25  43  70 102 139 184 232 283 348 418
#     4  12  26  47  70 107 140 182 239 288 348 414
#
# _framework density 22.567017
#
# number of rings (size 3 to 8) (size 9 to 14) (size 15 to 20)
#    0.000    0.286    4.286    4.286    6.000    2.286 
#    2.571    0.000    0.000    0.000    0.000    0.000 
#    0.000    0.000    0.000    0.000    0.000    0.000 
#
# Total GULP energy -173678.819629 kJ/mol
# GULP energy per Si atom -12405.629974 kJ/mol
# Density = 2.251565 g / cm^3
# Si number density = 22.567017 Si / 1000 Ang^3
#
#
#
# Elastic Constant Matrix: (Units=GPa)
#
#
# Indices 1 2 3 4 5 6 
#
# 1 133.6499 37.0236 50.4572 2.8799 5.3992 -17.8719
# 2 37.0236 115.9766 42.0003 -1.4604 11.5775 -5.7426
# 3 50.4572 42.0003 94.0785 -4.3050 10.8027 -7.3681
# 4 2.8799 -1.4604 -4.3050 32.1336 0.9886 -3.0483
# 5 5.3992 11.5775 10.8027 0.9886 36.6663 4.2689
# 6 -17.8719 -5.7426 -7.3681 -3.0483 4.2689 34.5067
#
#
#
# Elastic Compliance Matrix: (Units=1/GPa)
#
#
# Indices 1 2 3 4 5 6 
#
# 1 0.010148 -0.001398 -0.004547 -0.001202 -0.000143 0.003964
# 2 -0.001398 0.010655 -0.003709 0.000230 -0.002135 0.000542
# 3 -0.004547 -0.003709 0.015224 0.002445 -0.002809 0.000842
# 4 -0.001202 0.000230 0.002445 0.031905 -0.001823 0.002982
# 5 -0.000143 -0.002135 -0.002809 -0.001823 0.029407 -0.004828
# 6 0.003964 0.000542 0.000842 0.002982 -0.004828 0.032164
#
#
# Mechanical properties :
#
#
# Convention : Reuss Voigt Hill
#
# Bulk Modulus (GPa) = 59.80930 66.96304 63.38617
# Shear Modulus (GPa) = 32.38735 34.94292 33.66513
#
# Velocity S-wave (km/s) = 3.79246 3.93925 3.86655
# Velocity P-wave (km/s) = 6.76295 7.10124 6.93416
#
# Compressibility (1/GPa) = 0.01671981
#
# Stress axis : x y z
#
# Youngs Moduli (GPa) = 98.54532 93.85622 65.68506
#
# Poissons Ratio (x) = 0.13117 0.29865
# Poissons Ratio (y) = 0.13772 0.24363
# Poissons Ratio (z) = 0.44806 0.34811
#
# Static dielectric constant tensor:
#      x y z
#    x 4.209930 0.035050 -0.350060 
#    y 0.035050 4.244390 -0.586550 
#    z -0.350060 -0.586550 5.392200 
# 
# 
# High freq. dielectric constant tensor:
#      x y z
#    x 1.893100 -0.004480 -0.005660 
#    y -0.004480 1.898470 -0.003930 
#    z -0.005660 -0.003930 1.899000 
# 
# From -- ./inp_files/37028.got.cif
#   From: 2010.06.25/outbox.cif.g09.slc.cpg/sg2_19_cif.got.tgz:37028.got - 2010.06.27 13:26:56.
