data_PCOD8035635
_publ_section_title
;
Structure prediction by ZEFSAII (Michael W. Deem and Ramdas Pophale) SiO2 
 PCOD8035635
Probable space group: P -1
;
_chemical_formula_sum "Si O2"
_cell_formula_units_Z 14
_cell_length_a 15.444940
_cell_length_b 15.467003
_cell_length_c 6.472491
_cell_angle_alpha 79.747653
_cell_angle_beta 69.703957
_cell_angle_gamma 26.826821
_cell_volume 622.053510
_symmetry_space_group_name_H-M "P -1"
_symmetry_group_IT_number 2
_symmetry_cell_setting 'triclinic'
loop_
_space_group_symop_operation_xyz
x,y,z
-x,-y,-z
loop_
_atom_site_type_symbol
_atom_site_label
_atom_site_fract_x
_atom_site_fract_y
_atom_site_fract_z
Si Si1 0.551276 0.055062 0.374256
Si Si2 0.118722 0.922484 0.649033
Si Si3 0.901271 0.492399 0.530774
Si Si4 0.362744 0.884955 0.379889
Si Si5 0.871925 0.810501 0.865006
Si Si6 0.292652 0.656443 0.965816
Si Si7 0.776799 0.477790 0.002387
O O1 0.342540 0.290993 0.416970
O O2 0.674271 0.005618 0.468085
O O3 0.500000 0.000000 0.500000
O O4 0.682978 0.933216 0.107053
O O5 0.299695 0.842301 0.523212
O O6 0.262197 0.723316 0.729145
O O7 0.000000 0.000000 0.500000
O O8 0.926056 0.125238 0.850863
O O9 0.907246 0.421756 0.749508
O O10 0.000000 0.500000 0.500000
O O11 0.039373 0.342245 0.287916
O O12 0.203729 0.040810 0.260512
O O13 0.598884 0.687450 0.175852
O O14 0.054434 0.696974 0.896022
O O15 0.500000 0.500000 0.000000
O O16 0.318699 0.529379 0.005041
#
# Coordination Sequence:
#
# PCOD8035635 Si02
#       7
#     2   2   2   2   2   2   2
#     4  12  27  46  72 107 144 191 248 302 367 439
#     4  11  25  46  70 107 148 193 251 303 375 442
#     4  12  27  46  73 106 144 193 246 302 369 437
#     4  12  26  45  74 105 146 196 243 305 366 439
#     4  12  25  47  73 100 150 188 242 305 362 429
#     4  11  26  44  72 106 149 192 248 310 367 445
#     4  12  26  46  72 107 144 195 245 300 374 437
#
# _framework density 22.506103
#
# number of rings (size 3 to 8) (size 9 to 14) (size 15 to 20)
#    0.000    0.286    2.857    6.000    4.000    8.000 
#    0.000    0.000    0.000    0.000    0.000    0.000 
#    0.000    0.000    0.000    0.000    0.000    0.000 
#
# Total GULP energy -173499.817817 kJ/mol
# GULP energy per Si atom -12392.844130 kJ/mol
# Density = 2.245488 g / cm^3
# Si number density = 22.506103 Si / 1000 Ang^3
#
#
#
# Elastic Constant Matrix: (Units=GPa)
#
#
# Indices 1 2 3 4 5 6 
#
# 1 143.5250 21.0154 62.3129 -17.6419 -11.9575 10.2883
# 2 21.0154 128.1694 56.3803 -7.9457 4.0236 -10.8863
# 3 62.3129 56.3803 144.9851 7.2606 1.6645 6.6232
# 4 -17.6419 -7.9457 7.2606 55.7602 -1.2430 7.0616
# 5 -11.9575 4.0236 1.6645 -1.2430 27.9577 -3.2430
# 6 10.2883 -10.8863 6.6232 7.0616 -3.2430 39.7727
#
#
#
# Elastic Compliance Matrix: (Units=1/GPa)
#
#
# Indices 1 2 3 4 5 6 
#
# 1 0.009923 0.000314 -0.004549 0.004141 0.004411 -0.002099
# 2 0.000314 0.009993 -0.004235 0.001680 -0.000628 0.003010
# 3 -0.004549 -0.004235 0.010755 -0.003321 -0.002283 -0.001370
# 4 0.004141 0.001680 -0.003321 0.020409 0.002228 -0.003500
# 5 0.004411 -0.000628 -0.002283 0.002228 0.038187 0.001785
# 6 -0.002099 0.003010 -0.001370 -0.003500 0.001785 0.027505
#
#
# Mechanical properties :
#
#
# Convention : Reuss Voigt Hill
#
# Bulk Modulus (GPa) = 72.83304 77.34407 75.08856
# Shear Modulus (GPa) = 36.15586 43.16286 39.65936
#
# Velocity S-wave (km/s) = 4.01245 4.38405 4.20236
# Velocity P-wave (km/s) = 7.34153 7.75029 7.54868
#
# Compressibility (1/GPa) = 0.01373003
#
# Stress axis : x y z
#
# Youngs Moduli (GPa) = 100.77135 100.06678 92.98360
#
# Poissons Ratio (x) = -0.03142 0.42300
# Poissons Ratio (y) = -0.03164 0.39383
# Poissons Ratio (z) = 0.45843 0.42383
#
# Static dielectric constant tensor:
#      x y z
#    x 3.886190 -0.158160 0.070590 
#    y -0.158160 4.402770 -0.164460 
#    z 0.070590 -0.164460 4.384500 
# 
# 
# High freq. dielectric constant tensor:
#      x y z
#    x 1.888490 -0.006800 0.002180 
#    y -0.006800 1.912450 0.001600 
#    z 0.002180 0.001600 1.900370 
# 
# From -- ./inp_files/97870.got.cif
#   From: 2010.06.25/outbox.cif.g09.slc.cpg/sg2_49_cif.got.tgz:97870.got - 2010.06.27 13:26:56.
