data_PCOD8035696
_publ_section_title
;
Structure prediction by ZEFSAII (Michael W. Deem and Ramdas Pophale) SiO2 
 PCOD8035696
Probable space group: P -1
;
_chemical_formula_sum "Si O2"
_cell_formula_units_Z 16
_cell_length_a 11.022424
_cell_length_b 20.454331
_cell_length_c 8.824501
_cell_angle_alpha 147.523720
_cell_angle_beta 43.126615
_cell_angle_gamma 128.101372
_cell_volume 730.287774
_symmetry_space_group_name_H-M "P -1"
_symmetry_group_IT_number 2
_symmetry_cell_setting 'triclinic'
loop_
_space_group_symop_operation_xyz
x,y,z
-x,-y,-z
loop_
_atom_site_type_symbol
_atom_site_label
_atom_site_fract_x
_atom_site_fract_y
_atom_site_fract_z
Si Si1 0.746588 0.805206 0.737799
Si Si2 0.735314 0.444092 0.313008
Si Si3 0.594060 0.015885 0.104891
Si Si4 0.055074 0.554847 0.397970
Si Si5 0.262964 0.068026 0.683444
Si Si6 0.881311 0.186561 0.739368
Si Si7 0.931512 0.167797 0.007927
Si Si8 0.347113 0.465089 0.748556
O O1 0.659998 0.673086 0.575289
O O2 0.945933 0.788282 0.467117
O O3 0.750914 0.871487 0.023523
O O4 0.632088 0.882121 0.873569
O O5 0.553449 0.493526 0.651207
O O6 0.721691 0.444903 0.144639
O O7 0.893130 0.535773 0.392962
O O8 0.765647 0.308256 0.080459
O O9 0.460433 0.089299 0.479784
O O10 0.777999 0.088089 0.068761
O O11 0.500000 0.000000 0.000000
O O12 0.103674 0.694994 0.641998
O O13 0.000000 0.500000 0.500000
O O14 0.230011 0.484611 0.043174
O O15 0.230102 0.923301 0.447364
O O16 0.121590 0.124813 0.808436
O O17 0.932465 0.151516 0.795267
#
# Coordination Sequence:
#
# PCOD8035696 Si02
#       8
#     2   2   2   2   2   2   2   2
#     4  12  25  45  73 106 137 186 227 288 346 412
#     4  11  25  46  72  99 136 189 229 286 347 402
#     4  12  26  45  73 103 144 184 225 282 351 414
#     4  12  25  45  70 102 138 183 232 285 339 410
#     4  12  26  45  72 105 142 176 236 284 346 418
#     4  12  23  46  72  97 143 181 227 289 349 408
#     4  12  26  45  71 103 138 187 229 282 351 409
#     4  11  26  46  72  99 143 181 233 286 347 406
#
# _framework density 21.909171000000001
#
# number of rings (size 3 to 8) (size 9 to 14) (size 15 to 20)
#    0.000    0.250    5.000    3.750    1.750    3.500 
#    0.000    0.000    0.000    0.000    0.000    0.000 
#    0.000    0.000    0.000    0.000    0.000    0.000 
#
# Total GULP energy -198524.377139 kJ/mol
# GULP energy per Si atom -12407.773571 kJ/mol
# Density = 2.185931 g / cm^3
# Si number density = 21.909171 Si / 1000 Ang^3
#
#
#
# Elastic Constant Matrix: (Units=GPa)
#
#
# Indices 1 2 3 4 5 6 
#
# 1 62.5818 12.8849 33.9719 -7.5793 -12.9844 -14.7402
# 2 12.8849 82.9391 32.3184 -8.6213 -4.5592 -5.2294
# 3 33.9719 32.3184 97.0186 -15.0894 -0.2794 6.7527
# 4 -7.5793 -8.6213 -15.0894 54.7408 9.1513 -3.1712
# 5 -12.9844 -4.5592 -0.2794 9.1513 31.1696 3.8784
# 6 -14.7402 -5.2294 6.7527 -3.1712 3.8784 37.5544
#
#
#
# Elastic Compliance Matrix: (Units=1/GPa)
#
#
# Indices 1 2 3 4 5 6 
#
# 1 0.025871 0.001183 -0.010200 0.000022 0.009461 0.011178
# 2 0.001183 0.014329 -0.005280 0.000840 0.001886 0.003285
# 3 -0.010200 -0.005280 0.016532 0.002711 -0.004800 -0.006987
# 4 0.000022 0.000840 0.002711 0.020275 -0.006042 0.001974
# 5 0.009461 0.001886 -0.004800 -0.006042 0.037980 0.000407
# 6 0.011178 0.003285 -0.006987 0.001974 0.000407 0.032854
#
#
# Mechanical properties :
#
#
# Convention : Reuss Voigt Hill
#
# Bulk Modulus (GPa) = 35.54020 44.54333 40.04176
# Shear Modulus (GPa) = 26.90849 35.58392 31.24621
#
# Velocity S-wave (km/s) = 3.50835 4.03445 3.78056
# Velocity P-wave (km/s) = 5.71561 6.48672 6.11333
#
# Compressibility (1/GPa) = 0.02813715
#
# Stress axis : x y z
#
# Youngs Moduli (GPa) = 38.65279 69.78966 60.48897
#
# Poissons Ratio (x) = -0.08254 0.61701
# Poissons Ratio (y) = -0.04572 0.31937
# Poissons Ratio (z) = 0.39427 0.36848
#
# Static dielectric constant tensor:
#      x y z
#    x 4.078540 0.102170 -0.070470 
#    y 0.102170 4.265880 0.061860 
#    z -0.070470 0.061860 4.151010 
# 
# 
# High freq. dielectric constant tensor:
#      x y z
#    x 1.867070 0.000620 -0.009710 
#    y 0.000620 1.876340 -0.004300 
#    z -0.009710 -0.004300 1.869940 
# 
# From -- ./inp_files/283462.got.cif
#   From: 2010.06.25/outbox.cif.g09.slc.cpg/sg2_142_cif.got.tgz:283462.got - 2010.06.27 13:26:56.
