data_PCOD8035327
_publ_section_title
;
Structure prediction by ZEFSAII (Michael W. Deem and Ramdas Pophale) SiO2 
 PCOD8035327
Probable space group: P -1
;
_chemical_formula_sum "Si O2"
_cell_formula_units_Z 12
_cell_length_a 8.766285
_cell_length_b 9.537954
_cell_length_c 13.246792
_cell_angle_alpha 35.418942
_cell_angle_beta 104.099410
_cell_angle_gamma 120.728851
_cell_volume 517.520992
_symmetry_space_group_name_H-M "P -1"
_symmetry_group_IT_number 2
_symmetry_cell_setting 'triclinic'
loop_
_space_group_symop_operation_xyz
x,y,z
-x,-y,-z
loop_
_atom_site_type_symbol
_atom_site_label
_atom_site_fract_x
_atom_site_fract_y
_atom_site_fract_z
Si Si1 0.011482 0.715756 0.793438
Si Si2 0.934161 0.580322 0.205215
Si Si3 0.401692 0.274115 0.527289
Si Si4 0.238096 0.077643 0.090189
Si Si5 0.333666 0.898104 0.405035
Si Si6 0.610158 0.589394 0.773230
O O1 0.043357 0.635068 0.734312
O O2 0.820675 0.704662 0.772649
O O3 0.182838 0.042416 0.655727
O O4 0.000000 0.500000 0.000000
O O5 0.798464 0.406007 0.379928
O O6 0.852912 0.732873 0.037080
O O7 0.139120 0.825156 0.138667
O O8 0.500000 0.500000 0.500000
O O9 0.501275 0.101716 0.626873
O O10 0.416915 0.453881 0.325412
O O11 0.212349 0.943262 0.276001
O O12 0.461527 0.282762 0.981612
O O13 0.429059 0.167160 0.341127
#
# Coordination Sequence:
#
# PCOD8035327 Si02
#       6
#     2   2   2   2   2   2
#     4  12  27  46  71 105 147 190 237 296 363 421
#     4  11  25  46  71 107 149 184 242 296 356 423
#     4  12  28  46  74 107 143 187 243 297 356 427
#     4  11  25  43  74 108 137 192 241 295 347 436
#     4  12  24  48  75 101 144 194 237 290 366 419
#     4  12  25  48  74 103 149 186 242 295 358 427
#
# _framework density 23.187465
#
# number of rings (size 3 to 8) (size 9 to 14) (size 15 to 20)
#    0.000    0.333    3.333    5.000    4.667    2.000 
#    0.000    0.000    0.000    0.000    0.000    0.000 
#    0.000    0.000    0.000    0.000    0.000    0.000 
#
# Total GULP energy -148915.428744 kJ/mol
# GULP energy per Si atom -12409.619062 kJ/mol
# Density = 2.313469 g / cm^3
# Si number density = 23.187465 Si / 1000 Ang^3
#
#
#
# Elastic Constant Matrix: (Units=GPa)
#
#
# Indices 1 2 3 4 5 6 
#
# 1 107.1038 50.6557 20.8446 -11.0175 -12.4285 11.6846
# 2 50.6557 148.0971 30.6512 -13.9853 -9.5821 7.0626
# 3 20.8446 30.6512 96.7826 5.7081 1.6576 8.8931
# 4 -11.0175 -13.9853 5.7081 45.3572 13.0833 -4.8305
# 5 -12.4285 -9.5821 1.6576 13.0833 32.9225 -2.0338
# 6 11.6846 7.0626 8.8931 -4.8305 -2.0338 30.7835
#
#
#
# Elastic Compliance Matrix: (Units=1/GPa)
#
#
# Indices 1 2 3 4 5 6 
#
# 1 0.011978 -0.003401 -0.001323 0.000812 0.003087 -0.003053
# 2 -0.003401 0.008563 -0.002130 0.001952 0.000558 0.000285
# 3 -0.001323 -0.002130 0.011716 -0.002498 -0.000892 -0.002845
# 4 0.000812 0.001952 -0.002498 0.026181 -0.009190 0.003467
# 5 0.003087 0.000558 -0.000892 -0.009190 0.035390 -0.000146
# 6 -0.003053 0.000285 -0.002845 0.003467 -0.000146 0.034934
#
#
# Mechanical properties :
#
#
# Convention : Reuss Voigt Hill
#
# Bulk Modulus (GPa) = 53.91289 61.80963 57.86126
# Shear Modulus (GPa) = 33.63533 38.46811 36.05172
#
# Velocity S-wave (km/s) = 3.81278 4.07751 3.94736
# Velocity P-wave (km/s) = 6.53333 6.99160 6.76635
#
# Compressibility (1/GPa) = 0.01854844
#
# Stress axis : x y z
#
# Youngs Moduli (GPa) = 83.48982 116.77634 85.35310
#
# Poissons Ratio (x) = 0.39717 0.11290
# Poissons Ratio (y) = 0.28396 0.18183
# Poissons Ratio (z) = 0.11044 0.24878
#
# Static dielectric constant tensor:
#      x y z
#    x 5.251510 0.070520 0.624710 
#    y 0.070520 4.196070 0.023000 
#    z 0.624710 0.023000 4.589240 
# 
# 
# High freq. dielectric constant tensor:
#      x y z
#    x 1.916050 0.012240 0.000150 
#    y 0.012240 1.923940 0.005620 
#    z 0.000150 0.005620 1.929090 
# 
# From -- ./inp_files/149017.got.cif
#   From: 2010.06.25/outbox.cif.g09.slc.cpg/sg2_75_cif.got.tgz:149017.got - 2010.06.27 13:26:56.
