data_PCOD8035394
_publ_section_title
;
Structure prediction by ZEFSAII (Michael W. Deem and Ramdas Pophale) SiO2 
 PCOD8035394
Probable space group: P -1
;
_chemical_formula_sum "Si O2"
_cell_formula_units_Z 16
_cell_length_a 8.991042
_cell_length_b 9.159723
_cell_length_c 14.204897
_cell_angle_alpha 96.542214
_cell_angle_beta 113.965011
_cell_angle_gamma 129.974618
_cell_volume 691.930325
_symmetry_space_group_name_H-M "P -1"
_symmetry_group_IT_number 2
_symmetry_cell_setting 'triclinic'
loop_
_space_group_symop_operation_xyz
x,y,z
-x,-y,-z
loop_
_atom_site_type_symbol
_atom_site_label
_atom_site_fract_x
_atom_site_fract_y
_atom_site_fract_z
Si Si1 0.580441 0.350206 0.575350
Si Si2 0.224369 0.195903 0.306530
Si Si3 0.162354 0.966516 0.553376
Si Si4 0.184177 0.521841 0.991759
Si Si5 0.366552 0.781749 0.861834
Si Si6 0.850820 0.020013 0.908840
Si Si7 0.989034 0.430182 0.594974
Si Si8 0.718252 0.957951 0.203280
O O1 0.365710 0.220379 0.432112
O O2 0.705911 0.585204 0.659671
O O3 0.450491 0.195705 0.622531
O O4 0.779457 0.368096 0.596307
O O5 0.300933 0.160126 0.229753
O O6 0.921282 0.982075 0.216953
O O7 0.163821 0.908524 0.656612
O O8 0.058739 0.775693 0.440252
O O9 0.000000 0.000000 0.500000
O O10 0.247207 0.623149 0.910639
O O11 0.452236 0.693315 0.126561
O O12 0.046572 0.271169 0.934330
O O13 0.000000 0.500000 0.000000
O O14 0.662213 0.961548 0.932846
O O15 0.248980 0.628543 0.728214
O O16 0.318357 0.924585 0.864948
O O17 0.000000 0.000000 0.000000
O O18 0.000000 0.500000 0.500000
#
# Coordination Sequence:
#
# PCOD8035394 Si02
#       8
#     2   2   2   2   2   2   2   2
#     4  11  25  44  72 106 147 196 241 304 375 455
#     4  11  25  46  72 106 149 190 247 308 379 438
#     4  12  27  44  72 116 147 192 249 311 374 451
#     4  12  30  49  80 109 146 202 260 305 377 444
#     4  12  27  50  79 109 150 200 254 315 366 449
#     4  12  30  49  77 112 149 193 251 320 377 440
#     4  12  25  46  75 106 149 195 243 300 383 447
#     4  12  25  49  77 104 152 201 253 310 370 443
#
# _framework density 23.123714
#
# number of rings (size 3 to 8) (size 9 to 14) (size 15 to 20)
#    0.000    0.250    5.000    2.250   10.500    2.000 
#    0.000    0.000    0.000    0.000    0.000    0.000 
#    0.000    0.000    0.000    0.000    0.000    0.000 
#
# Total GULP energy -198396.539231 kJ/mol
# GULP energy per Si atom -12399.783702 kJ/mol
# Density = 2.307108 g / cm^3
# Si number density = 23.123714 Si / 1000 Ang^3
#
#
#
# Elastic Constant Matrix: (Units=GPa)
#
#
# Indices 1 2 3 4 5 6 
#
# 1 112.7678 51.3906 32.4237 12.7204 -1.1626 0.4393
# 2 51.3906 133.1757 32.8716 0.8039 -5.2799 4.3064
# 3 32.4237 32.8716 96.6507 10.6966 -3.8443 -1.6935
# 4 12.7204 0.8039 10.6966 35.8281 1.3550 -2.5351
# 5 -1.1626 -5.2799 -3.8443 1.3550 43.9104 4.6894
# 6 0.4393 4.3064 -1.6935 -2.5351 4.6894 46.1443
#
#
#
# Elastic Compliance Matrix: (Units=1/GPa)
#
#
# Indices 1 2 3 4 5 6 
#
# 1 0.011685 -0.003954 -0.002210 -0.003389 -0.000257 0.000017
# 2 -0.003954 0.009612 -0.002113 0.001718 0.000913 -0.000935
# 3 -0.002210 -0.002113 0.012155 -0.002796 0.000792 0.000430
# 4 -0.003389 0.001718 -0.002796 0.030066 -0.001221 0.001545
# 5 -0.000257 0.000913 0.000792 -0.001221 0.023249 -0.002483
# 6 0.000017 -0.000935 0.000430 0.001545 -0.002483 0.022111
#
#
# Mechanical properties :
#
#
# Convention : Reuss Voigt Hill
#
# Bulk Modulus (GPa) = 59.17727 63.99623 61.58675
# Shear Modulus (GPa) = 38.14919 40.23714 39.19316
#
# Velocity S-wave (km/s) = 4.06616 4.17595 4.12142
# Velocity P-wave (km/s) = 6.90594 7.14053 7.02421
#
# Compressibility (1/GPa) = 0.01689838
#
# Stress axis : x y z
#
# Youngs Moduli (GPa) = 85.58300 104.03476 82.26984
#
# Poissons Ratio (x) = 0.41132 0.18182
# Poissons Ratio (y) = 0.33837 0.17384
# Poissons Ratio (z) = 0.18914 0.21983
#
# Static dielectric constant tensor:
#      x y z
#    x 4.311450 0.108560 -0.085710 
#    y 0.108560 4.334260 0.184600 
#    z -0.085710 0.184600 4.499790 
# 
# 
# High freq. dielectric constant tensor:
#      x y z
#    x 1.927570 0.008320 -0.001670 
#    y 0.008320 1.915360 0.004820 
#    z -0.001670 0.004820 1.925820 
# 
# From -- ./inp_files/398113.got.cif
#   From: 2010.06.25/outbox.cif.g09.slc.cpg/sg2_200_cif.got.tgz:398113.got - 2010.06.27 13:26:56.
