data_PCOD8035285
_publ_section_title
;
Structure prediction by ZEFSAII (Michael W. Deem and Ramdas Pophale) SiO2 
 PCOD8035285
Probable space group: P -1
;
_chemical_formula_sum "Si O2"
_cell_formula_units_Z 14
_cell_length_a 21.541143
_cell_length_b 6.550033
_cell_length_c 9.222423
_cell_angle_alpha 55.182613
_cell_angle_beta 34.977272
_cell_angle_gamma 62.506600
_cell_volume 612.343810
_symmetry_space_group_name_H-M "P -1"
_symmetry_group_IT_number 2
_symmetry_cell_setting 'triclinic'
loop_
_space_group_symop_operation_xyz
x,y,z
-x,-y,-z
loop_
_atom_site_type_symbol
_atom_site_label
_atom_site_fract_x
_atom_site_fract_y
_atom_site_fract_z
Si Si1 0.398328 0.481934 0.564589
Si Si2 0.136065 0.028803 0.578019
Si Si3 0.298142 0.288772 0.564715
Si Si4 0.301335 0.735349 0.188337
Si Si5 0.113164 0.948354 0.986283
Si Si6 0.507001 0.070729 0.666384
Si Si7 0.770379 0.447250 0.896553
O O1 0.318428 0.476780 0.583396
O O2 0.475483 0.236591 0.516844
O O3 0.473253 0.730839 0.319556
O O4 0.329892 0.464601 0.850898
O O5 0.149534 0.933324 0.755035
O O6 0.171592 0.315634 0.382887
O O7 0.202808 0.853781 0.415669
O O8 0.012509 0.999849 0.775461
O O9 0.317362 0.447966 0.318277
O O10 0.176856 0.178630 0.846747
O O11 0.378663 0.059675 0.515642
O O12 0.273776 0.739252 0.068940
O O13 0.411443 0.878578 0.962547
O O14 0.143237 0.692856 0.111642
#
# Coordination Sequence:
#
# PCOD8035285 Si02
#       7
#     2   2   2   2   2   2   2
#     4  11  25  43  72  96 142 184 225 282 346 399
#     4  11  26  50  70 103 138 179 230 291 336 412
#     4  12  25  45  67 104 137 186 227 283 340 411
#     4  12  27  43  70 103 142 177 234 280 342 407
#     4  11  25  49  74  98 141 179 231 284 347 402
#     4  11  25  43  67 103 137 182 228 281 340 410
#     4  12  24  48  71 106 136 182 232 282 341 411
#
# _framework density 22.862974000000001
#
# number of rings (size 3 to 8) (size 9 to 14) (size 15 to 20)
#    0.000    0.571    4.286    3.000    4.000    1.714 
#    2.571    0.000    0.000    0.000    0.000    0.000 
#    0.000    0.000    0.000    0.000    0.000    0.000 
#
# Total GULP energy -173635.286942 kJ/mol
# GULP energy per Si atom -12402.520496 kJ/mol
# Density = 2.281094 g / cm^3
# Si number density = 22.862974 Si / 1000 Ang^3
#
#
#
# Elastic Constant Matrix: (Units=GPa)
#
#
# Indices 1 2 3 4 5 6 
#
# 1 147.6780 44.8121 48.0166 -2.4909 -9.9069 6.0564
# 2 44.8121 71.8003 34.8181 -16.7724 -5.8985 -2.9661
# 3 48.0166 34.8181 103.4055 -8.5941 -19.7718 1.7165
# 4 -2.4909 -16.7724 -8.5941 38.3723 2.6522 1.2771
# 5 -9.9069 -5.8985 -19.7718 2.6522 45.9388 -5.1419
# 6 6.0564 -2.9661 1.7165 1.2771 -5.1419 22.2435
#
#
#
# Elastic Compliance Matrix: (Units=1/GPa)
#
#
# Indices 1 2 3 4 5 6 
#
# 1 0.009285 -0.005090 -0.002732 -0.002136 -0.000026 -0.002879
# 2 -0.005090 0.021124 -0.004202 0.007841 -0.000195 0.004032
# 3 -0.002732 -0.004202 0.013278 0.000638 0.004569 0.000179
# 4 -0.002136 0.007841 0.000638 0.029567 -0.000924 -0.000333
# 5 -0.000026 -0.000195 0.004569 -0.000924 0.024352 0.005311
# 6 -0.002879 0.004032 0.000179 -0.000333 0.005311 0.047511
#
#
# Mechanical properties :
#
#
# Convention : Reuss Voigt Hill
#
# Bulk Modulus (GPa) = 50.92018 64.24193 57.58105
# Shear Modulus (GPa) = 28.45583 34.32673 31.39128
#
# Velocity S-wave (km/s) = 3.53175 3.87901 3.70945
# Velocity P-wave (km/s) = 6.24110 6.94420 6.60202
#
# Compressibility (1/GPa) = 0.01963858
#
# Stress axis : x y z
#
# Youngs Moduli (GPa) = 107.70430 47.33946 75.31299
#
# Poissons Ratio (x) = 0.24096 0.20578
# Poissons Ratio (y) = 0.54821 0.31645
# Poissons Ratio (z) = 0.29428 0.19891
#
# Static dielectric constant tensor:
#      x y z
#    x 4.338490 0.027610 -0.109750 
#    y 0.027610 4.114140 -0.207220 
#    z -0.109750 -0.207220 3.983510 
# 
# 
# High freq. dielectric constant tensor:
#      x y z
#    x 1.920780 -0.002470 -0.009310 
#    y -0.002470 1.906700 -0.016280 
#    z -0.009310 -0.016280 1.897480 
# 
# From -- ./inp_files/116712.got.cif
#   From: 2010.06.25/outbox.cif.g09.slc.cpg/sg2_59_cif.got.tgz:116712.got - 2010.06.27 13:26:56.
