data_PCOD8035910
_publ_section_title
;
Structure prediction by ZEFSAII (Michael W. Deem and Ramdas Pophale) SiO2 
 PCOD8035910
Probable space group: P -1
;
_chemical_formula_sum "Si O2"
_cell_formula_units_Z 12
_cell_length_a 4.871824
_cell_length_b 11.532219
_cell_length_c 15.192602
_cell_angle_alpha 138.900665
_cell_angle_beta 82.768987
_cell_angle_gamma 117.212815
_cell_volume 462.753653
_symmetry_space_group_name_H-M "P -1"
_symmetry_group_IT_number 2
_symmetry_cell_setting 'triclinic'
loop_
_space_group_symop_operation_xyz
x,y,z
-x,-y,-z
loop_
_atom_site_type_symbol
_atom_site_label
_atom_site_fract_x
_atom_site_fract_y
_atom_site_fract_z
Si Si1 0.058325 0.537801 0.678347
Si Si2 0.519717 0.505689 0.105436
Si Si3 0.316287 0.867360 0.716781
Si Si4 0.833616 0.809382 0.565470
Si Si5 0.600531 0.835192 0.416583
Si Si6 0.207343 0.726856 0.957453
O O1 0.041685 0.661539 0.665604
O O2 0.246167 0.425556 0.577324
O O3 0.690553 0.365439 0.630169
O O4 0.285677 0.713094 0.844236
O O5 0.636125 0.738241 0.269308
O O6 0.500000 0.500000 0.000000
O O7 0.793197 0.460159 0.098263
O O8 0.159074 0.319010 0.048945
O O9 0.525364 0.804385 0.614800
O O10 0.143689 0.938797 0.694487
O O11 0.532054 0.049904 0.882314
O O12 0.910856 0.917827 0.523745
O O13 0.500000 0.000000 0.500000
#
# Coordination Sequence:
#
# PCOD8035910 Si02
#       6
#     2   2   2   2   2   2
#     4  11  25  49  73 106 148 189 239 297 359 425
#     4  11  25  48  73 101 143 190 243 295 349 425
#     4  12  27  43  78 109 146 188 237 293 363 433
#     4  12  25  47  70 110 147 185 239 295 359 423
#     4  11  27  48  75 105 144 193 241 299 357 422
#     4  11  25  48  70 108 143 188 239 295 357 425
#
# _framework density 25.931723000000002
#
# number of rings (size 3 to 8) (size 9 to 14) (size 15 to 20)
#    0.000    0.667    3.333    3.000    4.667    2.000 
#    6.000    4.167    0.000    0.000    0.000    0.000 
#    0.000    0.000    0.000    0.000    0.000    0.000 
#
# Total GULP energy -148815.547150 kJ/mol
# GULP energy per Si atom -12401.295596 kJ/mol
# Density = 2.587270 g / cm^3
# Si number density = 25.931723 Si / 1000 Ang^3
#
#
#
# Elastic Constant Matrix: (Units=GPa)
#
#
# Indices 1 2 3 4 5 6 
#
# 1 84.6304 25.9417 14.9448 -9.5884 10.3126 -14.6736
# 2 25.9417 107.6718 55.5194 -14.1965 11.2097 -26.5712
# 3 14.9448 55.5194 189.4212 -22.9174 10.5844 -3.2764
# 4 -9.5884 -14.1965 -22.9174 41.1169 -6.5155 4.9263
# 5 10.3126 11.2097 10.5844 -6.5155 44.9679 -5.7389
# 6 -14.6736 -26.5712 -3.2764 4.9263 -5.7389 36.7105
#
#
#
# Elastic Compliance Matrix: (Units=1/GPa)
#
#
# Indices 1 2 3 4 5 6 
#
# 1 0.013444 -0.001893 -0.000136 0.001690 -0.001892 0.003469
# 2 -0.001893 0.014023 -0.003614 0.001190 -0.000920 0.008767
# 3 -0.000136 -0.003614 0.006657 0.002642 -0.000574 -0.002520
# 4 0.001690 0.001190 0.002642 0.027164 0.002439 -0.001491
# 5 -0.001892 -0.000920 -0.000574 0.002439 0.023631 0.001894
# 6 0.003469 0.008767 -0.002520 -0.001491 0.001894 0.035244
#
#
# Mechanical properties :
#
#
# Convention : Reuss Voigt Hill
#
# Bulk Modulus (GPa) = 43.78486 63.83724 53.81105
# Shear Modulus (GPa) = 35.95520 43.58022 39.76771
#
# Velocity S-wave (km/s) = 3.72766 4.10393 3.92031
# Velocity P-wave (km/s) = 5.95387 6.86492 6.42556
#
# Compressibility (1/GPa) = 0.02283895
#
# Stress axis : x y z
#
# Youngs Moduli (GPa) = 74.38357 71.30965 150.21093
#
# Poissons Ratio (x) = 0.13502 0.02035
# Poissons Ratio (y) = 0.14084 0.54284
# Poissons Ratio (z) = 0.01008 0.25770
#
# Static dielectric constant tensor:
#      x y z
#    x 5.079720 -0.032270 0.156870 
#    y -0.032270 4.977860 -0.379180 
#    z 0.156870 -0.379180 5.260050 
# 
# 
# High freq. dielectric constant tensor:
#      x y z
#    x 2.043240 -0.004130 0.005820 
#    y -0.004130 2.043760 -0.020240 
#    z 0.005820 -0.020240 2.069310 
# 
# From -- ./inp_files/482441.got.cif
#   From: 2010.06.25/outbox.cif.g09.slc.cpg/sg2_242_cif.got.tgz:482441.got - 2010.06.27 13:26:56.
