data_PCOD8035076
_publ_section_title
;
Structure prediction by ZEFSAII (Michael W. Deem and Ramdas Pophale) SiO2 
 PCOD8035076
Probable space group: P -1
;
_chemical_formula_sum "Si O2"
_cell_formula_units_Z 14
_cell_length_a 9.332297
_cell_length_b 12.326560
_cell_length_c 8.905511
_cell_angle_alpha 105.244479
_cell_angle_beta 119.959898
_cell_angle_gamma 116.387194
_cell_volume 620.809243
_symmetry_space_group_name_H-M "P -1"
_symmetry_group_IT_number 2
_symmetry_cell_setting 'triclinic'
loop_
_space_group_symop_operation_xyz
x,y,z
-x,-y,-z
loop_
_atom_site_type_symbol
_atom_site_label
_atom_site_fract_x
_atom_site_fract_y
_atom_site_fract_z
Si Si1 0.050946 0.055929 0.221061
Si Si2 0.452985 0.420328 0.601207
Si Si3 0.185958 0.673578 0.819405
Si Si4 0.905244 0.149689 0.642569
Si Si5 0.122522 0.391835 0.613870
Si Si6 0.356016 0.021887 0.843313
Si Si7 0.034564 0.389455 0.018072
O O1 0.290473 0.234609 0.427194
O O2 0.050919 0.944855 0.282320
O O3 0.856068 0.040992 0.187722
O O4 0.000000 0.000000 0.000000
O O5 0.500000 0.500000 0.500000
O O6 0.345298 0.468843 0.662685
O O7 0.697226 0.505617 0.830613
O O8 0.116995 0.511457 0.727882
O O9 0.106593 0.710722 0.646862
O O10 0.051080 0.673710 0.881648
O O11 0.459225 0.792937 0.018180
O O12 0.113740 0.288278 0.695088
O O13 0.697566 0.041567 0.378172
O O14 0.871903 0.233521 0.775558
O O15 0.500000 0.000000 0.000000
O O16 0.000000 0.500000 0.000000
#
# Coordination Sequence:
#
# PCOD8035076 Si02
#       7
#     2   2   2   2   2   2   2
#     4  12  30  49  76 114 152 198 251 313 382 443
#     4  12  26  49  77 104 148 198 250 307 372 449
#     4  11  25  47  75 112 149 196 247 315 374 447
#     4  12  27  48  76 111 149 196 256 308 376 449
#     4  11  24  47  78 110 147 198 257 302 376 452
#     4  12  27  50  77 107 152 195 249 310 382 449
#     4  12  28  47  71 111 150 193 253 309 373 443
#
# _framework density 22.551212
#
# number of rings (size 3 to 8) (size 9 to 14) (size 15 to 20)
#    0.000    0.286    5.714    1.286    8.000    2.286 
#    0.000    0.000    0.000    0.000    0.000    0.000 
#    0.000    0.000    0.000    0.000    0.000    0.000 
#
# Total GULP energy -173485.890561 kJ/mol
# GULP energy per Si atom -12391.849326 kJ/mol
# Density = 2.249988 g / cm^3
# Si number density = 22.551212 Si / 1000 Ang^3
#
#
#
# Elastic Constant Matrix: (Units=GPa)
#
#
# Indices 1 2 3 4 5 6 
#
# 1 127.6018 48.1933 68.8327 3.1218 -10.0135 2.8987
# 2 48.1933 159.4387 54.8292 -20.0845 -6.1881 -2.1884
# 3 68.8327 54.8292 165.4957 -2.9607 -16.3111 -1.3406
# 4 3.1218 -20.0845 -2.9607 34.8812 0.4522 4.0857
# 5 -10.0135 -6.1881 -16.3111 0.4522 43.6083 -0.1930
# 6 2.8987 -2.1884 -1.3406 4.0857 -0.1930 42.3404
#
#
#
# Elastic Compliance Matrix: (Units=1/GPa)
#
#
# Indices 1 2 3 4 5 6 
#
# 1 0.010856 -0.002299 -0.003727 -0.002536 0.000796 -0.000732
# 2 -0.002299 0.008133 -0.001657 0.004741 -0.000042 0.000068
# 3 -0.003727 -0.001657 0.008346 0.000009 0.002033 0.000442
# 4 -0.002536 0.004741 0.000009 0.031942 -0.000249 -0.002664
# 5 0.000796 -0.000042 0.002033 -0.000249 0.023872 0.000140
# 6 -0.000732 0.000068 0.000442 -0.002664 0.000140 0.023943
#
#
# Mechanical properties :
#
#
# Convention : Reuss Voigt Hill
#
# Bulk Modulus (GPa) = 83.54266 88.47185 86.00726
# Shear Modulus (GPa) = 39.54216 42.87804 41.21010
#
# Velocity S-wave (km/s) = 4.19195 4.36519 4.27945
# Velocity P-wave (km/s) = 7.78178 8.04508 7.91452
#
# Compressibility (1/GPa) = 0.01196993
#
# Stress axis : x y z
#
# Youngs Moduli (GPa) = 92.11091 122.95256 119.82331
#
# Poissons Ratio (x) = 0.28262 0.44655
# Poissons Ratio (y) = 0.21173 0.19859
# Poissons Ratio (z) = 0.34327 0.20377
#
# Static dielectric constant tensor:
#      x y z
#    x -6.941280 -2.971680 -2.647560 
#    y -2.971680 3.478470 -0.487460 
#    z -2.647560 -0.487460 4.012710 
# 
# 
# High freq. dielectric constant tensor:
#      x y z
#    x 1.884420 0.003730 -0.012760 
#    y 0.003730 1.913850 0.003000 
#    z -0.012760 0.003000 1.904500 
# 
# From -- ./inp_files/189575.got.cif
#   From: 2010.06.25/outbox.cif.g09.slc.cpg/sg2_95_cif.got.tgz:189575.got - 2010.06.27 13:26:56.
