data_PCOD8035288
_publ_section_title
;
Structure prediction by ZEFSAII (Michael W. Deem and Ramdas Pophale) SiO2 
 PCOD8035288
Probable space group: P -1
;
_chemical_formula_sum "Si O2"
_cell_formula_units_Z 16
_cell_length_a 16.261207
_cell_length_b 8.769117
_cell_length_c 11.990988
_cell_angle_alpha 85.966325
_cell_angle_beta 134.849875
_cell_angle_gamma 127.867666
_cell_volume 729.009621
_symmetry_space_group_name_H-M "P -1"
_symmetry_group_IT_number 2
_symmetry_cell_setting 'triclinic'
loop_
_space_group_symop_operation_xyz
x,y,z
-x,-y,-z
loop_
_atom_site_type_symbol
_atom_site_label
_atom_site_fract_x
_atom_site_fract_y
_atom_site_fract_z
Si Si1 0.457826 0.855989 0.609207
Si Si2 0.622418 0.559069 0.388343
Si Si3 0.205906 0.145230 0.693204
Si Si4 0.711244 0.631061 0.005840
Si Si5 0.429988 0.855385 0.095228
Si Si6 0.927293 0.011102 0.818465
Si Si7 0.202384 0.782065 0.710102
Si Si8 0.816836 0.229171 0.780816
O O1 0.383852 0.630328 0.616225
O O2 0.264552 0.725904 0.380704
O O3 0.556994 0.090107 0.766198
O O4 0.629893 0.984561 0.686245
O O5 0.689353 0.693165 0.326728
O O6 0.407989 0.403270 0.201510
O O7 0.738644 0.732370 0.600907
O O8 0.306619 0.302939 0.895789
O O9 0.186625 0.945039 0.686341
O O10 0.000000 0.000000 0.500000
O O11 0.923812 0.842154 0.148971
O O12 0.620654 0.372601 0.957242
O O13 0.636962 0.110784 0.226817
O O14 0.262167 0.785537 0.888895
O O15 0.888989 0.149640 0.795905
O O16 0.000000 0.000000 0.000000
O O17 0.000000 0.500000 0.500000
O O18 0.000000 0.500000 0.000000
#
# Coordination Sequence:
#
# PCOD8035288 Si02
#       8
#     2   2   2   2   2   2   2   2
#     4  11  26  44  71 103 137 185 228 285 348 406
#     4  12  26  45  71 103 143 183 230 286 346 416
#     4  12  25  46  70 103 145 185 227 281 349 415
#     4  12  25  45  73 101 142 186 228 284 346 411
#     4  11  25  43  68 101 136 183 229 278 341 406
#     4  12  27  46  72 104 136 180 236 289 347 409
#     4  11  26  42  67  99 139 181 228 277 334 411
#     4  11  25  48  72  99 139 177 235 290 343 408
#
# _framework density 21.947583999999999
#
# number of rings (size 3 to 8) (size 9 to 14) (size 15 to 20)
#    0.000    0.500    2.500    4.875    5.250    5.000 
#    0.000    0.000    0.000    0.000    0.000    0.000 
#    0.000    0.000    0.000    0.000    0.000    0.000 
#
# Total GULP energy -198386.963590 kJ/mol
# GULP energy per Si atom -12399.185224 kJ/mol
# Density = 2.189763 g / cm^3
# Si number density = 21.947584 Si / 1000 Ang^3
#
#
#
# Elastic Constant Matrix: (Units=GPa)
#
#
# Indices 1 2 3 4 5 6 
#
# 1 102.8628 41.5759 48.6616 -5.5758 -4.7751 -22.5356
# 2 41.5759 142.4800 63.6108 -10.1122 -4.5366 -35.6488
# 3 48.6616 63.6108 171.1689 -9.9750 3.4231 -13.7224
# 4 -5.5758 -10.1122 -9.9750 37.9249 -6.0358 -1.2845
# 5 -4.7751 -4.5366 3.4231 -6.0358 39.1832 -7.8799
# 6 -22.5356 -35.6488 -13.7224 -1.2845 -7.8799 27.2828
#
#
#
# Elastic Compliance Matrix: (Units=1/GPa)
#
#
# Indices 1 2 3 4 5 6 
#
# 1 0.014076 0.000886 -0.003254 0.002690 0.005079 0.012741
# 2 0.000886 0.013615 -0.003678 0.004457 0.006462 0.018748
# 3 -0.003254 -0.003678 0.007848 0.000089 -0.002343 -0.004219
# 4 0.002690 0.004457 0.000089 0.029606 0.007754 0.011723
# 5 0.005079 0.006462 -0.002343 0.007754 0.032557 0.021229
# 6 0.012741 0.018748 -0.004219 0.011723 0.021229 0.076236
#
#
# Mechanical properties :
#
#
# Convention : Reuss Voigt Hill
#
# Bulk Modulus (GPa) = 42.65085 80.46760 61.55922
# Shear Modulus (GPa) = 25.79370 38.38907 32.09139
#
# Velocity S-wave (km/s) = 3.43190 4.18679 3.82800
# Velocity P-wave (km/s) = 5.93120 7.75341 6.90270
#
# Compressibility (1/GPa) = 0.02344619
#
# Stress axis : x y z
#
# Youngs Moduli (GPa) = 71.04257 73.44871 127.42061
#
# Poissons Ratio (x) = -0.06507 0.41467
# Poissons Ratio (y) = -0.06294 0.46866
# Poissons Ratio (z) = 0.23119 0.27015
#
# Static dielectric constant tensor:
#      x y z
#    x 2.348890 0.027530 -0.447940 
#    y 0.027530 3.813390 -0.064530 
#    z -0.447940 -0.064530 4.125770 
# 
# 
# High freq. dielectric constant tensor:
#      x y z
#    x 1.870540 -0.008540 0.008950 
#    y -0.008540 1.871050 -0.002880 
#    z 0.008950 -0.002880 1.888420 
# 
# From -- ./inp_files/462158.got.cif
#   From: 2010.06.25/outbox.cif.g09.slc.cpg/sg2_232_cif.got.tgz:462158.got - 2010.06.27 13:26:56.
