data_PCOD8035553
_publ_section_title
;
Structure prediction by ZEFSAII (Michael W. Deem and Ramdas Pophale) SiO2 
 PCOD8035553
Probable space group: P -1
;
_chemical_formula_sum "Si O2"
_cell_formula_units_Z 14
_cell_length_a 15.611539
_cell_length_b 5.365334
_cell_length_c 15.147495
_cell_angle_alpha 66.896777
_cell_angle_beta 150.499697
_cell_angle_gamma 105.837296
_cell_volume 568.039584
_symmetry_space_group_name_H-M "P -1"
_symmetry_group_IT_number 2
_symmetry_cell_setting 'triclinic'
loop_
_space_group_symop_operation_xyz
x,y,z
-x,-y,-z
loop_
_atom_site_type_symbol
_atom_site_label
_atom_site_fract_x
_atom_site_fract_y
_atom_site_fract_z
Si Si1 0.095962 0.683327 0.624588
Si Si2 0.430310 0.793361 0.131606
Si Si3 0.601891 0.331046 0.229934
Si Si4 0.204324 0.009733 0.408784
Si Si5 0.092382 0.064481 0.985157
Si Si6 0.918943 0.378208 0.182934
Si Si7 0.476632 0.728139 0.373164
O O1 0.297363 0.654892 0.774282
O O2 0.102879 0.539074 0.745771
O O3 0.000000 0.500000 0.500000
O O4 0.000000 0.000000 0.500000
O O5 0.498575 0.625336 0.127678
O O6 0.506254 0.626260 0.311910
O O7 0.476444 0.100061 0.137001
O O8 0.217989 0.831747 0.933530
O O9 0.742710 0.253459 0.445638
O O10 0.374359 0.081160 0.498403
O O11 0.122761 0.252435 0.368676
O O12 0.043101 0.983741 0.205113
O O13 0.130907 0.372099 0.964962
O O14 0.279700 0.880036 0.177961
O O15 0.000000 0.000000 0.000000
O O16 0.500000 0.500000 0.500000
#
# Coordination Sequence:
#
# PCOD8035553 Si02
#       7
#     2   2   2   2   2   2   2
#     4  12  26  45  77 114 152 202 263 314 389 462
#     4  11  26  47  74 109 155 193 257 320 386 452
#     4  11  25  47  73 112 149 202 254 315 384 460
#     4  11  25  45  74 103 151 199 249 313 387 447
#     4  12  28  47  75 114 152 202 263 317 389 465
#     4  12  26  47  75 107 155 198 257 323 382 463
#     4  11  26  47  73 107 149 202 256 318 382 457
#
# _framework density 24.646172
#
# number of rings (size 3 to 8) (size 9 to 14) (size 15 to 20)
#    0.000    0.571    2.857    4.286   10.000    2.857 
#    0.000    0.000    0.000    0.000    0.000    0.000 
#    0.000    0.000    0.000    0.000    0.000    0.000 
#
# Total GULP energy -173519.766675 kJ/mol
# GULP energy per Si atom -12394.269048 kJ/mol
# Density = 2.459008 g / cm^3
# Si number density = 24.646172 Si / 1000 Ang^3
#
#
#
# Elastic Constant Matrix: (Units=GPa)
#
#
# Indices 1 2 3 4 5 6 
#
# 1 133.5729 30.6238 18.9211 9.3658 6.9813 8.8970
# 2 30.6238 105.6406 23.7130 15.5839 13.8188 -7.1480
# 3 18.9211 23.7130 103.2190 24.2475 21.1699 3.3891
# 4 9.3658 15.5839 24.2475 42.9119 7.3087 4.2211
# 5 6.9813 13.8188 21.1699 7.3087 35.9798 -6.1539
# 6 8.8970 -7.1480 3.3891 4.2211 -6.1539 34.1596
#
#
#
# Elastic Compliance Matrix: (Units=1/GPa)
#
#
# Indices 1 2 3 4 5 6 
#
# 1 0.008351 -0.002320 -0.000715 -0.000186 -0.000732 -0.002698
# 2 -0.002320 0.011307 -0.001165 -0.002886 -0.002097 0.003065
# 3 -0.000715 -0.001165 0.012648 -0.005363 -0.006064 -0.001742
# 4 -0.000186 -0.002886 -0.005363 0.028159 -0.002083 -0.003878
# 5 -0.000732 -0.002097 -0.006064 -0.002083 0.033880 0.006715
# 6 -0.002698 0.003065 -0.001742 -0.003878 0.006715 0.032480
#
#
# Mechanical properties :
#
#
# Convention : Reuss Voigt Hill
#
# Bulk Modulus (GPa) = 41.83110 54.32759 48.07934
# Shear Modulus (GPa) = 34.91763 40.55523 37.73643
#
# Velocity S-wave (km/s) = 3.76807 4.06087 3.91721
# Velocity P-wave (km/s) = 5.99505 6.63916 6.32531
#
# Compressibility (1/GPa) = 0.02390566
#
# Stress axis : x y z
#
# Youngs Moduli (GPa) = 119.75021 88.43763 79.06550
#
# Poissons Ratio (x) = 0.20514 0.05657
# Poissons Ratio (y) = 0.27777 0.09212
# Poissons Ratio (z) = 0.08568 0.10304
#
# Static dielectric constant tensor:
#      x y z
#    x 4.887830 0.043650 0.170280 
#    y 0.043650 3.773650 1.664300 
#    z 0.170280 1.664300 -0.278810 
# 
# 
# High freq. dielectric constant tensor:
#      x y z
#    x 2.000880 0.003640 0.008240 
#    y 0.003640 1.965100 0.013070 
#    z 0.008240 0.013070 1.998950 
# 
# From -- ./inp_files/89613.got.cif
#   From: 2010.06.25/outbox.cif.g09.slc.cpg/sg2_45_cif.got.tgz:89613.got - 2010.06.27 13:26:56.
