data_PCOD8035765
_publ_section_title
;
Structure prediction by ZEFSAII (Michael W. Deem and Ramdas Pophale) SiO2 
 PCOD8035765
Probable space group: P -1
;
_chemical_formula_sum "Si O2"
_cell_formula_units_Z 14
_cell_length_a 11.021934
_cell_length_b 9.614939
_cell_length_c 5.442381
_cell_angle_alpha 96.549475
_cell_angle_beta 84.796417
_cell_angle_gamma 83.051204
_cell_volume 565.582668
_symmetry_space_group_name_H-M "P -1"
_symmetry_group_IT_number 2
_symmetry_cell_setting 'triclinic'
loop_
_space_group_symop_operation_xyz
x,y,z
-x,-y,-z
loop_
_atom_site_type_symbol
_atom_site_label
_atom_site_fract_x
_atom_site_fract_y
_atom_site_fract_z
Si Si1 0.389982 0.002913 0.830791
Si Si2 0.321078 0.475497 0.615046
Si Si3 0.489655 0.780126 0.419737
Si Si4 0.908642 0.640702 0.488931
Si Si5 0.309232 0.645786 0.141688
Si Si6 0.865214 0.887555 0.856026
Si Si7 0.938071 0.160151 0.778474
O O1 0.407748 0.120909 0.646637
O O2 0.398115 0.851676 0.662011
O O3 0.255814 0.039015 0.971994
O O4 0.500000 0.000000 0.000000
O O5 0.441109 0.365080 0.513061
O O6 0.198131 0.401546 0.676174
O O7 0.297330 0.568744 0.392460
O O8 0.350206 0.548807 0.880225
O O9 0.410110 0.752103 0.186893
O O10 0.839388 0.730492 0.744271
O O11 0.000000 0.500000 0.500000
O O12 0.983724 0.765747 0.416622
O O13 0.180059 0.730331 0.110413
O O14 0.897018 0.007649 0.674180
O O15 0.984535 0.860931 0.994454
#
# Coordination Sequence:
#
# PCOD8035765 Si02
#       7
#     2   2   2   2   2   2   2
#     4  11  25  46  77 109 145 201 256 317 388 456
#     4  12  28  47  77 112 152 206 256 319 388 458
#     4  11  27  46  74 108 151 196 257 320 382 460
#     4  12  25  46  74 109 154 197 254 315 386 459
#     4  12  28  48  77 112 156 203 257 317 389 461
#     4  11  26  46  78 109 152 201 255 323 385 466
#     4  11  26  46  75 109 153 198 260 312 394 453
#
# _framework density 24.753231
#
# number of rings (size 3 to 8) (size 9 to 14) (size 15 to 20)
#    0.000    0.571    1.429    4.714   10.000    5.714 
#    0.000    0.000    0.000    0.000    0.000    0.000 
#    0.000    0.000    0.000    0.000    0.000    0.000 
#
# Total GULP energy -173508.355930 kJ/mol
# GULP energy per Si atom -12393.453995 kJ/mol
# Density = 2.469689 g / cm^3
# Si number density = 24.753231 Si / 1000 Ang^3
#
#
#
# Elastic Constant Matrix: (Units=GPa)
#
#
# Indices 1 2 3 4 5 6 
#
# 1 135.1025 58.2138 50.3896 21.4011 -3.5659 -14.7730
# 2 58.2138 153.3353 76.4917 28.0352 -2.9700 -8.5393
# 3 50.3896 76.4917 124.6056 27.5521 10.5121 -2.7432
# 4 21.4011 28.0352 27.5521 49.9573 6.1471 1.4098
# 5 -3.5659 -2.9700 10.5121 6.1471 35.1586 1.1485
# 6 -14.7730 -8.5393 -2.7432 1.4098 1.1485 49.5901
#
#
#
# Elastic Compliance Matrix: (Units=1/GPa)
#
#
# Indices 1 2 3 4 5 6 
#
# 1 0.009787 -0.001975 -0.002389 -0.002060 0.001820 0.002460
# 2 -0.001975 0.010460 -0.005282 -0.002465 0.002663 0.000929
# 3 -0.002389 -0.005282 0.013174 -0.002750 -0.004123 -0.000719
# 4 -0.002060 -0.002465 -0.002750 0.024317 -0.003788 -0.001794
# 5 0.001820 0.002663 -0.004123 -0.003788 0.030742 0.000168
# 6 0.002460 0.000929 -0.000719 -0.001794 0.000168 0.021065
#
#
# Mechanical properties :
#
#
# Convention : Reuss Voigt Hill
#
# Bulk Modulus (GPa) = 70.77443 87.02596 78.90020
# Shear Modulus (GPa) = 37.43989 42.13773 39.78881
#
# Velocity S-wave (km/s) = 3.89334 4.13038 4.01361
# Velocity P-wave (km/s) = 6.99034 7.61449 7.30908
#
# Compressibility (1/GPa) = 0.01412940
#
# Stress axis : x y z
#
# Youngs Moduli (GPa) = 102.17351 95.59974 75.90632
#
# Poissons Ratio (x) = 0.18879 0.18138
# Poissons Ratio (y) = 0.20178 0.40092
# Poissons Ratio (z) = 0.24414 0.50494
#
# Static dielectric constant tensor:
#      x y z
#    x 4.652780 0.086900 -0.010730 
#    y 0.086900 4.901860 0.153080 
#    z -0.010730 0.153080 4.198660 
# 
# 
# High freq. dielectric constant tensor:
#      x y z
#    x 2.002670 0.000840 -0.005310 
#    y 0.000840 2.013580 0.009670 
#    z -0.005310 0.009670 1.969670 
# 
# From -- ./inp_files/60901.got.cif
#   From: 2010.06.25/outbox.cif.g09.slc.cpg/sg2_31_cif.got.tgz:60901.got - 2010.06.27 13:26:56.
