data_PCOD8035429
_publ_section_title
;
Structure prediction by ZEFSAII (Michael W. Deem and Ramdas Pophale) SiO2 
 PCOD8035429
Probable space group: P -1
;
_chemical_formula_sum "Si O2"
_cell_formula_units_Z 14
_cell_length_a 12.057649
_cell_length_b 11.732486
_cell_length_c 6.608092
_cell_angle_alpha 100.883372
_cell_angle_beta 62.610975
_cell_angle_gamma 129.236002
_cell_volume 635.764870
_symmetry_space_group_name_H-M "P -1"
_symmetry_group_IT_number 2
_symmetry_cell_setting 'triclinic'
loop_
_space_group_symop_operation_xyz
x,y,z
-x,-y,-z
loop_
_atom_site_type_symbol
_atom_site_label
_atom_site_fract_x
_atom_site_fract_y
_atom_site_fract_z
Si Si1 0.451385 0.340067 0.444043
Si Si2 0.240646 0.618225 0.883753
Si Si3 0.284458 0.098788 0.823473
Si Si4 0.883889 0.136457 0.445404
Si Si5 0.670893 0.073614 0.970036
Si Si6 0.847690 0.845187 0.667649
Si Si7 0.054566 0.591883 0.684263
O O1 0.500000 0.500000 0.500000
O O2 0.594220 0.354454 0.215771
O O3 0.421720 0.255634 0.652160
O O4 0.298421 0.251203 0.396019
O O5 0.181966 0.583769 0.688876
O O6 0.245981 0.755951 0.992935
O O7 0.103425 0.471963 0.073939
O O8 0.162158 0.993869 0.712545
O O9 0.202291 0.129591 0.069898
O O10 0.352634 0.021088 0.844345
O O11 0.775189 0.063494 0.714349
O O12 0.072893 0.234614 0.376942
O O13 0.851844 0.237010 0.391485
O O14 0.500000 0.000000 0.000000
O O15 0.000000 0.000000 0.500000
O O16 0.000000 0.500000 0.500000
#
# Coordination Sequence:
#
# PCOD8035429 Si02
#       7
#     2   2   2   2   2   2   2
#     4  12  31  49  71 106 152 194 240 304 363 436
#     4  11  26  47  69 108 142 184 247 291 364 435
#     4  12  25  47  73 104 142 195 240 298 366 423
#     4  12  25  44  74 106 141 191 243 298 361 429
#     4  12  25  43  73 106 144 180 243 303 356 435
#     4  12  26  47  73 107 144 188 251 294 353 442
#     4  11  25  44  75 104 142 193 235 299 368 432
#
# _framework density 22.020721000000002
#
# number of rings (size 3 to 8) (size 9 to 14) (size 15 to 20)
#    0.000    0.286    5.714    2.143    6.000    2.857 
#    0.000    0.000    0.000    0.000    0.000    0.000 
#    0.000    0.000    0.000    0.000    0.000    0.000 
#
# Total GULP energy -173581.730651 kJ/mol
# GULP energy per Si atom -12398.695047 kJ/mol
# Density = 2.197060 g / cm^3
# Si number density = 22.020721 Si / 1000 Ang^3
#
#
#
# Elastic Constant Matrix: (Units=GPa)
#
#
# Indices 1 2 3 4 5 6 
#
# 1 152.2524 35.8078 49.0612 1.7134 0.3304 21.6303
# 2 35.8078 109.7940 43.6099 1.3927 10.8929 1.8138
# 3 49.0612 43.6099 115.9334 9.7054 7.0467 6.4001
# 4 1.7134 1.3927 9.7054 41.5264 -2.8060 7.3082
# 5 0.3304 10.8929 7.0467 -2.8060 38.2703 -3.2804
# 6 21.6303 1.8138 6.4001 7.3082 -3.2804 41.9054
#
#
#
# Elastic Compliance Matrix: (Units=1/GPa)
#
#
# Indices 1 2 3 4 5 6 
#
# 1 0.008426 -0.001622 -0.002870 0.001123 0.000658 -0.003985
# 2 -0.001622 0.011237 -0.003443 0.000214 -0.002479 0.000645
# 3 -0.002870 -0.003443 0.011414 -0.002560 -0.001264 0.000235
# 4 0.001123 0.000214 -0.002560 0.025546 0.001888 -0.004505
# 5 0.000658 -0.002479 -0.001264 0.001888 0.027353 0.001773
# 6 -0.003985 0.000645 0.000235 -0.004505 0.001773 0.026781
#
#
# Mechanical properties :
#
#
# Convention : Reuss Voigt Hill
#
# Bulk Modulus (GPa) = 65.76004 70.54862 68.15433
# Shear Modulus (GPa) = 37.96582 40.97384 39.46983
#
# Velocity S-wave (km/s) = 4.15673 4.31826 4.23826
# Velocity P-wave (km/s) = 7.27774 7.54785 7.41402
#
# Compressibility (1/GPa) = 0.01520680
#
# Stress axis : x y z
#
# Youngs Moduli (GPa) = 118.67487 88.98933 87.61443
#
# Poissons Ratio (x) = 0.14434 0.25144
# Poissons Ratio (y) = 0.19249 0.30170
# Poissons Ratio (z) = 0.34057 0.30643
#
# Static dielectric constant tensor:
#      x y z
#    x 4.419810 0.064200 0.080550 
#    y 0.064200 4.267150 -0.001490 
#    z 0.080550 -0.001490 4.082470 
# 
# 
# High freq. dielectric constant tensor:
#      x y z
#    x 1.880530 -0.002290 0.011990 
#    y -0.002290 1.867100 -0.002170 
#    z 0.011990 -0.002170 1.875370 
# 
# From -- ./inp_files/71145.got.cif
#   From: 2010.06.25/outbox.cif.g09.slc.cpg/sg2_36_cif.got.tgz:71145.got - 2010.06.27 13:26:56.
