data_PCOD8035096
_publ_section_title
;
Structure prediction by ZEFSAII (Michael W. Deem and Ramdas Pophale) SiO2 
 PCOD8035096
Probable space group: P -1
;
_chemical_formula_sum "Si O2"
_cell_formula_units_Z 14
_cell_length_a 8.920946
_cell_length_b 19.944013
_cell_length_c 6.480714
_cell_angle_alpha 50.560971
_cell_angle_beta 128.200009
_cell_angle_gamma 130.644969
_cell_volume 633.142514
_symmetry_space_group_name_H-M "P -1"
_symmetry_group_IT_number 2
_symmetry_cell_setting 'triclinic'
loop_
_space_group_symop_operation_xyz
x,y,z
-x,-y,-z
loop_
_atom_site_type_symbol
_atom_site_label
_atom_site_fract_x
_atom_site_fract_y
_atom_site_fract_z
Si Si1 0.836299 0.702704 0.158082
Si Si2 0.915973 0.325943 0.223702
Si Si3 0.854452 0.103268 0.160317
Si Si4 0.121570 0.052616 0.801474
Si Si5 0.578784 0.193850 0.880163
Si Si6 0.157002 0.461199 0.800819
Si Si7 0.394337 0.659640 0.745795
O O1 0.806421 0.606500 0.201506
O O2 0.927326 0.709369 0.453237
O O3 0.610605 0.707182 0.966523
O O4 0.990938 0.792220 0.987330
O O5 0.802062 0.362969 0.225349
O O6 0.735664 0.240435 0.112837
O O7 0.064692 0.409423 0.038720
O O8 0.957355 0.082676 0.490373
O O9 0.814317 0.020560 0.124676
O O10 0.633419 0.108319 0.008240
O O11 0.337907 0.146643 0.847862
O O12 0.000000 0.000000 0.000000
O O13 0.609138 0.271521 0.576706
O O14 0.372182 0.557237 0.837480
O O15 0.000000 0.500000 0.500000
#
# Coordination Sequence:
#
# PCOD8035096 Si02
#       7
#     2   2   2   2   2   2   2
#     4  12  26  45  72 101 144 180 235 285 342 405
#     4  12  25  42  73 102 140 186 230 283 334 418
#     4  11  24  48  70 102 138 179 226 292 343 406
#     4  11  28  45  75 103 136 176 233 287 346 422
#     4  12  25  47  73 100 143 184 224 285 350 409
#     4  12  23  47  68 102 146 185 230 286 337 399
#     4  12  26  44  72 101 142 189 230 281 343 403
#
# _framework density 22.111927000000001
#
# number of rings (size 3 to 8) (size 9 to 14) (size 15 to 20)
#    0.000    0.286    7.143    1.286    4.000    2.286 
#    0.000    0.000    0.000    0.000    0.000    0.000 
#    0.000    0.000    0.000    0.000    0.000    0.000 
#
# Total GULP energy -173609.823679 kJ/mol
# GULP energy per Si atom -12400.701691 kJ/mol
# Density = 2.206160 g / cm^3
# Si number density = 22.111927 Si / 1000 Ang^3
#
#
#
# Elastic Constant Matrix: (Units=GPa)
#
#
# Indices 1 2 3 4 5 6 
#
# 1 53.1019 25.2625 82.4603 -2.5234 -3.6451 38.5587
# 2 25.2625 94.2935 60.6909 4.7802 -1.9210 5.1402
# 3 82.4603 60.6909 109.6346 9.4543 -27.4899 -41.2366
# 4 -2.5234 4.7802 9.4543 40.6692 3.2461 7.4258
# 5 -3.6451 -1.9210 -27.4899 3.2461 30.0113 -8.2720
# 6 38.5587 5.1402 -41.2366 7.4258 -8.2720 -5.2020
#
#
#
# Elastic Compliance Matrix: (Units=1/GPa)
#
#
# Indices 1 2 3 4 5 6 
#
# 1 0.007675 -0.004510 0.003224 -0.002494 0.007157 0.011938
# 2 -0.004510 0.013621 -0.003010 -0.001716 -0.001286 0.003490
# 3 0.003224 -0.003010 0.004188 0.001573 0.000764 -0.011249
# 4 -0.002494 -0.001716 0.001573 0.023846 -0.000813 0.002678
# 5 0.007157 -0.001286 0.000764 -0.000813 0.032801 -0.007601
# 6 0.011938 0.003490 -0.011249 0.002678 -0.007601 0.004785
#
#
# Mechanical properties :
#
#
# Convention : Reuss Voigt Hill
#
# Bulk Modulus (GPa) = 59.19939 65.98416 62.59177
# Shear Modulus (GPa) = 49.43698 19.00347 34.22023
#
# Velocity S-wave (km/s) = 4.73351 2.93477 3.93821
# Velocity P-wave (km/s) = 7.53031 6.43347 7.00340
#
# Compressibility (1/GPa) = 0.01689207
#
# Stress axis : x y z
#
# Youngs Moduli (GPa) = 130.29164 73.41364 238.77420
#
# Poissons Ratio (x) = 0.33107 -0.76974
# Poissons Ratio (y) = 0.58758 0.71877
# Poissons Ratio (z) = -0.42002 0.22099
#
# Static dielectric constant tensor:
#      x y z
#    x 4.024440 0.004660 0.171530 
#    y 0.004660 4.493090 0.014280 
#    z 0.171530 0.014280 4.169910 
# 
# 
# High freq. dielectric constant tensor:
#      x y z
#    x 1.867750 0.003010 0.008470 
#    y 0.003010 1.882850 0.000990 
#    z 0.008470 0.000990 1.885490 
# 
# From -- ./inp_files/38336.got.cif
#   From: 2010.06.25/outbox.cif.g09.slc.cpg/sg2_20_cif.got.tgz:38336.got - 2010.06.27 13:26:56.
