data_PCOD8035207
_publ_section_title
;
Structure prediction by ZEFSAII (Michael W. Deem and Ramdas Pophale) SiO2 
 PCOD8035207
Probable space group: P -1
;
_chemical_formula_sum "Si O2"
_cell_formula_units_Z 16
_cell_length_a 6.907867
_cell_length_b 9.329806
_cell_length_c 20.757592
_cell_angle_alpha 43.831774
_cell_angle_beta 124.902477
_cell_angle_gamma 124.530403
_cell_volume 731.343480
_symmetry_space_group_name_H-M "P -1"
_symmetry_group_IT_number 2
_symmetry_cell_setting 'triclinic'
loop_
_space_group_symop_operation_xyz
x,y,z
-x,-y,-z
loop_
_atom_site_type_symbol
_atom_site_label
_atom_site_fract_x
_atom_site_fract_y
_atom_site_fract_z
Si Si1 0.728039 0.266589 0.399173
Si Si2 0.880933 0.952489 0.865911
Si Si3 0.068346 0.643422 0.728858
Si Si4 0.503812 0.541293 0.911134
Si Si5 0.830550 0.977030 0.620878
Si Si6 0.878507 0.761549 0.298010
Si Si7 0.342284 0.740985 0.202948
Si Si8 0.309555 0.772219 0.041602
O O1 0.812006 0.251018 0.347935
O O2 0.841485 0.112697 0.513935
O O3 0.827768 0.506625 0.367345
O O4 0.435082 0.187700 0.368052
O O5 0.653240 0.785130 0.842192
O O6 0.775201 0.062590 0.869116
O O7 0.035748 0.133364 0.788945
O O8 0.039876 0.800995 0.972475
O O9 0.231423 0.514806 0.840566
O O10 0.809927 0.469954 0.719192
O O11 0.025445 0.837316 0.700441
O O12 0.630839 0.378280 0.953369
O O13 0.500000 0.500000 0.000000
O O14 0.906614 0.141326 0.641623
O O15 0.625918 0.811666 0.255700
O O16 0.326170 0.672851 0.146981
O O17 0.500000 0.000000 0.000000
#
# Coordination Sequence:
#
# PCOD8035207 Si02
#       8
#     2   2   2   2   2   2   2   2
#     4  11  24  50  68 106 138 181 235 289 356 415
#     4  12  25  43  67  96 142 182 236 286 343 413
#     4  12  24  45  71  98 143 184 228 286 353 410
#     4  12  27  44  69 106 141 182 235 291 341 417
#     4  11  26  43  77 100 139 184 231 294 351 419
#     4  12  24  44  71 103 139 180 235 286 355 414
#     4  12  24  43  68  99 137 190 229 285 345 414
#     4  12  24  43  67  95 138 186 230 283 344 405
#
# _framework density 21.877545000000001
#
# number of rings (size 3 to 8) (size 9 to 14) (size 15 to 20)
#    0.000    0.250    3.750    6.000    3.500    0.000 
#    0.000    0.625    0.000    0.000    0.000    0.000 
#    0.000    0.000    0.000    0.000    0.000    0.000 
#
# Total GULP energy -198478.295942 kJ/mol
# GULP energy per Si atom -12404.893496 kJ/mol
# Density = 2.182775 g / cm^3
# Si number density = 21.877545 Si / 1000 Ang^3
#
#
#
# Elastic Constant Matrix: (Units=GPa)
#
#
# Indices 1 2 3 4 5 6 
#
# 1 99.0825 34.7169 31.1057 -13.2960 1.6748 -11.7222
# 2 34.7169 125.9916 15.2673 -15.2744 -0.6141 -7.0298
# 3 31.1057 15.2673 75.0679 -0.1601 -7.0148 2.8290
# 4 -13.2960 -15.2744 -0.1601 36.9567 0.5838 -3.6482
# 5 1.6748 -0.6141 -7.0148 0.5838 39.6436 -4.1502
# 6 -11.7222 -7.0298 2.8290 -3.6482 -4.1502 37.5648
#
#
#
# Elastic Compliance Matrix: (Units=1/GPa)
#
#
# Indices 1 2 3 4 5 6 
#
# 1 0.013806 -0.002347 -0.005517 0.004444 -0.001181 0.004586
# 2 -0.002347 0.009143 -0.000915 0.003062 0.000177 0.001365
# 3 -0.005517 -0.000915 0.016165 -0.002639 0.002798 -0.003057
# 4 0.004444 0.003062 -0.002639 0.030419 -0.000526 0.005055
# 5 -0.001181 0.000177 0.002798 -0.000526 0.026019 0.002277
# 6 0.004586 0.001365 -0.003057 0.005055 0.002277 0.029280
#
#
# Mechanical properties :
#
#
# Convention : Reuss Voigt Hill
#
# Bulk Modulus (GPa) = 46.39360 51.36907 48.88133
# Shear Modulus (GPa) = 33.42820 37.43650 35.43235
#
# Velocity S-wave (km/s) = 3.91316 4.14113 4.02876
# Velocity P-wave (km/s) = 6.45517 6.81150 6.63573
#
# Compressibility (1/GPa) = 0.02155470
#
# Stress axis : x y z
#
# Youngs Moduli (GPa) = 72.43354 109.37481 61.86347
#
# Poissons Ratio (x) = 0.25667 0.34131
# Poissons Ratio (y) = 0.16998 0.05663
# Poissons Ratio (z) = 0.39962 0.10013
#
# Static dielectric constant tensor:
#      x y z
#    x 4.922780 0.052120 0.364860 
#    y 0.052120 4.053840 -0.034560 
#    z 0.364860 -0.034560 4.117690 
# 
# 
# High freq. dielectric constant tensor:
#      x y z
#    x 1.875910 0.007100 -0.000740 
#    y 0.007100 1.873210 -0.010200 
#    z -0.000740 -0.010200 1.851610 
# 
# From -- ./inp_files/38086.got.cif
#   From: 2010.06.25/outbox.cif.g09.slc.cpg/sg2_20_cif.got.tgz:38086.got - 2010.06.27 13:26:56.
