data_PCOD8035025
_publ_section_title
;
Structure prediction by ZEFSAII (Michael W. Deem and Ramdas Pophale) SiO2 
 PCOD8035025
Probable space group: P -1
;
_chemical_formula_sum "Si O2"
_cell_formula_units_Z 10
_cell_length_a 5.199774
_cell_length_b 9.156779
_cell_length_c 13.546598
_cell_angle_alpha 114.918928
_cell_angle_beta 126.759575
_cell_angle_gamma 48.825968
_cell_volume 388.558256
_symmetry_space_group_name_H-M "P -1"
_symmetry_group_IT_number 2
_symmetry_cell_setting 'triclinic'
loop_
_space_group_symop_operation_xyz
x,y,z
-x,-y,-z
loop_
_atom_site_type_symbol
_atom_site_label
_atom_site_fract_x
_atom_site_fract_y
_atom_site_fract_z
Si Si1 0.845092 0.720532 0.540423
Si Si2 0.508649 0.195025 0.304599
Si Si3 0.840125 0.033275 0.079722
Si Si4 0.812209 0.182444 0.721037
Si Si5 0.284866 0.428353 0.138536
O O1 0.480447 0.843293 0.418045
O O2 0.000000 0.500000 0.500000
O O3 0.181271 0.748167 0.594112
O O4 0.286135 0.217518 0.359595
O O5 0.201484 0.331692 0.185503
O O6 0.749464 0.967925 0.262194
O O7 0.699002 0.251283 0.141991
O O8 0.197759 0.880637 0.187428
O O9 0.500000 0.000000 0.000000
O O10 0.000000 0.000000 0.000000
O O11 0.692462 0.402542 0.759289
O O12 0.000000 0.500000 0.000000
#
# Coordination Sequence:
#
# PCOD8035025 Si02
#       5
#     2   2   2   2   2
#     4  12  25  48  74 105 141 183 236 290 351 414
#     4  11  27  48  71 106 142 183 234 291 348 417
#     4  11  26  47  68 102 142 182 232 285 343 413
#     4  11  25  46  75 103 142 189 229 292 351 414
#     4  11  24  47  73 106 141 188 235 286 348 419
#
# _framework density 25.736167999999999
#
# number of rings (size 3 to 8) (size 9 to 14) (size 15 to 20)
#    0.000    0.800    4.000    1.800    0.000   10.400 
#    0.000    0.000    0.000    0.000    0.000    0.000 
#    0.000    0.000    0.000    0.000    0.000    0.000 
#
# Total GULP energy -123935.112528 kJ/mol
# GULP energy per Si atom -12393.511253 kJ/mol
# Density = 2.567759 g / cm^3
# Si number density = 25.736168 Si / 1000 Ang^3
#
#
#
# Elastic Constant Matrix: (Units=GPa)
#
#
# Indices 1 2 3 4 5 6 
#
# 1 101.4535 18.7471 45.3905 9.7314 -15.5587 9.0367
# 2 18.7471 155.0697 19.9362 17.1437 -5.3738 -7.2948
# 3 45.3905 19.9362 183.6988 -28.4805 -16.6150 17.1830
# 4 9.7314 17.1437 -28.4805 64.6688 7.4137 -5.1842
# 5 -15.5587 -5.3738 -16.6150 7.4137 50.5074 13.6449
# 6 9.0367 -7.2948 17.1830 -5.1842 13.6449 19.1801
#
#
#
# Elastic Compliance Matrix: (Units=1/GPa)
#
#
# Indices 1 2 3 4 5 6 
#
# 1 0.013520 -0.001131 -0.002261 -0.004389 0.006876 -0.010852
# 2 -0.001131 0.007136 -0.001300 -0.001807 -0.001004 0.004637
# 3 -0.002261 -0.001300 0.007653 0.003041 0.003358 -0.007852
# 4 -0.004389 -0.001807 0.003041 0.019185 -0.005444 0.007715
# 5 0.006876 -0.001004 0.003358 -0.005444 0.032065 -0.030913
# 6 -0.010852 0.004637 -0.007852 0.007715 -0.030913 0.090125
#
#
# Mechanical properties :
#
#
# Convention : Reuss Voigt Hill
#
# Bulk Modulus (GPa) = 52.84065 67.59663 60.21864
# Shear Modulus (GPa) = 26.97238 50.61446 38.79342
#
# Velocity S-wave (km/s) = 3.24085 4.43952 3.88667
# Velocity P-wave (km/s) = 5.88051 7.25268 6.60234
#
# Compressibility (1/GPa) = 0.01892482
#
# Stress axis : x y z
#
# Youngs Moduli (GPa) = 73.96707 140.14187 130.66637
#
# Poissons Ratio (x) = 0.15846 0.29547
# Poissons Ratio (y) = 0.08364 0.16983
# Poissons Ratio (z) = 0.16726 0.18215
#
# Static dielectric constant tensor:
#      x y z
#    x 4.242740 -0.038070 -0.122050 
#    y -0.038070 5.209310 -0.132000 
#    z -0.122050 -0.132000 5.600600 
# 
# 
# High freq. dielectric constant tensor:
#      x y z
#    x 2.003170 0.002340 -0.011370 
#    y 0.002340 2.055150 0.001840 
#    z -0.011370 0.001840 2.063960 
# 
# From -- ./inp_files/478682.got.cif
#   From: 2010.06.25/outbox.cif.g09.slc.cpg/sg2_240_cif.got.tgz:478682.got - 2010.06.27 13:26:56.
