data_PCOD8035874
_publ_section_title
;
Structure prediction by ZEFSAII (Michael W. Deem and Ramdas Pophale) SiO2 
 PCOD8035874
Probable space group: P -1
;
_chemical_formula_sum "Si O2"
_cell_formula_units_Z 14
_cell_length_a 8.359886
_cell_length_b 4.946145
_cell_length_c 15.481077
_cell_angle_alpha 82.039688
_cell_angle_beta 66.014651
_cell_angle_gamma 62.454718
_cell_volume 517.589829
_symmetry_space_group_name_H-M "P -1"
_symmetry_group_IT_number 2
_symmetry_cell_setting 'triclinic'
loop_
_space_group_symop_operation_xyz
x,y,z
-x,-y,-z
loop_
_atom_site_type_symbol
_atom_site_label
_atom_site_fract_x
_atom_site_fract_y
_atom_site_fract_z
Si Si1 0.282984 0.669758 0.283581
Si Si2 0.221252 0.317508 0.990683
Si Si3 0.916106 0.747743 0.606160
Si Si4 0.774138 0.244185 0.893037
Si Si5 0.264022 0.126566 0.538423
Si Si6 0.183250 0.907865 0.738201
Si Si7 0.356361 0.258248 0.778178
O O1 0.224447 0.413986 0.339321
O O2 0.353828 0.611164 0.170710
O O3 0.459688 0.687400 0.296713
O O4 0.104077 0.013155 0.323434
O O5 0.358310 0.198657 0.882368
O O6 0.288245 0.530480 0.022032
O O7 0.000000 0.500000 0.000000
O O8 0.253210 0.043840 0.058556
O O9 0.826324 0.935413 0.528091
O O10 0.145074 0.496839 0.562003
O O11 0.992570 0.165248 0.815665
O O12 0.500000 0.000000 0.500000
O O13 0.195753 0.958188 0.632150
O O14 0.181258 0.585109 0.773058
O O15 0.357336 0.965808 0.742569
#
# Coordination Sequence:
#
# PCOD8035874 Si02
#       7
#     2   2   2   2   2   2   2
#     4  12  26  49  68 104 143 188 228 287 360 419
#     4  12  23  42  68 104 136 180 235 296 341 406
#     4  11  27  48  72 105 149 185 231 298 356 416
#     4  12  24  42  71  96 140 183 229 284 354 413
#     4  11  25  47  76 108 141 185 239 292 355 428
#     4  12  24  44  70 103 133 188 232 288 350 424
#     4  12  26  42  73 101 142 183 239 290 346 421
#
# _framework density 27.048449000000002
#
# number of rings (size 3 to 8) (size 9 to 14) (size 15 to 20)
#    0.000    0.286    4.286    4.714    2.000    4.571 
#    0.000    5.000    0.000    0.000    0.000    0.000 
#    0.000    0.000    0.000    0.000    0.000    0.000 
#
# Total GULP energy -173551.972190 kJ/mol
# GULP energy per Si atom -12396.569442 kJ/mol
# Density = 2.698689 g / cm^3
# Si number density = 27.048449 Si / 1000 Ang^3
#
#
#
# Elastic Constant Matrix: (Units=GPa)
#
#
# Indices 1 2 3 4 5 6 
#
# 1 80.0092 -8.1815 -0.4642 -7.0090 -9.9912 0.5978
# 2 -8.1815 60.1436 32.8999 -10.4394 8.2332 16.5354
# 3 -0.4642 32.8999 136.6821 -22.6420 3.2837 -0.2402
# 4 -7.0090 -10.4394 -22.6420 37.3500 -1.3223 6.5191
# 5 -9.9912 8.2332 3.2837 -1.3223 32.9243 1.1344
# 6 0.5978 16.5354 -0.2402 6.5191 1.1344 41.4782
#
#
#
# Elastic Compliance Matrix: (Units=1/GPa)
#
#
# Indices 1 2 3 4 5 6 
#
# 1 0.013554 0.002515 -0.000042 0.003680 0.003701 -0.001878
# 2 0.002515 0.024037 -0.004697 0.006024 -0.004176 -0.010478
# 3 -0.000042 -0.004697 0.009100 0.003984 0.000370 0.001290
# 4 0.003680 0.006024 0.003984 0.032923 0.000798 -0.007628
# 5 0.003701 -0.004176 0.000370 0.000798 0.032515 0.000599
# 6 -0.001878 -0.010478 0.001290 -0.007628 0.000599 0.029503
#
#
# Mechanical properties :
#
#
# Convention : Reuss Voigt Hill
#
# Bulk Modulus (GPa) = 23.67294 36.14924 29.91109
# Shear Modulus (GPa) = 31.21871 39.18921 35.20396
#
# Velocity S-wave (km/s) = 3.40100 3.81051 3.61157
# Velocity P-wave (km/s) = 4.91869 5.72308 5.33606
#
# Compressibility (1/GPa) = 0.04224233
#
# Stress axis : x y z
#
# Youngs Moduli (GPa) = 73.77866 41.60313 109.88900
#
# Poissons Ratio (x) = -0.10464 0.00462
# Poissons Ratio (y) = -0.18557 0.51619
# Poissons Ratio (z) = 0.00310 0.19543
#
# Static dielectric constant tensor:
#      x y z
#    x 5.208820 -0.159310 -0.021280 
#    y -0.159310 4.893300 0.173460 
#    z -0.021280 0.173460 5.181050 
# 
# 
# High freq. dielectric constant tensor:
#      x y z
#    x 2.103820 0.004610 -0.004410 
#    y 0.004610 2.082130 -0.003710 
#    z -0.004410 -0.003710 2.100050 
# 
# From -- ./inp_files/487753.got.cif
#   From: 2010.06.25/outbox.cif.g09.slc.cpg/sg2_244_cif.got.tgz:487753.got - 2010.06.27 13:26:56.
