data_PCOD8035171
_publ_section_title
;
Structure prediction by ZEFSAII (Michael W. Deem and Ramdas Pophale) SiO2 
 PCOD8035171
Probable space group: P -1
;
_chemical_formula_sum "Si O2"
_cell_formula_units_Z 14
_cell_length_a 14.242194
_cell_length_b 8.736137
_cell_length_c 17.461205
_cell_angle_alpha 68.461783
_cell_angle_beta 159.877061
_cell_angle_gamma 100.445090
_cell_volume 597.758592
_symmetry_space_group_name_H-M "P -1"
_symmetry_group_IT_number 2
_symmetry_cell_setting 'triclinic'
loop_
_space_group_symop_operation_xyz
x,y,z
-x,-y,-z
loop_
_atom_site_type_symbol
_atom_site_label
_atom_site_fract_x
_atom_site_fract_y
_atom_site_fract_z
Si Si1 0.221571 0.351700 0.902581
Si Si2 0.661627 0.190812 0.864304
Si Si3 0.715947 0.517709 0.916502
Si Si4 0.241430 0.794897 0.387734
Si Si5 0.961655 0.760018 0.574015
Si Si6 0.464671 0.322488 0.520992
Si Si7 0.676623 0.055855 0.183964
O O1 0.930227 0.332135 0.716783
O O2 0.104742 0.533702 0.723345
O O3 0.387068 0.391782 0.094303
O O4 0.453543 0.170955 0.063555
O O5 0.588296 0.375413 0.824260
O O6 0.389109 0.138902 0.678119
O O7 0.655021 0.223621 0.762282
O O8 0.992566 0.012952 0.180009
O O9 0.548617 0.697527 0.696745
O O10 0.095349 0.389540 0.226006
O O11 0.360236 0.815392 0.391347
O O12 0.183555 0.826767 0.775700
O O13 0.952554 0.849611 0.466360
O O14 0.500000 0.500000 0.500000
O O15 0.500000 0.000000 0.000000
#
# Coordination Sequence:
#
# PCOD8035171 Si02
#       7
#     2   2   2   2   2   2   2
#     4  12  25  47  74 105 143 188 236 294 354 431
#     4  12  26  46  72 106 149 190 241 295 355 420
#     4  12  25  44  75 101 149 196 234 295 351 428
#     4  12  26  44  72 108 146 195 243 288 355 416
#     4  11  24  49  69 108 140 183 236 296 354 427
#     4  12  23  47  70 104 152 191 244 295 343 420
#     4  11  28  47  76 104 141 180 237 300 361 431
#
# _framework density 23.420824
#
# number of rings (size 3 to 8) (size 9 to 14) (size 15 to 20)
#    0.000    0.286    7.143    1.286    2.000    5.714 
#    0.000    0.000    0.000    0.000    0.000    0.000 
#    0.000    0.000    0.000    0.000    0.000    0.000 
#
# Total GULP energy -173495.972077 kJ/mol
# GULP energy per Si atom -12392.569434 kJ/mol
# Density = 2.336752 g / cm^3
# Si number density = 23.420824 Si / 1000 Ang^3
#
#
#
# Elastic Constant Matrix: (Units=GPa)
#
#
# Indices 1 2 3 4 5 6 
#
# 1 105.0797 60.4293 28.6083 6.4806 -1.3362 -14.3463
# 2 60.4293 115.1123 51.4572 3.8977 -9.5000 -6.4420
# 3 28.6083 51.4572 107.2161 -1.6948 -11.5874 -8.3638
# 4 6.4806 3.8977 -1.6948 38.9301 13.8766 -4.1294
# 5 -1.3362 -9.5000 -11.5874 13.8766 37.0761 -0.9995
# 6 -14.3463 -6.4420 -8.3638 -4.1294 -0.9995 45.7294
#
#
#
# Elastic Compliance Matrix: (Units=1/GPa)
#
#
# Indices 1 2 3 4 5 6 
#
# 1 0.014235 -0.007255 -0.000177 -0.000961 -0.000952 0.003304
# 2 -0.007255 0.014966 -0.005090 -0.001538 0.002526 -0.001183
# 3 -0.000177 -0.005090 0.012203 0.000378 0.002404 0.001546
# 4 -0.000961 -0.001538 0.000378 0.030378 -0.011625 0.002040
# 5 -0.000952 0.002526 0.002404 -0.011625 0.032691 0.000161
# 6 0.003304 -0.001183 0.001546 0.002040 0.000161 0.023208
#
#
# Mechanical properties :
#
#
# Convention : Reuss Voigt Hill
#
# Bulk Modulus (GPa) = 61.12426 67.59975 64.36201
# Shear Modulus (GPa) = 31.60979 36.80800 34.20890
#
# Velocity S-wave (km/s) = 3.67774 3.96863 3.82595
# Velocity P-wave (km/s) = 6.64750 7.06582 6.85985
#
# Compressibility (1/GPa) = 0.01636012
#
# Stress axis : x y z
#
# Youngs Moduli (GPa) = 70.24844 66.81993 81.94376
#
# Poissons Ratio (x) = 0.48478 0.01448
# Poissons Ratio (y) = 0.50966 0.41712
# Poissons Ratio (z) = 0.01242 0.34013
#
# Static dielectric constant tensor:
#      x y z
#    x 23.921950 5.577210 10.675420 
#    y 5.577210 5.744590 3.025320 
#    z 10.675420 3.025320 10.090610 
# 
# 
# High freq. dielectric constant tensor:
#      x y z
#    x 1.917940 0.016380 -0.002220 
#    y 0.016380 1.930960 -0.002640 
#    z -0.002220 -0.002640 1.939300 
# 
# From -- ./inp_files/48400.got.cif
#   From: 2010.06.25/outbox.cif.g09.slc.cpg/sg2_25_cif.got.tgz:48400.got - 2010.06.27 13:26:56.
