data_PCOD8035168
_publ_section_title
;
Structure prediction by ZEFSAII (Michael W. Deem and Ramdas Pophale) SiO2 
 PCOD8035168
Probable space group: P -1
;
_chemical_formula_sum "Si O2"
_cell_formula_units_Z 16
_cell_length_a 12.146919
_cell_length_b 8.512517
_cell_length_c 11.338540
_cell_angle_alpha 46.160879
_cell_angle_beta 72.803895
_cell_angle_gamma 52.104144
_cell_volume 649.743375
_symmetry_space_group_name_H-M "P -1"
_symmetry_group_IT_number 2
_symmetry_cell_setting 'triclinic'
loop_
_space_group_symop_operation_xyz
x,y,z
-x,-y,-z
loop_
_atom_site_type_symbol
_atom_site_label
_atom_site_fract_x
_atom_site_fract_y
_atom_site_fract_z
Si Si1 0.766367 0.936041 0.444761
Si Si2 0.919295 0.252965 0.976413
Si Si3 0.647841 0.390848 0.068244
Si Si4 0.094955 0.471975 0.784123
Si Si5 0.356192 0.177101 0.024388
Si Si6 0.445992 0.793512 0.409541
Si Si7 0.241849 0.421570 0.532183
Si Si8 0.996536 0.996983 0.665879
O O1 0.706485 0.103452 0.254868
O O2 0.656293 0.102070 0.499093
O O3 0.793339 0.653285 0.544751
O O4 0.918452 0.874980 0.458847
O O5 0.751359 0.387433 0.938577
O O6 0.946553 0.179448 0.143163
O O7 0.961078 0.455453 0.832776
O O8 0.000000 0.000000 0.000000
O O9 0.500000 0.500000 0.000000
O O10 0.640143 0.571247 0.082162
O O11 0.179416 0.355507 0.695885
O O12 0.211061 0.278163 0.948299
O O13 0.025784 0.790384 0.659325
O O14 0.358630 0.019411 0.219394
O O15 0.500000 0.000000 0.000000
O O16 0.500000 0.500000 0.500000
O O17 0.587613 0.765096 0.414892
O O18 0.169342 0.745177 0.394850
#
# Coordination Sequence:
#
# PCOD8035168 Si02
#       8
#     2   2   2   2   2   2   2   2
#     4  11  24  49  68 106 147 185 249 295 371 434
#     4  11  26  44  71 105 144 189 243 298 362 432
#     4  11  25  46  72 103 144 188 242 298 362 431
#     4  12  24  48  74 107 145 188 256 296 363 436
#     4  12  25  45  76 104 142 194 241 302 359 430
#     4  12  27  45  71 108 145 190 246 301 366 435
#     4  12  26  45  73 104 147 193 236 306 366 434
#     4  11  25  47  70 104 144 192 239 303 362 435
#
# _framework density 24.625109999999999
#
# number of rings (size 3 to 8) (size 9 to 14) (size 15 to 20)
#    0.000    0.500    3.750    5.250    3.500    3.000 
#    0.000    0.000    0.000    0.000    0.000    0.000 
#    0.000    0.000    0.000    0.000    0.000    0.000 
#
# Total GULP energy -198395.030717 kJ/mol
# GULP energy per Si atom -12399.689420 kJ/mol
# Density = 2.456906 g / cm^3
# Si number density = 24.625110 Si / 1000 Ang^3
#
#
#
# Elastic Constant Matrix: (Units=GPa)
#
#
# Indices 1 2 3 4 5 6 
#
# 1 135.1927 40.9463 21.4430 5.3592 -6.6007 -8.2782
# 2 40.9463 167.4831 5.7711 7.3761 -11.1573 13.7098
# 3 21.4430 5.7711 54.6023 -1.5424 -9.9631 0.0527
# 4 5.3592 7.3761 -1.5424 39.6747 -5.5996 -0.2329
# 5 -6.6007 -11.1573 -9.9631 -5.5996 40.3101 -1.2118
# 6 -8.2782 13.7098 0.0527 -0.2329 -1.2118 47.1865
#
#
#
# Elastic Compliance Matrix: (Units=1/GPa)
#
#
# Indices 1 2 3 4 5 6 
#
# 1 0.008731 -0.002162 -0.003232 -0.000894 -0.000027 0.002158
# 2 -0.002162 0.006807 0.000374 -0.000768 0.001446 -0.002324
# 3 -0.003232 0.000374 0.020487 0.001849 0.004878 -0.000564
# 4 -0.000894 -0.000768 0.001849 0.026068 0.003728 0.000289
# 5 -0.000027 0.001446 0.004878 0.003728 0.026935 0.000280
# 6 0.002158 -0.002324 -0.000564 0.000289 0.000280 0.022256
#
#
# Mechanical properties :
#
#
# Convention : Reuss Voigt Hill
#
# Bulk Modulus (GPa) = 38.48626 54.84434 46.66530
# Shear Modulus (GPa) = 38.46570 44.70876 41.58723
#
# Velocity S-wave (km/s) = 3.95657 4.26558 4.11398
# Velocity P-wave (km/s) = 6.04445 6.82498 6.44654
#
# Compressibility (1/GPa) = 0.02598330
#
# Stress axis : x y z
#
# Youngs Moduli (GPa) = 114.53823 146.90993 48.81177
#
# Poissons Ratio (x) = 0.31765 0.15778
# Poissons Ratio (y) = 0.24766 -0.01826
# Poissons Ratio (z) = 0.37023 -0.05495
#
# Static dielectric constant tensor:
#      x y z
#    x 4.618700 -0.067860 0.024730 
#    y -0.067860 4.625380 -0.041160 
#    z 0.024730 -0.041160 4.501060 
# 
# 
# High freq. dielectric constant tensor:
#      x y z
#    x 1.987190 -0.001600 0.004400 
#    y -0.001600 2.003190 -0.001160 
#    z 0.004400 -0.001160 1.982230 
# 
# From -- ./inp_files/418886.got.cif
#   From: 2010.06.25/outbox.cif.g09.slc.cpg/sg2_210_cif.got.tgz:418886.got - 2010.06.27 13:26:56.
