data_PCOD8035241
_publ_section_title
;
Structure prediction by ZEFSAII (Michael W. Deem and Ramdas Pophale) SiO2 
 PCOD8035241
Probable space group: P -1
;
_chemical_formula_sum "Si O2"
_cell_formula_units_Z 16
_cell_length_a 17.359233
_cell_length_b 29.276440
_cell_length_c 24.326903
_cell_angle_alpha 169.757424
_cell_angle_beta 20.052623
_cell_angle_gamma 161.146276
_cell_volume 703.303764
_symmetry_space_group_name_H-M "P -1"
_symmetry_group_IT_number 2
_symmetry_cell_setting 'triclinic'
loop_
_space_group_symop_operation_xyz
x,y,z
-x,-y,-z
loop_
_atom_site_type_symbol
_atom_site_label
_atom_site_fract_x
_atom_site_fract_y
_atom_site_fract_z
Si Si1 0.103281 0.749579 0.321995
Si Si2 0.537898 0.297211 0.573498
Si Si3 0.300333 0.121499 0.298147
Si Si4 0.010125 0.196886 0.775916
Si Si5 0.431317 0.093761 0.599290
Si Si6 0.423827 0.701994 0.955530
Si Si7 0.774099 0.476643 0.741792
Si Si8 0.183118 0.314125 0.245275
O O1 0.929113 0.931002 0.651329
O O2 0.325480 0.864710 0.352187
O O3 0.946707 0.448671 0.092527
O O4 0.190718 0.718013 0.163611
O O5 0.271095 0.303598 0.756341
O O6 0.609697 0.308889 0.603007
O O7 0.728831 0.561522 0.727288
O O8 0.541271 0.998487 0.196783
O O9 0.384645 0.452285 0.643594
O O10 0.208432 0.958840 0.222647
O O11 0.500000 0.000000 0.000000
O O12 0.000000 0.000000 0.500000
O O13 0.670766 0.324112 0.687626
O O14 0.500000 0.000000 0.500000
O O15 0.224883 0.216544 0.895285
O O16 0.584277 0.646602 0.829760
O O17 0.048886 0.503776 0.585198
O O18 0.000000 0.000000 0.000000
#
# Coordination Sequence:
#
# PCOD8035241 Si02
#       8
#     2   2   2   2   2   2   2   2
#     4  12  23  47  75 102 139 196 249 290 360 447
#     4  12  23  43  74 106 137 194 246 294 356 440
#     4  12  28  48  74 111 149 182 242 318 370 420
#     4  12  23  43  77 104 140 192 249 294 359 444
#     4  11  25  44  69 100 147 197 237 291 367 431
#     4  12  24  45  75 104 141 194 247 294 362 445
#     4  11  25  41  65 103 145 183 243 295 359 427
#     4  12  25  42  70 107 147 183 241 304 358 426
#
# _framework density 22.749772
#
# number of rings (size 3 to 8) (size 9 to 14) (size 15 to 20)
#    0.000    0.250    6.250    2.250    3.500    1.500 
#    2.250    0.000    0.000    0.000    0.000    0.000 
#    0.000    0.000    0.000    0.000    0.000    0.000 
#
# Total GULP energy -198298.219894 kJ/mol
# GULP energy per Si atom -12393.638743 kJ/mol
# Density = 2.269799 g / cm^3
# Si number density = 22.749772 Si / 1000 Ang^3
#
#
#
# Elastic Constant Matrix: (Units=GPa)
#
#
# Indices 1 2 3 4 5 6 
#
# 1 103.0452 34.7094 32.7016 -3.0461 -16.0530 -17.1377
# 2 34.7094 97.1052 49.4707 -4.9147 -12.5395 -26.8928
# 3 32.7016 49.4707 125.6049 -12.0081 -10.7309 -10.0226
# 4 -3.0461 -4.9147 -12.0081 51.2758 4.0510 -9.7103
# 5 -16.0530 -12.5395 -10.7309 4.0510 37.5169 3.1085
# 6 -17.1377 -26.8928 -10.0226 -9.7103 3.1085 34.6275
#
#
#
# Elastic Compliance Matrix: (Units=1/GPa)
#
#
# Indices 1 2 3 4 5 6 
#
# 1 0.012121 -0.001868 -0.001741 0.000576 0.003681 0.003876
# 2 -0.001868 0.017005 -0.004889 0.002336 0.002296 0.011316
# 3 -0.001741 -0.004889 0.010440 0.001596 0.000537 -0.001238
# 4 0.000576 0.002336 0.001596 0.021940 -0.001619 0.008859
# 5 0.003681 0.002296 0.000537 -0.001619 0.029269 0.000679
# 6 0.003876 0.011316 -0.001238 0.008859 0.000679 0.041650
#
#
# Mechanical properties :
#
#
# Convention : Reuss Voigt Hill
#
# Bulk Modulus (GPa) = 44.30562 62.16875 53.23719
# Shear Modulus (GPa) = 31.85825 38.60895 35.23360
#
# Velocity S-wave (km/s) = 3.74622 4.12407 3.93968
# Velocity P-wave (km/s) = 6.18302 7.07558 6.64430
#
# Compressibility (1/GPa) = 0.02257050
#
# Stress axis : x y z
#
# Youngs Moduli (GPa) = 82.49987 58.80618 95.78424
#
# Poissons Ratio (x) = 0.10983 0.16680
# Poissons Ratio (y) = 0.15408 0.46828
# Poissons Ratio (z) = 0.14366 0.28750
#
# Static dielectric constant tensor:
#      x y z
#    x 4.283700 0.110480 -0.350410 
#    y 0.110480 4.142080 -0.035510 
#    z -0.350410 -0.035510 4.542800 
# 
# 
# High freq. dielectric constant tensor:
#      x y z
#    x 1.904570 0.000090 -0.024240 
#    y 0.000090 1.886550 0.009440 
#    z -0.024240 0.009440 1.903910 
# 
# From -- ./inp_files/613352.got.cif
#   From: 2010.06.25/outbox.cif.g09.slc.cpg/sg2_307_cif.got.tgz:613352.got - 2010.06.27 13:26:56.
