data_PCOD8035617
_publ_section_title
;
Structure prediction by ZEFSAII (Michael W. Deem and Ramdas Pophale) SiO2 
 PCOD8035617
Probable space group: P -1
;
_chemical_formula_sum "Si O2"
_cell_formula_units_Z 16
_cell_length_a 11.668978
_cell_length_b 17.299175
_cell_length_c 9.458511
_cell_angle_alpha 54.346894
_cell_angle_beta 52.108799
_cell_angle_gamma 30.654086
_cell_volume 761.159529
_symmetry_space_group_name_H-M "P -1"
_symmetry_group_IT_number 2
_symmetry_cell_setting 'triclinic'
loop_
_space_group_symop_operation_xyz
x,y,z
-x,-y,-z
loop_
_atom_site_type_symbol
_atom_site_label
_atom_site_fract_x
_atom_site_fract_y
_atom_site_fract_z
Si Si1 0.901116 0.902078 0.599797
Si Si2 0.232274 0.411104 0.775151
Si Si3 0.036244 0.635495 0.920465
Si Si4 0.746877 0.129041 0.700794
Si Si5 0.217763 0.630363 0.077776
Si Si6 0.022728 0.394815 0.509142
Si Si7 0.549883 0.076599 0.429321
Si Si8 0.881498 0.974620 0.042924
O O1 0.948619 0.769666 0.751556
O O2 0.117606 0.839685 0.420011
O O3 0.873142 0.984561 0.666588
O O4 0.676137 0.018735 0.546184
O O5 0.214869 0.478238 0.863712
O O6 0.497113 0.281046 0.660786
O O7 0.069668 0.548207 0.640375
O O8 0.175593 0.327486 0.921221
O O9 0.156880 0.611203 0.996760
O O10 0.721187 0.094202 0.909728
O O11 0.121916 0.615736 0.295646
O O12 0.079548 0.800407 0.019801
O O13 0.500000 0.500000 0.000000
O O14 0.300394 0.251027 0.447634
O O15 0.000000 0.500000 0.500000
O O16 0.500000 0.000000 0.500000
O O17 0.706281 0.030014 0.233218
O O18 0.000000 0.000000 0.000000
#
# Coordination Sequence:
#
# PCOD8035617 Si02
#       8
#     2   2   2   2   2   2   2   2
#     4  11  25  46  69 102 140 184 236 289 354 416
#     4  11  27  44  72 104 141 187 232 291 349 423
#     4  11  26  47  67 105 140 181 238 284 358 416
#     4  11  26  45  72 101 141 186 234 291 353 417
#     4  12  29  48  73 105 146 189 235 298 358 426
#     4  12  26  47  72 106 144 191 238 288 360 417
#     4  12  26  45  73 102 144 187 241 295 345 428
#     4  12  27  47  71 107 142 188 243 291 357 418
#
# _framework density 21.020562000000002
#
# number of rings (size 3 to 8) (size 9 to 14) (size 15 to 20)
#    0.000    0.500    5.000    1.500   10.500    1.000 
#    0.000    0.000    0.000    0.000    0.000    0.000 
#    0.000    0.000    0.000    0.000    0.000    0.000 
#
# Total GULP energy -198281.742138 kJ/mol
# GULP energy per Si atom -12392.608884 kJ/mol
# Density = 2.097272 g / cm^3
# Si number density = 21.020562 Si / 1000 Ang^3
#
#
#
# Elastic Constant Matrix: (Units=GPa)
#
#
# Indices 1 2 3 4 5 6 
#
# 1 143.2184 59.7449 54.3729 -5.1642 -10.2839 7.9166
# 2 59.7449 136.1874 47.0222 2.3215 -14.7082 -12.4898
# 3 54.3729 47.0222 133.7150 -7.5149 -6.7646 -8.0722
# 4 -5.1642 2.3215 -7.5149 36.5217 -3.2959 -0.3284
# 5 -10.2839 -14.7082 -6.7646 -3.2959 35.2438 5.5012
# 6 7.9166 -12.4898 -8.0722 -0.3284 5.5012 38.7708
#
#
#
# Elastic Compliance Matrix: (Units=1/GPa)
#
#
# Indices 1 2 3 4 5 6 
#
# 1 0.009948 -0.003585 -0.002881 0.001149 0.001586 -0.004001
# 2 -0.003585 0.010119 -0.001866 -0.001307 0.002184 0.003282
# 3 -0.002881 -0.001866 0.009524 0.001694 0.000059 0.001976
# 4 0.001149 -0.001307 0.001694 0.028226 0.002827 -0.000465
# 5 0.001586 0.002184 0.000059 0.002827 0.030637 -0.003931
# 6 -0.004001 0.003282 0.001976 -0.000465 -0.003931 0.028632
#
#
# Mechanical properties :
#
#
# Convention : Reuss Voigt Hill
#
# Bulk Modulus (GPa) = 77.35494 81.71120 79.53307
# Shear Modulus (GPa) = 36.21657 38.90598 37.56127
#
# Velocity S-wave (km/s) = 4.15530 4.30682 4.23174
# Velocity P-wave (km/s) = 7.73961 7.98048 7.86097
#
# Compressibility (1/GPa) = 0.01292742
#
# Stress axis : x y z
#
# Youngs Moduli (GPa) = 100.52181 98.82698 105.00026
#
# Poissons Ratio (x) = 0.35425 0.30255
# Poissons Ratio (y) = 0.36033 0.19588
# Poissons Ratio (z) = 0.28965 0.18437
#
# Static dielectric constant tensor:
#      x y z
#    x 3.985680 0.160090 -0.014940 
#    y 0.160090 3.690980 -0.050970 
#    z -0.014940 -0.050970 3.575280 
# 
# 
# High freq. dielectric constant tensor:
#      x y z
#    x 1.845960 0.005840 -0.000500 
#    y 0.005840 1.827420 0.002060 
#    z -0.000500 0.002060 1.840190 
# 
# From -- ./inp_files/207711.got.cif
#   From: 2010.06.25/outbox.cif.g09.slc.cpg/sg2_104_cif.got.tgz:207711.got - 2010.06.27 13:26:56.
