data_PCOD8035872
_publ_section_title
;
Structure prediction by ZEFSAII (Michael W. Deem and Ramdas Pophale) SiO2 
 PCOD8035872
Probable space group: P -1
;
_chemical_formula_sum "Si O2"
_cell_formula_units_Z 16
_cell_length_a 26.866755
_cell_length_b 13.223567
_cell_length_c 7.778899
_cell_angle_alpha 111.702133
_cell_angle_beta 56.241134
_cell_angle_gamma 157.925344
_cell_volume 764.608940
_symmetry_space_group_name_H-M "P -1"
_symmetry_group_IT_number 2
_symmetry_cell_setting 'triclinic'
loop_
_space_group_symop_operation_xyz
x,y,z
-x,-y,-z
loop_
_atom_site_type_symbol
_atom_site_label
_atom_site_fract_x
_atom_site_fract_y
_atom_site_fract_z
Si Si1 0.316166 0.388886 0.155920
Si Si2 0.690145 0.381861 0.729713
Si Si3 0.651110 0.758112 0.243632
Si Si4 0.993752 0.830945 0.634034
Si Si5 0.132680 0.987271 0.779339
Si Si6 0.111935 0.258853 0.779731
Si Si7 0.474361 0.651899 0.385934
Si Si8 0.555085 0.163126 0.337773
O O1 0.343580 0.550553 0.103179
O O2 0.434659 0.592237 0.222995
O O3 0.121754 0.042610 0.362464
O O4 0.368827 0.379648 0.928253
O O5 0.786924 0.558348 0.475464
O O6 0.805508 0.513504 0.726926
O O7 0.520517 0.021722 0.805903
O O8 0.500000 0.500000 0.500000
O O9 0.824075 0.045131 0.205102
O O10 0.633076 0.839628 0.222203
O O11 0.025204 0.784714 0.681881
O O12 0.033043 0.004483 0.784593
O O13 0.311310 0.338811 0.605492
O O14 0.032385 0.896768 0.041588
O O15 0.242195 0.491594 0.836671
O O16 0.526566 0.856747 0.491705
O O17 0.500000 0.000000 0.500000
#
# Coordination Sequence:
#
# PCOD8035872 Si02
#       8
#     2   2   2   2   2   2   2   2
#     4  10  17  33  54  81 107 136 183 225 266 311
#     4  10  19  31  54  84 113 140 173 216 273 326
#     4  10  21  33  53  80 108 140 182 229 265 306
#     4  10  18  29  52  81 109 139 177 224 263 313
#     4  10  19  32  52  78 108 141 179 222 262 309
#     4  10  17  31  56  77 111 141 174 221 273 314
#     4  10  19  34  55  82 107 143 180 221 263 318
#     4  10  18  34  54  81 114 142 172 214 274 326
#
# _framework density 20.925732
#
# number of rings (size 3 to 8) (size 9 to 14) (size 15 to 20)
#    0.000    2.000    5.000    3.750    0.000    0.000 
#    0.000    0.625    0.000    7.500    0.000    0.000 
#    0.000    0.000    0.000    0.000    0.000    0.000 
#
# Total GULP energy -198256.972331 kJ/mol
# GULP energy per Si atom -12391.060771 kJ/mol
# Density = 2.087810 g / cm^3
# Si number density = 20.925732 Si / 1000 Ang^3
#
#
#
# Elastic Constant Matrix: (Units=GPa)
#
#
# Indices 1 2 3 4 5 6 
#
# 1 131.6312 49.3565 22.2560 4.2854 -40.8051 32.6645
# 2 49.3565 102.5273 22.9480 5.5937 -11.4731 26.1945
# 3 22.2560 22.9480 74.5755 13.0588 -29.0450 3.1549
# 4 4.2854 5.5937 13.0588 23.5105 2.4434 -4.9260
# 5 -40.8051 -11.4731 -29.0450 2.4434 33.0712 -1.2478
# 6 32.6645 26.1945 3.1549 -4.9260 -1.2478 35.4551
#
#
#
# Elastic Compliance Matrix: (Units=1/GPa)
#
#
# Indices 1 2 3 4 5 6 
#
# 1 0.030760 -0.004213 0.019166 -0.026912 0.054227 -0.028763
# 2 -0.004213 0.013931 -0.004216 -0.001093 -0.004226 -0.006337
# 3 0.019166 -0.004216 0.038194 -0.034002 0.057463 -0.020643
# 4 -0.026912 -0.001093 -0.034002 0.081529 -0.068054 0.037560
# 5 0.054227 -0.004226 0.057463 -0.068054 0.149057 -0.056160
# 6 -0.028763 -0.006337 -0.020643 0.037560 -0.056160 0.064464
#
#
# Mechanical properties :
#
#
# Convention : Reuss Voigt Hill
#
# Bulk Modulus (GPa) = 9.58222 55.31721 32.44971
# Shear Modulus (GPa) = 12.77968 32.68559 22.73264
#
# Velocity S-wave (km/s) = 2.47395 3.95648 3.29956
# Velocity P-wave (km/s) = 3.57067 6.88215 5.48241
#
# Compressibility (1/GPa) = 0.10435999
#
# Stress axis : x y z
#
# Youngs Moduli (GPa) = 32.50981 71.78365 26.18191
#
# Poissons Ratio (x) = 0.30239 -0.50180
# Poissons Ratio (y) = 0.13695 0.11038
# Poissons Ratio (z) = -0.62308 0.30262
#
# Static dielectric constant tensor:
#      x y z
#    x 4.789580 0.564870 -0.335880 
#    y 0.564870 4.331020 0.033260 
#    z -0.335880 0.033260 3.978460 
# 
# 
# High freq. dielectric constant tensor:
#      x y z
#    x 1.825560 0.038500 0.004610 
#    y 0.038500 1.783070 0.004210 
#    z 0.004610 0.004210 1.821810 
# 
# From -- ./inp_files/176743.got.cif
#   From: 2010.06.25/outbox.cif.g09.slc.cpg/sg2_89_cif.got.tgz:176743.got - 2010.06.27 13:26:56.
