data_PCOD8035263
_publ_section_title
;
Structure prediction by ZEFSAII (Michael W. Deem and Ramdas Pophale) SiO2 
 PCOD8035263
Probable space group: P -1
;
_chemical_formula_sum "Si O2"
_cell_formula_units_Z 16
_cell_length_a 13.738123
_cell_length_b 6.554713
_cell_length_c 10.921666
_cell_angle_alpha 109.694875
_cell_angle_beta 50.876870
_cell_angle_gamma 89.839605
_cell_volume 686.387252
_symmetry_space_group_name_H-M "P -1"
_symmetry_group_IT_number 2
_symmetry_cell_setting 'triclinic'
loop_
_space_group_symop_operation_xyz
x,y,z
-x,-y,-z
loop_
_atom_site_type_symbol
_atom_site_label
_atom_site_fract_x
_atom_site_fract_y
_atom_site_fract_z
Si Si1 0.489594 0.925551 0.297002
Si Si2 0.264840 0.904804 0.296969
Si Si3 0.873965 0.469870 0.666508
Si Si4 0.870163 0.375511 0.174830
Si Si5 0.277336 0.061376 0.057093
Si Si6 0.066296 0.261333 0.658395
Si Si7 0.588373 0.635630 0.395579
Si Si8 0.988958 0.975528 0.833010
O O1 0.396216 0.842609 0.261813
O O2 0.547765 0.722100 0.306967
O O3 0.408461 0.150551 0.479906
O O4 0.600128 0.991127 0.142402
O O5 0.181297 0.736349 0.368972
O O6 0.300697 0.887204 0.119184
O O7 0.180328 0.167371 0.446991
O O8 0.749001 0.691140 0.811673
O O9 0.000000 0.500000 0.500000
O O10 0.931430 0.427480 0.749115
O O11 0.894201 0.615378 0.231033
O O12 0.727253 0.440090 0.241030
O O13 0.892099 0.239430 0.259203
O O14 0.975548 0.202057 0.970296
O O15 0.151652 0.066962 0.074789
O O16 0.037908 0.028721 0.673837
O O17 0.500000 0.500000 0.500000
#
# Coordination Sequence:
#
# PCOD8035263 Si02
#       8
#     2   2   2   2   2   2   2   2
#     4  11  28  47  72 105 141 194 248 290 348 427
#     4  12  26  46  72 102 149 191 238 293 352 430
#     4  12  25  42  69 107 140 185 232 290 362 424
#     4  11  25  43  71 104 140 182 232 300 362 422
#     4  12  25  46  70 104 150 185 239 293 354 431
#     4  12  23  42  71 101 141 180 234 291 361 421
#     4  11  26  48  73 102 144 191 240 299 352 421
#     4  11  25  42  70 109 140 181 231 297 363 428
#
# _framework density 23.310458000000001
#
# number of rings (size 3 to 8) (size 9 to 14) (size 15 to 20)
#    0.000    0.500    5.000    2.625    3.500    4.500 
#    0.000    0.000    0.000    0.000    0.000    0.000 
#    0.000    0.000    0.000    0.000    0.000    0.000 
#
# Total GULP energy -198252.165132 kJ/mol
# GULP energy per Si atom -12390.760321 kJ/mol
# Density = 2.325740 g / cm^3
# Si number density = 23.310458 Si / 1000 Ang^3
#
#
#
# Elastic Constant Matrix: (Units=GPa)
#
#
# Indices 1 2 3 4 5 6 
#
# 1 129.6503 46.7780 26.0626 -12.2727 -5.4638 -19.0983
# 2 46.7780 118.7427 38.6848 -20.4454 -6.1887 -12.1622
# 3 26.0626 38.6848 77.0592 0.0244 -4.6104 -3.0277
# 4 -12.2727 -20.4454 0.0244 40.2073 -2.0342 2.5298
# 5 -5.4638 -6.1887 -4.6104 -2.0342 31.7729 6.9888
# 6 -19.0983 -12.1622 -3.0277 2.5298 6.9888 39.9434
#
#
#
# Elastic Compliance Matrix: (Units=1/GPa)
#
#
# Indices 1 2 3 4 5 6 
#
# 1 0.009687 -0.002603 -0.001818 0.001419 0.000199 0.003577
# 2 -0.002603 0.012280 -0.005153 0.005416 0.001202 0.001550
# 3 -0.001818 -0.005153 0.016198 -0.003053 0.001105 -0.001210
# 4 0.001419 0.005416 -0.003053 0.028207 0.002698 -0.000162
# 5 0.000199 0.001202 0.001105 0.002698 0.033273 -0.005447
# 6 0.003577 0.001550 -0.001210 -0.000162 -0.005447 0.028089
#
#
# Mechanical properties :
#
#
# Convention : Reuss Voigt Hill
#
# Bulk Modulus (GPa) = 52.58224 60.94479 56.76352
# Shear Modulus (GPa) = 32.63249 36.64651 34.63950
#
# Velocity S-wave (km/s) = 3.74559 3.96928 3.85906
# Velocity P-wave (km/s) = 6.42746 6.87084 6.65285
#
# Compressibility (1/GPa) = 0.01901783
#
# Stress axis : x y z
#
# Youngs Moduli (GPa) = 103.22887 81.43420 61.73498
#
# Poissons Ratio (x) = 0.21197 0.11221
# Poissons Ratio (y) = 0.26870 0.31813
# Poissons Ratio (z) = 0.18763 0.41964
#
# Static dielectric constant tensor:
#      x y z
#    x 4.157590 -0.165690 0.053260 
#    y -0.165690 4.499900 -0.042290 
#    z 0.053260 -0.042290 4.153400 
# 
# 
# High freq. dielectric constant tensor:
#      x y z
#    x 1.922050 -0.006350 0.010040 
#    y -0.006350 1.933700 0.001260 
#    z 0.010040 0.001260 1.914980 
# 
# From -- ./inp_files/442149.got.cif
#   From: 2010.06.25/outbox.cif.g09.slc.cpg/sg2_222_cif.got.tgz:442149.got - 2010.06.27 13:26:56.
