data_PCOD8035912
_publ_section_title
;
Structure prediction by ZEFSAII (Michael W. Deem and Ramdas Pophale) SiO2 
 PCOD8035912
Probable space group: P -1
;
_chemical_formula_sum "Si O2"
_cell_formula_units_Z 12
_cell_length_a 11.905799
_cell_length_b 11.456407
_cell_length_c 11.485264
_cell_angle_alpha 33.373003
_cell_angle_beta 138.908572
_cell_angle_gamma 141.309209
_cell_volume 514.528647
_symmetry_space_group_name_H-M "P -1"
_symmetry_group_IT_number 2
_symmetry_cell_setting 'triclinic'
loop_
_space_group_symop_operation_xyz
x,y,z
-x,-y,-z
loop_
_atom_site_type_symbol
_atom_site_label
_atom_site_fract_x
_atom_site_fract_y
_atom_site_fract_z
Si Si1 0.416796 0.619579 0.547032
Si Si2 0.964936 0.987297 0.847157
Si Si3 0.837298 0.840802 0.355657
Si Si4 0.692491 0.473463 0.017712
Si Si5 0.748789 0.049861 0.324873
Si Si6 0.308515 0.778926 0.544774
O O1 0.290139 0.438884 0.499357
O O2 0.573245 0.854444 0.418538
O O3 0.270528 0.667584 0.478159
O O4 0.509873 0.489906 0.809506
O O5 0.852380 0.146112 0.600071
O O6 0.862447 0.726240 0.937713
O O7 0.157289 0.094168 0.832142
O O8 0.000000 0.000000 0.000000
O O9 0.740742 0.973627 0.247027
O O10 0.053953 0.924725 0.490386
O O11 0.662890 0.390507 0.197225
O O12 0.737671 0.297251 0.116596
O O13 0.500000 0.000000 0.500000
#
# Coordination Sequence:
#
# PCOD8035912 Si02
#       6
#     2   2   2   2   2   2
#     4  12  25  44  72 102 136 184 230 279 343 406
#     4  12  27  44  68 107 135 178 234 276 346 410
#     4  11  25  48  70  98 140 184 226 287 339 400
#     4  12  23  44  69 100 143 180 225 284 340 408
#     4  11  25  49  68  99 142 179 233 284 335 405
#     4  12  23  43  67 100 143 176 221 288 339 400
#
# _framework density 23.322315
#
# number of rings (size 3 to 8) (size 9 to 14) (size 15 to 20)
#    0.000    0.333    6.667    2.000    4.667    2.667 
#    0.000    0.000    0.000    0.000    0.000    0.000 
#    0.000    0.000    0.000    0.000    0.000    0.000 
#
# Total GULP energy -148767.085795 kJ/mol
# GULP energy per Si atom -12397.257150 kJ/mol
# Density = 2.326923 g / cm^3
# Si number density = 23.322315 Si / 1000 Ang^3
#
#
#
# Elastic Constant Matrix: (Units=GPa)
#
#
# Indices 1 2 3 4 5 6 
#
# 1 172.7999 47.2414 42.5162 -18.1761 4.7011 -31.8499
# 2 47.2414 130.7783 15.9586 -30.6615 8.6401 -15.8036
# 3 42.5162 15.9586 81.6674 -23.4900 -2.5324 -0.9336
# 4 -18.1761 -30.6615 -23.4900 29.1684 -14.6396 4.6005
# 5 4.7011 8.6401 -2.5324 -14.6396 25.5555 -8.7755
# 6 -31.8499 -15.8036 -0.9336 4.6005 -8.7755 44.6792
#
#
#
# Elastic Compliance Matrix: (Units=1/GPa)
#
#
# Indices 1 2 3 4 5 6 
#
# 1 0.008211 -0.002180 -0.004257 -0.001584 -0.000356 0.005086
# 2 -0.002180 0.012007 0.004420 0.018587 0.008286 0.002499
# 3 -0.004257 0.004420 0.022626 0.029442 0.018243 -0.000447
# 4 -0.001584 0.018587 0.029442 0.105410 0.059689 0.006930
# 5 -0.000356 0.008286 0.018243 0.059689 0.076494 0.011936
# 6 0.005086 0.002499 -0.000447 0.006930 0.011936 0.028513
#
#
# Mechanical properties :
#
#
# Convention : Reuss Voigt Hill
#
# Bulk Modulus (GPa) = 25.76609 66.29756 46.03183
# Shear Modulus (GPa) = 18.50257 38.51594 28.50925
#
# Velocity S-wave (km/s) = 2.81969 4.06823 3.50008
# Velocity P-wave (km/s) = 4.65539 7.11025 6.00951
#
# Compressibility (1/GPa) = 0.03881070
#
# Stress axis : x y z
#
# Youngs Moduli (GPa) = 121.78750 83.28461 44.19627
#
# Poissons Ratio (x) = 0.18155 0.18816
# Poissons Ratio (y) = 0.26548 -0.19536
# Poissons Ratio (z) = 0.51849 -0.36814
#
# Static dielectric constant tensor:
#      x y z
#    x 6.259120 -0.379040 -0.507800 
#    y -0.379040 4.554240 -0.028460 
#    z -0.507800 -0.028460 3.285570 
# 
# 
# High freq. dielectric constant tensor:
#      x y z
#    x 1.939860 -0.010770 -0.000110 
#    y -0.010770 1.938250 -0.017380 
#    z -0.000110 -0.017380 1.900220 
# 
# From -- ./inp_files/21580.got.cif
#   From: 2010.06.25/outbox.cif.g09.slc.cpg/sg2_11_cif.got.tgz:21580.got - 2010.06.27 13:26:56.
