data_PCOD8035848
_publ_section_title
;
Structure prediction by ZEFSAII (Michael W. Deem and Ramdas Pophale) SiO2 
 PCOD8035848
Probable space group: P -1
;
_chemical_formula_sum "Si O2"
_cell_formula_units_Z 16
_cell_length_a 21.411249
_cell_length_b 18.075052
_cell_length_c 9.781069
_cell_angle_alpha 141.562304
_cell_angle_beta 35.835342
_cell_angle_gamma 161.257164
_cell_volume 709.658619
_symmetry_space_group_name_H-M "P -1"
_symmetry_group_IT_number 2
_symmetry_cell_setting 'triclinic'
loop_
_space_group_symop_operation_xyz
x,y,z
-x,-y,-z
loop_
_atom_site_type_symbol
_atom_site_label
_atom_site_fract_x
_atom_site_fract_y
_atom_site_fract_z
Si Si1 0.780015 0.230994 0.132079
Si Si2 0.553707 0.271479 0.050004
Si Si3 0.750912 0.956594 0.190596
Si Si4 0.084111 0.212644 0.156742
Si Si5 0.982765 0.369798 0.251458
Si Si6 0.466271 0.380767 0.140014
Si Si7 0.447517 0.637078 0.525294
Si Si8 0.902908 0.593326 0.353398
O O1 0.937672 0.362922 0.167135
O O2 0.751575 0.346602 0.330069
O O3 0.555783 0.952889 0.139987
O O4 0.890423 0.275257 0.870849
O O5 0.801582 0.497247 0.928638
O O6 0.467528 0.302247 0.160835
O O7 0.485376 0.223060 0.259252
O O8 0.600453 0.804053 0.367377
O O9 0.770723 0.101985 0.290943
O O10 0.709980 0.820504 0.948528
O O11 0.988186 0.172063 0.130184
O O12 0.017492 0.230361 0.427797
O O13 0.329027 0.449542 0.064060
O O14 0.000000 0.000000 0.000000
O O15 0.000000 0.500000 0.500000
O O16 0.442877 0.496736 0.383491
O O17 0.217914 0.455711 0.624860
#
# Coordination Sequence:
#
# PCOD8035848 Si02
#       8
#     2   2   2   2   2   2   2   2
#     4  11  26  49  71 103 149 190 236 301 360 427
#     4  12  27  48  72 106 147 189 235 293 370 423
#     4  12  24  44  71 104 142 187 240 288 352 424
#     4  12  23  42  71 106 145 188 237 295 355 421
#     4  12  27  45  72 106 142 184 243 294 359 429
#     4  12  25  45  70 106 146 188 239 297 356 426
#     4  12  25  46  73 106 141 190 244 289 356 435
#     4  11  25  47  74 107 146 189 242 297 359 429
#
# _framework density 22.546052
#
# number of rings (size 3 to 8) (size 9 to 14) (size 15 to 20)
#    0.000    0.250    6.250    3.000    1.750    2.000 
#    0.000    1.250    0.000    0.000    0.000    0.000 
#    0.000    0.000    0.000    0.000    0.000    0.000 
#
# Total GULP energy -198322.138073 kJ/mol
# GULP energy per Si atom -12395.133630 kJ/mol
# Density = 2.249474 g / cm^3
# Si number density = 22.546052 Si / 1000 Ang^3
#
#
#
# Elastic Constant Matrix: (Units=GPa)
#
#
# Indices 1 2 3 4 5 6 
#
# 1 117.2053 25.8652 41.8476 8.6477 10.1114 6.4111
# 2 25.8652 82.3824 34.4387 20.2440 9.0385 -6.5052
# 3 41.8476 34.4387 116.1359 28.3344 6.7851 -1.6980
# 4 8.6477 20.2440 28.3344 34.3071 3.9857 1.9295
# 5 10.1114 9.0385 6.7851 3.9857 33.6333 7.3076
# 6 6.4111 -6.5052 -1.6980 1.9295 7.3076 44.5414
#
#
#
# Elastic Compliance Matrix: (Units=1/GPa)
#
#
# Indices 1 2 3 4 5 6 
#
# 1 0.010357 -0.002217 -0.003452 0.001840 -0.001658 -0.001754
# 2 -0.002217 0.016019 -0.001992 -0.007075 -0.003138 0.003404
# 3 -0.003452 -0.001992 0.012502 -0.008317 -0.000197 0.001075
# 4 0.001840 -0.007075 -0.008317 0.040027 -0.001026 -0.003181
# 5 -0.001658 -0.003138 -0.000197 -0.001026 0.032431 -0.005503
# 6 -0.001754 0.003404 0.001075 -0.003181 -0.005503 0.024282
#
#
# Mechanical properties :
#
#
# Convention : Reuss Voigt Hill
#
# Bulk Modulus (GPa) = 42.45424 57.78074 50.11749
# Shear Modulus (GPa) = 31.48748 36.73450 34.11099
#
# Velocity S-wave (km/s) = 3.74115 4.04085 3.89388
# Velocity P-wave (km/s) = 6.12637 6.88874 6.51871
#
# Compressibility (1/GPa) = 0.02355477
#
# Stress axis : x y z
#
# Youngs Moduli (GPa) = 96.55106 62.42546 79.98935
#
# Poissons Ratio (x) = 0.13842 0.27614
# Poissons Ratio (y) = 0.21409 0.15934
# Poissons Ratio (z) = 0.33332 0.12435
#
# Static dielectric constant tensor:
#      x y z
#    x 4.509770 -0.342190 -0.037620 
#    y -0.342190 4.245280 0.090580 
#    z -0.037620 0.090580 3.931420 
# 
# 
# High freq. dielectric constant tensor:
#      x y z
#    x 1.904890 0.003760 0.003980 
#    y 0.003760 1.892640 0.016240 
#    z 0.003980 0.016240 1.885110 
# 
# From -- ./inp_files/348929.got.cif
#   From: 2010.06.25/outbox.cif.g09.slc.cpg/sg2_175_cif.got.tgz:348929.got - 2010.06.27 13:26:56.
