data_PCOD8035306
_publ_section_title
;
Structure prediction by ZEFSAII (Michael W. Deem and Ramdas Pophale) SiO2 
 PCOD8035306
Probable space group: P -1
;
_chemical_formula_sum "Si O2"
_cell_formula_units_Z 16
_cell_length_a 11.820706
_cell_length_b 11.108370
_cell_length_c 5.761846
_cell_angle_alpha 71.752785
_cell_angle_beta 94.646939
_cell_angle_gamma 110.209620
_cell_volume 673.986138
_symmetry_space_group_name_H-M "P -1"
_symmetry_group_IT_number 2
_symmetry_cell_setting 'triclinic'
loop_
_space_group_symop_operation_xyz
x,y,z
-x,-y,-z
loop_
_atom_site_type_symbol
_atom_site_label
_atom_site_fract_x
_atom_site_fract_y
_atom_site_fract_z
Si Si1 0.499453 0.879992 0.906101
Si Si2 0.584713 0.715826 0.375383
Si Si3 0.953985 0.036402 0.722718
Si Si4 0.772719 0.207790 0.143870
Si Si5 0.287080 0.054362 0.428151
Si Si6 0.068546 0.703005 0.281302
Si Si7 0.410180 0.520292 0.772994
Si Si8 0.849074 0.466338 0.251758
O O1 0.364502 0.796988 0.862396
O O2 0.585156 0.938654 0.664439
O O3 0.545761 0.774287 0.105380
O O4 0.500000 0.000000 0.000000
O O5 0.695315 0.830020 0.445957
O O6 0.477980 0.664937 0.578890
O O7 0.621351 0.591409 0.368549
O O8 0.975136 0.198005 0.620067
O O9 0.812785 0.939491 0.776182
O O10 0.000000 0.000000 0.500000
O O11 0.000000 0.000000 0.000000
O O12 0.860662 0.358511 0.131108
O O13 0.780552 0.090903 0.381923
O O14 0.825503 0.188518 0.915693
O O15 0.134769 0.605116 0.461843
O O16 0.953081 0.611445 0.167813
O O17 0.279473 0.516674 0.834510
O O18 0.500000 0.500000 0.000000
#
# Coordination Sequence:
#
# PCOD8035306 Si02
#       8
#     2   2   2   2   2   2   2   2
#     4  12  25  40  74 110 150 192 244 317 390 463
#     4  11  25  43  70 106 153 191 255 302 389 460
#     4  12  29  50  79 110 156 204 259 329 391 462
#     4  12  23  44  73 110 154 194 251 317 382 460
#     4  12  26  44  72 109 150 193 255 313 384 469
#     4  11  26  48  72 111 146 200 263 313 384 464
#     4  11  25  47  71 107 151 203 248 315 378 471
#     4  11  25  45  76  99 152 195 260 314 386 454
#
# _framework density 23.739359
#
# number of rings (size 3 to 8) (size 9 to 14) (size 15 to 20)
#    0.000    0.500    2.500    5.250    5.250    2.000 
#    0.000    0.000    0.000    0.000    0.000    0.000 
#    0.000    0.000    0.000    0.000    0.000    0.000 
#
# Total GULP energy -198225.799669 kJ/mol
# GULP energy per Si atom -12389.112479 kJ/mol
# Density = 2.368533 g / cm^3
# Si number density = 23.739359 Si / 1000 Ang^3
#
#
#
# Elastic Constant Matrix: (Units=GPa)
#
#
# Indices 1 2 3 4 5 6 
#
# 1 126.8333 51.8258 44.0094 4.7338 5.8741 16.0586
# 2 51.8258 148.4285 27.9255 18.0571 -0.2555 2.5185
# 3 44.0094 27.9255 104.6516 -1.3481 -5.4370 6.4759
# 4 4.7338 18.0571 -1.3481 39.7081 3.5149 5.5338
# 5 5.8741 -0.2555 -5.4370 3.5149 44.8989 6.9290
# 6 16.0586 2.5185 6.4759 5.5338 6.9290 32.7028
#
#
#
# Elastic Compliance Matrix: (Units=1/GPa)
#
#
# Indices 1 2 3 4 5 6 
#
# 1 0.011002 -0.003188 -0.003567 0.000730 -0.001283 -0.004302
# 2 -0.003188 0.008481 -0.001056 -0.003780 0.000374 0.001682
# 3 -0.003567 -0.001056 0.011520 0.001276 0.001921 -0.001071
# 4 0.000730 -0.003780 0.001276 0.027638 -0.001401 -0.004700
# 5 -0.001283 0.000374 0.001921 -0.001401 0.023482 -0.004518
# 6 -0.004302 0.001682 -0.001071 -0.004700 -0.004518 0.034526
#
#
# Mechanical properties :
#
#
# Convention : Reuss Voigt Hill
#
# Bulk Modulus (GPa) = 65.01590 69.71498 67.36544
# Shear Modulus (GPa) = 36.39096 40.53882 38.46489
#
# Velocity S-wave (km/s) = 3.91952 4.13687 4.02966
# Velocity P-wave (km/s) = 6.92318 7.22834 7.07740
#
# Compressibility (1/GPa) = 0.01538085
#
# Stress axis : x y z
#
# Youngs Moduli (GPa) = 90.89528 117.90942 86.80803
#
# Poissons Ratio (x) = 0.37594 0.30962
# Poissons Ratio (y) = 0.28981 0.09164
# Poissons Ratio (z) = 0.32420 0.12447
#
# Static dielectric constant tensor:
#      x y z
#    x 6.221670 0.476310 0.567030 
#    y 0.476310 4.684670 0.241670 
#    z 0.567030 0.241670 4.281200 
# 
# 
# High freq. dielectric constant tensor:
#      x y z
#    x 1.937110 0.003000 0.004700 
#    y 0.003000 1.967150 0.012090 
#    z 0.004700 0.012090 1.934880 
# 
# From -- ./inp_files/69909.got.cif
#   From: 2010.06.25/outbox.cif.g09.slc.cpg/sg2_35_cif.got.tgz:69909.got - 2010.06.27 13:26:56.
