data_PCOD8035560
_publ_section_title
;
Structure prediction by ZEFSAII (Michael W. Deem and Ramdas Pophale) SiO2 
 PCOD8035560
Probable space group: P -1
;
_chemical_formula_sum "Si O2"
_cell_formula_units_Z 16
_cell_length_a 5.522700
_cell_length_b 11.502760
_cell_length_c 10.881977
_cell_angle_alpha 69.606230
_cell_angle_beta 105.308905
_cell_angle_gamma 104.161946
_cell_volume 615.994912
_symmetry_space_group_name_H-M "P -1"
_symmetry_group_IT_number 2
_symmetry_cell_setting 'triclinic'
loop_
_space_group_symop_operation_xyz
x,y,z
-x,-y,-z
loop_
_atom_site_type_symbol
_atom_site_label
_atom_site_fract_x
_atom_site_fract_y
_atom_site_fract_z
Si Si1 0.753311 0.998014 0.610932
Si Si2 0.690286 0.579886 0.609850
Si Si3 0.653297 0.188598 0.023362
Si Si4 0.652184 0.614550 0.049570
Si Si5 0.134453 0.435823 0.658730
Si Si6 0.188327 0.199278 0.621238
Si Si7 0.619500 0.066767 0.829195
Si Si8 0.120406 0.260721 0.204030
O O1 0.765059 0.064401 0.722126
O O2 0.996440 0.093571 0.553540
O O3 0.500000 0.000000 0.500000
O O4 0.767672 0.852674 0.678237
O O5 0.414273 0.491894 0.614014
O O6 0.652881 0.710527 0.492552
O O7 0.807773 0.615109 0.747920
O O8 0.902772 0.517853 0.578911
O O9 0.820034 0.216423 0.159872
O O10 0.436197 0.073788 0.074145
O O11 0.538776 0.312837 0.927629
O O12 0.783856 0.150955 0.926840
O O13 0.839479 0.564904 0.189845
O O14 0.500000 0.500000 0.000000
O O15 0.794214 0.711130 0.934314
O O16 0.050922 0.291923 0.654836
O O17 0.361836 0.124405 0.753705
#
# Coordination Sequence:
#
# PCOD8035560 Si02
#       8
#     2   2   2   2   2   2   2   2
#     4  12  29  47  77 112 157 206 262 327 393 479
#     4  12  30  51  80 113 163 207 271 325 388 469
#     4  11  25  45  74 110 154 196 257 329 384 479
#     4  12  25  45  74 106 155 202 253 317 391 457
#     4  12  29  52  77 119 154 209 270 328 389 474
#     4  12  28  49  81 109 153 212 259 327 399 467
#     4  11  25  46  75 111 153 197 259 321 401 459
#     4  12  27  46  76 112 155 200 262 322 396 468
#
# _framework density 25.974240000000002
#
# number of rings (size 3 to 8) (size 9 to 14) (size 15 to 20)
#    0.000    0.250    5.000    2.250   10.500    2.500 
#    0.000    0.000    0.000    0.000    0.000    0.000 
#    0.000    0.000    0.000    0.000    0.000    0.000 
#
# Total GULP energy -198336.925669 kJ/mol
# GULP energy per Si atom -12396.057854 kJ/mol
# Density = 2.591512 g / cm^3
# Si number density = 25.974240 Si / 1000 Ang^3
#
#
#
# Elastic Constant Matrix: (Units=GPa)
#
#
# Indices 1 2 3 4 5 6 
#
# 1 80.4737 40.0862 22.5076 -4.1951 10.1790 -4.9508
# 2 40.0862 139.4219 22.6199 0.4599 11.4918 2.0792
# 3 22.5076 22.6199 80.3209 -7.3362 9.0943 7.7956
# 4 -4.1951 0.4599 -7.3362 52.1559 1.1989 4.4671
# 5 10.1790 11.4918 9.0943 1.1989 46.2455 2.1401
# 6 -4.9508 2.0792 7.7956 4.4671 2.1401 40.3017
#
#
#
# Elastic Compliance Matrix: (Units=1/GPa)
#
#
# Indices 1 2 3 4 5 6 
#
# 1 0.015737 -0.003867 -0.003309 0.000640 -0.001999 0.002808
# 2 -0.003867 0.008573 -0.001205 -0.000484 -0.001003 -0.000577
# 3 -0.003309 -0.001205 0.014419 0.002092 -0.001711 -0.003274
# 4 0.000640 -0.000484 0.002092 0.019752 -0.000831 -0.002446
# 5 -0.001999 -0.001003 -0.001711 -0.000831 0.022716 -0.000977
# 6 0.002808 -0.000577 -0.003274 -0.002446 -0.000977 0.026144
#
#
# Mechanical properties :
#
#
# Convention : Reuss Voigt Hill
#
# Bulk Modulus (GPa) = 45.52234 52.29377 48.90806
# Shear Modulus (GPa) = 38.04447 42.07413 40.05930
#
# Velocity S-wave (km/s) = 3.83129 4.02909 3.93144
# Velocity P-wave (km/s) = 6.09391 6.46695 6.28320
#
# Compressibility (1/GPa) = 0.02196724
#
# Stress axis : x y z
#
# Youngs Moduli (GPa) = 63.54432 116.64884 69.35197
#
# Poissons Ratio (x) = 0.45110 0.22945
# Poissons Ratio (y) = 0.24573 0.08358
# Poissons Ratio (z) = 0.21024 0.14058
#
# Static dielectric constant tensor:
#      x y z
#    x 5.019800 0.496530 -0.233400 
#    y 0.496530 5.615570 0.063960 
#    z -0.233400 0.063960 5.107240 
# 
# 
# High freq. dielectric constant tensor:
#      x y z
#    x 2.010270 -0.004400 -0.003540 
#    y -0.004400 2.065560 0.011010 
#    z -0.003540 0.011010 2.071070 
# 
# From -- ./inp_files/97521.got.cif
#   From: 2010.06.25/outbox.cif.g09.slc.cpg/sg2_49_cif.got.tgz:97521.got - 2010.06.27 13:26:56.
