data_PCOD8035699
_publ_section_title
;
Structure prediction by ZEFSAII (Michael W. Deem and Ramdas Pophale) SiO2 
 PCOD8035699
Probable space group: P -1
;
_chemical_formula_sum "Si O2"
_cell_formula_units_Z 16
_cell_length_a 9.317223
_cell_length_b 9.278298
_cell_length_c 15.157039
_cell_angle_alpha 109.090613
_cell_angle_beta 37.308715
_cell_angle_gamma 112.997432
_cell_volume 730.749892
_symmetry_space_group_name_H-M "P -1"
_symmetry_group_IT_number 2
_symmetry_cell_setting 'triclinic'
loop_
_space_group_symop_operation_xyz
x,y,z
-x,-y,-z
loop_
_atom_site_type_symbol
_atom_site_label
_atom_site_fract_x
_atom_site_fract_y
_atom_site_fract_z
Si Si1 0.706282 0.910226 0.367643
Si Si2 0.788683 0.889528 0.527102
Si Si3 0.613009 0.374125 0.640082
Si Si4 0.260648 0.582352 0.922290
Si Si5 0.062897 0.127263 0.103535
Si Si6 0.678804 0.097759 0.139727
Si Si7 0.225748 0.485776 0.114345
Si Si8 0.992759 0.383301 0.594725
O O1 0.816212 0.893413 0.407913
O O2 0.581896 0.748506 0.346585
O O3 0.500000 0.000000 0.500000
O O4 0.915093 0.008290 0.223617
O O5 0.536726 0.928654 0.688661
O O6 0.807473 0.719319 0.515708
O O7 0.000000 0.000000 0.500000
O O8 0.473096 0.498753 0.772664
O O9 0.750851 0.305023 0.638931
O O10 0.848697 0.451768 0.483278
O O11 0.338423 0.763820 0.891684
O O12 0.210384 0.567933 0.046426
O O13 0.000000 0.500000 0.000000
O O14 0.108797 0.302733 0.151213
O O15 0.929511 0.139897 0.078928
O O16 0.308620 0.063024 0.951010
O O17 0.101818 0.589619 0.257950
O O18 0.500000 0.500000 0.000000
#
# Coordination Sequence:
#
# PCOD8035699 Si02
#       8
#     2   2   2   2   2   2   2   2
#     4  12  25  44  75 104 140 187 242 290 358 427
#     4  12  28  46  71 106 147 188 235 298 360 423
#     4  11  25  46  73 101 138 195 236 293 357 420
#     4  12  24  45  71 105 139 183 241 289 353 424
#     4  11  26  46  71 107 143 185 241 291 357 426
#     4  11  25  47  71 104 143 187 234 301 348 422
#     4  12  27  45  72 105 145 190 233 294 362 424
#     4  11  26  46  70 103 149 183 241 296 355 426
#
# _framework density 21.895318
#
# number of rings (size 3 to 8) (size 9 to 14) (size 15 to 20)
#    0.000    0.500    5.000    2.250    7.000    2.500 
#    0.000    1.250    0.000    0.000    0.000    0.000 
#    0.000    0.000    0.000    0.000    0.000    0.000 
#
# Total GULP energy -198265.105725 kJ/mol
# GULP energy per Si atom -12391.569108 kJ/mol
# Density = 2.184548 g / cm^3
# Si number density = 21.895318 Si / 1000 Ang^3
#
#
#
# Elastic Constant Matrix: (Units=GPa)
#
#
# Indices 1 2 3 4 5 6 
#
# 1 135.1312 37.4275 36.8961 -4.6402 21.0979 -6.9984
# 2 37.4275 86.6201 22.9385 -2.3041 15.6421 -4.4125
# 3 36.8961 22.9385 134.8766 8.8586 12.3178 -10.1428
# 4 -4.6402 -2.3041 8.8586 39.9105 -7.5953 -4.1323
# 5 21.0979 15.6421 12.3178 -7.5953 42.8448 2.9563
# 6 -6.9984 -4.4125 -10.1428 -4.1323 2.9563 37.8307
#
#
#
# Elastic Compliance Matrix: (Units=1/GPa)
#
#
# Indices 1 2 3 4 5 6 
#
# 1 0.009228 -0.002919 -0.001726 0.000860 -0.002914 0.001226
# 2 -0.002919 0.013769 -0.001179 0.000198 -0.003287 0.001029
# 3 -0.001726 -0.001179 0.008522 -0.002306 -0.001696 0.001709
# 4 0.000860 0.000198 -0.002306 0.026807 0.004773 0.002119
# 5 -0.002914 -0.003287 -0.001696 0.004773 0.027516 -0.003006
# 6 0.001226 0.001029 0.001709 0.002119 -0.003006 0.027705
#
#
# Mechanical properties :
#
#
# Convention : Reuss Voigt Hill
#
# Bulk Modulus (GPa) = 50.32283 61.23909 55.78096
# Shear Modulus (GPa) = 37.93109 41.40825 39.66967
#
# Velocity S-wave (km/s) = 4.16671 4.35350 4.26113
# Velocity P-wave (km/s) = 6.79572 7.30071 7.05274
#
# Compressibility (1/GPa) = 0.01987170
#
# Stress axis : x y z
#
# Youngs Moduli (GPa) = 108.36716 72.62636 117.34699
#
# Poissons Ratio (x) = 0.21196 0.20255
# Poissons Ratio (y) = 0.31628 0.13833
# Poissons Ratio (z) = 0.18705 0.08562
#
# Static dielectric constant tensor:
#      x y z
#    x 4.384170 -0.340600 -0.411280 
#    y -0.340600 3.877010 -0.230170 
#    z -0.411280 -0.230170 1.797510 
# 
# 
# High freq. dielectric constant tensor:
#      x y z
#    x 1.866540 -0.011940 0.001050 
#    y -0.011940 1.862580 0.004450 
#    z 0.001050 0.004450 1.881310 
# 
# From -- ./inp_files/495382.got.cif
#   From: 2010.06.25/outbox.cif.g09.slc.cpg/sg2_248_cif.got.tgz:495382.got - 2010.06.27 13:26:56.
