data_PCOD8035734
_publ_section_title
;
Structure prediction by ZEFSAII (Michael W. Deem and Ramdas Pophale) SiO2 
 PCOD8035734
Probable space group: P -1
;
_chemical_formula_sum "Si O2"
_cell_formula_units_Z 12
_cell_length_a 9.516591
_cell_length_b 8.777356
_cell_length_c 12.448675
_cell_angle_alpha 138.547254
_cell_angle_beta 133.057465
_cell_angle_gamma 65.785494
_cell_volume 491.766947
_symmetry_space_group_name_H-M "P -1"
_symmetry_group_IT_number 2
_symmetry_cell_setting 'triclinic'
loop_
_space_group_symop_operation_xyz
x,y,z
-x,-y,-z
loop_
_atom_site_type_symbol
_atom_site_label
_atom_site_fract_x
_atom_site_fract_y
_atom_site_fract_z
Si Si1 0.978413 0.063915 0.378873
Si Si2 0.631277 0.527717 0.188833
Si Si3 0.481013 0.233949 0.551821
Si Si4 0.180708 0.212095 0.205461
Si Si5 0.319219 0.954810 0.963305
Si Si6 0.162858 0.705090 0.385312
O O1 0.889525 0.066539 0.216540
O O2 0.816330 0.119958 0.408432
O O3 0.185254 0.249444 0.601565
O O4 0.010091 0.797435 0.274953
O O5 0.495082 0.561317 0.237874
O O6 0.704729 0.287984 0.113673
O O7 0.500000 0.500000 0.000000
O O8 0.273528 0.224100 0.379158
O O9 0.635754 0.288944 0.566803
O O10 0.500000 0.000000 0.500000
O O11 0.092248 0.440670 0.251890
O O12 0.337293 0.165291 0.171255
O O13 0.000000 0.000000 0.000000
O O14 0.500000 0.000000 0.000000
#
# Coordination Sequence:
#
# PCOD8035734 Si02
#       6
#     2   2   2   2   2   2
#     4  11  25  48  72 103 145 187 232 293 354 413
#     4  12  26  47  74 102 141 187 238 291 351 421
#     4  12  24  47  72 103 143 182 235 291 351 416
#     4  12  26  46  72 107 140 185 235 289 350 423
#     4  12  26  45  73 106 142 183 239 285 353 423
#     4  11  25  46  74  99 145 185 234 286 357 412
#
# _framework density 24.401803999999998
#
# number of rings (size 3 to 8) (size 9 to 14) (size 15 to 20)
#    0.000    0.333    1.667    7.000    4.667    0.667 
#    0.000    0.000    0.000    0.000    0.000    0.000 
#    0.000    0.000    0.000    0.000    0.000    0.000 
#
# Total GULP energy -148792.652482 kJ/mol
# GULP energy per Si atom -12399.387707 kJ/mol
# Density = 2.434626 g / cm^3
# Si number density = 24.401804 Si / 1000 Ang^3
#
#
#
# Elastic Constant Matrix: (Units=GPa)
#
#
# Indices 1 2 3 4 5 6 
#
# 1 110.0870 12.8145 29.4833 -5.0673 -12.3287 -3.6891
# 2 12.8145 252.3793 83.6523 -1.7535 -5.8514 -6.8877
# 3 29.4833 83.6523 118.6092 -25.2057 -14.1843 0.0890
# 4 -5.0673 -1.7535 -25.2057 47.9108 5.8168 -9.1028
# 5 -12.3287 -5.8514 -14.1843 5.8168 40.8358 9.4890
# 6 -3.6891 -6.8877 0.0890 -9.1028 9.4890 34.1418
#
#
#
# Elastic Compliance Matrix: (Units=1/GPa)
#
#
# Indices 1 2 3 4 5 6 
#
# 1 0.009968 0.000422 -0.002625 -0.000483 0.002122 0.000450
# 2 0.000422 0.005381 -0.004354 -0.001831 -0.000540 0.000804
# 3 -0.002625 -0.004354 0.013837 0.006509 0.002499 -0.000157
# 4 -0.000483 -0.001831 0.006509 0.026042 -0.003601 0.007505
# 5 0.002122 -0.000540 0.002499 -0.003601 0.028468 -0.008758
# 6 0.000450 0.000804 -0.000157 0.007505 -0.008758 0.033936
#
#
# Mechanical properties :
#
#
# Convention : Reuss Voigt Hill
#
# Bulk Modulus (GPa) = 62.22025 81.44174 71.83100
# Shear Modulus (GPa) = 36.73723 48.25270 42.49497
#
# Velocity S-wave (km/s) = 3.88430 4.45165 4.17762
# Velocity P-wave (km/s) = 6.75801 7.73761 7.26434
#
# Compressibility (1/GPa) = 0.01607194
#
# Stress axis : x y z
#
# Youngs Moduli (GPa) = 100.32031 185.84795 72.27258
#
# Poissons Ratio (x) = -0.07842 0.18969
# Poissons Ratio (y) = -0.04233 0.31468
# Poissons Ratio (z) = 0.26330 0.80919
#
# Static dielectric constant tensor:
#      x y z
#    x 4.986460 -0.020450 -0.482230 
#    y -0.020450 4.942060 0.147760 
#    z -0.482230 0.147760 4.360230 
# 
# 
# High freq. dielectric constant tensor:
#      x y z
#    x 1.990450 0.000510 -0.017000 
#    y 0.000510 1.996030 -0.002070 
#    z -0.017000 -0.002070 1.948480 
# 
# From -- ./inp_files/152432.got.cif
#   From: 2010.06.25/outbox.cif.g09.slc.cpg/sg2_77_cif.got.tgz:152432.got - 2010.06.27 13:26:56.
