data_PCOD8035289
_publ_section_title
;
Structure prediction by ZEFSAII (Michael W. Deem and Ramdas Pophale) SiO2 
 PCOD8035289
Probable space group: P -1
;
_chemical_formula_sum "Si O2"
_cell_formula_units_Z 12
_cell_length_a 12.008719
_cell_length_b 12.246447
_cell_length_c 10.834204
_cell_angle_alpha 131.789044
_cell_angle_beta 41.334946
_cell_angle_gamma 101.819488
_cell_volume 627.607012
_symmetry_space_group_name_H-M "P -1"
_symmetry_group_IT_number 2
_symmetry_cell_setting 'triclinic'
loop_
_space_group_symop_operation_xyz
x,y,z
-x,-y,-z
loop_
_atom_site_type_symbol
_atom_site_label
_atom_site_fract_x
_atom_site_fract_y
_atom_site_fract_z
Si Si1 0.933192 0.073776 0.298144
Si Si2 0.124619 0.727759 0.736564
Si Si3 0.293103 0.090424 0.660627
Si Si4 0.444692 0.399602 0.379269
Si Si5 0.653571 0.828981 0.587667
Si Si6 0.760305 0.997451 0.813104
O O1 0.862501 0.246546 0.400929
O O2 0.737157 0.064054 0.473533
O O3 0.017032 0.091831 0.371932
O O4 0.125201 0.883990 0.927629
O O5 0.323683 0.525583 0.455898
O O6 0.907632 0.755993 0.973640
O O7 0.500000 0.000000 0.500000
O O8 0.305584 0.187158 0.603785
O O9 0.500000 0.500000 0.500000
O O10 0.295240 0.361460 0.548679
O O11 0.658545 0.206028 0.010836
O O12 0.800540 0.871549 0.567521
O O13 0.406538 0.994618 0.948285
#
# Coordination Sequence:
#
# PCOD8035289 Si02
#       6
#     2   2   2   2   2   2
#     4   9  18  32  52  76 100 139 165 202 258 307
#     4   9  18  31  51  81  96 131 175 205 257 287
#     4  10  19  31  52  78 103 133 173 215 242 300
#     4  10  17  31  55  78 100 131 170 215 245 299
#     4   9  20  32  54  77 105 133 168 205 260 299
#     4   9  18  36  52  76 104 137 168 198 261 314
#
# _framework density 19.120245000000001
#
# number of rings (size 3 to 8) (size 9 to 14) (size 15 to 20)
#    2.000    0.667    1.667    1.000    2.333    1.333 
#    0.000    0.833    0.000    1.000    0.000    0.000 
#    0.000    0.000    0.000    0.000    0.000    0.000 
#
# Total GULP energy -148667.830930 kJ/mol
# GULP energy per Si atom -12388.985911 kJ/mol
# Density = 1.907673 g / cm^3
# Si number density = 19.120245 Si / 1000 Ang^3
#
#
#
# Elastic Constant Matrix: (Units=GPa)
#
#
# Indices 1 2 3 4 5 6 
#
# 1 139.6114 36.6584 36.9567 24.1292 -23.3332 7.8031
# 2 36.6584 104.2834 31.6545 30.2041 -13.9371 -10.8926
# 3 36.9567 31.6545 36.6983 22.9057 -12.5212 -4.4295
# 4 24.1292 30.2041 22.9057 30.4763 -1.7060 -7.9652
# 5 -23.3332 -13.9371 -12.5212 -1.7060 28.8633 8.1974
# 6 7.8031 -10.8926 -4.4295 -7.9652 8.1974 26.2787
#
#
#
# Elastic Compliance Matrix: (Units=1/GPa)
#
#
# Indices 1 2 3 4 5 6 
#
# 1 0.012060 -0.000239 -0.005114 -0.007498 0.009773 -0.009864
# 2 -0.000239 0.014724 -0.004173 -0.010800 0.004217 0.000882
# 3 -0.005114 -0.004173 0.074128 -0.048857 0.026154 -0.010684
# 4 -0.007498 -0.010800 -0.048857 0.091584 -0.035071 0.028214
# 5 0.009773 0.004217 0.026154 -0.035071 0.061390 -0.026526
# 6 -0.009864 0.000882 -0.010684 0.028214 -0.026526 0.056374
#
#
# Mechanical properties :
#
#
# Convention : Reuss Voigt Hill
#
# Bulk Modulus (GPa) = 12.21622 54.57024 33.39323
# Shear Modulus (GPa) = 14.02136 28.81189 21.41662
#
# Velocity S-wave (km/s) = 2.71094 3.88606 3.35042
# Velocity P-wave (km/s) = 4.02516 6.98125 5.69824
#
# Compressibility (1/GPa) = 0.08185841
#
# Stress axis : x y z
#
# Youngs Moduli (GPa) = 82.91827 67.91734 13.49015
#
# Poissons Ratio (x) = 0.01626 0.06899
# Poissons Ratio (y) = 0.01985 0.05629
# Poissons Ratio (z) = 0.42408 0.28342
#
# Static dielectric constant tensor:
#      x y z
#    x 3.349060 0.053950 -0.162580 
#    y 0.053950 3.414390 0.143640 
#    z -0.162580 0.143640 2.982080 
# 
# 
# High freq. dielectric constant tensor:
#      x y z
#    x 1.739300 0.001220 -0.017850 
#    y 0.001220 1.740660 0.010280 
#    z -0.017850 0.010280 1.684850 
# 
# From -- ./inp_files/184039.got.cif
#   From: 2010.06.25/outbox.cif.g09.slc.cpg/sg2_93_cif.got.tgz:184039.got - 2010.06.27 13:26:56.
