data_PCOD8035164
_publ_section_title
;
Structure prediction by ZEFSAII (Michael W. Deem and Ramdas Pophale) SiO2 
 PCOD8035164
Probable space group: P -1
;
_chemical_formula_sum "Si O2"
_cell_formula_units_Z 16
_cell_length_a 9.548690
_cell_length_b 13.956048
_cell_length_c 15.110626
_cell_angle_alpha 149.671396
_cell_angle_beta 115.802685
_cell_angle_gamma 84.748269
_cell_volume 714.555173
_symmetry_space_group_name_H-M "P -1"
_symmetry_group_IT_number 2
_symmetry_cell_setting 'triclinic'
loop_
_space_group_symop_operation_xyz
x,y,z
-x,-y,-z
loop_
_atom_site_type_symbol
_atom_site_label
_atom_site_fract_x
_atom_site_fract_y
_atom_site_fract_z
Si Si1 0.730571 0.637446 0.674349
Si Si2 0.850627 0.910809 0.467772
Si Si3 0.874543 0.572825 0.982983
Si Si4 0.931127 0.649452 0.398975
Si Si5 0.062272 0.092575 0.222747
Si Si6 0.712346 0.131342 0.885313
Si Si7 0.564781 0.227369 0.754382
Si Si8 0.728450 0.309405 0.545683
O O1 0.500000 0.500000 0.500000
O O2 0.803614 0.685329 0.631572
O O3 0.773246 0.474669 0.605825
O O4 0.845668 0.894109 0.961698
O O5 0.798289 0.674568 0.314799
O O6 0.638735 0.831199 0.313085
O O7 0.000000 0.000000 0.500000
O O8 0.974365 0.135492 0.750744
O O9 0.691513 0.468199 0.918758
O O10 0.787228 0.460182 0.772721
O O11 0.000000 0.500000 0.000000
O O12 0.969738 0.798559 0.615922
O O13 0.138378 0.774436 0.502364
O O14 0.826831 0.368013 0.169462
O O15 0.165707 0.969313 0.175852
O O16 0.700448 0.243364 0.881457
O O17 0.500132 0.923085 0.701849
O O18 0.500000 0.000000 0.500000
#
# Coordination Sequence:
#
# PCOD8035164 Si02
#       8
#     2   2   2   2   2   2   2   2
#     4  11  24  48  80 105 137 182 237 296 358 428
#     4  12  26  44  64 106 147 185 244 299 344 420
#     4  12  24  42  73 100 143 193 239 287 353 423
#     4  12  28  45  71 105 146 187 235 294 356 421
#     4  11  26  49  75 103 140 184 235 293 363 420
#     4  12  24  47  71 102 146 188 237 293 354 421
#     4  12  23  40  70 101 141 196 239 283 354 420
#     4  12  25  45  72 105 142 189 238 291 357 422
#
# _framework density 22.391555
#
# number of rings (size 3 to 8) (size 9 to 14) (size 15 to 20)
#    0.000    0.250    5.000    4.500    0.000    4.500 
#    0.000    1.250    0.000    0.000    0.000    0.000 
#    0.000    0.000    0.000    0.000    0.000    0.000 
#
# Total GULP energy -198374.349342 kJ/mol
# GULP energy per Si atom -12398.396834 kJ/mol
# Density = 2.234059 g / cm^3
# Si number density = 22.391555 Si / 1000 Ang^3
#
#
#
# Elastic Constant Matrix: (Units=GPa)
#
#
# Indices 1 2 3 4 5 6 
#
# 1 131.1752 37.7532 51.1978 -6.9436 10.6852 7.8525
# 2 37.7532 116.9276 18.8952 2.1413 -2.7513 6.9719
# 3 51.1978 18.8952 104.2020 12.8117 9.6543 5.9923
# 4 -6.9436 2.1413 12.8117 36.3603 0.0383 0.3842
# 5 10.6852 -2.7513 9.6543 0.0383 43.9659 -0.7850
# 6 7.8525 6.9719 5.9923 0.3842 -0.7850 28.4711
#
#
#
# Elastic Compliance Matrix: (Units=1/GPa)
#
#
# Indices 1 2 3 4 5 6 
#
# 1 0.010821 -0.002705 -0.005086 0.004034 -0.001710 -0.001353
# 2 -0.002705 0.009617 -0.000333 -0.000951 0.001307 -0.001490
# 3 -0.005086 -0.000333 0.013063 -0.005540 -0.001671 -0.001236
# 4 0.004034 -0.000951 -0.005540 0.030282 0.000148 -0.000118
# 5 -0.001710 0.001307 -0.001671 0.000148 0.023630 0.001153
# 6 -0.001353 -0.001490 -0.001236 -0.000118 0.001153 0.036155
#
#
# Mechanical properties :
#
#
# Convention : Reuss Voigt Hill
#
# Bulk Modulus (GPa) = 57.96407 63.11081 60.53744
# Shear Modulus (GPa) = 34.34878 38.05671 36.20275
#
# Velocity S-wave (km/s) = 3.92089 4.12709 4.02531
# Velocity P-wave (km/s) = 6.81473 7.13840 6.97845
#
# Compressibility (1/GPa) = 0.01725207
#
# Stress axis : x y z
#
# Youngs Moduli (GPa) = 92.41445 103.98679 76.55270
#
# Poissons Ratio (x) = 0.28132 0.38933
# Poissons Ratio (y) = 0.25002 0.02549
# Poissons Ratio (z) = 0.47000 0.03463
#
# Static dielectric constant tensor:
#      x y z
#    x 4.422640 -0.290520 0.602760 
#    y -0.290520 4.489600 0.456630 
#    z 0.602760 0.456630 4.739050 
# 
# 
# High freq. dielectric constant tensor:
#      x y z
#    x 1.883380 0.000700 0.011380 
#    y 0.000700 1.885530 0.007880 
#    z 0.011380 0.007880 1.893710 
# 
# From -- ./inp_files/505918.got.cif
#   From: 2010.06.25/outbox.cif.g09.slc.cpg/sg2_253_cif.got.tgz:505918.got - 2010.06.27 13:26:56.
