data_PCOD8035412
_publ_section_title
;
Structure prediction by ZEFSAII (Michael W. Deem and Ramdas Pophale) SiO2 
 PCOD8035412
Probable space group: P -1
;
_chemical_formula_sum "Si O2"
_cell_formula_units_Z 16
_cell_length_a 6.471855
_cell_length_b 13.918900
_cell_length_c 8.559894
_cell_angle_alpha 104.276422
_cell_angle_beta 101.547691
_cell_angle_gamma 105.108706
_cell_volume 692.020729
_symmetry_space_group_name_H-M "P -1"
_symmetry_group_IT_number 2
_symmetry_cell_setting 'triclinic'
loop_
_space_group_symop_operation_xyz
x,y,z
-x,-y,-z
loop_
_atom_site_type_symbol
_atom_site_label
_atom_site_fract_x
_atom_site_fract_y
_atom_site_fract_z
Si Si1 0.459321 0.222718 0.307284
Si Si2 0.042981 0.162766 0.016538
Si Si3 0.920912 0.375583 0.430825
Si Si4 0.675797 0.060798 0.172344
Si Si5 0.880400 0.924126 0.312970
Si Si6 0.255535 0.278792 0.595229
Si Si7 0.033202 0.634647 0.917014
Si Si8 0.633014 0.443388 0.895330
O O1 0.305928 0.202877 0.120998
O O2 0.595745 0.140932 0.296408
O O3 0.300563 0.214667 0.428850
O O4 0.652560 0.335948 0.394473
O O5 0.996079 0.262323 0.968548
O O6 0.900877 0.118266 0.132569
O O7 0.991290 0.075327 0.834416
O O8 0.053033 0.325658 0.554196
O O9 0.972272 0.339798 0.255267
O O10 0.000000 0.500000 0.500000
O O11 0.688262 0.972267 0.260305
O O12 0.500000 0.000000 0.000000
O O13 0.801051 0.803613 0.305068
O O14 0.000000 0.000000 0.500000
O O15 0.475723 0.373601 0.711349
O O16 0.835726 0.527919 0.874605
O O17 0.268897 0.626556 0.005118
O O18 0.500000 0.500000 0.000000
#
# Coordination Sequence:
#
# PCOD8035412 Si02
#       8
#     2   2   2   2   2   2   2   2
#     4  12  25  48  76 106 151 192 252 307 362 450
#     4  12  26  48  78 107 146 194 253 303 368 454
#     4  12  26  45  75 109 149 197 251 297 370 450
#     4  12  27  48  78 109 139 202 258 298 375 447
#     4  12  28  48  74 107 152 189 241 320 369 431
#     4  12  28  47  71 115 151 192 250 311 375 433
#     4  11  25  44  73 106 143 196 246 293 370 452
#     4  11  26  45  71 109 151 193 241 306 378 436
#
# _framework density 23.120694
#
# number of rings (size 3 to 8) (size 9 to 14) (size 15 to 20)
#    0.000    0.250    3.750    4.125    8.750    5.500 
#    0.000    0.000    0.000    0.000    0.000    0.000 
#    0.000    0.000    0.000    0.000    0.000    0.000 
#
# Total GULP energy -198338.633906 kJ/mol
# GULP energy per Si atom -12396.164619 kJ/mol
# Density = 2.306807 g / cm^3
# Si number density = 23.120694 Si / 1000 Ang^3
#
#
#
# Elastic Constant Matrix: (Units=GPa)
#
#
# Indices 1 2 3 4 5 6 
#
# 1 108.9477 44.2859 46.1938 -3.7879 13.7460 -18.3444
# 2 44.2859 128.4940 38.9056 -10.2830 18.8234 -26.7607
# 3 46.1938 38.9056 134.5256 6.4594 16.8015 -14.9708
# 4 -3.7879 -10.2830 6.4594 44.2875 -5.4661 4.1880
# 5 13.7460 18.8234 16.8015 -5.4661 49.0765 4.6323
# 6 -18.3444 -26.7607 -14.9708 4.1880 4.6323 45.4617
#
#
#
# Elastic Compliance Matrix: (Units=1/GPa)
#
#
# Indices 1 2 3 4 5 6 
#
# 1 0.012093 -0.002457 -0.002975 0.000454 -0.001619 0.002577
# 2 -0.002457 0.010693 -0.001359 0.001594 -0.003246 0.005040
# 3 -0.002975 -0.001359 0.009420 -0.002372 -0.002281 0.001553
# 4 0.000454 0.001594 -0.002372 0.023902 0.002940 -0.002161
# 5 -0.001619 -0.003246 -0.002281 0.002940 0.023750 -0.006006
# 6 0.002577 0.005040 0.001553 -0.002161 -0.006006 0.027325
#
#
# Mechanical properties :
#
#
# Convention : Reuss Voigt Hill
#
# Bulk Modulus (GPa) = 53.69392 70.08199 61.88796
# Shear Modulus (GPa) = 39.37861 43.93729 41.65795
#
# Velocity S-wave (km/s) = 4.13143 4.36402 4.24932
# Velocity P-wave (km/s) = 6.78469 7.46794 7.13450
#
# Compressibility (1/GPa) = 0.01862408
#
# Stress axis : x y z
#
# Youngs Moduli (GPa) = 82.69510 93.51536 106.16105
#
# Poissons Ratio (x) = 0.22976 0.31580
# Poissons Ratio (y) = 0.20317 0.14430
# Poissons Ratio (z) = 0.24599 0.12711
#
# Static dielectric constant tensor:
#      x y z
#    x 4.423960 0.131140 0.330020 
#    y 0.131140 4.723290 0.338500 
#    z 0.330020 0.338500 4.348530 
# 
# 
# High freq. dielectric constant tensor:
#      x y z
#    x 1.912940 -0.014380 0.003560 
#    y -0.014380 1.927560 0.008910 
#    z 0.003560 0.008910 1.925010 
# 
# From -- ./inp_files/135579.got.cif
#   From: 2010.06.25/outbox.cif.g09.slc.cpg/sg2_68_cif.got.tgz:135579.got - 2010.06.27 13:26:56.
