data_PCOD8035301
_publ_section_title
;
Structure prediction by ZEFSAII (Michael W. Deem and Ramdas Pophale) SiO2 
 PCOD8035301
Probable space group: P -1
;
_chemical_formula_sum "Si O2"
_cell_formula_units_Z 16
_cell_length_a 13.833227
_cell_length_b 6.685728
_cell_length_c 22.493771
_cell_angle_alpha 123.496692
_cell_angle_beta 147.530759
_cell_angle_gamma 79.179057
_cell_volume 730.217623
_symmetry_space_group_name_H-M "P -1"
_symmetry_group_IT_number 2
_symmetry_cell_setting 'triclinic'
loop_
_space_group_symop_operation_xyz
x,y,z
-x,-y,-z
loop_
_atom_site_type_symbol
_atom_site_label
_atom_site_fract_x
_atom_site_fract_y
_atom_site_fract_z
Si Si1 0.237375 0.138289 0.613144
Si Si2 0.156428 0.852677 0.155094
Si Si3 0.764444 0.158968 0.670794
Si Si4 0.513289 0.137177 0.292147
Si Si5 0.850335 0.851958 0.563652
Si Si6 0.422867 0.158498 0.062847
Si Si7 0.639138 0.844561 0.108192
Si Si8 0.911486 0.126092 0.057478
O O1 0.208436 0.072782 0.517071
O O2 0.408560 0.499095 0.769878
O O3 0.344381 0.983958 0.670473
O O4 0.000000 0.000000 0.500000
O O5 0.186995 0.913228 0.251201
O O6 0.408817 0.027891 0.286293
O O7 0.034181 0.977965 0.081004
O O8 0.000000 0.500000 0.000000
O O9 0.900432 0.515657 0.792407
O O10 0.500000 0.000000 0.500000
O O11 0.850866 0.048652 0.647705
O O12 0.675566 0.499758 0.432510
O O13 0.304386 0.995260 0.115451
O O14 0.101044 0.948834 0.701600
O O15 0.532748 0.991975 0.106916
O O16 0.370511 0.150428 0.966200
O O17 0.178397 0.969330 0.937438
O O18 0.500000 0.500000 0.000000
#
# Coordination Sequence:
#
# PCOD8035301 Si02
#       8
#     2   2   2   2   2   2   2   2
#     4  12  27  45  73 104 144 188 243 291 357 427
#     4  12  26  46  77 105 141 190 243 285 356 435
#     4  12  28  46  73 107 148 183 234 301 359 416
#     4  12  27  45  75 104 144 188 240 296 350 423
#     4  12  27  45  70 106 143 181 239 297 357 414
#     4  11  25  43  70 103 137 189 240 284 356 431
#     4  11  25  44  70 101 145 183 235 298 358 417
#     4  12  26  45  75 104 143 190 237 288 357 422
#
# _framework density 21.911275
#
# number of rings (size 3 to 8) (size 9 to 14) (size 15 to 20)
#    0.000    0.250    2.500    5.625    7.000    8.000 
#    0.000    0.000    0.000    0.000    0.000    0.000 
#    0.000    0.000    0.000    0.000    0.000    0.000 
#
# Total GULP energy -198512.412200 kJ/mol
# GULP energy per Si atom -12407.025763 kJ/mol
# Density = 2.186140 g / cm^3
# Si number density = 21.911275 Si / 1000 Ang^3
#
#
#
# Elastic Constant Matrix: (Units=GPa)
#
#
# Indices 1 2 3 4 5 6 
#
# 1 73.6047 34.4093 15.9515 7.3456 4.6428 -4.8055
# 2 34.4093 147.2775 59.9846 10.3361 2.3497 -17.0599
# 3 15.9515 59.9846 134.1493 11.2856 9.3399 -3.8437
# 4 7.3456 10.3361 11.2856 43.2472 4.1647 5.7525
# 5 4.6428 2.3497 9.3399 4.1647 48.0774 0.3720
# 6 -4.8055 -17.0599 -3.8437 5.7525 0.3720 42.4605
#
#
#
# Elastic Compliance Matrix: (Units=1/GPa)
#
#
# Indices 1 2 3 4 5 6 
#
# 1 0.015469 -0.003361 -0.000088 -0.001775 -0.001164 0.000643
# 2 -0.003361 0.009545 -0.003716 -0.001241 0.000662 0.003281
# 3 -0.000088 -0.003716 0.009329 -0.001325 -0.001504 -0.000466
# 4 -0.001775 -0.001241 -0.001325 0.024777 -0.001625 -0.004162
# 5 -0.001164 0.000662 -0.001504 -0.001625 0.021312 0.000032
# 6 0.000643 0.003281 -0.000466 -0.004162 0.000032 0.025464
#
#
# Mechanical properties :
#
#
# Convention : Reuss Voigt Hill
#
# Bulk Modulus (GPa) = 49.96572 63.96915 56.96743
# Shear Modulus (GPa) = 39.40216 43.06943 41.23579
#
# Velocity S-wave (km/s) = 4.24519 4.43835 4.34284
# Velocity P-wave (km/s) = 6.84704 7.45139 7.15560
#
# Compressibility (1/GPa) = 0.02001372
#
# Stress axis : x y z
#
# Youngs Moduli (GPa) = 64.64665 104.76488 107.18883
#
# Poissons Ratio (x) = 0.35208 0.00942
# Poissons Ratio (y) = 0.21725 0.39834
# Poissons Ratio (z) = 0.00568 0.38933
#
# Static dielectric constant tensor:
#      x y z
#    x 4.369940 0.079420 0.242310 
#    y 0.079420 4.252650 0.053600 
#    z 0.242310 0.053600 4.620660 
# 
# 
# High freq. dielectric constant tensor:
#      x y z
#    x 1.882890 0.003030 0.006030 
#    y 0.003030 1.879410 0.000640 
#    z 0.006030 0.000640 1.873260 
# 
# From -- ./inp_files/49070.got.cif
#   From: 2010.06.25/outbox.cif.g09.slc.cpg/sg2_25_cif.got.tgz:49070.got - 2010.06.27 13:26:56.
