data_PCOD8035786
_publ_section_title
;
Structure prediction by ZEFSAII (Michael W. Deem and Ramdas Pophale) SiO2 
 PCOD8035786
Probable space group: P -1
;
_chemical_formula_sum "Si O2"
_cell_formula_units_Z 12
_cell_length_a 14.140691
_cell_length_b 23.470393
_cell_length_c 4.764429
_cell_angle_alpha 85.711362
_cell_angle_beta 100.189262
_cell_angle_gamma 162.785588
_cell_volume 435.841170
_symmetry_space_group_name_H-M "P -1"
_symmetry_group_IT_number 2
_symmetry_cell_setting 'triclinic'
loop_
_space_group_symop_operation_xyz
x,y,z
-x,-y,-z
loop_
_atom_site_type_symbol
_atom_site_label
_atom_site_fract_x
_atom_site_fract_y
_atom_site_fract_z
Si Si1 0.702237 0.938957 0.462223
Si Si2 0.226461 0.752709 0.596586
Si Si3 0.276359 0.238044 0.074794
Si Si4 0.109259 0.859492 0.900325
Si Si5 0.531338 0.316796 0.666350
Si Si6 0.856687 0.650467 0.336386
O O1 0.404611 0.812347 0.445662
O O2 0.529781 0.785200 0.292808
O O3 0.935271 0.102443 0.279333
O O4 0.913813 0.045018 0.814774
O O5 0.900454 0.536932 0.644547
O O6 0.112284 0.743897 0.367798
O O7 0.485803 0.918429 0.921555
O O8 0.513104 0.336409 0.950999
O O9 0.237548 0.177145 0.359647
O O10 0.466334 0.406486 0.188243
O O11 0.925406 0.706859 0.672649
O O12 0.933389 0.750372 0.153467
#
# Coordination Sequence:
#
# PCOD8035786 Si02
#       6
#     2   2   2   2   2   2
#     4  12  28  45  74 110 140 181 237 294 349 407
#     4  11  26  46  74 107 139 184 237 291 345 412
#     4  11  27  49  74 100 142 191 232 284 353 419
#     4  12  26  43  74 102 146 180 234 288 348 415
#     4  11  27  49  74 100 144 187 233 286 353 421
#     4  11  25  47  70 100 142 191 230 278 354 420
#
# _framework density 27.532968
#
# number of rings (size 3 to 8) (size 9 to 14) (size 15 to 20)
#    0.000    0.667    1.667    4.500   11.667    2.000 
#    0.000    0.000    0.000    0.000    0.000    0.000 
#    0.000    0.000    0.000    0.000    0.000    0.000 
#
# Total GULP energy -148854.252257 kJ/mol
# GULP energy per Si atom -12404.521021 kJ/mol
# Density = 2.747030 g / cm^3
# Si number density = 27.532968 Si / 1000 Ang^3
#
#
#
# Elastic Constant Matrix: (Units=GPa)
#
#
# Indices 1 2 3 4 5 6 
#
# 1 108.8776 33.9753 18.6250 0.1069 6.1114 -25.0579
# 2 33.9753 94.1941 16.6868 -3.5927 -1.0636 -26.1101
# 3 18.6250 16.6868 109.6497 -5.2203 -12.9211 -15.8430
# 4 0.1069 -3.5927 -5.2203 42.5033 -4.7337 2.3059
# 5 6.1114 -1.0636 -12.9211 -4.7337 37.3368 3.3418
# 6 -25.0579 -26.1101 -15.8430 2.3059 3.3418 37.3275
#
#
#
# Elastic Compliance Matrix: (Units=1/GPa)
#
#
# Indices 1 2 3 4 5 6 
#
# 1 0.011692 -0.002423 -0.001160 -0.001042 -0.003053 0.006000
# 2 -0.002423 0.013752 -0.000533 0.000684 -0.000001 0.007724
# 3 -0.001160 -0.000533 0.010307 0.001481 0.003679 0.002803
# 4 -0.001042 0.000684 0.001481 0.024284 0.003911 -0.001443
# 5 -0.003053 -0.000001 0.003679 0.003911 0.029352 -0.003358
# 6 0.006000 0.007724 0.002803 -0.001443 -0.003358 0.037800
#
#
# Mechanical properties :
#
#
# Convention : Reuss Voigt Hill
#
# Bulk Modulus (GPa) = 36.33700 50.14396 43.24048
# Shear Modulus (GPa) = 34.58006 39.66248 37.12127
#
# Velocity S-wave (km/s) = 3.54778 3.79957 3.67583
# Velocity P-wave (km/s) = 5.47802 6.12379 5.80988
#
# Compressibility (1/GPa) = 0.02752016
#
# Stress axis : x y z
#
# Youngs Moduli (GPa) = 85.52587 72.71672 97.02160
#
# Poissons Ratio (x) = 0.17620 0.11253
# Poissons Ratio (y) = 0.20723 0.05168
# Poissons Ratio (z) = 0.09920 0.03873
#
# Static dielectric constant tensor:
#      x y z
#    x 5.152190 -0.115700 0.044410 
#    y -0.115700 4.878140 0.083130 
#    z 0.044410 0.083130 5.198370 
# 
# 
# High freq. dielectric constant tensor:
#      x y z
#    x 2.129050 0.000620 -0.000580 
#    y 0.000620 2.117230 0.000540 
#    z -0.000580 0.000540 2.126370 
# 
# From -- ./inp_files/101110.got.cif
#   From: 2010.06.25/outbox.cif.g09.slc.cpg/sg2_51_cif.got.tgz:101110.got - 2010.06.27 13:26:56.
