data_PCOD8035922
_publ_section_title
;
Structure prediction by ZEFSAII (Michael W. Deem and Ramdas Pophale) SiO2 
 PCOD8035922
Probable space group: P -1
;
_chemical_formula_sum "Si O2"
_cell_formula_units_Z 16
_cell_length_a 11.791035
_cell_length_b 19.646341
_cell_length_c 6.722193
_cell_angle_alpha 117.808765
_cell_angle_beta 132.046781
_cell_angle_gamma 38.294761
_cell_volume 710.677639
_symmetry_space_group_name_H-M "P -1"
_symmetry_group_IT_number 2
_symmetry_cell_setting 'triclinic'
loop_
_space_group_symop_operation_xyz
x,y,z
-x,-y,-z
loop_
_atom_site_type_symbol
_atom_site_label
_atom_site_fract_x
_atom_site_fract_y
_atom_site_fract_z
Si Si1 0.664951 0.335003 0.466070
Si Si2 0.195477 0.973272 0.813304
Si Si3 0.381323 0.521551 0.695323
Si Si4 0.969231 0.593270 0.488706
Si Si5 0.407660 0.279504 0.095734
Si Si6 0.694272 0.776647 0.733342
Si Si7 0.852581 0.868806 0.265616
Si Si8 0.330978 0.999823 0.389467
O O1 0.581005 0.416747 0.658024
O O2 0.715579 0.368153 0.376652
O O3 0.473197 0.343339 0.220895
O O4 0.895345 0.210510 0.616115
O O5 0.393945 0.844969 0.911199
O O6 0.281525 0.014176 0.840264
O O7 0.159235 0.023130 0.060602
O O8 0.000000 0.000000 0.500000
O O9 0.190784 0.532482 0.548564
O O10 0.500000 0.500000 0.000000
O O11 0.891639 0.683493 0.686675
O O12 0.000000 0.500000 0.500000
O O13 0.796581 0.659074 0.200014
O O14 0.353857 0.281085 0.266092
O O15 0.471724 0.881492 0.500868
O O16 0.769818 0.816001 0.026603
O O17 0.821777 0.894592 0.498667
O O18 0.500000 0.000000 0.500000
#
# Coordination Sequence:
#
# PCOD8035922 Si02
#       8
#     2   2   2   2   2   2   2   2
#     4  11  26  45  70 102 140 190 241 303 370 443
#     4  12  25  47  69 108 152 193 243 308 374 446
#     4  11  25  48  72 100 140 185 248 307 368 435
#     4  12  27  47  76 112 144 195 251 309 374 441
#     4  12  25  46  71 104 151 189 246 305 372 441
#     4  12  25  43  74 108 148 193 247 309 371 442
#     4  12  25  44  73 108 145 196 244 298 380 444
#     4  12  25  43  73 108 149 194 251 303 365 460
#
# _framework density 22.513724
#
# number of rings (size 3 to 8) (size 9 to 14) (size 15 to 20)
#    0.000    0.250    5.000    4.125    1.750    5.500 
#    2.250    0.000    0.000    0.000    0.000    0.000 
#    0.000    0.000    0.000    0.000    0.000    0.000 
#
# Total GULP energy -198328.079174 kJ/mol
# GULP energy per Si atom -12395.504948 kJ/mol
# Density = 2.246248 g / cm^3
# Si number density = 22.513724 Si / 1000 Ang^3
#
#
#
# Elastic Constant Matrix: (Units=GPa)
#
#
# Indices 1 2 3 4 5 6 
#
# 1 142.3607 36.4885 47.9611 -4.3219 -7.4015 13.0437
# 2 36.4885 92.0002 43.9822 -4.1848 -7.6791 2.0963
# 3 47.9611 43.9822 168.9748 -5.0390 -6.0926 -3.7754
# 4 -4.3219 -4.1848 -5.0390 36.1937 -4.4551 0.7763
# 5 -7.4015 -7.6791 -6.0926 -4.4551 34.8381 -1.2434
# 6 13.0437 2.0963 -3.7754 0.7763 -1.2434 40.1130
#
#
#
# Elastic Compliance Matrix: (Units=1/GPa)
#
#
# Indices 1 2 3 4 5 6 
#
# 1 0.008572 -0.002349 -0.001829 0.000677 0.000969 -0.002820
# 2 -0.002349 0.013320 -0.002693 0.001147 0.002108 -0.000143
# 3 -0.001829 -0.002693 0.007199 0.000490 0.000390 0.001416
# 4 0.000677 0.001147 0.000490 0.028429 0.004094 -0.000657
# 5 0.000969 0.002108 0.000390 0.004094 0.029983 0.000461
# 6 -0.002820 -0.000143 0.001416 -0.000657 0.000461 0.026014
#
#
# Mechanical properties :
#
#
# Convention : Reuss Voigt Hill
#
# Bulk Modulus (GPa) = 65.15928 73.35546 69.25737
# Shear Modulus (GPa) = 37.77094 40.55588 39.16341
#
# Velocity S-wave (km/s) = 4.10040 4.24888 4.17530
# Velocity P-wave (km/s) = 7.17095 7.53153 7.35345
#
# Compressibility (1/GPa) = 0.01534701
#
# Stress axis : x y z
#
# Youngs Moduli (GPa) = 116.65571 75.07400 138.91520
#
# Poissons Ratio (x) = 0.17637 0.25414
# Poissons Ratio (y) = 0.27406 0.37414
# Poissons Ratio (z) = 0.21342 0.20219
#
# Static dielectric constant tensor:
#      x y z
#    x 4.143090 -0.003700 -0.180210 
#    y -0.003700 4.601680 0.026640 
#    z -0.180210 0.026640 4.284500 
# 
# 
# High freq. dielectric constant tensor:
#      x y z
#    x 1.893730 0.004850 -0.008600 
#    y 0.004850 1.899200 0.002630 
#    z -0.008600 0.002630 1.894430 
# 
# From -- ./inp_files/83487.got.cif
#   From: 2010.06.25/outbox.cif.g09.slc.cpg/sg2_42_cif.got.tgz:83487.got - 2010.06.27 13:26:56.
