data_PCOD8035730
_publ_section_title
;
Structure prediction by ZEFSAII (Michael W. Deem and Ramdas Pophale) SiO2 
 PCOD8035730
Probable space group: P -1
;
_chemical_formula_sum "Si O2"
_cell_formula_units_Z 12
_cell_length_a 9.604194
_cell_length_b 10.560377
_cell_length_c 8.873324
_cell_angle_alpha 141.669073
_cell_angle_beta 101.229359
_cell_angle_gamma 93.513057
_cell_volume 512.470236
_symmetry_space_group_name_H-M "P -1"
_symmetry_group_IT_number 2
_symmetry_cell_setting 'triclinic'
loop_
_space_group_symop_operation_xyz
x,y,z
-x,-y,-z
loop_
_atom_site_type_symbol
_atom_site_label
_atom_site_fract_x
_atom_site_fract_y
_atom_site_fract_z
Si Si1 0.529200 0.283165 0.671898
Si Si2 0.214905 0.162789 0.012698
Si Si3 0.309471 0.437169 0.581575
Si Si4 0.868910 0.498224 0.858854
Si Si5 0.491141 0.161880 0.879086
Si Si6 0.979393 0.307729 0.435942
O O1 0.452415 0.412978 0.673829
O O2 0.709941 0.393069 0.810217
O O3 0.475823 0.283780 0.833784
O O4 0.473332 0.046980 0.362438
O O5 0.336440 0.103444 0.884209
O O6 0.107384 0.942636 0.868923
O O7 0.297182 0.349844 0.327198
O O8 0.114169 0.261737 0.977385
O O9 0.150720 0.327389 0.533965
O O10 0.365498 0.701963 0.854882
O O11 0.879710 0.340960 0.580924
O O12 0.000000 0.500000 0.000000
O O13 0.000000 0.500000 0.500000
#
# Coordination Sequence:
#
# PCOD8035730 Si02
#       6
#     2   2   2   2   2   2
#     4  11  26  47  74 109 146 195 247 303 364 431
#     4  12  27  47  75 112 146 196 246 302 370 434
#     4  12  26  44  77 106 149 192 243 306 361 435
#     4  12  27  48  75 109 151 193 244 301 371 441
#     4  11  25  46  74 109 147 191 249 300 364 434
#     4  12  28  49  71 110 152 191 246 302 368 439
#
# _framework density 23.415993
#
# number of rings (size 3 to 8) (size 9 to 14) (size 15 to 20)
#    0.000    0.333    5.000    2.500    4.667    4.000 
#    0.000    0.000    0.000    0.000    0.000    0.000 
#    0.000    0.000    0.000    0.000    0.000    0.000 
#
# Total GULP energy -148751.961050 kJ/mol
# GULP energy per Si atom -12395.996754 kJ/mol
# Density = 2.336270 g / cm^3
# Si number density = 23.415993 Si / 1000 Ang^3
#
#
#
# Elastic Constant Matrix: (Units=GPa)
#
#
# Indices 1 2 3 4 5 6 
#
# 1 129.8888 24.8087 42.8324 -10.3806 16.1362 16.8725
# 2 24.8087 105.6790 65.1065 8.1162 11.6996 8.9521
# 3 42.8324 65.1065 158.1969 5.9353 12.7375 3.2932
# 4 -10.3806 8.1162 5.9353 26.2976 7.9970 5.7266
# 5 16.1362 11.6996 12.7375 7.9970 39.5886 -4.4187
# 6 16.8725 8.9521 3.2932 5.7266 -4.4187 30.5858
#
#
#
# Elastic Compliance Matrix: (Units=1/GPa)
#
#
# Indices 1 2 3 4 5 6 
#
# 1 0.011185 -0.000327 -0.002539 0.008850 -0.006369 -0.008379
# 2 -0.000327 0.013313 -0.005085 -0.001745 -0.002165 -0.003155
# 3 -0.002539 -0.005085 0.009108 -0.002086 0.000290 0.002341
# 4 0.008850 -0.001745 -0.002086 0.050289 -0.014324 -0.015632
# 5 -0.006369 -0.002165 0.000290 -0.014324 0.032580 0.011504
# 6 -0.008379 -0.003155 0.002341 -0.015632 0.011504 0.042577
#
#
# Mechanical properties :
#
#
# Convention : Reuss Voigt Hill
#
# Bulk Modulus (GPa) = 56.48175 73.25110 64.86643
# Shear Modulus (GPa) = 27.64644 36.69553 32.17098
#
# Velocity S-wave (km/s) = 3.43981 3.96297 3.71062
# Velocity P-wave (km/s) = 6.32058 7.23123 6.79118
#
# Compressibility (1/GPa) = 0.01770483
#
# Stress axis : x y z
#
# Youngs Moduli (GPa) = 89.40232 75.11407 109.79733
#
# Poissons Ratio (x) = 0.02453 0.27877
# Poissons Ratio (y) = 0.02919 0.55834
# Poissons Ratio (z) = 0.22699 0.38197
#
# Static dielectric constant tensor:
#      x y z
#    x 4.296940 -0.148770 -0.085810 
#    y -0.148770 4.117560 0.254980 
#    z -0.085810 0.254980 4.263740 
# 
# 
# High freq. dielectric constant tensor:
#      x y z
#    x 1.943160 0.002830 -0.015050 
#    y 0.002830 1.918390 0.012730 
#    z -0.015050 0.012730 1.941510 
# 
# From -- ./inp_files/159884.got.cif
#   From: 2010.06.25/outbox.cif.g09.slc.cpg/sg2_80_cif.got.tgz:159884.got - 2010.06.27 13:26:56.
