data_PCOD8035727
_publ_section_title
;
Structure prediction by ZEFSAII (Michael W. Deem and Ramdas Pophale) SiO2 
 PCOD8035727
Probable space group: P -1
;
_chemical_formula_sum "Si O2"
_cell_formula_units_Z 12
_cell_length_a 8.790524
_cell_length_b 10.722691
_cell_length_c 14.125268
_cell_angle_alpha 29.918800
_cell_angle_beta 56.869634
_cell_angle_gamma 70.382929
_cell_volume 524.897569
_symmetry_space_group_name_H-M "P -1"
_symmetry_group_IT_number 2
_symmetry_cell_setting 'triclinic'
loop_
_space_group_symop_operation_xyz
x,y,z
-x,-y,-z
loop_
_atom_site_type_symbol
_atom_site_label
_atom_site_fract_x
_atom_site_fract_y
_atom_site_fract_z
Si Si1 0.321338 0.869087 0.421653
Si Si2 0.323309 0.321957 0.238007
Si Si3 0.968733 0.845075 0.255571
Si Si4 0.362871 0.076192 0.067986
Si Si5 0.426007 0.326907 0.405033
Si Si6 0.026361 0.619893 0.190355
O O1 0.499017 0.864833 0.429474
O O2 0.177576 0.575504 0.647086
O O3 0.218958 0.057346 0.385710
O O4 0.411703 0.999160 0.206360
O O5 0.391721 0.223707 0.376999
O O6 0.187041 0.491489 0.195865
O O7 0.500000 0.500000 0.000000
O O8 0.774696 0.660894 0.492451
O O9 0.021572 0.670528 0.270926
O O10 0.138624 0.927903 0.220367
O O11 0.930010 0.103628 0.059442
O O12 0.409498 0.388519 0.839139
O O13 0.500000 0.000000 0.000000
#
# Coordination Sequence:
#
# PCOD8035727 Si02
#       6
#     2   2   2   2   2   2
#     4  12  26  47  74 108 146 193 242 295 361 433
#     4  12  25  47  72 105 147 193 242 295 361 432
#     4  11  26  47  73 109 148 187 242 302 361 423
#     4  12  26  45  74 108 145 190 242 297 360 427
#     4  12  26  48  74 109 144 190 243 299 360 426
#     4  11  25  46  74 107 146 193 242 297 360 429
#
# _framework density 22.861605000000001
#
# number of rings (size 3 to 8) (size 9 to 14) (size 15 to 20)
#    0.000    0.333    3.333    5.000    4.667    3.333 
#    0.000    2.500    0.000    0.000    0.000    0.000 
#    0.000    0.000    0.000    0.000    0.000    0.000 
#
# Total GULP energy -148853.962162 kJ/mol
# GULP energy per Si atom -12404.496847 kJ/mol
# Density = 2.280957 g / cm^3
# Si number density = 22.861605 Si / 1000 Ang^3
#
#
#
# Elastic Constant Matrix: (Units=GPa)
#
#
# Indices 1 2 3 4 5 6 
#
# 1 123.1028 49.2534 42.8785 21.4918 10.0718 2.2570
# 2 49.2534 156.3515 47.2941 9.1714 12.3640 4.7374
# 3 42.8785 47.2941 103.1043 10.9422 0.5754 2.1096
# 4 21.4918 9.1714 10.9422 47.9424 8.6256 1.2881
# 5 10.0718 12.3640 0.5754 8.6256 37.9381 6.7167
# 6 2.2570 4.7374 2.1096 1.2881 6.7167 37.0047
#
#
#
# Elastic Compliance Matrix: (Units=1/GPa)
#
#
# Indices 1 2 3 4 5 6 
#
# 1 0.010785 -0.002145 -0.003129 -0.003471 -0.001356 0.000162
# 2 -0.002145 0.008079 -0.002842 0.000444 -0.002053 -0.000384
# 3 -0.003129 -0.002842 0.012432 -0.001226 0.001929 -0.000462
# 4 -0.003471 0.000444 -0.001226 0.023425 -0.004573 0.000239
# 5 -0.001356 -0.002053 0.001929 -0.004573 0.029269 -0.004918
# 6 0.000162 -0.000384 -0.000462 0.000239 -0.004918 0.027973
#
#
# Mechanical properties :
#
#
# Convention : Reuss Voigt Hill
#
# Bulk Modulus (GPa) = 66.37635 73.49007 69.93321
# Shear Modulus (GPa) = 37.53253 40.78588 39.15920
#
# Velocity S-wave (km/s) = 4.05622 4.22837 4.14319
# Velocity P-wave (km/s) = 7.14383 7.48693 7.31739
#
# Compressibility (1/GPa) = 0.01506561
#
# Stress axis : x y z
#
# Youngs Moduli (GPa) = 92.71863 123.77574 80.43559
#
# Poissons Ratio (x) = 0.26553 0.25166
# Poissons Ratio (y) = 0.19890 0.22857
# Poissons Ratio (z) = 0.29009 0.35172
#
# Static dielectric constant tensor:
#      x y z
#    x 4.144840 0.178760 0.051870 
#    y 0.178760 4.444850 -0.107310 
#    z 0.051870 -0.107310 4.267480 
# 
# 
# High freq. dielectric constant tensor:
#      x y z
#    x 1.905820 0.007850 0.007150 
#    y 0.007850 1.914730 -0.003900 
#    z 0.007150 -0.003900 1.917660 
# 
# From -- ./inp_files/236928.got.cif
#   From: 2010.06.25/outbox.cif.g09.slc.cpg/sg2_119_cif.got.tgz:236928.got - 2010.06.27 13:26:56.
