data_PCOD8035728
_publ_section_title
;
Structure prediction by ZEFSAII (Michael W. Deem and Ramdas Pophale) SiO2 
 PCOD8035728
Probable space group: P -1
;
_chemical_formula_sum "Si O2"
_cell_formula_units_Z 16
_cell_length_a 14.653799
_cell_length_b 9.548638
_cell_length_c 12.063909
_cell_angle_alpha 113.667191
_cell_angle_beta 61.073961
_cell_angle_gamma 61.003555
_cell_volume 719.512529
_symmetry_space_group_name_H-M "P -1"
_symmetry_group_IT_number 2
_symmetry_cell_setting 'triclinic'
loop_
_space_group_symop_operation_xyz
x,y,z
-x,-y,-z
loop_
_atom_site_type_symbol
_atom_site_label
_atom_site_fract_x
_atom_site_fract_y
_atom_site_fract_z
Si Si1 0.414166 0.247364 0.430607
Si Si2 0.724606 0.322478 0.513643
Si Si3 0.915663 0.545391 0.232325
Si Si4 0.893243 0.130653 0.720982
Si Si5 0.741655 0.976228 0.294703
Si Si6 0.624111 0.722562 0.007552
Si Si7 0.608052 0.219201 0.982046
Si Si8 0.874696 0.649655 0.732094
O O1 0.359802 0.428590 0.422095
O O2 0.217156 0.436878 0.664931
O O3 0.533368 0.179456 0.436921
O O4 0.532614 0.957773 0.219453
O O5 0.582182 0.469274 0.749341
O O6 0.726779 0.174786 0.385506
O O7 0.946044 0.083547 0.345287
O O8 0.794552 0.827721 0.331115
O O9 0.982596 0.533263 0.305198
O O10 0.100228 0.257454 0.965092
O O11 0.774891 0.435760 0.901249
O O12 0.737816 0.185818 0.834997
O O13 0.000000 0.000000 0.500000
O O14 0.457155 0.823124 0.085190
O O15 0.740337 0.663781 0.820339
O O16 0.738345 0.969667 0.918271
O O17 0.000000 0.500000 0.500000
#
# Coordination Sequence:
#
# PCOD8035728 Si02
#       8
#     2   2   2   2   2   2   2   2
#     4  12  26  47  74 107 138 191 243 300 361 425
#     4  12  27  46  74 103 146 191 241 300 363 429
#     4  11  25  46  74 108 141 189 244 296 364 423
#     4  12  27  46  68 107 151 194 241 297 370 433
#     4  11  26  49  73 103 147 188 246 303 352 428
#     4  12  25  45  73 106 150 189 242 298 361 438
#     4  12  26  44  70 107 146 193 240 298 365 434
#     4  12  24  44  76 107 149 190 235 299 364 432
#
# _framework density 22.237279000000001
#
# number of rings (size 3 to 8) (size 9 to 14) (size 15 to 20)
#    0.000    0.250    3.750    4.500    5.250    1.500 
#    0.000    0.000    0.000    0.000    0.000    0.000 
#    0.000    0.000    0.000    0.000    0.000    0.000 
#
# Total GULP energy -198516.679268 kJ/mol
# GULP energy per Si atom -12407.292454 kJ/mol
# Density = 2.218667 g / cm^3
# Si number density = 22.237279 Si / 1000 Ang^3
#
#
#
# Elastic Constant Matrix: (Units=GPa)
#
#
# Indices 1 2 3 4 5 6 
#
# 1 131.2445 46.1488 42.1438 -6.7251 -10.3617 2.3116
# 2 46.1488 127.8027 44.6546 5.1025 -2.5733 1.5959
# 3 42.1438 44.6546 58.0205 -6.1643 -16.4958 5.2008
# 4 -6.7251 5.1025 -6.1643 42.6320 11.8841 -3.7049
# 5 -10.3617 -2.5733 -16.4958 11.8841 40.1167 -5.7617
# 6 2.3116 1.5959 5.2008 -3.7049 -5.7617 46.2231
#
#
#
# Elastic Compliance Matrix: (Units=1/GPa)
#
#
# Indices 1 2 3 4 5 6 
#
# 1 0.010181 -0.001563 -0.006189 0.000998 -0.000270 0.000288
# 2 -0.001563 0.011439 -0.008640 -0.002135 -0.002567 0.000164
# 3 -0.006189 -0.008640 0.031572 0.001669 0.010112 -0.001550
# 4 0.000998 -0.002135 0.001669 0.026091 -0.006766 0.001084
# 5 -0.000270 -0.002567 0.010112 -0.006766 0.031187 0.002309
# 6 0.000288 0.000164 -0.001550 0.001084 0.002309 0.022163
#
#
# Mechanical properties :
#
#
# Convention : Reuss Voigt Hill
#
# Bulk Modulus (GPa) = 48.99917 64.77357 56.88637
# Shear Modulus (GPa) = 29.03265 38.06905 33.55085
#
# Velocity S-wave (km/s) = 3.61721 4.14206 3.88850
# Velocity P-wave (km/s) = 6.28714 7.21576 6.76739
#
# Compressibility (1/GPa) = 0.02040851
#
# Stress axis : x y z
#
# Youngs Moduli (GPa) = 98.22300 87.41772 31.67399
#
# Poissons Ratio (x) = 0.13662 0.19602
# Poissons Ratio (y) = 0.15351 0.27367
# Poissons Ratio (z) = 0.60787 0.75531
#
# Static dielectric constant tensor:
#      x y z
#    x 4.214650 -0.032270 -0.297230 
#    y -0.032270 4.276380 0.162930 
#    z -0.297230 0.162930 4.153780 
# 
# 
# High freq. dielectric constant tensor:
#      x y z
#    x 1.881400 0.002230 -0.015590 
#    y 0.002230 1.889980 0.008070 
#    z -0.015590 0.008070 1.884560 
# 
# From -- ./inp_files/447815.got.cif
#   From: 2010.06.25/outbox.cif.g09.slc.cpg/sg2_224_cif.got.tgz:447815.got - 2010.06.27 13:26:56.
