data_PCOD8035807
_publ_section_title
;
Structure prediction by ZEFSAII (Michael W. Deem and Ramdas Pophale) SiO2 
 PCOD8035807
Probable space group: P -1
;
_chemical_formula_sum "Si O2"
_cell_formula_units_Z 14
_cell_length_a 11.717646
_cell_length_b 11.176864
_cell_length_c 7.039872
_cell_angle_alpha 76.584055
_cell_angle_beta 65.825915
_cell_angle_gamma 46.885806
_cell_volume 612.434347
_symmetry_space_group_name_H-M "P -1"
_symmetry_group_IT_number 2
_symmetry_cell_setting 'triclinic'
loop_
_space_group_symop_operation_xyz
x,y,z
-x,-y,-z
loop_
_atom_site_type_symbol
_atom_site_label
_atom_site_fract_x
_atom_site_fract_y
_atom_site_fract_z
Si Si1 0.103492 0.718185 0.694776
Si Si2 0.360497 0.191427 0.973351
Si Si3 0.318055 0.640591 0.244727
Si Si4 0.088432 0.328912 0.414176
Si Si5 0.685495 0.911803 0.328103
Si Si6 0.150717 0.967289 0.022129
Si Si7 0.340976 0.477057 0.943730
O O1 0.232909 0.712288 0.482637
O O2 0.183775 0.606223 0.867984
O O3 0.056494 0.648225 0.599350
O O4 0.936633 0.899939 0.798003
O O5 0.281638 0.207917 0.817906
O O6 0.424420 0.290339 0.903006
O O7 0.218827 0.289722 0.187892
O O8 0.500000 0.000000 0.000000
O O9 0.515681 0.516111 0.197282
O O10 0.268556 0.787256 0.092687
O O11 0.281452 0.539201 0.181908
O O12 0.179443 0.189042 0.562484
O O13 0.000000 0.500000 0.500000
O O14 0.500000 0.000000 0.500000
O O15 0.722333 0.026853 0.186077
O O16 0.000000 0.000000 0.000000
#
# Coordination Sequence:
#
# PCOD8035807 Si02
#       7
#     2   2   2   2   2   2   2
#     4  12  25  46  72 106 142 196 244 304 380 433
#     4  12  25  48  73 107 146 196 248 306 376 455
#     4  11  25  47  71 107 146 194 243 306 377 443
#     4  12  27  44  74 107 146 190 246 311 374 436
#     4  12  27  48  74 110 149 198 250 307 375 453
#     4  12  25  47  76 108 152 191 253 310 370 445
#     4  11  26  45  73 103 150 188 250 307 369 452
#
# _framework density 22.859593
#
# number of rings (size 3 to 8) (size 9 to 14) (size 15 to 20)
#    0.000    0.286    4.286    4.286    2.000    2.286 
#    2.571    0.000    0.000    0.000    0.000    0.000 
#    0.000    0.000    0.000    0.000    0.000    0.000 
#
# Total GULP energy -173519.862130 kJ/mol
# GULP energy per Si atom -12394.275866 kJ/mol
# Density = 2.280756 g / cm^3
# Si number density = 22.859593 Si / 1000 Ang^3
#
#
#
# Elastic Constant Matrix: (Units=GPa)
#
#
# Indices 1 2 3 4 5 6 
#
# 1 100.2666 33.9373 36.6195 2.3798 16.0316 9.5271
# 2 33.9373 105.2939 24.5273 15.9151 6.0164 9.6587
# 3 36.6195 24.5273 113.1465 20.4819 0.7884 5.7493
# 4 2.3798 15.9151 20.4819 36.7594 -3.9440 3.1890
# 5 16.0316 6.0164 0.7884 -3.9440 45.5389 2.0571
# 6 9.5271 9.6587 5.7493 3.1890 2.0571 42.1547
#
#
#
# Elastic Compliance Matrix: (Units=1/GPa)
#
#
# Indices 1 2 3 4 5 6 
#
# 1 0.013257 -0.003367 -0.003901 0.002506 -0.003861 -0.001694
# 2 -0.003367 0.011546 -0.000534 -0.004428 -0.000649 -0.001445
# 3 -0.003901 -0.000534 0.011248 -0.005690 0.000763 -0.000137
# 4 0.002506 -0.004428 -0.005690 0.032535 0.002681 -0.001368
# 5 -0.003861 -0.000649 0.000763 0.002681 0.023643 -0.000439
# 6 -0.001694 -0.001445 -0.000137 -0.001368 -0.000439 0.024580
#
#
# Mechanical properties :
#
#
# Convention : Reuss Voigt Hill
#
# Bulk Modulus (GPa) = 48.90743 56.54170 52.72456
# Shear Modulus (GPa) = 35.91249 39.79878 37.85563
#
# Velocity S-wave (km/s) = 3.96789 4.17707 4.07382
# Velocity P-wave (km/s) = 6.51409 6.93195 6.72626
#
# Compressibility (1/GPa) = 0.02044679
#
# Stress axis : x y z
#
# Youngs Moduli (GPa) = 75.43428 86.61336 88.90410
#
# Poissons Ratio (x) = 0.29160 0.34684
# Poissons Ratio (y) = 0.25397 0.04745
# Poissons Ratio (z) = 0.29429 0.04623
#
# Static dielectric constant tensor:
#      x y z
#    x 2.963420 1.108330 1.249080 
#    y 1.108330 3.377250 -0.668300 
#    z 1.249080 -0.668300 3.518870 
# 
# 
# High freq. dielectric constant tensor:
#      x y z
#    x 1.919580 -0.001740 0.007780 
#    y -0.001740 1.900540 0.013830 
#    z 0.007780 0.013830 1.913640 
# 
# From -- ./inp_files/69680.got.cif
#   From: 2010.06.25/outbox.cif.g09.slc.cpg/sg2_35_cif.got.tgz:69680.got - 2010.06.27 13:26:56.
