data_PCOD8035214
_publ_section_title
;
Structure prediction by ZEFSAII (Michael W. Deem and Ramdas Pophale) SiO2 
 PCOD8035214
Probable space group: P -1
;
_chemical_formula_sum "Si O2"
_cell_formula_units_Z 12
_cell_length_a 11.268223
_cell_length_b 11.855492
_cell_length_c 11.423080
_cell_angle_alpha 138.125920
_cell_angle_beta 145.523337
_cell_angle_gamma 38.574114
_cell_volume 516.493494
_symmetry_space_group_name_H-M "P -1"
_symmetry_group_IT_number 2
_symmetry_cell_setting 'triclinic'
loop_
_space_group_symop_operation_xyz
x,y,z
-x,-y,-z
loop_
_atom_site_type_symbol
_atom_site_label
_atom_site_fract_x
_atom_site_fract_y
_atom_site_fract_z
Si Si1 0.198758 0.289176 0.473568
Si Si2 0.690872 0.325339 0.369074
Si Si3 0.556336 0.735735 0.671603
Si Si4 0.043732 0.195679 0.039855
Si Si5 0.145155 0.042676 0.426393
Si Si6 0.468288 0.542987 0.143518
O O1 0.131659 0.182624 0.234326
O O2 0.252542 0.163330 0.536797
O O3 0.434313 0.301486 0.633974
O O4 0.000000 0.500000 0.500000
O O5 0.662666 0.522112 0.549318
O O6 0.537974 0.248025 0.260165
O O7 0.610208 0.354925 0.190147
O O8 0.963172 0.176587 0.479268
O O9 0.767122 0.794503 0.888674
O O10 0.344454 0.866345 0.516636
O O11 0.797628 0.381502 0.973073
O O12 0.002111 0.017725 0.832191
O O13 0.500000 0.500000 0.000000
#
# Coordination Sequence:
#
# PCOD8035214 Si02
#       6
#     2   2   2   2   2   2
#     4  12  23  44  70 104 142 182 233 293 348 413
#     4  11  24  50  71 101 143 187 237 289 347 412
#     4  11  26  48  72 100 144 189 235 291 342 419
#     4  12  24  44  67 108 143 184 232 289 355 410
#     4  12  25  45  72 105 143 183 236 288 353 418
#     4  12  24  44  73 105 134 181 236 285 350 415
#
# _framework density 23.233592000000002
#
# number of rings (size 3 to 8) (size 9 to 14) (size 15 to 20)
#    0.000    0.333    6.667    1.000    0.000    6.667 
#    0.000    0.000    0.000    0.000    0.000    0.000 
#    0.000    0.000    0.000    0.000    0.000    0.000 
#
# Total GULP energy -148818.834993 kJ/mol
# GULP energy per Si atom -12401.569583 kJ/mol
# Density = 2.318071 g / cm^3
# Si number density = 23.233592 Si / 1000 Ang^3
#
#
#
# Elastic Constant Matrix: (Units=GPa)
#
#
# Indices 1 2 3 4 5 6 
#
# 1 165.8785 46.0367 49.3702 -4.9538 20.4215 11.0926
# 2 46.0367 85.3808 35.7277 6.6049 2.5834 -8.8200
# 3 49.3702 35.7277 98.5448 -12.2471 12.6668 3.2031
# 4 -4.9538 6.6049 -12.2471 19.3361 -4.7232 6.5758
# 5 20.4215 2.5834 12.6668 -4.7232 40.3643 -5.3432
# 6 11.0926 -8.8200 3.2031 6.5758 -5.3432 40.3177
#
#
#
# Elastic Compliance Matrix: (Units=1/GPa)
#
#
# Indices 1 2 3 4 5 6 
#
# 1 0.008620 -0.004534 -0.001653 0.003245 -0.003736 -0.004257
# 2 -0.004534 0.019042 -0.007061 -0.014421 0.002754 0.008691
# 3 -0.001653 -0.007061 0.015643 0.012854 -0.002751 -0.004794
# 4 0.003245 -0.014421 0.012854 0.071596 0.001433 -0.016556
# 5 -0.003736 0.002754 -0.002751 0.001433 0.028228 0.005356
# 6 -0.004257 0.008691 -0.004794 -0.016556 0.005356 0.031666
#
#
# Mechanical properties :
#
#
# Convention : Reuss Voigt Hill
#
# Bulk Modulus (GPa) = 59.49196 68.00815 63.75006
# Shear Modulus (GPa) = 24.16692 34.58158 29.37425
#
# Velocity S-wave (km/s) = 3.22867 3.86220 3.55956
# Velocity P-wave (km/s) = 6.28973 7.01597 6.66275
#
# Compressibility (1/GPa) = 0.01680899
#
# Stress axis : x y z
#
# Youngs Moduli (GPa) = 116.00445 52.51667 63.92770
#
# Poissons Ratio (x) = 0.23811 0.10567
# Poissons Ratio (y) = 0.52597 0.45138
# Poissons Ratio (z) = 0.19175 0.37081
#
# Static dielectric constant tensor:
#      x y z
#    x 4.593500 -0.076480 0.162610 
#    y -0.076480 4.124500 -0.073900 
#    z 0.162610 -0.073900 4.285850 
# 
# 
# High freq. dielectric constant tensor:
#      x y z
#    x 1.938780 -0.010420 0.009280 
#    y -0.010420 1.919490 -0.001560 
#    z 0.009280 -0.001560 1.903020 
# 
# From -- ./inp_files/89644.got.cif
#   From: 2010.06.25/outbox.cif.g09.slc.cpg/sg2_45_cif.got.tgz:89644.got - 2010.06.27 13:26:56.
