data_PCOD8035770
_publ_section_title
;
Structure prediction by ZEFSAII (Michael W. Deem and Ramdas Pophale) SiO2 
 PCOD8035770
Probable space group: P -1
;
_chemical_formula_sum "Si O2"
_cell_formula_units_Z 16
_cell_length_a 9.327769
_cell_length_b 8.834314
_cell_length_c 18.294654
_cell_angle_alpha 60.618334
_cell_angle_beta 38.386614
_cell_angle_gamma 85.306759
_cell_volume 676.089288
_symmetry_space_group_name_H-M "P -1"
_symmetry_group_IT_number 2
_symmetry_cell_setting 'triclinic'
loop_
_space_group_symop_operation_xyz
x,y,z
-x,-y,-z
loop_
_atom_site_type_symbol
_atom_site_label
_atom_site_fract_x
_atom_site_fract_y
_atom_site_fract_z
Si Si1 0.439218 0.676388 0.482128
Si Si2 0.700471 0.004452 0.857905
Si Si3 0.260926 0.605578 0.732357
Si Si4 0.958118 0.136498 0.172029
Si Si5 0.928590 0.154725 0.024450
Si Si6 0.714128 0.691013 0.647594
Si Si7 0.031661 0.532850 0.393214
Si Si8 0.351929 0.051712 0.271425
O O1 0.500000 0.500000 0.500000
O O2 0.323247 0.679284 0.606880
O O3 0.229967 0.641246 0.508940
O O4 0.713614 0.901058 0.305400
O O5 0.926513 0.249604 0.695898
O O6 0.569155 0.896731 0.858120
O O7 0.822872 0.873363 0.864788
O O8 0.500000 0.000000 0.000000
O O9 0.135919 0.729035 0.783586
O O10 0.536625 0.664777 0.652964
O O11 0.036207 0.355296 0.882174
O O12 0.092710 0.245998 0.014262
O O13 0.598250 0.027248 0.204795
O O14 0.000000 0.000000 0.000000
O O15 0.702796 0.482826 0.725568
O O16 0.613110 0.754951 0.743322
O O17 0.041244 0.853212 0.457225
O O18 0.000000 0.500000 0.500000
#
# Coordination Sequence:
#
# PCOD8035770 Si02
#       8
#     2   2   2   2   2   2   2   2
#     4  12  25  47  74 112 146 191 249 312 369 439
#     4  12  28  47  71 110 151 198 245 315 380 440
#     4  12  28  47  80 110 149 199 250 309 380 445
#     4  12  26  49  72 107 154 191 252 306 371 449
#     4  12  27  49  77 108 151 202 249 309 374 456
#     4  11  25  46  77 113 145 197 254 308 367 458
#     4  12  26  46  73 105 147 195 252 302 370 452
#     4  11  25  47  74 110 152 195 250 306 384 440
#
# _framework density 23.665513000000001
#
# number of rings (size 3 to 8) (size 9 to 14) (size 15 to 20)
#    0.000    0.250    3.750    4.500    8.750    0.000 
#    0.000    1.250    0.000    0.000    0.000    0.000 
#    0.000    0.000    0.000    0.000    0.000    0.000 
#
# Total GULP energy -198312.108458 kJ/mol
# GULP energy per Si atom -12394.506779 kJ/mol
# Density = 2.361165 g / cm^3
# Si number density = 23.665513 Si / 1000 Ang^3
#
#
#
# Elastic Constant Matrix: (Units=GPa)
#
#
# Indices 1 2 3 4 5 6 
#
# 1 122.6665 43.1791 12.4199 16.8807 2.6670 -0.2518
# 2 43.1791 150.1933 12.1686 36.7951 -11.1170 -13.1027
# 3 12.4199 12.1686 54.1978 15.8263 -2.3468 1.5907
# 4 16.8807 36.7951 15.8263 44.1262 4.6310 3.8390
# 5 2.6670 -11.1170 -2.3468 4.6310 39.3663 12.7657
# 6 -0.2518 -13.1027 1.5907 3.8390 12.7657 54.5999
#
#
#
# Elastic Compliance Matrix: (Units=1/GPa)
#
#
# Indices 1 2 3 4 5 6 
#
# 1 0.009303 -0.002455 -0.001375 -0.000874 -0.001254 -0.000152
# 2 -0.002455 0.009658 0.000781 -0.007911 0.003192 0.002093
# 3 -0.001375 0.000781 0.021028 -0.007903 0.002658 -0.000497
# 4 -0.000874 -0.007911 -0.007903 0.033258 -0.005689 -0.002681
# 5 -0.001254 0.003192 0.002658 -0.005689 0.029069 -0.005714
# 6 -0.000152 0.002093 -0.000497 -0.002681 -0.005714 0.020356
#
#
# Mechanical properties :
#
#
# Convention : Reuss Voigt Hill
#
# Bulk Modulus (GPa) = 29.50704 51.39922 40.45313
# Shear Modulus (GPa) = 35.69726 44.90448 40.30087
#
# Velocity S-wave (km/s) = 3.88804 4.36072 4.13114
# Velocity P-wave (km/s) = 5.71412 6.86445 6.31553
#
# Compressibility (1/GPa) = 0.03389021
#
# Stress axis : x y z
#
# Youngs Moduli (GPa) = 107.49473 103.54517 47.55530
#
# Poissons Ratio (x) = 0.25421 0.06540
# Poissons Ratio (y) = 0.26390 -0.03715
# Poissons Ratio (z) = 0.14784 -0.08089
#
# Static dielectric constant tensor:
#      x y z
#    x 4.375230 -0.524880 0.817720 
#    y -0.524880 4.249440 0.552940 
#    z 0.817720 0.552940 3.914040 
# 
# 
# High freq. dielectric constant tensor:
#      x y z
#    x 1.957040 -0.001970 0.006000 
#    y -0.001970 1.958570 0.010050 
#    z 0.006000 0.010050 1.930080 
# 
# From -- ./inp_files/556947.got.cif
#   From: 2010.06.25/outbox.cif.g09.slc.cpg/sg2_279_cif.got.tgz:556947.got - 2010.06.27 13:26:56.
