data_PCOD8035387
_publ_section_title
;
Structure prediction by ZEFSAII (Michael W. Deem and Ramdas Pophale) SiO2 
 PCOD8035387
Probable space group: P -1
;
_chemical_formula_sum "Si O2"
_cell_formula_units_Z 14
_cell_length_a 30.065651
_cell_length_b 8.956114
_cell_length_c 6.443762
_cell_angle_alpha 56.782096
_cell_angle_beta 49.368595
_cell_angle_gamma 27.271671
_cell_volume 600.975416
_symmetry_space_group_name_H-M "P -1"
_symmetry_group_IT_number 2
_symmetry_cell_setting 'triclinic'
loop_
_space_group_symop_operation_xyz
x,y,z
-x,-y,-z
loop_
_atom_site_type_symbol
_atom_site_label
_atom_site_fract_x
_atom_site_fract_y
_atom_site_fract_z
Si Si1 0.884593 0.866993 0.632551
Si Si2 0.309879 0.331742 0.909402
Si Si3 0.594273 0.117835 0.382882
Si Si4 0.889094 0.237864 0.549247
Si Si5 0.224805 0.141369 0.738213
Si Si6 0.712862 0.248771 0.518497
Si Si7 0.494359 0.329161 0.935059
O O1 0.000000 0.500000 0.500000
O O2 0.895012 0.040971 0.551829
O O3 0.813786 0.049675 0.501067
O O4 0.834359 0.870028 0.959787
O O5 0.195491 0.559318 0.161676
O O6 0.400240 0.011540 0.017063
O O7 0.315024 0.532406 0.738360
O O8 0.329478 0.221659 0.696176
O O9 0.514913 0.227221 0.706352
O O10 0.521820 0.411736 0.207718
O O11 0.668103 0.079279 0.296507
O O12 0.855503 0.484914 0.311246
O O13 0.000000 0.000000 0.500000
O O14 0.258017 0.003480 0.506265
O O15 0.611584 0.491834 0.792660
#
# Coordination Sequence:
#
# PCOD8035387 Si02
#       7
#     2   2   2   2   2   2   2
#     4  12  29  51  76 111 144 189 247 300 365 436
#     4  12  26  46  70 109 149 189 246 301 361 429
#     4  11  25  44  73 104 148 194 244 297 355 434
#     4  12  28  50  78 108 145 191 246 300 365 436
#     4  12  26  50  77 106 150 194 240 301 365 425
#     4  12  27  46  74 107 151 191 241 304 358 431
#     4  11  25  44  71 108 146 194 244 291 365 429
#
# _framework density 23.295461
#
# number of rings (size 3 to 8) (size 9 to 14) (size 15 to 20)
#    0.000    0.286    4.286    3.429    8.000    2.286 
#    0.000    0.000    0.000    0.000    0.000    0.000 
#    0.000    0.000    0.000    0.000    0.000    0.000 
#
# Total GULP energy -173615.599290 kJ/mol
# GULP energy per Si atom -12401.114235 kJ/mol
# Density = 2.324244 g / cm^3
# Si number density = 23.295461 Si / 1000 Ang^3
#
#
#
# Elastic Constant Matrix: (Units=GPa)
#
#
# Indices 1 2 3 4 5 6 
#
# 1 83.1164 56.4630 39.5519 2.4940 -14.0554 11.5935
# 2 56.4630 166.6305 70.8093 4.8895 -6.3341 2.3339
# 3 39.5519 70.8093 120.5866 -2.5605 -1.7230 -7.5128
# 4 2.4940 4.8895 -2.5605 49.9219 5.7206 -4.6754
# 5 -14.0554 -6.3341 -1.7230 5.7206 20.0395 6.9844
# 6 11.5935 2.3339 -7.5128 -4.6754 6.9844 43.8020
#
#
#
# Elastic Compliance Matrix: (Units=1/GPa)
#
#
# Indices 1 2 3 4 5 6 
#
# 1 0.021928 -0.004332 -0.005080 -0.003917 0.018089 -0.009747
# 2 -0.004332 0.009190 -0.004002 -0.000875 -0.000196 -0.000091
# 3 -0.005080 -0.004002 0.012583 0.002464 -0.006180 0.004965
# 4 -0.003917 -0.000875 0.002464 0.022245 -0.011134 0.005656
# 5 0.018089 -0.000196 -0.006180 -0.011134 0.071602 -0.018443
# 6 -0.009747 -0.000091 0.004965 0.005656 -0.018443 0.029811
#
#
# Mechanical properties :
#
#
# Convention : Reuss Voigt Hill
#
# Bulk Modulus (GPa) = 59.27569 78.22021 68.74795
# Shear Modulus (GPa) = 25.02375 36.31996 30.67186
#
# Velocity S-wave (km/s) = 3.28104 3.95283 3.63250
# Velocity P-wave (km/s) = 6.31301 7.38129 6.86795
#
# Compressibility (1/GPa) = 0.01687032
#
# Stress axis : x y z
#
# Youngs Moduli (GPa) = 45.60388 108.81886 79.47497
#
# Poissons Ratio (x) = 0.47145 0.40375
# Poissons Ratio (y) = 0.19757 0.31808
# Poissons Ratio (z) = 0.23168 0.43552
#
# Static dielectric constant tensor:
#      x y z
#    x 4.068250 0.136450 0.162170 
#    y 0.136450 4.612970 0.031260 
#    z 0.162170 0.031260 4.471970 
# 
# 
# High freq. dielectric constant tensor:
#      x y z
#    x 1.910410 0.004080 0.006020 
#    y 0.004080 1.946870 0.000980 
#    z 0.006020 0.000980 1.937940 
# 
# From -- ./inp_files/128208.got.cif
#   From: 2010.06.25/outbox.cif.g09.slc.cpg/sg2_65_cif.got.tgz:128208.got - 2010.06.27 13:26:56.
