data_PCOD8035948
_publ_section_title
;
Structure prediction by ZEFSAII (Michael W. Deem and Ramdas Pophale) SiO2 
 PCOD8035948
Probable space group: P -1
;
_chemical_formula_sum "Si O2"
_cell_formula_units_Z 12
_cell_length_a 9.149337
_cell_length_b 4.886186
_cell_length_c 23.677105
_cell_angle_alpha 111.359300
_cell_angle_beta 150.057830
_cell_angle_gamma 76.230548
_cell_volume 485.131099
_symmetry_space_group_name_H-M "P -1"
_symmetry_group_IT_number 2
_symmetry_cell_setting 'triclinic'
loop_
_space_group_symop_operation_xyz
x,y,z
-x,-y,-z
loop_
_atom_site_type_symbol
_atom_site_label
_atom_site_fract_x
_atom_site_fract_y
_atom_site_fract_z
Si Si1 0.367351 0.216175 0.898132
Si Si2 0.356495 0.362716 0.783308
Si Si3 0.128165 0.151105 0.996936
Si Si4 0.826397 0.963970 0.771923
Si Si5 0.869234 0.294306 0.361588
Si Si6 0.439740 0.375976 0.623698
O O1 0.236785 0.326474 0.804488
O O2 0.112580 0.008531 0.831582
O O3 0.619808 0.023265 0.955229
O O4 0.500000 0.500000 0.000000
O O5 0.712071 0.504508 0.912200
O O6 0.171372 0.586954 0.706363
O O7 0.312373 0.037832 0.715382
O O8 0.886554 0.135040 0.865000
O O9 0.000000 0.000000 0.000000
O O10 0.549318 0.076905 0.657816
O O11 0.730586 0.611342 0.722654
O O12 0.217628 0.298681 0.490558
O O13 0.737245 0.510436 0.375702
#
# Coordination Sequence:
#
# PCOD8035948 Si02
#       6
#     2   2   2   2   2   2
#     4  12  27  49  73 109 160 198 235 296 379 449
#     4  12  25  46  76 107 149 191 244 303 368 429
#     4  12  28  47  78 115 146 191 247 311 367 439
#     4  12  26  46  76 108 148 195 244 297 375 440
#     4  11  25  48  75 109 146 195 246 317 352 428
#     4  11  26  47  76 106 149 195 252 296 373 427
#
# _framework density 24.735579000000001
#
# number of rings (size 3 to 8) (size 9 to 14) (size 15 to 20)
#    0.000    0.333    3.333    4.500    4.667    4.667 
#    0.000    5.833    0.000    0.000    0.000    0.000 
#    0.000    0.000    0.000    0.000    0.000    0.000 
#
# Total GULP energy -148891.744868 kJ/mol
# GULP energy per Si atom -12407.645406 kJ/mol
# Density = 2.467928 g / cm^3
# Si number density = 24.735579 Si / 1000 Ang^3
#
#
#
# Elastic Constant Matrix: (Units=GPa)
#
#
# Indices 1 2 3 4 5 6 
#
# 1 90.4374 -5.9262 17.0771 -1.0810 9.5803 32.4056
# 2 -5.9262 79.9927 10.1075 1.0847 -6.3179 21.3870
# 3 17.0771 10.1075 120.4117 -5.8089 -15.3302 21.3565
# 4 -1.0810 1.0847 -5.8089 50.2317 6.4463 -5.3980
# 5 9.5803 -6.3179 -15.3302 6.4463 34.4128 -6.9536
# 6 32.4056 21.3870 21.3565 -5.3980 -6.9536 43.3168
#
#
#
# Elastic Compliance Matrix: (Units=1/GPa)
#
#
# Indices 1 2 3 4 5 6 
#
# 1 0.018843 0.005643 -0.001068 -0.000703 -0.008141 -0.017751
# 2 0.005643 0.016226 -0.000132 -0.001471 -0.000900 -0.012496
# 3 -0.001068 -0.000132 0.009533 0.000248 0.003829 -0.003190
# 4 -0.000703 -0.001471 0.000248 0.020707 -0.003197 0.003197
# 5 -0.008141 -0.000900 0.003829 -0.003197 0.035474 0.009943
# 6 -0.017751 -0.012496 -0.003190 0.003197 0.009943 0.046103
#
#
# Mechanical properties :
#
#
# Convention : Reuss Voigt Hill
#
# Bulk Modulus (GPa) = 18.69537 37.03985 27.86761
# Shear Modulus (GPa) = 32.08680 43.56449 37.82564
#
# Velocity S-wave (km/s) = 3.60556 4.20123 3.91474
# Velocity P-wave (km/s) = 4.99079 6.20811 5.63243
#
# Compressibility (1/GPa) = 0.05348917
#
# Stress axis : x y z
#
# Youngs Moduli (GPa) = 53.06889 61.63066 104.90289
#
# Poissons Ratio (x) = -0.34781 0.11205
# Poissons Ratio (y) = -0.29949 0.01381
# Poissons Ratio (z) = 0.05668 0.00811
#
# Static dielectric constant tensor:
#      x y z
#    x 4.603590 0.117770 -0.277210 
#    y 0.117770 4.678860 0.026060 
#    z -0.277210 0.026060 4.948210 
# 
# 
# High freq. dielectric constant tensor:
#      x y z
#    x 1.980940 0.013620 -0.008190 
#    y 0.013620 1.999330 -0.000820 
#    z -0.008190 -0.000820 1.992660 
# 
# From -- ./inp_files/605718.got.cif
#   From: 2010.06.25/outbox.cif.g09.slc.cpg/sg2_303_cif.got.tgz:605718.got - 2010.06.27 13:26:56.
