data_PCOD8035823
_publ_section_title
;
Structure prediction by ZEFSAII (Michael W. Deem and Ramdas Pophale) SiO2 
 PCOD8035823
Probable space group: P -1
;
_chemical_formula_sum "Si O2"
_cell_formula_units_Z 14
_cell_length_a 8.272255
_cell_length_b 13.167544
_cell_length_c 7.956553
_cell_angle_alpha 72.673658
_cell_angle_beta 126.755936
_cell_angle_gamma 124.859964
_cell_volume 568.474948
_symmetry_space_group_name_H-M "P -1"
_symmetry_group_IT_number 2
_symmetry_cell_setting 'triclinic'
loop_
_space_group_symop_operation_xyz
x,y,z
-x,-y,-z
loop_
_atom_site_type_symbol
_atom_site_label
_atom_site_fract_x
_atom_site_fract_y
_atom_site_fract_z
Si Si1 0.129843 0.471200 0.946879
Si Si2 0.420714 0.677441 0.777221
Si Si3 0.589643 0.609950 0.629384
Si Si4 0.149728 0.189232 0.570218
Si Si5 0.929903 0.277444 0.631654
Si Si6 0.030639 0.128824 0.997614
Si Si7 0.750751 0.016513 0.190617
O O1 0.336002 0.602712 0.936874
O O2 0.986408 0.393697 0.731010
O O3 0.215099 0.386538 0.127672
O O4 0.000000 0.500000 0.000000
O O5 0.377569 0.589716 0.629943
O O6 0.698029 0.769372 0.910326
O O7 0.278597 0.746926 0.614236
O O8 0.500000 0.500000 0.500000
O O9 0.692498 0.738271 0.528514
O O10 0.144618 0.290642 0.641508
O O11 0.874585 0.083229 0.410988
O O12 0.270089 0.118180 0.767695
O O13 0.862954 0.157382 0.763083
O O14 0.941300 0.119687 0.134067
O O15 0.000000 0.000000 0.000000
O O16 0.500000 0.000000 0.000000
#
# Coordination Sequence:
#
# PCOD8035823 Si02
#       7
#     2   2   2   2   2   2   2
#     4  12  26  51  77 113 151 197 255 312 388 456
#     4  12  27  47  78 110 156 197 247 317 380 445
#     4  12  25  45  74 108 151 193 245 309 379 450
#     4  11  25  47  72 114 150 193 259 303 375 454
#     4  12  26  46  78 110 155 195 255 309 384 448
#     4  12  27  49  71 113 153 203 257 305 372 449
#     4  11  26  48  77 105 152 201 253 313 369 440
#
# _framework density 24.627295
#
# number of rings (size 3 to 8) (size 9 to 14) (size 15 to 20)
#    0.000    0.286    4.286    3.429    6.000    0.571 
#    2.571    0.000    0.000    0.000    0.000    0.000 
#    0.000    0.000    0.000    0.000    0.000    0.000 
#
# Total GULP energy -173457.917443 kJ/mol
# GULP energy per Si atom -12389.851246 kJ/mol
# Density = 2.457124 g / cm^3
# Si number density = 24.627295 Si / 1000 Ang^3
#
#
#
# Elastic Constant Matrix: (Units=GPa)
#
#
# Indices 1 2 3 4 5 6 
#
# 1 171.7820 58.3381 44.4945 -13.9361 -8.6280 3.9104
# 2 58.3381 115.2823 39.2498 -27.6707 4.9041 15.9586
# 3 44.4945 39.2498 113.6417 -33.5169 18.8737 9.6124
# 4 -13.9361 -27.6707 -33.5169 54.2772 -6.5018 -8.9574
# 5 -8.6280 4.9041 18.8737 -6.5018 47.4868 -8.3701
# 6 3.9104 15.9586 9.6124 -8.9574 -8.3701 46.0730
#
#
#
# Elastic Compliance Matrix: (Units=1/GPa)
#
#
# Indices 1 2 3 4 5 6 
#
# 1 0.007776 -0.003564 -0.002699 -0.000878 0.003000 0.001512
# 2 -0.003564 0.012335 -0.001187 0.003931 -0.001480 -0.003227
# 3 -0.002699 -0.001187 0.012974 0.005801 -0.005057 -0.001858
# 4 -0.000878 0.003931 0.005801 0.024283 0.000873 0.002382
# 5 0.003000 -0.001480 -0.005057 0.000873 0.024946 0.006015
# 6 0.001512 -0.003227 -0.001858 0.002382 0.006015 0.024638
#
#
# Mechanical properties :
#
#
# Convention : Reuss Voigt Hill
#
# Bulk Modulus (GPa) = 54.98563 76.09675 65.54119
# Shear Modulus (GPa) = 39.08952 46.80899 42.94925
#
# Velocity S-wave (km/s) = 3.98835 4.36443 4.18062
# Velocity P-wave (km/s) = 6.60188 7.50760 7.06926
#
# Compressibility (1/GPa) = 0.01818657
#
# Stress axis : x y z
#
# Youngs Moduli (GPa) = 128.60830 81.07040 77.07611
#
# Poissons Ratio (x) = 0.28890 0.20799
# Poissons Ratio (y) = 0.45831 0.09148
# Poissons Ratio (z) = 0.34705 0.09622
#
# Static dielectric constant tensor:
#      x y z
#    x 4.034440 -0.437020 0.034200 
#    y -0.437020 4.062230 -0.195490 
#    z 0.034200 -0.195490 4.598490 
# 
# 
# High freq. dielectric constant tensor:
#      x y z
#    x 1.984920 -0.014120 -0.016830 
#    y -0.014120 1.978300 -0.018860 
#    z -0.016830 -0.018860 1.991890 
# 
# From -- ./inp_files/201156.got.cif
#   From: 2010.06.25/outbox.cif.g09.slc.cpg/sg2_101_cif.got.tgz:201156.got - 2010.06.27 13:26:56.
