data_PCOD8035503
_publ_section_title
;
Structure prediction by ZEFSAII (Michael W. Deem and Ramdas Pophale) SiO2 
 PCOD8035503
Probable space group: P -1
;
_chemical_formula_sum "Si O2"
_cell_formula_units_Z 16
_cell_length_a 11.831273
_cell_length_b 9.148722
_cell_length_c 14.373094
_cell_angle_alpha 106.147051
_cell_angle_beta 28.865658
_cell_angle_gamma 98.483304
_cell_volume 705.787179
_symmetry_space_group_name_H-M "P -1"
_symmetry_group_IT_number 2
_symmetry_cell_setting 'triclinic'
loop_
_space_group_symop_operation_xyz
x,y,z
-x,-y,-z
loop_
_atom_site_type_symbol
_atom_site_label
_atom_site_fract_x
_atom_site_fract_y
_atom_site_fract_z
Si Si1 0.496500 0.893848 0.749157
Si Si2 0.500323 0.411944 0.887545
Si Si3 0.976080 0.348984 0.235130
Si Si4 0.020548 0.024368 0.217845
Si Si5 0.395712 0.139499 0.533008
Si Si6 0.854024 0.104971 0.546024
Si Si7 0.236257 0.485558 0.769492
Si Si8 0.385321 0.436583 0.351812
O O1 0.434989 0.863724 0.680261
O O2 0.666283 0.737766 0.641406
O O3 0.621797 0.038240 0.678664
O O4 0.274168 0.931434 0.984753
O O5 0.743431 0.279892 0.688997
O O6 0.514022 0.529679 0.814656
O O7 0.500000 0.500000 0.000000
O O8 0.259047 0.346280 0.032970
O O9 0.832681 0.430535 0.264080
O O10 0.858436 0.441816 0.427455
O O11 0.933048 0.171913 0.237986
O O12 0.025473 0.097801 0.330758
O O13 0.863649 0.892829 0.312625
O O14 0.364778 0.305534 0.633782
O O15 0.500000 0.000000 0.500000
O O16 0.000000 0.000000 0.500000
O O17 0.416686 0.565800 0.710979
O O18 0.000000 0.500000 0.000000
#
# Coordination Sequence:
#
# PCOD8035503 Si02
#       8
#     2   2   2   2   2   2   2   2
#     4  11  26  45  68 103 138 184 230 282 351 421
#     4  12  29  48  74 105 140 185 239 300 355 416
#     4  12  25  47  72 104 145 185 237 287 354 424
#     4  11  25  45  71  99 142 184 229 286 351 414
#     4  11  26  42  65 103 144 182 232 281 337 415
#     4  11  27  49  72 101 140 181 237 299 351 418
#     4  12  25  44  74 104 148 193 231 291 349 419
#     4  12  26  47  71 105 147 188 239 286 353 421
#
# _framework density 22.669723999999999
#
# number of rings (size 3 to 8) (size 9 to 14) (size 15 to 20)
#    0.000    0.500    5.000    1.875    8.750    2.500 
#    0.000    0.000    0.000    0.000    0.000    0.000 
#    0.000    0.000    0.000    0.000    0.000    0.000 
#
# Total GULP energy -198380.166110 kJ/mol
# GULP energy per Si atom -12398.760382 kJ/mol
# Density = 2.261813 g / cm^3
# Si number density = 22.669724 Si / 1000 Ang^3
#
#
#
# Elastic Constant Matrix: (Units=GPa)
#
#
# Indices 1 2 3 4 5 6 
#
# 1 103.2271 22.8875 30.5120 7.0618 19.7594 -23.4459
# 2 22.8875 99.4710 13.2583 13.9913 17.0722 -20.5590
# 3 30.5120 13.2583 134.8279 5.4226 29.4767 -7.7508
# 4 7.0618 13.9913 5.4226 41.7552 -5.7869 2.9419
# 5 19.7594 17.0722 29.4767 -5.7869 37.1383 3.7547
# 6 -23.4459 -20.5590 -7.7508 2.9419 3.7547 31.2946
#
#
#
# Elastic Compliance Matrix: (Units=1/GPa)
#
#
# Indices 1 2 3 4 5 6 
#
# 1 0.015189 0.002445 -0.000032 -0.006049 -0.011633 0.014942
# 2 0.002445 0.015839 0.001968 -0.008851 -0.013052 0.015123
# 3 -0.000032 0.001968 0.009814 -0.003650 -0.009773 0.005215
# 4 -0.006049 -0.008851 -0.003650 0.031886 0.016797 -0.016263
# 5 -0.011633 -0.013052 -0.009773 0.016797 0.052276 -0.027561
# 6 0.014942 0.015123 0.005215 -0.016263 -0.027561 0.059211
#
#
# Mechanical properties :
#
#
# Convention : Reuss Voigt Hill
#
# Bulk Modulus (GPa) = 20.15986 52.31574 36.23780
# Shear Modulus (GPa) = 26.04334 40.09551 33.06943
#
# Velocity S-wave (km/s) = 3.39310 4.21013 3.82350
# Velocity P-wave (km/s) = 4.92574 6.83821 5.95920
#
# Compressibility (1/GPa) = 0.04960352
#
# Stress axis : x y z
#
# Youngs Moduli (GPa) = 65.83608 63.13583 101.89734
#
# Poissons Ratio (x) = -0.15438 0.00329
# Poissons Ratio (y) = -0.16098 -0.20053
# Poissons Ratio (z) = 0.00212 -0.12425
#
# Static dielectric constant tensor:
#      x y z
#    x 4.037470 0.112190 0.246070 
#    y 0.112190 4.423940 -0.108480 
#    z 0.246070 -0.108480 4.335790 
# 
# 
# High freq. dielectric constant tensor:
#      x y z
#    x 1.879480 -0.011110 0.016170 
#    y -0.011110 1.913120 0.000470 
#    z 0.016170 0.000470 1.909100 
# 
# From -- ./inp_files/188022.got.cif
#   From: 2010.06.25/outbox.cif.g09.slc.cpg/sg2_95_cif.got.tgz:188022.got - 2010.06.27 13:26:56.
