data_PCOD8035610
_publ_section_title
;
Structure prediction by ZEFSAII (Michael W. Deem and Ramdas Pophale) SiO2 
 PCOD8035610
Probable space group: P -1
;
_chemical_formula_sum "Si O2"
_cell_formula_units_Z 14
_cell_length_a 13.366340
_cell_length_b 10.227381
_cell_length_c 15.831747
_cell_angle_alpha 125.286961
_cell_angle_beta 26.839718
_cell_angle_gamma 136.418869
_cell_volume 657.017906
_symmetry_space_group_name_H-M "P -1"
_symmetry_group_IT_number 2
_symmetry_cell_setting 'triclinic'
loop_
_space_group_symop_operation_xyz
x,y,z
-x,-y,-z
loop_
_atom_site_type_symbol
_atom_site_label
_atom_site_fract_x
_atom_site_fract_y
_atom_site_fract_z
Si Si1 0.796535 0.987420 0.579420
Si Si2 0.360493 0.203903 0.688834
Si Si3 0.231754 0.291265 0.642805
Si Si4 0.123843 0.777172 0.697987
Si Si5 0.644766 0.180985 0.021892
Si Si6 0.033119 0.326060 0.406222
Si Si7 0.610977 0.508806 0.088711
O O1 0.770212 0.859884 0.473145
O O2 0.502561 0.899669 0.807108
O O3 0.000000 0.000000 0.500000
O O4 0.906007 0.200115 0.540209
O O5 0.220998 0.231658 0.725248
O O6 0.658547 0.270214 0.462054
O O7 0.367541 0.328794 0.807185
O O8 0.198978 0.979676 0.757298
O O9 0.500000 0.500000 0.500000
O O10 0.962556 0.283302 0.827370
O O11 0.110516 0.799734 0.615895
O O12 0.850339 0.599373 0.875727
O O13 0.601149 0.345150 0.089628
O O14 0.500000 0.000000 0.000000
O O15 0.344463 0.407846 0.195964
O O16 0.000000 0.500000 0.500000
#
# Coordination Sequence:
#
# PCOD8035610 Si02
#       7
#     2   2   2   2   2   2   2
#     4  12  25  49  73 100 149 186 239 299 351 430
#     4  11  25  46  67 104 144 181 230 288 366 419
#     4  12  26  45  74 107 142 185 242 299 354 428
#     4  11  25  46  71 102 142 184 230 291 360 426
#     4  12  27  45  74 105 138 196 241 289 362 422
#     4  12  25  45  74 107 137 190 238 291 355 423
#     4  12  25  44  73 102 142 183 239 292 353 427
#
# _framework density 21.308399999999999
#
# number of rings (size 3 to 8) (size 9 to 14) (size 15 to 20)
#    0.000    0.286    5.714    2.571    2.000    4.571 
#    0.000    0.000    0.000    0.000    0.000    0.000 
#    0.000    0.000    0.000    0.000    0.000    0.000 
#
# Total GULP energy -173676.146407 kJ/mol
# GULP energy per Si atom -12405.439029 kJ/mol
# Density = 2.125990 g / cm^3
# Si number density = 21.308400 Si / 1000 Ang^3
#
#
#
# Elastic Constant Matrix: (Units=GPa)
#
#
# Indices 1 2 3 4 5 6 
#
# 1 82.5394 31.4431 11.2226 -0.3821 -15.1409 -5.6377
# 2 31.4431 118.4571 42.5452 0.3308 -5.3214 -13.7909
# 3 11.2226 42.5452 107.4931 -18.4401 -20.0430 -11.3750
# 4 -0.3821 0.3308 -18.4401 43.4340 0.7713 3.4746
# 5 -15.1409 -5.3214 -20.0430 0.7713 42.6546 -3.9369
# 6 -5.6377 -13.7909 -11.3750 3.4746 -3.9369 35.5254
#
#
#
# Elastic Compliance Matrix: (Units=1/GPa)
#
#
# Indices 1 2 3 4 5 6 
#
# 1 0.014537 -0.003876 0.001300 0.000470 0.005443 0.001776
# 2 -0.003876 0.011296 -0.004542 -0.002202 -0.001846 0.002326
# 3 0.001300 -0.004542 0.013380 0.005381 0.006353 0.002905
# 4 0.000470 -0.002202 0.005381 0.025403 0.001838 -0.001338
# 5 0.005443 -0.001846 0.006353 0.001838 0.028575 0.005168
# 6 0.001776 0.002326 0.002905 -0.001338 0.005168 0.030968
#
#
# Mechanical properties :
#
#
# Convention : Reuss Voigt Hill
#
# Bulk Modulus (GPa) = 40.03653 53.21237 46.62445
# Shear Modulus (GPa) = 34.07850 39.20803 36.64327
#
# Velocity S-wave (km/s) = 4.00346 4.29421 4.15138
# Velocity P-wave (km/s) = 6.34036 7.04370 6.70126
#
# Compressibility (1/GPa) = 0.02497719
#
# Stress axis : x y z
#
# Youngs Moduli (GPa) = 68.79009 88.52697 74.73839
#
# Poissons Ratio (x) = 0.34309 -0.09714
# Poissons Ratio (y) = 0.26660 0.33946
# Poissons Ratio (z) = -0.08941 0.40209
#
# Static dielectric constant tensor:
#      x y z
#    x 3.976260 0.026820 -0.096870 
#    y 0.026820 3.952400 0.003160 
#    z -0.096870 0.003160 3.809770 
# 
# 
# High freq. dielectric constant tensor:
#      x y z
#    x 1.843090 0.001190 -0.005580 
#    y 0.001190 1.853270 -0.000830 
#    z -0.005580 -0.000830 1.844260 
# 
# From -- ./inp_files/241545.got.cif
#   From: 2010.06.25/outbox.cif.g09.slc.cpg/sg2_121_cif.got.tgz:241545.got - 2010.06.27 13:26:56.
