data_PCOD8035001
_publ_section_title
;
Structure prediction by ZEFSAII (Michael W. Deem and Ramdas Pophale) SiO2 
 PCOD8035001
Probable space group: P -1
;
_chemical_formula_sum "Si O2"
_cell_formula_units_Z 16
_cell_length_a 15.311797
_cell_length_b 12.649945
_cell_length_c 15.091916
_cell_angle_alpha 40.763099
_cell_angle_beta 27.483883
_cell_angle_gamma 58.599310
_cell_volume 762.409455
_symmetry_space_group_name_H-M "P -1"
_symmetry_group_IT_number 2
_symmetry_cell_setting 'triclinic'
loop_
_space_group_symop_operation_xyz
x,y,z
-x,-y,-z
loop_
_atom_site_type_symbol
_atom_site_label
_atom_site_fract_x
_atom_site_fract_y
_atom_site_fract_z
Si Si1 0.956708 0.662235 0.404717
Si Si2 0.475085 0.808388 0.179877
Si Si3 0.592350 0.123068 0.208831
Si Si4 0.346838 0.714673 0.756472
Si Si5 0.060956 0.097338 0.288530
Si Si6 0.283519 0.219105 0.315518
Si Si7 0.433122 0.516289 0.258265
Si Si8 0.029652 0.580587 0.824369
O O1 0.850684 0.718289 0.542473
O O2 0.807998 0.606020 0.486841
O O3 0.000000 0.500000 0.500000
O O4 0.189191 0.841828 0.059157
O O5 0.429207 0.667451 0.230369
O O6 0.284420 0.707088 0.488516
O O7 0.707195 0.868229 0.978159
O O8 0.500000 0.000000 0.000000
O O9 0.662637 0.237259 0.164085
O O10 0.468090 0.204469 0.212282
O O11 0.446355 0.902158 0.490364
O O12 0.496813 0.619143 0.669559
O O13 0.100166 0.583776 0.025937
O O14 0.087625 0.298158 0.149509
O O15 0.000000 0.000000 0.500000
O O16 0.877017 0.980266 0.456649
O O17 0.392794 0.378212 0.042704
O O18 0.000000 0.500000 0.000000
#
# Coordination Sequence:
#
# PCOD8035001 Si02
#       8
#     2   2   2   2   2   2   2   2
#     4  12  25  40  70 104 134 177 232 286 342 404
#     4  12  26  44  75 104 136 188 237 286 351 413
#     4  11  25  47  68 101 140 183 226 284 352 412
#     4  11  24  47  71  96 145 182 224 288 350 412
#     4  12  24  45  69 102 140 180 233 290 342 411
#     4  12  24  43  69 102 138 178 229 289 342 409
#     4  12  23  45  71 101 139 180 233 284 345 414
#     4  12  26  48  72 102 140 185 232 289 351 417
#
# _framework density 20.986097999999998
#
# number of rings (size 3 to 8) (size 9 to 14) (size 15 to 20)
#    0.000    0.250    6.250    2.625    1.750    3.000 
#    4.500    0.000    0.000    0.000    0.000    0.000 
#    0.000    0.000    0.000    0.000    0.000    0.000 
#
# Total GULP energy -198473.606916 kJ/mol
# GULP energy per Si atom -12404.600432 kJ/mol
# Density = 2.093833 g / cm^3
# Si number density = 20.986098 Si / 1000 Ang^3
#
#
#
# Elastic Constant Matrix: (Units=GPa)
#
#
# Indices 1 2 3 4 5 6 
#
# 1 83.9218 24.8778 37.7223 1.3415 -5.9066 3.6840
# 2 24.8778 117.6327 41.8798 3.3426 6.0285 -0.2020
# 3 37.7223 41.8798 136.1332 14.0158 -10.7503 -1.5176
# 4 1.3415 3.3426 14.0158 43.4184 -2.9825 -5.2059
# 5 -5.9066 6.0285 -10.7503 -2.9825 36.0345 -2.8517
# 6 3.6840 -0.2020 -1.5176 -5.2059 -2.8517 29.6511
#
#
#
# Elastic Compliance Matrix: (Units=1/GPa)
#
#
# Indices 1 2 3 4 5 6 
#
# 1 0.014138 -0.001922 -0.003290 0.000682 0.001582 -0.001666
# 2 -0.001922 0.010043 -0.002780 -0.000025 -0.002835 -0.000112
# 3 -0.003290 -0.002780 0.009587 -0.002515 0.002632 0.000692
# 4 0.000682 -0.000025 -0.002515 0.024452 0.001725 0.004245
# 5 0.001582 -0.002835 0.002632 0.001725 0.029656 0.003074
# 6 -0.001666 -0.000112 0.000692 0.004245 0.003074 0.035008
#
#
# Mechanical properties :
#
#
# Convention : Reuss Voigt Hill
#
# Bulk Modulus (GPa) = 56.22862 60.73860 58.48361
# Shear Modulus (GPa) = 34.53119 37.36800 35.94959
#
# Velocity S-wave (km/s) = 4.06079 4.22430 4.14335
# Velocity P-wave (km/s) = 6.98843 7.26623 7.12868
#
# Compressibility (1/GPa) = 0.01778454
#
# Stress axis : x y z
#
# Youngs Moduli (GPa) = 70.73070 99.57254 104.30617
#
# Poissons Ratio (x) = 0.19137 0.34320
# Poissons Ratio (y) = 0.13594 0.28993
# Poissons Ratio (z) = 0.23272 0.27677
#
# Static dielectric constant tensor:
#      x y z
#    x 3.826430 0.026340 -0.203260 
#    y 0.026340 3.911600 0.011880 
#    z -0.203260 0.011880 4.211970 
# 
# 
# High freq. dielectric constant tensor:
#      x y z
#    x 1.826470 -0.002250 -0.012420 
#    y -0.002250 1.833160 -0.005030 
#    z -0.012420 -0.005030 1.835540 
# 
# From -- ./inp_files/524613.got.cif
#   From: 2010.06.25/outbox.cif.g09.slc.cpg/sg2_263_cif.got.tgz:524613.got - 2010.06.27 13:26:56.
