data_PCOD8035018
_publ_section_title
;
Structure prediction by ZEFSAII (Michael W. Deem and Ramdas Pophale) SiO2 
 PCOD8035018
Probable space group: P -1
;
_chemical_formula_sum "Si O2"
_cell_formula_units_Z 14
_cell_length_a 13.275430
_cell_length_b 5.007272
_cell_length_c 12.086727
_cell_angle_alpha 66.603530
_cell_angle_beta 129.160068
_cell_angle_gamma 86.992195
_cell_volume 517.256095
_symmetry_space_group_name_H-M "P -1"
_symmetry_group_IT_number 2
_symmetry_cell_setting 'triclinic'
loop_
_space_group_symop_operation_xyz
x,y,z
-x,-y,-z
loop_
_atom_site_type_symbol
_atom_site_label
_atom_site_fract_x
_atom_site_fract_y
_atom_site_fract_z
Si Si1 0.518966 0.632120 0.319441
Si Si2 0.341819 0.682931 0.734545
Si Si3 0.059710 0.260155 0.479832
Si Si4 0.337749 0.353377 0.368588
Si Si5 0.069649 0.538627 0.870736
Si Si6 0.637308 0.694622 0.984974
Si Si7 0.146041 0.043087 0.189548
O O1 0.660910 0.415607 0.379959
O O2 0.440543 0.413626 0.341618
O O3 0.570377 0.784623 0.432833
O O4 0.406127 0.925606 0.119068
O O5 0.505614 0.619347 0.874144
O O6 0.232932 0.053319 0.624014
O O7 0.311581 0.431826 0.833625
O O8 0.000000 0.500000 0.500000
O O9 0.002786 0.467411 0.295480
O O10 0.000000 0.000000 0.500000
O O11 0.281753 0.106321 0.317340
O O12 0.200325 0.675921 0.253009
O O13 0.974063 0.872798 0.812136
O O14 0.230353 0.506799 0.971470
O O15 0.072965 0.246609 0.996008
#
# Coordination Sequence:
#
# PCOD8035018 Si02
#       7
#     2   2   2   2   2   2   2
#     4  11  25  42  77 107 156 194 253 307 382 441
#     4  11  26  47  76 109 151 201 250 310 376 453
#     4  12  29  50  77 111 150 198 249 310 377 447
#     4  11  26  46  77 111 151 195 255 310 372 446
#     4  11  25  48  77 106 156 194 256 306 376 443
#     4  11  24  47  72 113 145 202 246 310 369 450
#     4  11  26  49  74 109 147 203 252 310 373 438
#
# _framework density 27.065899000000002
#
# number of rings (size 3 to 8) (size 9 to 14) (size 15 to 20)
#    0.000    0.857    2.857    2.143    6.000    8.000 
#    2.571    0.000    0.000    0.000    0.000    0.000 
#    0.000    0.000    0.000    0.000    0.000    0.000 
#
# Total GULP energy -173613.383019 kJ/mol
# GULP energy per Si atom -12400.955930 kJ/mol
# Density = 2.700430 g / cm^3
# Si number density = 27.065899 Si / 1000 Ang^3
#
#
#
# Elastic Constant Matrix: (Units=GPa)
#
#
# Indices 1 2 3 4 5 6 
#
# 1 158.3623 38.3451 53.1310 -12.1967 -2.6650 -49.6984
# 2 38.3451 91.6875 41.3690 -6.7664 -2.0565 -33.9828
# 3 53.1310 41.3690 133.2633 -3.9081 -2.9554 -30.2223
# 4 -12.1967 -6.7664 -3.9081 35.1424 -14.3626 13.7559
# 5 -2.6650 -2.0565 -2.9554 -14.3626 48.1620 -0.8239
# 6 -49.6984 -33.9828 -30.2223 13.7559 -0.8239 50.0998
#
#
#
# Elastic Compliance Matrix: (Units=1/GPa)
#
#
# Indices 1 2 3 4 5 6 
#
# 1 0.009593 -0.000049 -0.001908 0.000090 0.000581 0.008318
# 2 -0.000049 0.015452 -0.002754 -0.000678 0.000439 0.008964
# 3 -0.001908 -0.002754 0.009618 -0.000981 0.000114 0.002312
# 4 0.000090 -0.000678 -0.000981 0.036909 0.010736 -0.010920
# 5 0.000581 0.000439 0.000114 0.010736 0.023995 -0.001610
# 6 0.008318 0.008964 0.002312 -0.010920 -0.001610 0.038658
#
#
# Mechanical properties :
#
#
# Convention : Reuss Voigt Hill
#
# Bulk Modulus (GPa) = 39.61794 72.11146 55.86470
# Shear Modulus (GPa) = 32.88113 43.37871 38.12992
#
# Velocity S-wave (km/s) = 3.48926 4.00773 3.75744
# Velocity P-wave (km/s) = 5.55901 6.93661 6.28566
#
# Compressibility (1/GPa) = 0.02524109
#
# Stress axis : x y z
#
# Youngs Moduli (GPa) = 104.23726 64.71533 103.97390
#
# Poissons Ratio (x) = 0.00317 0.19837
# Poissons Ratio (y) = 0.00510 0.28639
# Poissons Ratio (z) = 0.19887 0.17826
#
# Static dielectric constant tensor:
#      x y z
#    x 5.373650 -0.417740 -0.171890 
#    y -0.417740 4.387060 -0.145010 
#    z -0.171890 -0.145010 5.365640 
# 
# 
# High freq. dielectric constant tensor:
#      x y z
#    x 2.111960 -0.020920 -0.004160 
#    y -0.020920 2.066980 -0.010930 
#    z -0.004160 -0.010930 2.101880 
# 
# From -- ./inp_files/410140.got.cif
#   From: 2010.06.25/outbox.cif.g09.slc.cpg/sg2_206_cif.got.tgz:410140.got - 2010.06.27 13:26:56.
