data_PCOD8035816
_publ_section_title
;
Structure prediction by ZEFSAII (Michael W. Deem and Ramdas Pophale) SiO2 
 PCOD8035816
Probable space group: P -1
;
_chemical_formula_sum "Si O2"
_cell_formula_units_Z 16
_cell_length_a 9.049121
_cell_length_b 13.994146
_cell_length_c 12.931494
_cell_angle_alpha 70.700962
_cell_angle_beta 63.685412
_cell_angle_gamma 125.419080
_cell_volume 711.083077
_symmetry_space_group_name_H-M "P -1"
_symmetry_group_IT_number 2
_symmetry_cell_setting 'triclinic'
loop_
_space_group_symop_operation_xyz
x,y,z
-x,-y,-z
loop_
_atom_site_type_symbol
_atom_site_label
_atom_site_fract_x
_atom_site_fract_y
_atom_site_fract_z
Si Si1 0.782918 0.834544 0.466370
Si Si2 0.321406 0.823241 0.185335
Si Si3 0.029752 0.320490 0.239659
Si Si4 0.732902 0.751075 0.906512
Si Si5 0.607594 0.442472 0.501650
Si Si6 0.335426 0.203214 0.871321
Si Si7 0.323511 0.722719 0.779826
Si Si8 0.201841 0.883976 0.399434
O O1 0.572852 0.721292 0.467823
O O2 0.576435 0.771676 0.646637
O O3 0.897949 0.784219 0.482755
O O4 0.104602 0.066778 0.261828
O O5 0.501161 0.811511 0.130228
O O6 0.301724 0.850353 0.299693
O O7 0.985198 0.630621 0.300429
O O8 0.500000 0.000000 0.000000
O O9 0.051257 0.231355 0.195796
O O10 0.759279 0.249961 0.301441
O O11 0.921785 0.238352 0.417629
O O12 0.373357 0.556783 0.043451
O O13 0.722317 0.750436 0.033582
O O14 0.500000 0.500000 0.500000
O O15 0.548771 0.372495 0.660591
O O16 0.000000 0.000000 0.000000
O O17 0.496029 0.882690 0.755942
O O18 0.000000 0.500000 0.000000
#
# Coordination Sequence:
#
# PCOD8035816 Si02
#       8
#     2   2   2   2   2   2   2   2
#     4  12  26  47  74 102 147 185 236 296 356 436
#     4  12  28  48  73 108 148 191 242 301 359 432
#     4  11  27  46  74 105 140 187 239 301 351 426
#     4  11  25  47  72 102 146 181 242 283 368 416
#     4  12  26  48  70 107 143 192 244 294 364 428
#     4  12  26  45  76 106 142 192 239 296 364 432
#     4  12  29  44  73 107 141 187 243 294 360 418
#     4  12  26  49  73 103 148 187 239 295 361 419
#
# _framework density 22.500886999999999
#
# number of rings (size 3 to 8) (size 9 to 14) (size 15 to 20)
#    0.000    0.250    3.750    4.125   10.500    0.000 
#    0.000    0.000    0.000    0.000    0.000    0.000 
#    0.000    0.000    0.000    0.000    0.000    0.000 
#
# Total GULP energy -198533.439531 kJ/mol
# GULP energy per Si atom -12408.339971 kJ/mol
# Density = 2.244967 g / cm^3
# Si number density = 22.500887 Si / 1000 Ang^3
#
#
#
# Elastic Constant Matrix: (Units=GPa)
#
#
# Indices 1 2 3 4 5 6 
#
# 1 114.6651 13.8664 36.8056 -0.9313 8.0865 11.9687
# 2 13.8664 106.4928 28.8880 10.8366 0.5727 3.6321
# 3 36.8056 28.8880 129.3794 -2.6414 14.2879 3.4517
# 4 -0.9313 10.8366 -2.6414 46.1472 3.0896 -3.6055
# 5 8.0865 0.5727 14.2879 3.0896 38.7660 -2.2847
# 6 11.9687 3.6321 3.4517 -3.6055 -2.2847 32.5789
#
#
#
# Elastic Compliance Matrix: (Units=1/GPa)
#
#
# Indices 1 2 3 4 5 6 
#
# 1 0.010043 -0.000504 -0.002501 -0.000001 -0.001370 -0.003465
# 2 -0.000504 0.010388 -0.002312 -0.002722 0.000964 -0.000962
# 3 -0.002501 -0.002312 0.009306 0.001233 -0.002965 0.000119
# 4 -0.000001 -0.002722 0.001233 0.022717 -0.002075 0.002542
# 5 -0.001370 0.000964 -0.002965 -0.002075 0.027467 0.002407
# 6 -0.003465 -0.000962 0.000119 0.002542 0.002407 0.032512
#
#
# Mechanical properties :
#
#
# Convention : Reuss Voigt Hill
#
# Bulk Modulus (GPa) = 52.34736 56.62860 54.48798
# Shear Modulus (GPa) = 38.62930 41.56357 40.09643
#
# Velocity S-wave (km/s) = 4.14791 4.30257 4.22595
# Velocity P-wave (km/s) = 6.80113 7.06432 6.93397
#
# Compressibility (1/GPa) = 0.01910316
#
# Stress axis : x y z
#
# Youngs Moduli (GPa) = 99.57268 96.26728 107.45217
#
# Poissons Ratio (x) = 0.04848 0.26872
# Poissons Ratio (y) = 0.05015 0.24848
# Poissons Ratio (z) = 0.24902 0.22262
#
# Static dielectric constant tensor:
#      x y z
#    x 4.189170 0.023670 -0.001730 
#    y 0.023670 4.315610 -0.137410 
#    z -0.001730 -0.137410 4.097600 
# 
# 
# High freq. dielectric constant tensor:
#      x y z
#    x 1.893500 0.003630 0.000580 
#    y 0.003630 1.902920 -0.006410 
#    z 0.000580 -0.006410 1.900580 
# 
# From -- ./inp_files/274434.got.cif
#   From: 2010.06.25/outbox.cif.g09.slc.cpg/sg2_138_cif.got.tgz:274434.got - 2010.06.27 13:26:56.
