data_PCOD8035489
_publ_section_title
;
Structure prediction by ZEFSAII (Michael W. Deem and Ramdas Pophale) SiO2 
 PCOD8035489
Probable space group: P -1
;
_chemical_formula_sum "Si O2"
_cell_formula_units_Z 16
_cell_length_a 18.154289
_cell_length_b 9.041378
_cell_length_c 11.648748
_cell_angle_alpha 33.478798
_cell_angle_beta 44.738150
_cell_angle_gamma 61.963445
_cell_volume 704.505806
_symmetry_space_group_name_H-M "P -1"
_symmetry_group_IT_number 2
_symmetry_cell_setting 'triclinic'
loop_
_space_group_symop_operation_xyz
x,y,z
-x,-y,-z
loop_
_atom_site_type_symbol
_atom_site_label
_atom_site_fract_x
_atom_site_fract_y
_atom_site_fract_z
Si Si1 0.370906 0.360454 0.208542
Si Si2 0.283139 0.807906 0.128993
Si Si3 0.762421 0.299325 0.504742
Si Si4 0.371844 0.411036 0.686666
Si Si5 0.191989 0.819672 0.867244
Si Si6 0.079793 0.804581 0.234614
Si Si7 0.724534 0.697272 0.885534
Si Si8 0.005450 0.307925 0.010889
O O1 0.315607 0.596662 0.146733
O O2 0.363778 0.317559 0.107623
O O3 0.302807 0.065649 0.540359
O O4 0.500000 0.500000 0.000000
O O5 0.312213 0.771662 0.252543
O O6 0.155142 0.773565 0.276673
O O7 0.344840 0.132724 0.817577
O O8 0.685372 0.377440 0.444470
O O9 0.871011 0.542890 0.269306
O O10 0.798234 0.030828 0.592168
O O11 0.500000 0.500000 0.500000
O O12 0.330266 0.372454 0.886472
O O13 0.148223 0.927836 0.961664
O O14 0.212340 0.526042 0.067309
O O15 0.095308 0.725503 0.941317
O O16 0.000000 0.500000 0.500000
O O17 0.006122 0.991976 0.241018
O O18 0.000000 0.500000 0.000000
#
# Coordination Sequence:
#
# PCOD8035489 Si02
#       8
#     2   2   2   2   2   2   2   2
#     4  12  28  46  74 107 146 192 246 302 365 435
#     4  11  25  45  71 105 139 190 238 300 359 440
#     4  11  25  47  71 106 144 183 247 296 371 434
#     4  11  26  45  74 102 145 189 243 301 365 432
#     4  12  27  48  71 106 151 191 244 303 370 434
#     4  12  25  47  72 108 151 197 238 297 378 440
#     4  11  26  46  72 106 145 188 241 307 365 435
#     4  12  25  43  77 101 142 191 243 302 359 439
#
# _framework density 22.710955999999999
#
# number of rings (size 3 to 8) (size 9 to 14) (size 15 to 20)
#    0.000    0.500    2.500    4.875    8.750    2.000 
#    0.000    0.000    0.000    0.000    0.000    0.000 
#    0.000    0.000    0.000    0.000    0.000    0.000 
#
# Total GULP energy -198243.117056 kJ/mol
# GULP energy per Si atom -12390.194816 kJ/mol
# Density = 2.265926 g / cm^3
# Si number density = 22.710956 Si / 1000 Ang^3
#
#
#
# Elastic Constant Matrix: (Units=GPa)
#
#
# Indices 1 2 3 4 5 6 
#
# 1 146.2618 21.8078 71.8714 -1.5336 -10.0176 1.0160
# 2 21.8078 84.5743 53.5401 -33.3993 1.6568 9.5565
# 3 71.8714 53.5401 111.4387 -25.5120 -2.0623 -11.6914
# 4 -1.5336 -33.3993 -25.5120 41.3518 4.5939 3.7967
# 5 -10.0176 1.6568 -2.0623 4.5939 42.1962 7.5370
# 6 1.0160 9.5565 -11.6914 3.7967 7.5370 40.0262
#
#
#
# Elastic Compliance Matrix: (Units=1/GPa)
#
#
# Indices 1 2 3 4 5 6 
#
# 1 0.011446 0.001877 -0.009523 -0.003954 0.003281 -0.003763
# 2 0.001877 0.025512 -0.011206 0.014832 -0.000814 -0.010666
# 3 -0.009523 -0.011206 0.022326 0.003805 -0.002862 0.009617
# 4 -0.003954 0.014832 0.003805 0.039360 -0.004695 -0.005179
# 5 0.003281 -0.000814 -0.002862 -0.004695 0.025799 -0.005137
# 6 -0.003763 -0.010666 0.009617 -0.005179 -0.005137 0.031893
#
#
# Mechanical properties :
#
#
# Convention : Reuss Voigt Hill
#
# Bulk Modulus (GPa) = 46.33979 70.74594 58.54286
# Shear Modulus (GPa) = 24.84657 37.71852 31.28255
#
# Velocity S-wave (km/s) = 3.31121 4.07972 3.71539
# Velocity P-wave (km/s) = 5.92176 7.30824 6.65123
#
# Compressibility (1/GPa) = 0.02157973
#
# Stress axis : x y z
#
# Youngs Moduli (GPa) = 87.36602 39.19647 44.79041
#
# Poissons Ratio (x) = -0.07355 0.42653
# Poissons Ratio (y) = -0.16394 0.50193
# Poissons Ratio (z) = 0.83198 0.43924
#
# Static dielectric constant tensor:
#      x y z
#    x 4.604870 0.309310 -0.079060 
#    y 0.309310 4.348710 -0.378620 
#    z -0.079060 -0.378620 4.416810 
# 
# 
# High freq. dielectric constant tensor:
#      x y z
#    x 1.906690 0.012000 0.000270 
#    y 0.012000 1.907310 -0.019460 
#    z 0.000270 -0.019460 1.902420 
# 
# From -- ./inp_files/126804.got.cif
#   From: 2010.06.25/outbox.cif.g09.slc.cpg/sg2_64_cif.got.tgz:126804.got - 2010.06.27 13:26:56.
