data_PCOD8035145
_publ_section_title
;
Structure prediction by ZEFSAII (Michael W. Deem and Ramdas Pophale) SiO2 
 PCOD8035145
Probable space group: P -1
;
_chemical_formula_sum "Si O2"
_cell_formula_units_Z 16
_cell_length_a 13.380841
_cell_length_b 9.168780
_cell_length_c 14.125184
_cell_angle_alpha 105.324848
_cell_angle_beta 146.181082
_cell_angle_gamma 97.927767
_cell_volume 693.894773
_symmetry_space_group_name_H-M "P -1"
_symmetry_group_IT_number 2
_symmetry_cell_setting 'triclinic'
loop_
_space_group_symop_operation_xyz
x,y,z
-x,-y,-z
loop_
_atom_site_type_symbol
_atom_site_label
_atom_site_fract_x
_atom_site_fract_y
_atom_site_fract_z
Si Si1 0.490022 0.115050 0.726401
Si Si2 0.434137 0.529721 0.089734
Si Si3 0.897109 0.773855 0.383384
Si Si4 0.618431 0.120979 0.211304
Si Si5 0.894880 0.287321 0.928439
Si Si6 0.297584 0.405577 0.399725
Si Si7 0.427590 0.286415 0.180309
Si Si8 0.886407 0.001278 0.730178
O O1 0.619009 0.323226 0.920161
O O2 0.633959 0.156987 0.750544
O O3 0.481861 0.987202 0.782115
O O4 0.220939 0.008807 0.459076
O O5 0.710871 0.654601 0.301444
O O6 0.396907 0.441760 0.148930
O O7 0.243706 0.338334 0.842151
O O8 0.102830 0.764045 0.558027
O O9 0.000000 0.000000 0.500000
O O10 0.556606 0.263441 0.193749
O O11 0.500000 0.000000 0.000000
O O12 0.878093 0.143130 0.815196
O O13 0.000000 0.500000 0.000000
O O14 0.054767 0.325994 0.148539
O O15 0.500000 0.500000 0.500000
O O16 0.389236 0.597694 0.568595
O O17 0.271772 0.227864 0.397995
O O18 0.155481 0.081195 0.952607
#
# Coordination Sequence:
#
# PCOD8035145 Si02
#       8
#     2   2   2   2   2   2   2   2
#     4  12  26  46  76 109 144 200 250 300 374 443
#     4  11  25  46  74 101 137 194 246 298 364 443
#     4  11  24  48  74  99 143 188 240 305 371 427
#     4  12  29  46  74 109 150 193 249 311 368 438
#     4  12  27  46  77 113 155 192 249 310 373 451
#     4  12  26  47  73 108 150 198 245 301 378 450
#     4  12  27  46  74 108 145 193 250 303 374 441
#     4  12  26  51  75 106 154 200 243 308 381 446
#
# _framework density 23.058252
#
# number of rings (size 3 to 8) (size 9 to 14) (size 15 to 20)
#    0.000    0.250    3.750    4.500    8.750    1.500 
#    0.000    0.000    0.000    0.000    0.000    0.000 
#    0.000    0.000    0.000    0.000    0.000    0.000 
#
# Total GULP energy -198294.544667 kJ/mol
# GULP energy per Si atom -12393.409042 kJ/mol
# Density = 2.300577 g / cm^3
# Si number density = 23.058252 Si / 1000 Ang^3
#
#
#
# Elastic Constant Matrix: (Units=GPa)
#
#
# Indices 1 2 3 4 5 6 
#
# 1 112.7547 20.3650 52.3128 4.9800 -7.4060 -20.2942
# 2 20.3650 74.1188 33.6105 2.6715 -3.9214 0.6188
# 3 52.3128 33.6105 123.6788 12.0660 -0.3277 -2.8242
# 4 4.9800 2.6715 12.0660 33.5584 -5.6149 -8.0643
# 5 -7.4060 -3.9214 -0.3277 -5.6149 43.7877 -2.1577
# 6 -20.2942 0.6188 -2.8242 -8.0643 -2.1577 45.9190
#
#
#
# Elastic Compliance Matrix: (Units=1/GPa)
#
#
# Indices 1 2 3 4 5 6 
#
# 1 0.012509 -0.001141 -0.005022 0.001820 0.002489 0.005671
# 2 -0.001141 0.015586 -0.003797 0.000287 0.001170 -0.000842
# 3 -0.005022 -0.003797 0.011570 -0.003935 -0.001717 -0.002229
# 4 0.001820 0.000287 -0.003935 0.033338 0.004906 0.006644
# 5 0.002489 0.001170 -0.001717 0.004906 0.024126 0.002974
# 6 0.005671 -0.000842 -0.002229 0.006644 0.002974 0.025465
#
#
# Mechanical properties :
#
#
# Convention : Reuss Voigt Hill
#
# Bulk Modulus (GPa) = 50.64759 58.12543 54.38651
# Shear Modulus (GPa) = 33.53553 38.27063 35.90308
#
# Velocity S-wave (km/s) = 3.81777 4.07841 3.95024
# Velocity P-wave (km/s) = 6.43790 6.88772 6.66661
#
# Compressibility (1/GPa) = 0.01974427
#
# Stress axis : x y z
#
# Youngs Moduli (GPa) = 79.94368 64.16122 86.42920
#
# Poissons Ratio (x) = 0.07319 0.43407
# Poissons Ratio (y) = 0.09120 0.32819
# Poissons Ratio (z) = 0.40150 0.24363
#
# Static dielectric constant tensor:
#      x y z
#    x 3.580550 1.787230 1.087410 
#    y 1.787230 -0.792660 -2.774860 
#    z 1.087410 -2.774860 2.773890 
# 
# 
# High freq. dielectric constant tensor:
#      x y z
#    x 1.923350 -0.003130 -0.004740 
#    y -0.003130 1.915740 0.002530 
#    z -0.004740 0.002530 1.926040 
# 
# From -- ./inp_files/107437.got.cif
#   From: 2010.06.25/outbox.cif.g09.slc.cpg/sg2_54_cif.got.tgz:107437.got - 2010.06.27 13:26:56.
