data_PCOD8035788
_publ_section_title
;
Structure prediction by ZEFSAII (Michael W. Deem and Ramdas Pophale) SiO2 
 PCOD8035788
Probable space group: P -1
;
_chemical_formula_sum "Si O2"
_cell_formula_units_Z 12
_cell_length_a 12.031568
_cell_length_b 9.455410
_cell_length_c 13.475581
_cell_angle_alpha 53.146662
_cell_angle_beta 20.634791
_cell_angle_gamma 55.824823
_cell_volume 432.296651
_symmetry_space_group_name_H-M "P -1"
_symmetry_group_IT_number 2
_symmetry_cell_setting 'triclinic'
loop_
_space_group_symop_operation_xyz
x,y,z
-x,-y,-z
loop_
_atom_site_type_symbol
_atom_site_label
_atom_site_fract_x
_atom_site_fract_y
_atom_site_fract_z
Si Si1 0.402371 0.841439 0.552977
Si Si2 0.859967 0.077399 0.980939
Si Si3 0.744122 0.897157 0.662763
Si Si4 0.241294 0.719640 0.530882
Si Si5 0.238712 0.588532 0.971634
Si Si6 0.373501 0.712827 0.209454
O O1 0.423736 0.732146 0.477932
O O2 0.387169 0.700510 0.711154
O O3 0.740234 0.953747 0.230440
O O4 0.110316 0.981032 0.740430
O O5 0.520969 0.090985 0.205029
O O6 0.942778 0.278712 0.857582
O O7 0.000808 0.743446 0.491505
O O8 0.921247 0.088052 0.438627
O O9 0.574116 0.861198 0.924289
O O10 0.470200 0.699768 0.252114
O O11 0.004219 0.557274 0.803908
O O12 0.522025 0.482566 0.835400
#
# Coordination Sequence:
#
# PCOD8035788 Si02
#       6
#     2   2   2   2   2   2
#     4  11  27  49  74 100 144 187 233 286 353 421
#     4  11  27  49  74 100 142 191 232 284 353 419
#     4  11  25  47  70 102 144 189 230 280 356 418
#     4  11  26  46  74 105 139 186 235 293 341 414
#     4  12  28  45  74 110 140 181 237 294 349 407
#     4  12  26  43  74 106 144 180 234 292 346 415
#
# _framework density 27.758714999999999
#
# number of rings (size 3 to 8) (size 9 to 14) (size 15 to 20)
#    0.000    0.667    1.667    4.500   11.667    2.000 
#    0.000    0.000    0.000    0.000    0.000    0.000 
#    0.000    0.000    0.000    0.000    0.000    0.000 
#
# Total GULP energy -148712.684650 kJ/mol
# GULP energy per Si atom -12392.723721 kJ/mol
# Density = 2.769554 g / cm^3
# Si number density = 27.758715 Si / 1000 Ang^3
#
#
#
# Elastic Constant Matrix: (Units=GPa)
#
#
# Indices 1 2 3 4 5 6 
#
# 1 41.9009 38.7471 24.2698 -2.9390 2.3139 8.5627
# 2 38.7471 158.6201 46.3381 -11.4519 -12.8824 10.9769
# 3 24.2698 46.3381 135.5945 -21.3001 -7.6204 5.1930
# 4 -2.9390 -11.4519 -21.3001 48.7099 -9.5900 -12.4305
# 5 2.3139 -12.8824 -7.6204 -9.5900 38.6388 0.2490
# 6 8.5627 10.9769 5.1930 -12.4305 0.2490 25.0972
#
#
#
# Elastic Compliance Matrix: (Units=1/GPa)
#
#
# Indices 1 2 3 4 5 6 
#
# 1 0.035796 -0.007616 -0.004696 -0.005791 -0.006977 -0.010709
# 2 -0.007616 0.008957 -0.001204 0.001781 0.003648 -0.000224
# 3 -0.004696 -0.001204 0.009445 0.004778 0.002912 0.002512
# 4 -0.005791 0.001781 0.004778 0.027975 0.008736 0.013978
# 5 -0.006977 0.003648 0.002912 0.008736 0.030230 0.004209
# 6 -0.010709 -0.000224 0.002512 0.013978 0.004209 0.049958
#
#
# Mechanical properties :
#
#
# Convention : Reuss Voigt Hill
#
# Bulk Modulus (GPa) = 36.81156 61.64728 49.22942
# Shear Modulus (GPa) = 25.19523 37.60654 31.40089
#
# Velocity S-wave (km/s) = 3.01599 3.68471 3.36699
# Velocity P-wave (km/s) = 5.04166 6.35289 5.73487
#
# Compressibility (1/GPa) = 0.02716538
#
# Stress axis : x y z
#
# Youngs Moduli (GPa) = 27.93593 111.64463 105.87484
#
# Poissons Ratio (x) = 0.85028 0.49719
# Poissons Ratio (y) = 0.21276 0.12752
# Poissons Ratio (z) = 0.13119 0.13447
#
# Static dielectric constant tensor:
#      x y z
#    x 5.352660 -0.236660 0.111650 
#    y -0.236660 5.732890 -0.024550 
#    z 0.111650 -0.024550 5.215580 
# 
# 
# High freq. dielectric constant tensor:
#      x y z
#    x 2.122490 -0.017700 0.004170 
#    y -0.017700 2.137240 -0.000680 
#    z 0.004170 -0.000680 2.136470 
# 
# From -- ./inp_files/360690.got.cif
#   From: 2010.06.25/outbox.cif.g09.slc.cpg/sg2_181_cif.got.tgz:360690.got - 2010.06.27 13:26:56.
