data_PCOD8035838
_publ_section_title
;
Structure prediction by ZEFSAII (Michael W. Deem and Ramdas Pophale) SiO2 
 PCOD8035838
Probable space group: P -1
;
_chemical_formula_sum "Si O2"
_cell_formula_units_Z 16
_cell_length_a 15.719609
_cell_length_b 14.597648
_cell_length_c 6.797420
_cell_angle_alpha 54.159479
_cell_angle_beta 113.864321
_cell_angle_gamma 142.428322
_cell_volume 765.394547
_symmetry_space_group_name_H-M "P -1"
_symmetry_group_IT_number 2
_symmetry_cell_setting 'triclinic'
loop_
_space_group_symop_operation_xyz
x,y,z
-x,-y,-z
loop_
_atom_site_type_symbol
_atom_site_label
_atom_site_fract_x
_atom_site_fract_y
_atom_site_fract_z
Si Si1 0.675835 0.402789 0.900368
Si Si2 0.116334 0.561240 0.168188
Si Si3 0.432764 0.159745 0.705561
Si Si4 0.152950 0.026632 0.476291
Si Si5 0.573144 0.173285 0.448506
Si Si6 0.032134 0.772053 0.328591
Si Si7 0.898684 0.766602 0.847195
Si Si8 0.249866 0.844433 0.194524
O O1 0.749410 0.361037 0.924036
O O2 0.560720 0.342928 0.706603
O O3 0.791523 0.602406 0.810240
O O4 0.600407 0.298132 0.163414
O O5 0.059146 0.414249 0.444733
O O6 0.142144 0.708460 0.099363
O O7 0.000000 0.500000 0.000000
O O8 0.306767 0.125931 0.562280
O O9 0.482792 0.141139 0.581723
O O10 0.384336 0.026080 0.993852
O O11 0.168396 0.172124 0.255255
O O12 0.083948 0.903034 0.380898
O O13 0.051088 0.914331 0.705778
O O14 0.716343 0.249262 0.566710
O O15 0.500000 0.000000 0.500000
O O16 0.177639 0.862152 0.257867
O O17 0.925679 0.734512 0.123829
#
# Coordination Sequence:
#
# PCOD8035838 Si02
#       8
#     2   2   2   2   2   2   2   2
#     4  12  25  44  65 100 139 178 224 275 335 401
#     4  12  23  40  65 101 138 178 219 273 332 400
#     4  12  25  44  65  99 139 179 224 272 334 407
#     4  11  25  47  73  97 128 175 233 291 343 391
#     4  12  23  40  65  95 139 184 216 260 329 408
#     4  12  23  44  70 101 134 174 229 280 339 401
#     4  11  25  47  73  98 127 176 232 294 342 384
#     4  12  22  40  63  98 136 178 216 261 332 406
#
# _framework density 20.904250999999999
#
# number of rings (size 3 to 8) (size 9 to 14) (size 15 to 20)
#    0.000    0.250    5.000    5.625    0.000    0.500 
#    0.000    0.625    0.000    0.000    0.000    0.000 
#    0.000    0.000    0.000    0.000    0.000    0.000 
#
# Total GULP energy -198351.409088 kJ/mol
# GULP energy per Si atom -12396.963068 kJ/mol
# Density = 2.085667 g / cm^3
# Si number density = 20.904251 Si / 1000 Ang^3
#
#
#
# Elastic Constant Matrix: (Units=GPa)
#
#
# Indices 1 2 3 4 5 6 
#
# 1 99.0302 22.2603 33.1248 6.7735 6.7780 9.8640
# 2 22.2603 86.7699 23.2511 17.3739 13.6026 15.7369
# 3 33.1248 23.2511 91.6422 6.3090 6.0883 9.4777
# 4 6.7735 17.3739 6.3090 37.9421 6.4228 6.4353
# 5 6.7780 13.6026 6.0883 6.4228 37.2855 3.4725
# 6 9.8640 15.7369 9.4777 6.4353 3.4725 32.0178
#
#
#
# Elastic Compliance Matrix: (Units=1/GPa)
#
#
# Indices 1 2 3 4 5 6 
#
# 1 0.011921 -0.001580 -0.003659 -0.000385 -0.000773 -0.001652
# 2 -0.001580 0.014891 -0.002143 -0.004760 -0.003523 -0.004859
# 3 -0.003659 -0.002143 0.012986 -0.000174 -0.000497 -0.001575
# 4 -0.000385 -0.004760 -0.000174 0.029669 -0.002984 -0.003130
# 5 -0.000773 -0.003523 -0.000497 -0.002984 0.028880 -0.000415
# 6 -0.001652 -0.004859 -0.001575 -0.003130 -0.000415 0.035270
#
#
# Mechanical properties :
#
#
# Convention : Reuss Voigt Hill
#
# Bulk Modulus (GPa) = 39.94565 48.30164 44.12364
# Shear Modulus (GPa) = 31.90292 34.70280 33.30286
#
# Velocity S-wave (km/s) = 3.91083 4.07883 3.99571
# Velocity P-wave (km/s) = 6.28833 6.73341 6.51467
#
# Compressibility (1/GPa) = 0.02503402
#
# Stress axis : x y z
#
# Youngs Moduli (GPa) = 83.88667 67.15554 77.00480
#
# Poissons Ratio (x) = 0.10609 0.28179
# Poissons Ratio (y) = 0.13252 0.16500
# Poissons Ratio (z) = 0.30697 0.14390
#
# Static dielectric constant tensor:
#      x y z
#    x 1.526100 0.321190 -1.908390 
#    y 0.321190 3.763180 0.332860 
#    z -1.908390 0.332860 2.362810 
# 
# 
# High freq. dielectric constant tensor:
#      x y z
#    x 1.816720 0.005110 -0.008080 
#    y 0.005110 1.835260 0.017740 
#    z -0.008080 0.017740 1.826750 
# 
# From -- ./inp_files/71685.got.cif
#   From: 2010.06.25/outbox.cif.g09.slc.cpg/sg2_36_cif.got.tgz:71685.got - 2010.06.27 13:26:56.
