data_PCOD8035004
_publ_section_title
;
Structure prediction by ZEFSAII (Michael W. Deem and Ramdas Pophale) SiO2 
 PCOD8035004
Probable space group: P -1
;
_chemical_formula_sum "Si O2"
_cell_formula_units_Z 14
_cell_length_a 10.230254
_cell_length_b 14.734315
_cell_length_c 6.760405
_cell_angle_alpha 84.751558
_cell_angle_beta 48.376376
_cell_angle_gamma 114.657274
_cell_volume 581.547258
_symmetry_space_group_name_H-M "P -1"
_symmetry_group_IT_number 2
_symmetry_cell_setting 'triclinic'
loop_
_space_group_symop_operation_xyz
x,y,z
-x,-y,-z
loop_
_atom_site_type_symbol
_atom_site_label
_atom_site_fract_x
_atom_site_fract_y
_atom_site_fract_z
Si Si1 0.296660 0.162251 0.703370
Si Si2 0.447599 0.796979 0.209996
Si Si3 0.406996 0.562126 0.662262
Si Si4 0.523301 0.934932 0.740532
Si Si5 0.064869 0.645428 0.950916
Si Si6 0.755506 0.397372 0.851609
Si Si7 0.121010 0.859182 0.895690
O O1 0.322832 0.125587 0.902067
O O2 0.435888 0.301698 0.578680
O O3 0.404268 0.133863 0.434601
O O4 0.037709 0.104390 0.919274
O O5 0.224405 0.716226 0.587150
O O6 0.422117 0.702004 0.107387
O O7 0.473647 0.896486 0.028399
O O8 0.500000 0.500000 0.500000
O O9 0.361954 0.550307 0.948607
O O10 0.153071 0.493518 0.835985
O O11 0.298000 0.907918 0.887722
O O12 0.731730 0.075874 0.467808
O O13 0.968816 0.716379 0.071152
O O14 0.213262 0.663790 0.985980
O O15 0.000000 0.500000 0.500000
#
# Coordination Sequence:
#
# PCOD8035004 Si02
#       7
#     2   2   2   2   2   2   2
#     4  12  24  46  69 102 141 178 230 296 348 408
#     4  12  22  42  73  99 137 186 232 282 351 411
#     4  12  23  40  68 100 142 180 224 290 348 408
#     4  11  25  48  71  98 136 190 232 284 353 411
#     4  12  23  44  69 101 142 184 228 288 346 412
#     4  12  23  42  71  98 138 191 232 273 350 425
#     4  11  24  47  71  99 141 179 235 293 340 414
#
# _framework density 24.073709999999998
#
# number of rings (size 3 to 8) (size 9 to 14) (size 15 to 20)
#    0.000    0.286    8.571    1.714    0.000    1.143 
#    2.571    5.714    0.000    0.000    0.000    0.000 
#    0.000    0.000    0.000    0.000    0.000    0.000 
#
# Total GULP energy -173434.156131 kJ/mol
# GULP energy per Si atom -12388.154009 kJ/mol
# Density = 2.401892 g / cm^3
# Si number density = 24.073710 Si / 1000 Ang^3
#
#
#
# Elastic Constant Matrix: (Units=GPa)
#
#
# Indices 1 2 3 4 5 6 
#
# 1 139.2774 6.6161 55.2461 10.3810 -5.1955 -0.9055
# 2 6.6161 38.7877 -0.3543 0.1957 8.4933 -13.4070
# 3 55.2461 -0.3543 117.2227 -1.6333 22.9469 -6.0385
# 4 10.3810 0.1957 -1.6333 43.8215 -1.8407 -4.7594
# 5 -5.1955 8.4933 22.9469 -1.8407 43.0243 -0.4196
# 6 -0.9055 -13.4070 -6.0385 -4.7594 -0.4196 29.5035
#
#
#
# Elastic Compliance Matrix: (Units=1/GPa)
#
#
# Indices 1 2 3 4 5 6 
#
# 1 0.010095 -0.003917 -0.005947 -0.002716 0.005018 -0.003054
# 2 -0.003917 0.034327 0.004701 0.002363 -0.009493 0.016687
# 3 -0.005947 0.004701 0.013314 0.002053 -0.008611 0.004887
# 4 -0.002716 0.002363 0.002053 0.024069 -0.000808 0.005282
# 5 0.005018 -0.009493 -0.008611 -0.000808 0.030226 -0.005623
# 6 -0.003054 0.016687 0.004887 0.005282 -0.005623 0.043156
#
#
# Mechanical properties :
#
#
# Convention : Reuss Voigt Hill
#
# Bulk Modulus (GPa) = 21.09308 46.47816 33.78562
# Shear Modulus (GPa) = 27.57619 38.85519 33.21569
#
# Velocity S-wave (km/s) = 3.38818 4.02183 3.71853
# Velocity P-wave (km/s) = 4.90788 6.39651 5.70099
#
# Compressibility (1/GPa) = 0.04740890
#
# Stress axis : x y z
#
# Youngs Moduli (GPa) = 99.06225 29.13160 75.11030
#
# Poissons Ratio (x) = 0.11411 0.44667
# Poissons Ratio (y) = 0.38802 -0.35306
# Poissons Ratio (z) = 0.58911 -0.13693
#
# Static dielectric constant tensor:
#      x y z
#    x 4.752240 -0.050750 -0.369900 
#    y -0.050750 4.809090 -0.091940 
#    z -0.369900 -0.091940 5.121290 
# 
# 
# High freq. dielectric constant tensor:
#      x y z
#    x 1.935010 -0.005510 -0.001240 
#    y -0.005510 1.985950 -0.011470 
#    z -0.001240 -0.011470 1.954900 
# 
# From -- ./inp_files/46994.got.cif
#   From: 2010.06.25/outbox.cif.g09.slc.cpg/sg2_24_cif.got.tgz:46994.got - 2010.06.27 13:26:56.
