data_PCOD8035554
_publ_section_title
;
Structure prediction by ZEFSAII (Michael W. Deem and Ramdas Pophale) SiO2 
 PCOD8035554
Probable space group: P -1
;
_chemical_formula_sum "Si O2"
_cell_formula_units_Z 12
_cell_length_a 15.019607
_cell_length_b 15.196605
_cell_length_c 9.234016
_cell_angle_alpha 153.351261
_cell_angle_beta 140.658426
_cell_angle_gamma 31.211716
_cell_volume 489.499456
_symmetry_space_group_name_H-M "P -1"
_symmetry_group_IT_number 2
_symmetry_cell_setting 'triclinic'
loop_
_space_group_symop_operation_xyz
x,y,z
-x,-y,-z
loop_
_atom_site_type_symbol
_atom_site_label
_atom_site_fract_x
_atom_site_fract_y
_atom_site_fract_z
Si Si1 0.236864 0.846528 0.674874
Si Si2 0.413800 0.345868 0.016996
Si Si3 0.635546 0.560011 0.220496
Si Si4 0.825311 0.685206 0.851083
Si Si5 0.180228 0.270563 0.765433
Si Si6 0.937771 0.048815 0.829430
O O1 0.276500 0.630739 0.301764
O O2 0.398475 0.752093 0.839547
O O3 0.083374 0.918907 0.698522
O O4 0.192271 0.070344 0.848577
O O5 0.431282 0.283134 0.777486
O O6 0.354407 0.191408 0.788187
O O7 0.673686 0.686419 0.581321
O O8 0.500000 0.500000 0.000000
O O9 0.822272 0.330045 0.071806
O O10 0.021880 0.458479 0.735148
O O11 0.811463 0.633104 0.925345
O O12 0.187228 0.036524 0.465294
O O13 0.000000 0.000000 0.000000
#
# Coordination Sequence:
#
# PCOD8035554 Si02
#       6
#     2   2   2   2   2   2
#     4  11  26  47  73 104 144 192 235 294 352 427
#     4  11  27  46  74 105 145 185 242 290 356 419
#     4  12  28  46  73 109 146 186 236 296 355 422
#     4  11  25  45  74 104 146 182 243 288 359 418
#     4  11  25  45  74 106 139 191 234 294 351 426
#     4  12  25  46  74 103 147 185 237 290 356 418
#
# _framework density 24.514838000000001
#
# number of rings (size 3 to 8) (size 9 to 14) (size 15 to 20)
#    0.000    0.667    1.667    5.000    9.333    4.667 
#    0.000    0.000    0.000    0.000    0.000    0.000 
#    0.000    0.000    0.000    0.000    0.000    0.000 
#
# Total GULP energy -148753.116911 kJ/mol
# GULP energy per Si atom -12396.093076 kJ/mol
# Density = 2.445904 g / cm^3
# Si number density = 24.514838 Si / 1000 Ang^3
#
#
#
# Elastic Constant Matrix: (Units=GPa)
#
#
# Indices 1 2 3 4 5 6 
#
# 1 145.7468 25.3335 44.6755 -19.8402 19.5744 7.4758
# 2 25.3335 75.6552 25.1090 -12.1831 -7.6383 14.6302
# 3 44.6755 25.1090 86.4889 -30.5442 15.4645 1.6610
# 4 -19.8402 -12.1831 -30.5442 52.3624 5.1255 -3.8918
# 5 19.5744 -7.6383 15.4645 5.1255 39.2586 -4.8710
# 6 7.4758 14.6302 1.6610 -3.8918 -4.8710 37.3382
#
#
#
# Elastic Compliance Matrix: (Units=1/GPa)
#
#
# Indices 1 2 3 4 5 6 
#
# 1 0.008866 -0.002000 -0.002649 0.001662 -0.004137 -0.001240
# 2 -0.002000 0.017092 -0.005113 -0.000729 0.005763 -0.005393
# 3 -0.002649 -0.005113 0.019468 0.010111 -0.008462 0.001618
# 4 0.001662 -0.000729 0.010111 0.026351 -0.008248 0.001174
# 5 -0.004137 0.005763 -0.008462 -0.008248 0.033369 0.002440
# 6 -0.001240 -0.005393 0.001618 0.001174 0.002440 0.029513
#
#
# Mechanical properties :
#
#
# Convention : Reuss Voigt Hill
#
# Bulk Modulus (GPa) = 38.60680 55.34743 46.97711
# Shear Modulus (GPa) = 30.70951 39.97670 35.34310
#
# Velocity S-wave (km/s) = 3.54318 4.04259 3.80110
# Velocity P-wave (km/s) = 5.70275 6.66455 6.20232
#
# Compressibility (1/GPa) = 0.02590217
#
# Stress axis : x y z
#
# Youngs Moduli (GPa) = 112.78688 58.50676 51.36745
#
# Poissons Ratio (x) = 0.11702 0.13606
# Poissons Ratio (y) = 0.22559 0.26264
# Poissons Ratio (z) = 0.29874 0.29915
#
# Static dielectric constant tensor:
#      x y z
#    x 4.343690 -0.003180 -0.034210 
#    y -0.003180 4.693740 -0.021400 
#    z -0.034210 -0.021400 4.645510 
# 
# 
# High freq. dielectric constant tensor:
#      x y z
#    x 1.976580 0.005920 0.004060 
#    y 0.005920 1.987840 -0.009540 
#    z 0.004060 -0.009540 1.978850 
# 
# From -- ./inp_files/160724.got.cif
#   From: 2010.06.25/outbox.cif.g09.slc.cpg/sg2_81_cif.got.tgz:160724.got - 2010.06.27 13:26:56.
