data_PCOD8035519
_publ_section_title
;
Structure prediction by ZEFSAII (Michael W. Deem and Ramdas Pophale) SiO2 
 PCOD8035519
Probable space group: P -1
;
_chemical_formula_sum "Si O2"
_cell_formula_units_Z 16
_cell_length_a 5.438035
_cell_length_b 11.115677
_cell_length_c 18.753450
_cell_angle_alpha 138.762929
_cell_angle_beta 57.918738
_cell_angle_gamma 119.035616
_cell_volume 625.590977
_symmetry_space_group_name_H-M "P -1"
_symmetry_group_IT_number 2
_symmetry_cell_setting 'triclinic'
loop_
_space_group_symop_operation_xyz
x,y,z
-x,-y,-z
loop_
_atom_site_type_symbol
_atom_site_label
_atom_site_fract_x
_atom_site_fract_y
_atom_site_fract_z
Si Si1 0.110468 0.534148 0.419285
Si Si2 0.430605 0.032529 0.291524
Si Si3 0.895705 0.785251 0.928974
Si Si4 0.657078 0.444485 0.090821
Si Si5 0.813594 0.810002 0.314977
Si Si6 0.645261 0.346713 0.291981
Si Si7 0.479917 0.123652 0.476990
Si Si8 0.220579 0.282897 0.922614
O O1 0.411263 0.449087 0.334253
O O2 0.215957 0.751959 0.487533
O O3 0.000000 0.500000 0.500000
O O4 0.861258 0.459330 0.367271
O O5 0.696417 0.911475 0.204977
O O6 0.120120 0.901140 0.274046
O O7 0.482854 0.160088 0.270639
O O8 0.423743 0.163535 0.420313
O O9 0.608399 0.689298 0.887055
O O10 0.169380 0.692524 0.822823
O O11 0.756869 0.723023 0.998842
O O12 0.000000 0.000000 0.000000
O O13 0.773697 0.599974 0.200640
O O14 0.576151 0.551370 0.077917
O O15 0.884977 0.309663 0.970642
O O16 0.799676 0.827763 0.411890
O O17 0.536826 0.911469 0.379719
#
# Coordination Sequence:
#
# PCOD8035519 Si02
#       8
#     2   2   2   2   2   2   2   2
#     4  12  26  49  75 111 150 206 253 317 380 468
#     4  12  25  46  72 107 147 202 251 321 384 466
#     4  12  28  49  74 112 150 199 253 324 386 468
#     4  11  27  48  76 107 149 201 256 324 385 469
#     4  11  26  45  72 108 142 196 253 324 379 461
#     4  12  29  47  80 110 159 204 258 315 396 462
#     4  11  25  45  72 106 151 193 257 312 389 451
#     4  11  27  46  76 107 148 197 257 313 390 457
#
# _framework density 25.575817000000001
#
# number of rings (size 3 to 8) (size 9 to 14) (size 15 to 20)
#    0.000    0.500    3.750    2.625   10.500    1.500 
#    0.000    0.000    0.000    0.000    0.000    0.000 
#    0.000    0.000    0.000    0.000    0.000    0.000 
#
# Total GULP energy -198211.504442 kJ/mol
# GULP energy per Si atom -12388.219028 kJ/mol
# Density = 2.551760 g / cm^3
# Si number density = 25.575817 Si / 1000 Ang^3
#
#
#
# Elastic Constant Matrix: (Units=GPa)
#
#
# Indices 1 2 3 4 5 6 
#
# 1 70.8700 25.4683 31.2676 11.0815 -2.6222 16.8789
# 2 25.4683 106.6198 28.0919 -0.8824 12.1845 28.9421
# 3 31.2676 28.0919 143.8026 -19.1672 2.7310 7.8014
# 4 11.0815 -0.8824 -19.1672 41.8302 1.4721 -0.3699
# 5 -2.6222 12.1845 2.7310 1.4721 30.9785 2.5574
# 6 16.8789 28.9421 7.8014 -0.3699 2.5574 44.7900
#
#
#
# Elastic Compliance Matrix: (Units=1/GPa)
#
#
# Indices 1 2 3 4 5 6 
#
# 1 0.019603 -0.002571 -0.004552 -0.007515 0.003859 -0.005216
# 2 -0.002571 0.012721 -0.001421 0.000399 -0.004558 -0.006741
# 3 -0.004552 -0.001421 0.008880 0.005289 -0.000959 0.001185
# 4 -0.007515 0.000399 0.005289 0.028445 -0.002780 0.002046
# 5 0.003859 -0.004558 -0.000959 -0.002780 0.034645 -0.000343
# 6 -0.005216 -0.006741 0.001185 0.002046 -0.000343 0.028477
#
#
# Mechanical properties :
#
#
# Convention : Reuss Voigt Hill
#
# Bulk Modulus (GPa) = 41.46389 54.54979 48.00684
# Shear Modulus (GPa) = 31.66608 39.28405 35.47507
#
# Velocity S-wave (km/s) = 3.52252 3.92342 3.72836
# Velocity P-wave (km/s) = 5.72639 6.47296 6.11109
#
# Compressibility (1/GPa) = 0.02411737
#
# Stress axis : x y z
#
# Youngs Moduli (GPa) = 51.01373 78.60742 112.60993
#
# Poissons Ratio (x) = 0.20206 0.51262
# Poissons Ratio (y) = 0.13113 0.15999
# Poissons Ratio (z) = 0.23222 0.11168
#
# Static dielectric constant tensor:
#      x y z
#    x 4.400010 -0.056700 -0.061400 
#    y -0.056700 5.486070 -0.198440 
#    z -0.061400 -0.198440 4.824290 
# 
# 
# High freq. dielectric constant tensor:
#      x y z
#    x 2.001270 0.003880 -0.000680 
#    y 0.003880 2.038550 -0.013730 
#    z -0.000680 -0.013730 2.041720 
# 
# From -- ./inp_files/583304.got.cif
#   From: 2010.06.25/outbox.cif.g09.slc.cpg/sg2_292_cif.got.tgz:583304.got - 2010.06.27 13:26:56.
