data_PCOD8035911
_publ_section_title
;
Structure prediction by ZEFSAII (Michael W. Deem and Ramdas Pophale) SiO2 
 PCOD8035911
Probable space group: P -1
;
_chemical_formula_sum "Si O2"
_cell_formula_units_Z 14
_cell_length_a 21.229986
_cell_length_b 8.979130
_cell_length_c 17.213652
_cell_angle_alpha 137.350063
_cell_angle_beta 15.897870
_cell_angle_gamma 135.865679
_cell_volume 608.040083
_symmetry_space_group_name_H-M "P -1"
_symmetry_group_IT_number 2
_symmetry_cell_setting 'triclinic'
loop_
_space_group_symop_operation_xyz
x,y,z
-x,-y,-z
loop_
_atom_site_type_symbol
_atom_site_label
_atom_site_fract_x
_atom_site_fract_y
_atom_site_fract_z
Si Si1 0.113744 0.315903 0.241865
Si Si2 0.585610 0.260735 0.299922
Si Si3 0.845684 0.311851 0.158279
Si Si4 0.831440 0.004915 0.811590
Si Si5 0.690002 0.883381 0.775477
Si Si6 0.621628 0.403594 0.616921
Si Si7 0.828108 0.062942 0.353847
O O1 0.000000 0.500000 0.500000
O O2 0.914792 0.212559 0.381282
O O3 0.210002 0.141935 0.119628
O O4 0.342132 0.391709 0.950599
O O5 0.500000 0.500000 0.500000
O O6 0.670745 0.192085 0.258025
O O7 0.401089 0.086606 0.413508
O O8 0.788527 0.251631 0.990330
O O9 0.692929 0.416671 0.446721
O O10 0.000000 0.500000 0.000000
O O11 0.986283 0.117969 0.955624
O O12 0.081109 0.982788 0.472661
O O13 0.650204 0.922386 0.928944
O O14 0.707644 0.627785 0.641946
O O15 0.500000 0.000000 0.000000
O O16 0.764979 0.214234 0.414099
#
# Coordination Sequence:
#
# PCOD8035911 Si02
#       7
#     2   2   2   2   2   2   2
#     4  12  27  48  76 107 153 199 252 309 378 447
#     4  12  26  45  78 109 146 199 246 305 374 449
#     4  12  26  49  77 112 148 197 250 307 377 450
#     4  11  25  48  70 111 146 191 260 302 374 452
#     4  11  27  45  76 109 150 198 249 317 374 445
#     4  12  28  47  76 114 150 196 253 311 381 442
#     4  12  26  48  76 110 151 196 247 318 374 447
#
# _framework density 23.024799000000002
#
# number of rings (size 3 to 8) (size 9 to 14) (size 15 to 20)
#    0.000    0.286    4.286    3.000    6.000    5.714 
#    0.000    0.000    0.000    0.000    0.000    0.000 
#    0.000    0.000    0.000    0.000    0.000    0.000 
#
# Total GULP energy -173494.386798 kJ/mol
# GULP energy per Si atom -12392.456200 kJ/mol
# Density = 2.297239 g / cm^3
# Si number density = 23.024799 Si / 1000 Ang^3
#
#
#
# Elastic Constant Matrix: (Units=GPa)
#
#
# Indices 1 2 3 4 5 6 
#
# 1 166.3119 55.0638 80.2401 -0.7088 8.4762 27.6727
# 2 55.0638 107.7443 51.0854 12.9733 8.0244 12.6516
# 3 80.2401 51.0854 137.1458 17.3663 12.2388 6.6744
# 4 -0.7088 12.9733 17.3663 43.9143 3.8098 0.5350
# 5 8.4762 8.0244 12.2388 3.8098 49.2742 5.1578
# 6 27.6727 12.6516 6.6744 0.5350 5.1578 41.4727
#
#
#
# Elastic Compliance Matrix: (Units=1/GPa)
#
#
# Indices 1 2 3 4 5 6 
#
# 1 0.010236 -0.002529 -0.005194 0.003008 0.000263 -0.005294
# 2 -0.002529 0.012378 -0.002680 -0.002571 -0.000553 -0.001555
# 3 -0.005194 -0.002680 0.011832 -0.003865 -0.001585 0.002626
# 4 0.003008 -0.002571 -0.003865 0.025205 -0.001004 -0.000801
# 5 0.000263 -0.000553 -0.001585 -0.001004 0.021058 -0.002357
# 6 -0.005294 -0.001555 0.002626 -0.000801 -0.002357 0.028000
#
#
# Mechanical properties :
#
#
# Convention : Reuss Voigt Hill
#
# Bulk Modulus (GPa) = 73.31458 87.10896 80.21177
# Shear Modulus (GPa) = 37.29646 41.91974 39.60810
#
# Velocity S-wave (km/s) = 4.02909 4.27152 4.15207
# Velocity P-wave (km/s) = 7.31816 7.88940 7.60914
#
# Compressibility (1/GPa) = 0.01363985
#
# Stress axis : x y z
#
# Youngs Moduli (GPa) = 97.69285 80.78907 84.51898
#
# Poissons Ratio (x) = 0.20431 0.43895
# Poissons Ratio (y) = 0.24706 0.22655
# Poissons Ratio (z) = 0.50737 0.21655
#
# Static dielectric constant tensor:
#      x y z
#    x 4.318090 -0.017510 -0.176340 
#    y -0.017510 3.804100 0.047210 
#    z -0.176340 0.047210 4.545420 
# 
# 
# High freq. dielectric constant tensor:
#      x y z
#    x 1.921600 0.014790 -0.004730 
#    y 0.014790 1.909680 0.016360 
#    z -0.004730 0.016360 1.926820 
# 
# From -- ./inp_files/138702.got.cif
#   From: 2010.06.25/outbox.cif.g09.slc.cpg/sg2_70_cif.got.tgz:138702.got - 2010.06.27 13:26:56.
