data_PCOD8035191
_publ_section_title
;
Structure prediction by ZEFSAII (Michael W. Deem and Ramdas Pophale) SiO2 
 PCOD8035191
Probable space group: P -1
;
_chemical_formula_sum "Si O2"
_cell_formula_units_Z 16
_cell_length_a 15.140658
_cell_length_b 8.604430
_cell_length_c 15.807525
_cell_angle_alpha 70.372892
_cell_angle_beta 28.409601
_cell_angle_gamma 88.683036
_cell_volume 732.689905
_symmetry_space_group_name_H-M "P -1"
_symmetry_group_IT_number 2
_symmetry_cell_setting 'triclinic'
loop_
_space_group_symop_operation_xyz
x,y,z
-x,-y,-z
loop_
_atom_site_type_symbol
_atom_site_label
_atom_site_fract_x
_atom_site_fract_y
_atom_site_fract_z
Si Si1 0.429955 0.367813 0.167241
Si Si2 0.631564 0.723476 0.389377
Si Si3 0.795509 0.400631 0.122607
Si Si4 0.127536 0.881986 0.998409
Si Si5 0.807932 0.671464 0.923198
Si Si6 0.675142 0.970682 0.015088
Si Si7 0.970566 0.290040 0.569256
Si Si8 0.776537 0.093664 0.592886
O O1 0.202347 0.332498 0.405308
O O2 0.381091 0.153759 0.223535
O O3 0.500000 0.500000 0.000000
O O4 0.635338 0.479615 0.042132
O O5 0.500000 0.500000 0.500000
O O6 0.458973 0.730828 0.595168
O O7 0.716847 0.887281 0.212579
O O8 0.853326 0.776156 0.244744
O O9 0.808217 0.250867 0.078807
O O10 0.834832 0.589513 0.003102
O O11 0.000000 0.500000 0.000000
O O12 0.187773 0.891878 0.043640
O O13 0.062572 0.825202 0.639866
O O14 0.709754 0.797839 0.001534
O O15 0.396902 0.844874 0.281428
O O16 0.755281 0.125140 0.840121
O O17 0.935252 0.194221 0.523762
O O18 0.000000 0.500000 0.500000
#
# Coordination Sequence:
#
# PCOD8035191 Si02
#       8
#     2   2   2   2   2   2   2   2
#     4  12  23  46  75 104 147 192 242 303 363 431
#     4  11  24  49  74 105 144 184 236 301 365 432
#     4  12  27  47  77 105 145 192 243 300 371 431
#     4  11  27  46  74 107 144 188 240 298 365 433
#     4  12  28  47  72 110 145 193 247 303 367 434
#     4  12  27  46  73 107 145 190 245 296 360 436
#     4  12  25  45  73 106 150 195 241 295 364 431
#     4  12  26  48  73 104 151 193 242 302 360 433
#
# _framework density 21.837340999999999
#
# number of rings (size 3 to 8) (size 9 to 14) (size 15 to 20)
#    0.000    0.250    3.750    4.875    7.000    2.000 
#    0.000    0.000    0.000    0.000    0.000    0.000 
#    0.000    0.000    0.000    0.000    0.000    0.000 
#
# Total GULP energy -198546.454798 kJ/mol
# GULP energy per Si atom -12409.153425 kJ/mol
# Density = 2.178764 g / cm^3
# Si number density = 21.837341 Si / 1000 Ang^3
#
#
#
# Elastic Constant Matrix: (Units=GPa)
#
#
# Indices 1 2 3 4 5 6 
#
# 1 113.3874 32.0021 43.9768 -4.2429 2.1027 -5.9033
# 2 32.0021 145.6325 48.7224 -2.8623 -2.1479 -6.8221
# 3 43.9768 48.7224 126.3921 14.1839 -13.6803 -11.4707
# 4 -4.2429 -2.8623 14.1839 47.2560 -6.5545 -3.6786
# 5 2.1027 -2.1479 -13.6803 -6.5545 30.3716 2.9298
# 6 -5.9033 -6.8221 -11.4707 -3.6786 2.9298 39.1133
#
#
#
# Elastic Compliance Matrix: (Units=1/GPa)
#
#
# Indices 1 2 3 4 5 6 
#
# 1 0.010690 -0.001088 -0.003669 0.001748 -0.002157 0.000674
# 2 -0.001088 0.008115 -0.002886 0.001243 -0.000436 0.000554
# 3 -0.003669 -0.002886 0.011268 -0.003165 0.004285 0.001629
# 4 0.001748 0.001243 -0.003165 0.022921 0.003347 0.001457
# 5 -0.002157 -0.000436 0.004285 0.003347 0.035843 -0.001515
# 6 0.000674 0.000554 0.001629 0.001457 -0.001515 0.026493
#
#
# Mechanical properties :
#
#
# Convention : Reuss Voigt Hill
#
# Bulk Modulus (GPa) = 67.62368 70.53494 69.07931
# Shear Modulus (GPa) = 36.88839 40.72889 38.80864
#
# Velocity S-wave (km/s) = 4.11449 4.32337 4.22022
# Velocity P-wave (km/s) = 7.32163 7.56917 7.44643
#
# Compressibility (1/GPa) = 0.01478772
#
# Stress axis : x y z
#
# Youngs Moduli (GPa) = 93.54862 123.22620 88.74872
#
# Poissons Ratio (x) = 0.13401 0.32559
# Poissons Ratio (y) = 0.10174 0.25615
# Poissons Ratio (z) = 0.34320 0.35566
#
# Static dielectric constant tensor:
#      x y z
#    x 4.099660 -0.077860 -0.199580 
#    y -0.077860 3.894830 -0.226410 
#    z -0.199580 -0.226410 3.716390 
# 
# 
# High freq. dielectric constant tensor:
#      x y z
#    x 1.863730 -0.004200 -0.005180 
#    y -0.004200 1.875120 0.005730 
#    z -0.005180 0.005730 1.874420 
# 
# From -- ./inp_files/55259.got.cif
#   From: 2010.06.25/outbox.cif.g09.slc.cpg/sg2_28_cif.got.tgz:55259.got - 2010.06.27 13:26:56.
