data_PCOD8035422
_publ_section_title
;
Structure prediction by ZEFSAII (Michael W. Deem and Ramdas Pophale) SiO2 
 PCOD8035422
Probable space group: P -1
;
_chemical_formula_sum "Si O2"
_cell_formula_units_Z 16
_cell_length_a 14.788431
_cell_length_b 9.242286
_cell_length_c 9.664541
_cell_angle_alpha 64.935882
_cell_angle_beta 99.764345
_cell_angle_gamma 50.822224
_cell_volume 725.815776
_symmetry_space_group_name_H-M "P -1"
_symmetry_group_IT_number 2
_symmetry_cell_setting 'triclinic'
loop_
_space_group_symop_operation_xyz
x,y,z
-x,-y,-z
loop_
_atom_site_type_symbol
_atom_site_label
_atom_site_fract_x
_atom_site_fract_y
_atom_site_fract_z
Si Si1 0.366968 0.562130 0.072867
Si Si2 0.057941 0.070778 0.903837
Si Si3 0.967755 0.877156 0.616964
Si Si4 0.595233 0.856506 0.717951
Si Si5 0.063223 0.580271 0.027359
Si Si6 0.591814 0.788528 0.226234
Si Si7 0.645784 0.370762 0.277554
Si Si8 0.917504 0.446567 0.472911
O O1 0.401574 0.329902 0.158407
O O2 0.500496 0.465094 0.229485
O O3 0.333984 0.662624 0.868683
O O4 0.230502 0.798771 0.037708
O O5 0.022940 0.268065 0.913689
O O6 0.979226 0.217348 0.677636
O O7 0.000000 0.000000 0.000000
O O8 0.048119 0.633042 0.645873
O O9 0.791021 0.087363 0.494749
O O10 0.000000 0.000000 0.500000
O O11 0.035550 0.763150 0.835090
O O12 0.761598 0.685065 0.796903
O O13 0.500000 0.000000 0.500000
O O14 0.515940 0.075842 0.723821
O O15 0.000000 0.500000 0.000000
O O16 0.636183 0.555212 0.273976
O O17 0.737816 0.694377 0.342203
O O18 0.500000 0.000000 0.000000
O O19 0.000000 0.500000 0.500000
#
# Coordination Sequence:
#
# PCOD8035422 Si02
#       8
#     2   2   2   2   2   2   2   2
#     4  11  25  46  72 104 140 185 232 295 352 416
#     4  12  25  47  72 100 141 188 232 285 353 421
#     4  12  23  46  72  99 136 181 241 295 336 407
#     4  12  27  46  67  98 148 187 222 278 358 426
#     4  12  28  46  69 103 144 183 229 293 354 412
#     4  12  26  43  71 103 140 180 231 292 349 408
#     4  11  25  44  74 106 136 180 241 297 344 410
#     4  12  27  43  73 104 137 186 241 285 346 417
#
# _framework density 22.044163000000001
#
# number of rings (size 3 to 8) (size 9 to 14) (size 15 to 20)
#    0.000    0.250    5.000    3.750    7.000    0.000 
#    0.000    1.250    0.000    0.000    0.000    0.000 
#    0.000    0.000    0.000    0.000    0.000    0.000 
#
# Total GULP energy -198387.962967 kJ/mol
# GULP energy per Si atom -12399.247685 kJ/mol
# Density = 2.199399 g / cm^3
# Si number density = 22.044163 Si / 1000 Ang^3
#
#
#
# Elastic Constant Matrix: (Units=GPa)
#
#
# Indices 1 2 3 4 5 6 
#
# 1 116.4178 28.0475 19.3053 -12.4165 26.9382 -9.1903
# 2 28.0475 140.0649 12.8390 3.0570 20.9350 -27.0269
# 3 19.3053 12.8390 110.9980 -7.7656 18.0952 -22.5609
# 4 -12.4165 3.0570 -7.7656 37.2361 -3.9297 4.5097
# 5 26.9382 20.9350 18.0952 -3.9297 38.1858 -3.8419
# 6 -9.1903 -27.0269 -22.5609 4.5097 -3.8419 38.5986
#
#
#
# Elastic Compliance Matrix: (Units=1/GPa)
#
#
# Indices 1 2 3 4 5 6 
#
# 1 0.010762 -0.001102 -0.000370 0.002848 -0.006459 0.000598
# 2 -0.001102 0.009240 0.001024 -0.002172 -0.004330 0.006629
# 3 -0.000370 0.001024 0.011133 0.000810 -0.004832 0.006561
# 4 0.002848 -0.002172 0.000810 0.028734 0.001394 -0.003588
# 5 -0.006459 -0.004330 -0.004832 0.001394 0.035143 -0.004059
# 6 0.000598 0.006629 0.006561 -0.003588 -0.004059 0.034542
#
#
# Mechanical properties :
#
#
# Convention : Reuss Voigt Hill
#
# Bulk Modulus (GPa) = 33.07072 54.20714 43.63893
# Shear Modulus (GPa) = 35.57918 43.29001 39.43459
#
# Velocity S-wave (km/s) = 4.02181 4.43627 4.23412
# Velocity P-wave (km/s) = 6.04990 7.13332 6.61383
#
# Compressibility (1/GPa) = 0.03023823
#
# Stress axis : x y z
#
# Youngs Moduli (GPa) = 92.91664 108.22310 89.82251
#
# Poissons Ratio (x) = 0.11931 0.03328
# Poissons Ratio (y) = 0.10243 -0.09200
# Poissons Ratio (z) = 0.03442 -0.11085
#
# Static dielectric constant tensor:
#      x y z
#    x 3.999370 0.029790 0.136020 
#    y 0.029790 3.994620 0.099900 
#    z 0.136020 0.099900 4.156740 
# 
# 
# High freq. dielectric constant tensor:
#      x y z
#    x 1.865900 -0.004840 0.011240 
#    y -0.004840 1.887890 -0.000920 
#    z 0.011240 -0.000920 1.875560 
# 
# From -- ./inp_files/297919.got.cif
#   From: 2010.06.25/outbox.cif.g09.slc.cpg/sg2_149_cif.got.tgz:297919.got - 2010.06.27 13:26:56.
