data_PCOD8035003
_publ_section_title
;
Structure prediction by ZEFSAII (Michael W. Deem and Ramdas Pophale) SiO2 
 PCOD8035003
Probable space group: P -1
;
_chemical_formula_sum "Si O2"
_cell_formula_units_Z 14
_cell_length_a 8.818024
_cell_length_b 18.612855
_cell_length_c 12.429413
_cell_angle_alpha 152.055167
_cell_angle_beta 46.376402
_cell_angle_gamma 116.950048
_cell_volume 614.244760
_symmetry_space_group_name_H-M "P -1"
_symmetry_group_IT_number 2
_symmetry_cell_setting 'triclinic'
loop_
_space_group_symop_operation_xyz
x,y,z
-x,-y,-z
loop_
_atom_site_type_symbol
_atom_site_label
_atom_site_fract_x
_atom_site_fract_y
_atom_site_fract_z
Si Si1 0.363905 0.571447 0.818635
Si Si2 0.663177 0.767001 0.618555
Si Si3 0.132974 0.046330 0.907428
Si Si4 0.090280 0.849054 0.478796
Si Si5 0.449910 0.017924 0.235837
Si Si6 0.912278 0.377155 0.324124
Si Si7 0.994389 0.831451 0.196135
O O1 0.257361 0.435702 0.685059
O O2 0.644147 0.479547 0.551934
O O3 0.293244 0.671548 0.098559
O O4 0.251008 0.708835 0.959391
O O5 0.526198 0.843440 0.673328
O O6 0.880729 0.812764 0.577786
O O7 0.494042 0.855648 0.921716
O O8 0.211870 0.902900 0.585944
O O9 0.364526 0.047367 0.844141
O O10 0.946134 0.233625 0.205235
O O11 0.000000 0.000000 0.000000
O O12 0.994864 0.001254 0.637066
O O13 0.194254 0.111171 0.539423
O O14 0.000000 0.500000 0.500000
O O15 0.061815 0.277274 0.012466
#
# Coordination Sequence:
#
# PCOD8035003 Si02
#       7
#     2   2   2   2   2   2   2
#     4  12  26  46  71 104 143 183 235 293 348 408
#     4  11  25  46  73 108 138 183 238 291 339 423
#     4  11  24  47  71  99 140 192 231 285 358 415
#     4  11  25  45  71 107 141 181 241 285 347 424
#     4  11  25  44  77  99 142 184 239 280 359 410
#     4  11  29  46  67 105 146 182 234 291 348 419
#     4  11  27  44  73 104 139 187 236 288 355 411
#
# _framework density 22.792217000000001
#
# number of rings (size 3 to 8) (size 9 to 14) (size 15 to 20)
#    0.000    0.857    2.857    2.143   12.000    1.143 
#    0.000    1.429    0.000    0.000    0.000    0.000 
#    0.000    0.000    0.000    0.000    0.000    0.000 
#
# Total GULP energy -173563.726876 kJ/mol
# GULP energy per Si atom -12397.409063 kJ/mol
# Density = 2.274034 g / cm^3
# Si number density = 22.792217 Si / 1000 Ang^3
#
#
#
# Elastic Constant Matrix: (Units=GPa)
#
#
# Indices 1 2 3 4 5 6 
#
# 1 128.3744 51.0563 68.8985 -1.9463 9.7218 -11.5030
# 2 51.0563 106.1018 66.7492 -5.3854 17.2811 -9.7768
# 3 68.8985 66.7492 157.3562 -5.1427 31.0881 -8.0147
# 4 -1.9463 -5.3854 -5.1427 28.7189 -0.8240 2.2550
# 5 9.7218 17.2811 31.0881 -0.8240 50.2499 4.4423
# 6 -11.5030 -9.7768 -8.0147 2.2550 4.4423 35.3853
#
#
#
# Elastic Compliance Matrix: (Units=1/GPa)
#
#
# Indices 1 2 3 4 5 6 
#
# 1 0.011046 -0.003027 -0.003678 -0.000593 0.001007 0.001833
# 2 -0.003027 0.014036 -0.004105 0.001473 -0.001864 0.002104
# 3 -0.003678 -0.004105 0.010651 0.000712 -0.004508 0.000603
# 4 -0.000593 0.001473 0.000712 0.035328 -0.000088 -0.001865
# 5 0.001007 -0.001864 -0.004508 -0.000088 0.023501 -0.004153
# 6 0.001833 0.002104 0.000603 -0.001865 -0.004153 0.030215
#
#
# Mechanical properties :
#
#
# Convention : Reuss Voigt Hill
#
# Bulk Modulus (GPa) = 70.85105 85.02673 77.93889
# Shear Modulus (GPa) = 33.09022 36.54603 34.81813
#
# Velocity S-wave (km/s) = 3.81441 4.00865 3.91273
# Velocity P-wave (km/s) = 7.11005 7.66889 7.39475
#
# Compressibility (1/GPa) = 0.01411412
#
# Stress axis : x y z
#
# Youngs Moduli (GPa) = 90.52712 71.24343 93.88594
#
# Poissons Ratio (x) = 0.21567 0.34528
# Poissons Ratio (y) = 0.27405 0.38541
# Poissons Ratio (z) = 0.33292 0.29246
#
# Static dielectric constant tensor:
#      x y z
#    x 3.291300 0.011260 0.162130 
#    y 0.011260 4.004070 0.053860 
#    z 0.162130 0.053860 4.494100 
# 
# 
# High freq. dielectric constant tensor:
#      x y z
#    x 1.903220 -0.013600 0.016550 
#    y -0.013600 1.899060 -0.001110 
#    z 0.016550 -0.001110 1.914240 
# 
# From -- ./inp_files/403474.got.cif
#   From: 2010.06.25/outbox.cif.g09.slc.cpg/sg2_202_cif.got.tgz:403474.got - 2010.06.27 13:26:56.
