data_PCOD8035498
_publ_section_title
;
Structure prediction by ZEFSAII (Michael W. Deem and Ramdas Pophale) SiO2 
 PCOD8035498
Probable space group: P -1
;
_chemical_formula_sum "Si O2"
_cell_formula_units_Z 16
_cell_length_a 26.996712
_cell_length_b 9.171161
_cell_length_c 8.881934
_cell_angle_alpha 70.436338
_cell_angle_beta 139.126780
_cell_angle_gamma 141.543297
_cell_volume 693.461723
_symmetry_space_group_name_H-M "P -1"
_symmetry_group_IT_number 2
_symmetry_cell_setting 'triclinic'
loop_
_space_group_symop_operation_xyz
x,y,z
-x,-y,-z
loop_
_atom_site_type_symbol
_atom_site_label
_atom_site_fract_x
_atom_site_fract_y
_atom_site_fract_z
Si Si1 0.111106 0.334615 0.118855
Si Si2 0.338229 0.285809 0.728971
Si Si3 0.923348 0.204073 0.905821
Si Si4 0.840758 0.142177 0.248778
Si Si5 0.630642 0.316225 0.861355
Si Si6 0.317407 0.834143 0.197015
Si Si7 0.103455 0.040166 0.783046
Si Si8 0.349589 0.643554 0.769762
O O1 0.189586 0.493512 0.083214
O O2 0.232925 0.548449 0.454728
O O3 0.006648 0.297064 0.914242
O O4 0.000000 0.000000 0.000000
O O5 0.360568 0.504411 0.748784
O O6 0.251043 0.107228 0.431309
O O7 0.240838 0.030980 0.720926
O O8 0.500000 0.500000 0.000000
O O9 0.000000 0.500000 0.000000
O O10 0.962659 0.165593 0.153544
O O11 0.000000 0.500000 0.500000
O O12 0.861956 0.021476 0.248445
O O13 0.732996 0.077084 0.942358
O O14 0.643055 0.160897 0.881112
O O15 0.462233 0.077339 0.550599
O O16 0.740324 0.618300 0.913928
O O17 0.699511 0.461391 0.134774
O O18 0.000000 0.000000 0.500000
O O19 0.500000 0.000000 0.000000
#
# Coordination Sequence:
#
# PCOD8035498 Si02
#       8
#     2   2   2   2   2   2   2   2
#     4  12  24  46  76 106 150 197 254 314 375 458
#     4  12  30  49  75 114 157 201 255 318 388 463
#     4  12  28  48  78 112 154 200 254 314 392 458
#     4  12  27  49  74 108 157 197 254 316 390 457
#     4  11  25  45  71 111 146 199 253 309 382 458
#     4  11  26  44  74 108 150 197 252 315 383 461
#     4  12  26  48  78 109 147 200 259 314 381 461
#     4  12  26  47  74 108 148 197 255 316 382 458
#
# _framework density 23.072649999999999
#
# number of rings (size 3 to 8) (size 9 to 14) (size 15 to 20)
#    0.000    0.250    3.750    4.500    5.250    1.500 
#    0.000    0.000    0.000    0.000    0.000    0.000 
#    0.000    0.000    0.000    0.000    0.000    0.000 
#
# Total GULP energy -198260.385817 kJ/mol
# GULP energy per Si atom -12391.274114 kJ/mol
# Density = 2.302014 g / cm^3
# Si number density = 23.072650 Si / 1000 Ang^3
#
#
#
# Elastic Constant Matrix: (Units=GPa)
#
#
# Indices 1 2 3 4 5 6 
#
# 1 125.4026 39.7259 50.9724 -3.9092 11.7578 -12.6090
# 2 39.7259 143.8738 51.2663 10.6192 9.8639 -2.7285
# 3 50.9724 51.2663 135.7680 5.0252 14.0095 -5.8131
# 4 -3.9092 10.6192 5.0252 46.6485 -0.3918 -2.1568
# 5 11.7578 9.8639 14.0095 -0.3918 43.7570 1.8636
# 6 -12.6090 -2.7285 -5.8131 -2.1568 1.8636 47.1290
#
#
#
# Elastic Compliance Matrix: (Units=1/GPa)
#
#
# Indices 1 2 3 4 5 6 
#
# 1 0.010157 -0.001722 -0.002970 0.001661 -0.001477 0.002386
# 2 -0.001722 0.008466 -0.002427 -0.001831 -0.000671 -0.000327
# 3 -0.002970 -0.002427 0.009617 -0.000734 -0.001753 0.000287
# 4 0.001661 -0.001831 -0.000734 0.022133 0.000346 0.001247
# 5 -0.001477 -0.000671 -0.001753 0.000346 0.024033 -0.001585
# 6 0.002386 -0.000327 0.000287 0.001247 -0.001585 0.021993
#
#
# Mechanical properties :
#
#
# Convention : Reuss Voigt Hill
#
# Bulk Modulus (GPa) = 71.42059 76.55261 73.98660
# Shear Modulus (GPa) = 43.36309 45.04555 44.20432
#
# Velocity S-wave (km/s) = 4.33993 4.42332 4.38182
# Velocity P-wave (km/s) = 7.49234 7.70316 7.59848
#
# Compressibility (1/GPa) = 0.01400156
#
# Stress axis : x y z
#
# Youngs Moduli (GPa) = 98.45125 118.12099 103.97903
#
# Poissons Ratio (x) = 0.20345 0.30882
# Poissons Ratio (y) = 0.16957 0.25237
# Poissons Ratio (z) = 0.29240 0.28669
#
# Static dielectric constant tensor:
#      x y z
#    x 2.694820 -1.006000 0.967540 
#    y -1.006000 3.662700 0.583080 
#    z 0.967540 0.583080 3.748310 
# 
# 
# High freq. dielectric constant tensor:
#      x y z
#    x 1.920570 0.004110 0.005810 
#    y 0.004110 1.925250 0.012320 
#    z 0.005810 0.012320 1.920680 
# 
# From -- ./inp_files/356606.got.cif
#   From: 2010.06.25/outbox.cif.g09.slc.cpg/sg2_179_cif.got.tgz:356606.got - 2010.06.27 13:26:56.
