data_PCOD8035034
_publ_section_title
;
Structure prediction by ZEFSAII (Michael W. Deem and Ramdas Pophale) SiO2 
 PCOD8035034
Probable space group: P -1
;
_chemical_formula_sum "Si O2"
_cell_formula_units_Z 16
_cell_length_a 15.176832
_cell_length_b 8.681942
_cell_length_c 9.184805
_cell_angle_alpha 75.026386
_cell_angle_beta 92.570137
_cell_angle_gamma 140.028949
_cell_volume 727.819110
_symmetry_space_group_name_H-M "P -1"
_symmetry_group_IT_number 2
_symmetry_cell_setting 'triclinic'
loop_
_space_group_symop_operation_xyz
x,y,z
-x,-y,-z
loop_
_atom_site_type_symbol
_atom_site_label
_atom_site_fract_x
_atom_site_fract_y
_atom_site_fract_z
Si Si1 0.165850 0.926706 0.820911
Si Si2 0.972619 0.143524 0.435203
Si Si3 0.958885 0.110588 0.905304
Si Si4 0.774101 0.317897 0.269979
Si Si5 0.498367 0.053494 0.819129
Si Si6 0.520252 0.595453 0.315760
Si Si7 0.243730 0.729917 0.387447
Si Si8 0.244083 0.084905 0.294330
O O1 0.321469 0.226660 0.764690
O O2 0.172496 0.758684 0.798452
O O3 0.054703 0.873827 0.733117
O O4 0.100365 0.842978 0.996667
O O5 0.100919 0.430309 0.431651
O O6 0.000000 0.000000 0.500000
O O7 0.827273 0.996434 0.533696
O O8 0.098897 0.378637 0.775535
O O9 0.837184 0.912262 0.823356
O O10 0.000000 0.000000 0.000000
O O11 0.718464 0.196062 0.457040
O O12 0.645324 0.218214 0.196897
O O13 0.501580 0.246766 0.743003
O O14 0.632725 0.177317 0.715219
O O15 0.500000 0.000000 0.000000
O O16 0.500000 0.500000 0.500000
O O17 0.410189 0.357820 0.254712
O O18 0.223211 0.876627 0.284079
#
# Coordination Sequence:
#
# PCOD8035034 Si02
#       8
#     2   2   2   2   2   2   2   2
#     4  11  25  44  68 100 139 183 228 287 354 404
#     4  12  23  42  72 102 134 179 235 286 341 418
#     4  12  28  42  67 104 143 179 230 294 351 404
#     4  11  24  48  69  97 141 182 233 283 346 428
#     4  11  28  45  71 107 140 185 233 289 358 412
#     4  11  24  47  74 101 142 186 235 287 348 428
#     4  12  25  45  74 101 136 184 235 289 345 426
#     4  12  24  45  71 103 137 179 237 283 348 416
#
# _framework density 21.983485000000002
#
# number of rings (size 3 to 8) (size 9 to 14) (size 15 to 20)
#    0.000    0.500    3.750    4.125    7.000    1.500 
#    0.000    0.000    0.000    0.000    0.000    0.000 
#    0.000    0.000    0.000    0.000    0.000    0.000 
#
# Total GULP energy -198430.114570 kJ/mol
# GULP energy per Si atom -12401.882161 kJ/mol
# Density = 2.193345 g / cm^3
# Si number density = 21.983485 Si / 1000 Ang^3
#
#
#
# Elastic Constant Matrix: (Units=GPa)
#
#
# Indices 1 2 3 4 5 6 
#
# 1 82.8799 29.8287 29.5435 -4.2780 8.3859 0.8549
# 2 29.8287 134.3806 28.0610 8.5055 17.4097 12.3552
# 3 29.5435 28.0610 114.6024 8.3445 7.5533 9.3385
# 4 -4.2780 8.5055 8.3445 33.4099 3.6925 10.1184
# 5 8.3859 17.4097 7.5533 3.6925 47.6732 2.1824
# 6 0.8549 12.3552 9.3385 10.1184 2.1824 36.1490
#
#
#
# Elastic Compliance Matrix: (Units=1/GPa)
#
#
# Indices 1 2 3 4 5 6 
#
# 1 0.014482 -0.002613 -0.003291 0.003324 -0.001354 0.000552
# 2 -0.002613 0.008839 -0.001055 -0.001406 -0.002394 -0.002148
# 3 -0.003291 -0.001055 0.010144 -0.002172 -0.000404 -0.001550
# 4 0.003324 -0.001406 -0.002172 0.034033 -0.001977 -0.008444
# 5 -0.001354 -0.002394 -0.000404 -0.001977 0.022298 0.000162
# 6 0.000552 -0.002148 -0.001550 -0.008444 0.000162 0.031139
#
#
# Mechanical properties :
#
#
# Convention : Reuss Voigt Hill
#
# Bulk Modulus (GPa) = 51.16372 56.30325 53.73348
# Shear Modulus (GPa) = 35.36846 39.74174 37.55510
#
# Velocity S-wave (km/s) = 4.01542 4.25644 4.13768
# Velocity P-wave (km/s) = 6.69495 7.05858 6.87917
#
# Compressibility (1/GPa) = 0.01954510
#
# Stress axis : x y z
#
# Youngs Moduli (GPa) = 69.04994 113.14043 98.58287
#
# Poissons Ratio (x) = 0.29564 0.32447
# Poissons Ratio (y) = 0.18043 0.10404
# Poissons Ratio (z) = 0.22727 0.11940
#
# Static dielectric constant tensor:
#      x y z
#    x 3.955240 0.262170 0.042180 
#    y 0.262170 4.155000 0.050780 
#    z 0.042180 0.050780 4.044240 
# 
# 
# High freq. dielectric constant tensor:
#      x y z
#    x 1.871380 0.012390 0.006330 
#    y 0.012390 1.873510 0.005270 
#    z 0.006330 0.005270 1.870760 
# 
# From -- ./inp_files/218873.got.cif
#   From: 2010.06.25/outbox.cif.g09.slc.cpg/sg2_110_cif.got.tgz:218873.got - 2010.06.27 13:26:56.
