data_PCOD8035941
_publ_section_title
;
Structure prediction by ZEFSAII (Michael W. Deem and Ramdas Pophale) SiO2 
 PCOD8035941
Probable space group: P -1
;
_chemical_formula_sum "Si O2"
_cell_formula_units_Z 16
_cell_length_a 12.832031
_cell_length_b 8.587568
_cell_length_c 7.569874
_cell_angle_alpha 86.103272
_cell_angle_beta 93.356264
_cell_angle_gamma 131.535472
_cell_volume 622.868533
_symmetry_space_group_name_H-M "P -1"
_symmetry_group_IT_number 2
_symmetry_cell_setting 'triclinic'
loop_
_space_group_symop_operation_xyz
x,y,z
-x,-y,-z
loop_
_atom_site_type_symbol
_atom_site_label
_atom_site_fract_x
_atom_site_fract_y
_atom_site_fract_z
Si Si1 0.627990 0.766858 0.438800
Si Si2 0.161300 0.142136 0.985834
Si Si3 0.326527 0.772596 0.115145
Si Si4 0.508654 0.141620 0.344655
Si Si5 0.194833 0.865712 0.834873
Si Si6 0.233867 0.395836 0.623714
Si Si7 0.585344 0.485489 0.862007
Si Si8 0.926339 0.543521 0.625010
O O1 0.584259 0.798630 0.618002
O O2 0.710306 0.688928 0.488199
O O3 0.491180 0.578776 0.328158
O O4 0.712816 0.987937 0.332005
O O5 0.196430 0.282668 0.812319
O O6 0.202753 0.003875 0.976019
O O7 0.255149 0.293212 0.148043
O O8 0.000000 0.000000 0.000000
O O9 0.399654 0.682629 0.077238
O O10 0.215703 0.653541 0.276761
O O11 0.451512 0.014140 0.165475
O O12 0.252873 0.763226 0.931172
O O13 0.665956 0.359705 0.338076
O O14 0.500000 0.000000 0.500000
O O15 0.034575 0.689248 0.778563
O O16 0.103985 0.334194 0.506099
O O17 0.500000 0.500000 0.000000
O O18 0.000000 0.500000 0.500000
#
# Coordination Sequence:
#
# PCOD8035941 Si02
#       8
#     2   2   2   2   2   2   2   2
#     4  11  25  48  74 115 153 200 261 325 390 468
#     4  11  27  48  74 111 157 203 263 315 389 468
#     4  12  28  46  78 114 159 203 261 332 387 472
#     4  12  24  47  75 117 153 195 255 324 401 459
#     4  11  27  47  74 109 151 207 264 314 390 463
#     4  11  26  47  77 110 153 203 256 328 382 465
#     4  12  24  48  76 113 158 200 259 323 391 464
#     4  12  27  48  75 111 159 209 264 320 394 471
#
# _framework density 25.687605000000001
#
# number of rings (size 3 to 8) (size 9 to 14) (size 15 to 20)
#    0.000    0.500    5.000    2.250    7.000    2.500 
#    2.250    0.000    0.000    0.000    0.000    0.000 
#    0.000    0.000    0.000    0.000    0.000    0.000 
#
# Total GULP energy -198383.315979 kJ/mol
# GULP energy per Si atom -12398.957249 kJ/mol
# Density = 2.562914 g / cm^3
# Si number density = 25.687605 Si / 1000 Ang^3
#
#
#
# Elastic Constant Matrix: (Units=GPa)
#
#
# Indices 1 2 3 4 5 6 
#
# 1 176.7008 53.0811 53.8148 10.3886 18.7659 -22.1199
# 2 53.0811 107.0194 22.0791 24.2937 -6.3448 -6.8934
# 3 53.8148 22.0791 74.8889 28.5561 15.8284 -17.5312
# 4 10.3886 24.2937 28.5561 47.9739 5.6559 0.9427
# 5 18.7659 -6.3448 15.8284 5.6559 49.9244 -0.7344
# 6 -22.1199 -6.8934 -17.5312 0.9427 -0.7344 46.7236
#
#
#
# Elastic Compliance Matrix: (Units=1/GPa)
#
#
# Indices 1 2 3 4 5 6 
#
# 1 0.008869 -0.004146 -0.005825 0.003909 -0.002438 0.001284
# 2 -0.004146 0.012959 0.001097 -0.006757 0.003631 0.000554
# 3 -0.005825 0.001097 0.024946 -0.013819 -0.003912 0.006982
# 4 0.003909 -0.006757 -0.013819 0.031937 -0.001638 -0.005002
# 5 -0.002438 0.003631 -0.003912 -0.001638 0.022809 -0.001694
# 6 0.001284 0.000554 0.006982 -0.005002 -0.001694 0.024786
#
#
# Mechanical properties :
#
#
# Convention : Reuss Voigt Hill
#
# Bulk Modulus (GPa) = 34.45184 68.50656 51.47920
# Shear Modulus (GPa) = 32.52480 44.23332 38.37906
#
# Velocity S-wave (km/s) = 3.56218 4.15417 3.86951
# Velocity P-wave (km/s) = 5.50998 7.05241 6.32836
#
# Compressibility (1/GPa) = 0.02902602
#
# Stress axis : x y z
#
# Youngs Moduli (GPa) = 112.75609 77.16709 40.08624
#
# Poissons Ratio (x) = 0.31994 0.23351
# Poissons Ratio (y) = 0.46750 -0.04399
# Poissons Ratio (z) = 0.65683 -0.08469
#
# Static dielectric constant tensor:
#      x y z
#    x 4.978190 -0.160330 -0.001340 
#    y -0.160330 4.400700 0.270860 
#    z -0.001340 0.270860 4.566040 
# 
# 
# High freq. dielectric constant tensor:
#      x y z
#    x 2.044830 -0.008720 0.002480 
#    y -0.008720 2.039330 0.000810 
#    z 0.002480 0.000810 2.026430 
# 
# From -- ./inp_files/244128.got.cif
#   From: 2010.06.25/outbox.cif.g09.slc.cpg/sg2_123_cif.got.tgz:244128.got - 2010.06.27 13:26:56.
