data_PCOD8035299
_publ_section_title
;
Structure prediction by ZEFSAII (Michael W. Deem and Ramdas Pophale) SiO2 
 PCOD8035299
Probable space group: P -1
;
_chemical_formula_sum "Si O2"
_cell_formula_units_Z 14
_cell_length_a 6.611823
_cell_length_b 14.670417
_cell_length_c 14.119418
_cell_angle_alpha 28.568749
_cell_angle_beta 74.513976
_cell_angle_gamma 86.540053
_cell_volume 584.367190
_symmetry_space_group_name_H-M "P -1"
_symmetry_group_IT_number 2
_symmetry_cell_setting 'triclinic'
loop_
_space_group_symop_operation_xyz
x,y,z
-x,-y,-z
loop_
_atom_site_type_symbol
_atom_site_label
_atom_site_fract_x
_atom_site_fract_y
_atom_site_fract_z
Si Si1 0.704964 0.550650 0.703558
Si Si2 0.190588 0.738618 0.172806
Si Si3 0.403632 0.124686 0.674518
Si Si4 0.629623 0.026779 0.558875
Si Si5 0.304558 0.575352 0.490096
Si Si6 0.978928 0.548156 0.837943
Si Si7 0.276096 0.369295 0.049012
O O1 0.656088 0.367409 0.802435
O O2 0.758114 0.764733 0.447023
O O3 0.930596 0.566791 0.717247
O O4 0.497697 0.511562 0.835908
O O5 0.250626 0.731159 0.282370
O O6 0.924583 0.625107 0.287209
O O7 0.265906 0.971331 0.914385
O O8 0.465881 0.006325 0.688137
O O9 0.624733 0.302327 0.530881
O O10 0.831489 0.245711 0.333173
O O11 0.500000 0.000000 0.500000
O O12 0.736194 0.855464 0.717857
O O13 0.500000 0.500000 0.500000
O O14 0.747553 0.512722 0.959047
O O15 0.062354 0.359354 0.017595
#
# Coordination Sequence:
#
# PCOD8035299 Si02
#       7
#     2   2   2   2   2   2   2
#     4  12  24  46  69 107 142 187 248 295 357 440
#     4  11  26  47  77 106 145 186 240 301 370 437
#     4  12  25  48  76 107 148 194 239 301 366 427
#     4  12  26  45  69 106 148 191 246 292 353 431
#     4  11  25  52  76 108 144 184 242 303 369 441
#     4  11  26  43  69 100 142 203 241 292 364 411
#     4  11  25  43  69  95 146 191 239 302 343 418
#
# _framework density 23.957540000000002
#
# number of rings (size 3 to 8) (size 9 to 14) (size 15 to 20)
#    0.000    0.571    4.286    3.000    4.000    1.714 
#    5.143    0.000    0.000    0.000    0.000    0.000 
#    0.000    0.000    0.000    0.000    0.000    0.000 
#
# Total GULP energy -173589.619007 kJ/mol
# GULP energy per Si atom -12399.258500 kJ/mol
# Density = 2.390301 g / cm^3
# Si number density = 23.957540 Si / 1000 Ang^3
#
#
#
# Elastic Constant Matrix: (Units=GPa)
#
#
# Indices 1 2 3 4 5 6 
#
# 1 116.9737 46.0387 44.7770 1.4203 31.5112 3.7749
# 2 46.0387 84.9820 5.0689 0.6039 12.7717 20.1106
# 3 44.7770 5.0689 114.4261 8.9955 25.4004 -1.0636
# 4 1.4203 0.6039 8.9955 26.4475 -3.5995 5.9501
# 5 31.5112 12.7717 25.4004 -3.5995 55.7270 7.7226
# 6 3.7749 20.1106 -1.0636 5.9501 7.7226 39.2880
#
#
#
# Elastic Compliance Matrix: (Units=1/GPa)
#
#
# Indices 1 2 3 4 5 6 
#
# 1 0.014353 -0.007597 -0.004073 -0.000685 -0.005047 0.003495
# 2 -0.007597 0.017702 0.001845 0.001411 0.000684 -0.008629
# 3 -0.004073 0.001845 0.011460 -0.004505 -0.003798 0.001186
# 4 -0.000685 0.001411 -0.004505 0.042034 0.005986 -0.008321
# 5 -0.005047 0.000684 -0.003798 0.005986 0.023521 -0.005498
# 6 0.003495 -0.008629 0.001186 -0.008321 -0.005498 0.031907
#
#
# Mechanical properties :
#
#
# Convention : Reuss Voigt Hill
#
# Bulk Modulus (GPa) = 41.90102 56.46121 49.18111
# Shear Modulus (GPa) = 29.65909 38.99229 34.32569
#
# Velocity S-wave (km/s) = 3.52232 4.03868 3.78930
# Velocity P-wave (km/s) = 5.83695 6.73545 6.30223
#
# Compressibility (1/GPa) = 0.02386577
#
# Stress axis : x y z
#
# Youngs Moduli (GPa) = 69.67076 56.49164 87.26106
#
# Poissons Ratio (x) = 0.42914 0.35546
# Poissons Ratio (y) = 0.52926 -0.16104
# Poissons Ratio (z) = 0.28380 -0.10425
#
# Static dielectric constant tensor:
#      x y z
#    x 4.540280 0.044270 0.302440 
#    y 0.044270 4.387460 0.261110 
#    z 0.302440 0.261110 4.243110 
# 
# 
# High freq. dielectric constant tensor:
#      x y z
#    x 1.961270 0.000120 0.018130 
#    y 0.000120 1.951870 0.020280 
#    z 0.018130 0.020280 1.950210 
# 
# From -- ./inp_files/484096.got.cif
#   From: 2010.06.25/outbox.cif.g09.slc.cpg/sg2_243_cif.got.tgz:484096.got - 2010.06.27 13:26:56.
