data_PCOD8035386
_publ_section_title
;
Structure prediction by ZEFSAII (Michael W. Deem and Ramdas Pophale) SiO2 
 PCOD8035386
Probable space group: P -1
;
_chemical_formula_sum "Si O2"
_cell_formula_units_Z 12
_cell_length_a 13.157476
_cell_length_b 7.794331
_cell_length_c 6.702022
_cell_angle_alpha 122.150694
_cell_angle_beta 117.291881
_cell_angle_gamma 86.726683
_cell_volume 500.930806
_symmetry_space_group_name_H-M "P -1"
_symmetry_group_IT_number 2
_symmetry_cell_setting 'triclinic'
loop_
_space_group_symop_operation_xyz
x,y,z
-x,-y,-z
loop_
_atom_site_type_symbol
_atom_site_label
_atom_site_fract_x
_atom_site_fract_y
_atom_site_fract_z
Si Si1 0.143664 0.479540 0.518697
Si Si2 0.706825 0.437363 0.660432
Si Si3 0.106863 0.058481 0.476692
Si Si4 0.899585 0.329732 0.031471
Si Si5 0.511953 0.018325 0.290671
Si Si6 0.349941 0.169812 0.969258
O O1 0.259554 0.497710 0.499256
O O2 0.119341 0.280252 0.520617
O O3 0.160352 0.680351 0.806886
O O4 0.033228 0.471086 0.265913
O O5 0.616603 0.214764 0.443660
O O6 0.828026 0.441954 0.887008
O O7 0.642749 0.597539 0.805791
O O8 0.220848 0.051484 0.705305
O O9 0.000000 0.000000 0.500000
O O10 0.094885 0.896510 0.182845
O O11 0.500000 0.000000 0.500000
O O12 0.552750 0.819519 0.113190
O O13 0.387230 0.036419 0.100776
#
# Coordination Sequence:
#
# PCOD8035386 Si02
#       6
#     2   2   2   2   2   2
#     4  11  27  43  70 107 144 192 233 289 352 420
#     4  12  25  46  74 102 143 182 240 298 349 420
#     4  12  26  46  73 107 148 188 232 290 355 425
#     4  11  25  44  71 105 147 190 234 286 353 422
#     4  11  28  49  75 102 140 189 240 295 351 421
#     4  11  26  49  71 109 142 182 242 291 355 422
#
# _framework density 23.955401999999999
#
# number of rings (size 3 to 8) (size 9 to 14) (size 15 to 20)
#    0.000    0.667    3.333    2.500    7.000    6.000 
#    0.000    0.000    0.000    0.000    0.000    0.000 
#    0.000    0.000    0.000    0.000    0.000    0.000 
#
# Total GULP energy -148773.068298 kJ/mol
# GULP energy per Si atom -12397.755692 kJ/mol
# Density = 2.390088 g / cm^3
# Si number density = 23.955402 Si / 1000 Ang^3
#
#
#
# Elastic Constant Matrix: (Units=GPa)
#
#
# Indices 1 2 3 4 5 6 
#
# 1 133.0241 80.4539 69.5759 -10.9050 -21.4643 -8.4582
# 2 80.4539 84.5257 43.7020 -8.7564 -13.0707 3.3622
# 3 69.5759 43.7020 147.7787 -8.6677 -24.4556 -4.2533
# 4 -10.9050 -8.7564 -8.6677 40.9825 -19.1252 -5.1779
# 5 -21.4643 -13.0707 -24.4556 -19.1252 56.8071 -2.0271
# 6 -8.4582 3.3622 -4.2533 -5.1779 -2.0271 46.5478
#
#
#
# Elastic Compliance Matrix: (Units=1/GPa)
#
#
# Indices 1 2 3 4 5 6 
#
# 1 0.021528 -0.017738 -0.003905 0.003549 0.003759 0.005395
# 2 -0.017738 0.029194 -0.000411 0.000709 -0.000113 -0.005296
# 3 -0.003905 -0.000411 0.009450 0.002521 0.003369 0.000611
# 4 0.003549 0.000709 0.002521 0.033184 0.013944 0.005123
# 5 0.003759 -0.000113 0.003369 0.013944 0.025273 0.003651
# 6 0.005395 -0.005296 0.000611 0.005123 0.003651 0.023631
#
#
# Mechanical properties :
#
#
# Convention : Reuss Voigt Hill
#
# Bulk Modulus (GPa) = 62.25308 83.64358 72.94833
# Shear Modulus (GPa) = 26.07930 40.30725 33.19328
#
# Velocity S-wave (km/s) = 3.30307 4.10640 3.72644
# Velocity P-wave (km/s) = 6.37107 7.58126 7.00236
#
# Compressibility (1/GPa) = 0.01606346
#
# Stress axis : x y z
#
# Youngs Moduli (GPa) = 46.45025 34.25377 105.82208
#
# Poissons Ratio (x) = 0.60760 0.41320
# Poissons Ratio (y) = 0.82394 0.04355
# Poissons Ratio (z) = 0.18137 0.01410
#
# Static dielectric constant tensor:
#      x y z
#    x 5.145290 -0.137400 -0.396390 
#    y -0.137400 4.137330 -0.128220 
#    z -0.396390 -0.128220 4.897110 
# 
# 
# High freq. dielectric constant tensor:
#      x y z
#    x 1.961990 -0.023800 -0.014990 
#    y -0.023800 1.926000 -0.004640 
#    z -0.014990 -0.004640 1.979680 
# 
# From -- ./inp_files/61323.got.cif
#   From: 2010.06.25/outbox.cif.g09.slc.cpg/sg2_31_cif.got.tgz:61323.got - 2010.06.27 13:26:56.
