data_PCOD8035233
_publ_section_title
;
Structure prediction by ZEFSAII (Michael W. Deem and Ramdas Pophale) SiO2 
 PCOD8035233
Probable space group: P -1
;
_chemical_formula_sum "Si O2"
_cell_formula_units_Z 16
_cell_length_a 24.609201
_cell_length_b 22.624633
_cell_length_c 6.821905
_cell_angle_alpha 42.419068
_cell_angle_beta 127.676810
_cell_angle_gamma 162.079202
_cell_volume 708.172555
_symmetry_space_group_name_H-M "P -1"
_symmetry_group_IT_number 2
_symmetry_cell_setting 'triclinic'
loop_
_space_group_symop_operation_xyz
x,y,z
-x,-y,-z
loop_
_atom_site_type_symbol
_atom_site_label
_atom_site_fract_x
_atom_site_fract_y
_atom_site_fract_z
Si Si1 0.194376 0.233053 0.241092
Si Si2 0.773252 0.397828 0.610346
Si Si3 0.795796 0.892181 0.751709
Si Si4 0.390739 0.168406 0.670919
Si Si5 0.425272 0.957270 0.635030
Si Si6 0.890427 0.298496 0.619269
Si Si7 0.414304 0.474936 0.491598
Si Si8 0.195865 0.397728 0.585724
O O1 0.240872 0.194576 0.332730
O O2 0.330487 0.429927 0.234964
O O3 0.182041 0.284512 0.912169
O O4 0.000000 0.000000 0.500000
O O5 0.846653 0.580229 0.398154
O O6 0.957005 0.564015 0.527227
O O7 0.610770 0.217124 0.526164
O O8 0.687725 0.247755 0.979568
O O9 0.661744 0.821437 0.638928
O O10 0.735477 0.748150 0.134737
O O11 0.025236 0.196168 0.536682
O O12 0.431011 0.273725 0.693150
O O13 0.576711 0.325527 0.662244
O O14 0.201000 0.881550 0.992278
O O15 0.279919 0.862567 0.493864
O O16 0.500000 0.000000 0.500000
O O17 0.000000 0.500000 0.500000
O O18 0.500000 0.500000 0.500000
#
# Coordination Sequence:
#
# PCOD8035233 Si02
#       8
#     2   2   2   2   2   2   2   2
#     4  12  24  44  72 101 147 195 241 294 366 427
#     4  11  28  47  77 111 142 193 243 297 377 441
#     4  12  26  49  72 105 154 194 243 306 361 434
#     4  12  28  46  75 108 148 198 250 304 367 433
#     4  11  24  52  79 104 145 185 241 310 368 433
#     4  12  28  49  77 109 148 192 245 308 373 434
#     4  12  24  45  72 103 146 195 246 301 362 435
#     4  12  27  46  73 110 147 192 251 298 360 446
#
# _framework density 22.593363
#
# number of rings (size 3 to 8) (size 9 to 14) (size 15 to 20)
#    0.000    0.250    5.000    3.375    8.750    2.000 
#    0.000    0.000    0.000    0.000    0.000    0.000 
#    0.000    0.000    0.000    0.000    0.000    0.000 
#
# Total GULP energy -198244.945515 kJ/mol
# GULP energy per Si atom -12390.309095 kJ/mol
# Density = 2.254194 g / cm^3
# Si number density = 22.593363 Si / 1000 Ang^3
#
#
#
# Elastic Constant Matrix: (Units=GPa)
#
#
# Indices 1 2 3 4 5 6 
#
# 1 160.3686 48.3850 37.1066 -7.1225 -6.2966 -3.0406
# 2 48.3850 126.1247 40.8149 6.8026 8.2880 -4.0688
# 3 37.1066 40.8149 76.3366 -6.4749 -8.4982 -10.6163
# 4 -7.1225 6.8026 -6.4749 41.2481 3.3640 2.8613
# 5 -6.2966 8.2880 -8.4982 3.3640 40.0503 -1.9663
# 6 -3.0406 -4.0688 -10.6163 2.8613 -1.9663 44.5180
#
#
#
# Elastic Compliance Matrix: (Units=1/GPa)
#
#
# Indices 1 2 3 4 5 6 
#
# 1 0.007546 -0.002317 -0.002239 0.001265 0.001072 -0.000264
# 2 -0.002317 0.010936 -0.005409 -0.002732 -0.003567 -0.000431
# 3 -0.002239 -0.005409 0.018350 0.002749 0.004614 0.003756
# 4 0.001265 -0.002732 0.002749 0.025496 -0.000852 -0.001184
# 5 0.001072 -0.003567 0.004614 -0.000852 0.027029 0.002096
# 6 -0.000264 -0.000431 0.003756 -0.001184 0.002096 0.023470
#
#
# Mechanical properties :
#
#
# Convention : Reuss Voigt Hill
#
# Bulk Modulus (GPa) = 59.17227 68.38254 63.77741
# Shear Modulus (GPa) = 36.12930 40.93153 38.53041
#
# Velocity S-wave (km/s) = 4.00323 4.26098 4.13411
# Velocity P-wave (km/s) = 6.90034 7.38514 7.14685
#
# Compressibility (1/GPa) = 0.01689981
#
# Stress axis : x y z
#
# Youngs Moduli (GPa) = 132.51708 91.44044 54.49642
#
# Poissons Ratio (x) = 0.21191 0.12203
# Poissons Ratio (y) = 0.30710 0.29479
# Poissons Ratio (z) = 0.29674 0.49464
#
# Static dielectric constant tensor:
#      x y z
#    x 4.244670 0.202030 -0.009120 
#    y 0.202030 4.236450 0.040140 
#    z -0.009120 0.040140 3.874380 
# 
# 
# High freq. dielectric constant tensor:
#      x y z
#    x 1.902480 0.006210 -0.002650 
#    y 0.006210 1.911010 0.004490 
#    z -0.002650 0.004490 1.882450 
# 
# From -- ./inp_files/125000.got.cif
#   From: 2010.06.25/outbox.cif.g09.slc.cpg/sg2_63_cif.got.tgz:125000.got - 2010.06.27 13:26:56.
