data_PCOD8035194
_publ_section_title
;
Structure prediction by ZEFSAII (Michael W. Deem and Ramdas Pophale) SiO2 
 PCOD8035194
Probable space group: P -1
;
_chemical_formula_sum "Si O2"
_cell_formula_units_Z 14
_cell_length_a 9.371768
_cell_length_b 15.183430
_cell_length_c 7.689379
_cell_angle_alpha 143.309409
_cell_angle_beta 105.417317
_cell_angle_gamma 61.840394
_cell_volume 563.058470
_symmetry_space_group_name_H-M "P -1"
_symmetry_group_IT_number 2
_symmetry_cell_setting 'triclinic'
loop_
_space_group_symop_operation_xyz
x,y,z
-x,-y,-z
loop_
_atom_site_type_symbol
_atom_site_label
_atom_site_fract_x
_atom_site_fract_y
_atom_site_fract_z
Si Si1 0.262321 0.256782 0.531590
Si Si2 0.926788 0.419860 0.212677
Si Si3 0.168764 0.996584 0.985930
Si Si4 0.258814 0.164241 0.780650
Si Si5 0.378508 0.838750 0.484272
Si Si6 0.601436 0.428093 0.173042
Si Si7 0.489459 0.737618 0.817825
O O1 0.169498 0.451825 0.771586
O O2 0.276413 0.222344 0.687114
O O3 0.452677 0.174347 0.393717
O O4 0.155775 0.179802 0.273769
O O5 0.796304 0.368672 0.183719
O O6 0.000000 0.500000 0.500000
O O7 0.066673 0.254758 0.913349
O O8 0.222897 0.914203 0.684428
O O9 0.313653 0.897016 0.012689
O O10 0.000000 0.000000 0.000000
O O11 0.327362 0.965699 0.503142
O O12 0.360108 0.216013 0.036515
O O13 0.411849 0.654684 0.144016
O O14 0.514296 0.629876 0.475538
O O15 0.506155 0.373989 0.196559
#
# Coordination Sequence:
#
# PCOD8035194 Si02
#       7
#     2   2   2   2   2   2   2
#     4  12  26  49  74 108 148 197 248 298 370 442
#     4  12  27  45  72 108 154 194 240 303 369 437
#     4  12  29  45  74 110 149 191 250 309 368 433
#     4  12  25  49  77 107 146 199 243 302 369 441
#     4  12  26  49  80 105 146 196 250 303 370 440
#     4  11  26  46  75 107 144 194 244 305 364 433
#     4  11  24  49  75 106 149 193 247 303 365 440
#
# _framework density 24.864203
#
# number of rings (size 3 to 8) (size 9 to 14) (size 15 to 20)
#    0.000    0.286    4.286    3.857    6.000    2.857 
#    0.000    0.000    0.000    0.000    0.000    0.000 
#    0.000    0.000    0.000    0.000    0.000    0.000 
#
# Total GULP energy -173606.626786 kJ/mol
# GULP energy per Si atom -12400.473342 kJ/mol
# Density = 2.480761 g / cm^3
# Si number density = 24.864203 Si / 1000 Ang^3
#
#
#
# Elastic Constant Matrix: (Units=GPa)
#
#
# Indices 1 2 3 4 5 6 
#
# 1 160.1099 13.1226 36.1237 5.5718 -1.7691 -22.9524
# 2 13.1226 73.2817 9.0801 10.0808 -4.7474 -2.9872
# 3 36.1237 9.0801 126.6032 -4.3399 8.1334 -5.6248
# 4 5.5718 10.0808 -4.3399 47.0015 -4.7615 -5.8407
# 5 -1.7691 -4.7474 8.1334 -4.7615 35.6163 2.2358
# 6 -22.9524 -2.9872 -5.6248 -5.8407 2.2358 37.5754
#
#
#
# Elastic Compliance Matrix: (Units=1/GPa)
#
#
# Indices 1 2 3 4 5 6 
#
# 1 0.007339 -0.000846 -0.001889 -0.000319 0.000386 0.004060
# 2 -0.000846 0.014433 -0.001008 -0.002923 0.001726 -0.000077
# 3 -0.001889 -0.001008 0.008697 0.001076 -0.002093 0.000360
# 4 -0.000319 -0.002923 0.001076 0.022649 0.002181 0.003124
# 5 0.000386 0.001726 -0.002093 0.002181 0.029180 -0.001338
# 6 0.004060 -0.000077 0.000360 0.003124 -0.001338 0.029706
#
#
# Mechanical properties :
#
#
# Convention : Reuss Voigt Hill
#
# Bulk Modulus (GPa) = 43.50932 52.96085 48.23509
# Shear Modulus (GPa) = 39.32343 44.14986 41.73664
#
# Velocity S-wave (km/s) = 3.98116 4.21841 4.10150
# Velocity P-wave (km/s) = 6.21849 6.71363 6.47080
#
# Compressibility (1/GPa) = 0.02298358
#
# Stress axis : x y z
#
# Youngs Moduli (GPa) = 136.26711 69.28494 114.97916
#
# Poissons Ratio (x) = 0.05859 0.21715
# Poissons Ratio (y) = 0.11524 0.11594
# Poissons Ratio (z) = 0.25735 0.06987
#
# Static dielectric constant tensor:
#      x y z
#    x 4.540860 0.057340 -0.021180 
#    y 0.057340 4.422980 0.232360 
#    z -0.021180 0.232360 4.683940 
# 
# 
# High freq. dielectric constant tensor:
#      x y z
#    x 1.998280 0.009950 -0.001540 
#    y 0.009950 1.991280 0.009150 
#    z -0.001540 0.009150 1.994440 
# 
# From -- ./inp_files/219055.got.cif
#   From: 2010.06.25/outbox.cif.g09.slc.cpg/sg2_110_cif.got.tgz:219055.got - 2010.06.27 13:26:56.
