data_PCOD8035007
_publ_section_title
;
Structure prediction by ZEFSAII (Michael W. Deem and Ramdas Pophale) SiO2 
 PCOD8035007
Probable space group: P -1
;
_chemical_formula_sum "Si O2"
_cell_formula_units_Z 16
_cell_length_a 8.990404
_cell_length_b 15.679901
_cell_length_c 11.229688
_cell_angle_alpha 73.246786
_cell_angle_beta 51.800719
_cell_angle_gamma 39.293116
_cell_volume 727.946272
_symmetry_space_group_name_H-M "P -1"
_symmetry_group_IT_number 2
_symmetry_cell_setting 'triclinic'
loop_
_space_group_symop_operation_xyz
x,y,z
-x,-y,-z
loop_
_atom_site_type_symbol
_atom_site_label
_atom_site_fract_x
_atom_site_fract_y
_atom_site_fract_z
Si Si1 0.716966 0.369829 0.038337
Si Si2 0.803483 0.187708 0.433188
Si Si3 0.865639 0.356283 0.366924
Si Si4 0.216024 0.875552 0.269405
Si Si5 0.634429 0.638255 0.619977
Si Si6 0.882137 0.864711 0.260491
Si Si7 0.305716 0.192754 0.426239
Si Si8 0.914792 0.633701 0.972685
O O1 0.514218 0.384954 0.220146
O O2 0.905050 0.372568 0.019169
O O3 0.500000 0.500000 0.000000
O O4 0.946676 0.219688 0.913185
O O5 0.981404 0.215243 0.325272
O O6 0.745683 0.187740 0.598739
O O7 0.471501 0.328553 0.478371
O O8 0.993689 0.042855 0.325955
O O9 0.500000 0.500000 0.500000
O O10 0.008947 0.319732 0.439826
O O11 0.991310 0.380403 0.202334
O O12 0.078588 0.858314 0.248541
O O13 0.549327 0.786428 0.101181
O O14 0.518939 0.778384 0.663374
O O15 0.000000 0.500000 0.500000
O O16 0.820328 0.795221 0.388670
O O17 0.552849 0.029641 0.319449
O O18 0.000000 0.500000 0.000000
#
# Coordination Sequence:
#
# PCOD8035007 Si02
#       8
#     2   2   2   2   2   2   2   2
#     4  12  29  46  70 103 143 183 228 290 347 415
#     4  11  24  47  72 102 140 185 238 282 342 405
#     4  12  26  47  71 100 141 184 237 289 338 414
#     4  11  25  45  75 102 143 183 229 289 342 417
#     4  12  26  46  71 102 141 185 236 285 342 414
#     4  11  25  48  70 106 145 178 232 283 349 416
#     4  11  26  44  74 103 139 189 228 284 346 410
#     4  12  29  47  71 103 139 184 232 286 352 407
#
# _framework density 21.979645000000001
#
# number of rings (size 3 to 8) (size 9 to 14) (size 15 to 20)
#    0.000    0.500    3.750    3.000   10.500    2.000 
#    0.000    0.000    0.000    0.000    0.000    0.000 
#    0.000    0.000    0.000    0.000    0.000    0.000 
#
# Total GULP energy -198433.637898 kJ/mol
# GULP energy per Si atom -12402.102369 kJ/mol
# Density = 2.192962 g / cm^3
# Si number density = 21.979645 Si / 1000 Ang^3
#
#
#
# Elastic Constant Matrix: (Units=GPa)
#
#
# Indices 1 2 3 4 5 6 
#
# 1 125.6645 39.3673 48.9557 -9.9322 -9.3142 1.0429
# 2 39.3673 92.8304 67.3876 -22.8668 -3.2510 -7.2857
# 3 48.9557 67.3876 137.6376 2.2311 -11.4781 -3.5481
# 4 -9.9322 -22.8668 2.2311 34.2037 3.4146 -6.6590
# 5 -9.3142 -3.2510 -11.4781 3.4146 36.5958 -0.8165
# 6 1.0429 -7.2857 -3.5481 -6.6590 -0.8165 51.9465
#
#
#
# Elastic Compliance Matrix: (Units=1/GPa)
#
#
# Indices 1 2 3 4 5 6 
#
# 1 0.009744 -0.002050 -0.002379 0.001387 0.001413 -0.000446
# 2 -0.002050 0.025225 -0.012096 0.018410 -0.003680 0.005055
# 3 -0.002379 -0.012096 0.014470 -0.010479 0.003793 -0.001944
# 4 0.001387 0.018410 -0.010479 0.044614 -0.005294 0.007474
# 5 0.001413 -0.003680 0.003793 -0.005294 0.029030 -0.000508
# 6 -0.000446 0.005055 -0.001944 0.007474 -0.000508 0.020786
#
#
# Mechanical properties :
#
#
# Convention : Reuss Voigt Hill
#
# Bulk Modulus (GPa) = 61.01083 74.17264 67.59174
# Shear Modulus (GPa) = 27.41494 37.91064 32.66279
#
# Velocity S-wave (km/s) = 3.53553 4.15758 3.85911
# Velocity P-wave (km/s) = 6.66969 7.54100 7.11869
#
# Compressibility (1/GPa) = 0.01639053
#
# Stress axis : x y z
#
# Youngs Moduli (GPa) = 102.62254 39.64307 69.10918
#
# Poissons Ratio (x) = 0.08125 0.16439
# Poissons Ratio (y) = 0.21033 0.83596
# Poissons Ratio (z) = 0.24410 0.47953
#
# Static dielectric constant tensor:
#      x y z
#    x 4.215640 0.109920 -0.183370 
#    y 0.109920 4.276590 -0.117980 
#    z -0.183370 -0.117980 3.932410 
# 
# 
# High freq. dielectric constant tensor:
#      x y z
#    x 1.883980 0.001430 -0.004330 
#    y 0.001430 1.888750 -0.004610 
#    z -0.004330 -0.004610 1.855710 
# 
# From -- ./inp_files/185116.got.cif
#   From: 2010.06.25/outbox.cif.g09.slc.cpg/sg2_93_cif.got.tgz:185116.got - 2010.06.27 13:26:56.
