data_PCOD8035156
_publ_section_title
;
Structure prediction by ZEFSAII (Michael W. Deem and Ramdas Pophale) SiO2 
 PCOD8035156
Probable space group: P -1
;
_chemical_formula_sum "Si O2"
_cell_formula_units_Z 12
_cell_length_a 11.351956
_cell_length_b 13.837918
_cell_length_c 9.463699
_cell_angle_alpha 66.953828
_cell_angle_beta 112.064802
_cell_angle_gamma 159.448705
_cell_volume 480.033199
_symmetry_space_group_name_H-M "P -1"
_symmetry_group_IT_number 2
_symmetry_cell_setting 'triclinic'
loop_
_space_group_symop_operation_xyz
x,y,z
-x,-y,-z
loop_
_atom_site_type_symbol
_atom_site_label
_atom_site_fract_x
_atom_site_fract_y
_atom_site_fract_z
Si Si1 0.878311 0.775000 0.460467
Si Si2 0.878776 0.524151 0.913523
Si Si3 0.737907 0.470330 0.193472
Si Si4 0.219183 0.990367 0.767758
Si Si5 0.286696 0.934084 0.385619
Si Si6 0.879283 0.880533 0.858741
O O1 0.500000 0.500000 0.500000
O O2 0.117042 0.975548 0.589470
O O3 0.985034 0.741502 0.464619
O O4 0.929355 0.899299 0.291865
O O5 0.172573 0.828622 0.822105
O O6 0.600552 0.312406 0.786850
O O7 0.727714 0.446125 0.036662
O O8 0.000000 0.500000 0.000000
O O9 0.523051 0.411495 0.164934
O O10 0.112804 0.768655 0.253252
O O11 0.550488 0.229239 0.318664
O O12 0.978031 0.838483 0.879242
O O13 0.500000 0.000000 0.500000
O O14 0.000000 0.000000 0.000000
#
# Coordination Sequence:
#
# PCOD8035156 Si02
#       6
#     2   2   2   2   2   2
#     4  11  26  47  75 113 153 194 254 308 380 446
#     4  12  28  45  74 106 149 198 250 304 368 447
#     4  11  25  46  72 106 147 185 257 304 367 445
#     4  12  26  47  76 106 150 196 246 311 374 440
#     4  11  26  46  74 105 145 199 242 311 373 449
#     4  11  24  48  76 112 148 193 251 310 378 444
#
# _framework density 24.998270000000002
#
# number of rings (size 3 to 8) (size 9 to 14) (size 15 to 20)
#    0.000    0.667    1.667    4.500    7.000    6.000 
#    0.000    0.000    0.000    0.000    0.000    0.000 
#    0.000    0.000    0.000    0.000    0.000    0.000 
#
# Total GULP energy -148802.885811 kJ/mol
# GULP energy per Si atom -12400.240484 kJ/mol
# Density = 2.494137 g / cm^3
# Si number density = 24.998270 Si / 1000 Ang^3
#
#
#
# Elastic Constant Matrix: (Units=GPa)
#
#
# Indices 1 2 3 4 5 6 
#
# 1 112.5645 38.8145 29.2123 5.3967 10.5326 -1.0283
# 2 38.8145 92.0687 32.4999 36.8864 -8.5269 1.0552
# 3 29.2123 32.4999 133.1363 32.5517 -13.7983 1.0976
# 4 5.3967 36.8864 32.5517 47.1301 8.0795 -5.1379
# 5 10.5326 -8.5269 -13.7983 8.0795 32.9163 5.6011
# 6 -1.0283 1.0552 1.0976 -5.1379 5.6011 39.0640
#
#
#
# Elastic Compliance Matrix: (Units=1/GPa)
#
#
# Indices 1 2 3 4 5 6 
#
# 1 0.014839 -0.011202 -0.005363 0.013689 -0.014051 0.004659
# 2 -0.011202 0.026885 0.004809 -0.027456 0.020618 -0.007724
# 3 -0.005363 0.004809 0.012307 -0.014228 0.012337 -0.004257
# 4 0.013689 -0.027456 -0.014228 0.058360 -0.034177 0.014078
# 5 -0.014051 0.020618 0.012337 -0.034177 0.056129 -0.013816
# 6 0.004659 -0.007724 -0.004257 0.014078 -0.013816 0.029883
#
#
# Mechanical properties :
#
#
# Convention : Reuss Voigt Hill
#
# Bulk Modulus (GPa) = 32.76735 59.86922 46.31828
# Shear Modulus (GPa) = 21.54369 39.63827 30.59098
#
# Velocity S-wave (km/s) = 2.93884 3.98633 3.50197
# Velocity P-wave (km/s) = 4.96508 6.72228 5.90936
#
# Compressibility (1/GPa) = 0.03051819
#
# Stress axis : x y z
#
# Youngs Moduli (GPa) = 67.38936 37.19607 81.25741
#
# Poissons Ratio (x) = 0.41666 0.43578
# Poissons Ratio (y) = 0.75487 -0.39074
# Poissons Ratio (z) = 0.36141 -0.17886
#
# Static dielectric constant tensor:
#      x y z
#    x 8.693470 -2.145140 -3.332970 
#    y -2.145140 5.737520 2.172200 
#    z -3.332970 2.172200 7.648070 
# 
# 
# High freq. dielectric constant tensor:
#      x y z
#    x 2.010110 -0.000930 0.000290 
#    y -0.000930 1.987980 0.010140 
#    z 0.000290 0.010140 2.011630 
# 
# From -- ./inp_files/23460.got.cif
#   From: 2010.06.25/outbox.cif.g09.slc.cpg/sg2_12_cif.got.tgz:23460.got - 2010.06.27 13:26:56.
