data_PCOD8035774
_publ_section_title
;
Structure prediction by ZEFSAII (Michael W. Deem and Ramdas Pophale) SiO2 
 PCOD8035774
Probable space group: P -1
;
_chemical_formula_sum "Si O2"
_cell_formula_units_Z 16
_cell_length_a 8.998851
_cell_length_b 10.981898
_cell_length_c 15.596433
_cell_angle_alpha 53.322838
_cell_angle_beta 61.490420
_cell_angle_gamma 105.310498
_cell_volume 680.838910
_symmetry_space_group_name_H-M "P -1"
_symmetry_group_IT_number 2
_symmetry_cell_setting 'triclinic'
loop_
_space_group_symop_operation_xyz
x,y,z
-x,-y,-z
loop_
_atom_site_type_symbol
_atom_site_label
_atom_site_fract_x
_atom_site_fract_y
_atom_site_fract_z
Si Si1 0.189574 0.185412 0.490090
Si Si2 0.584115 0.724936 0.902504
Si Si3 0.334177 0.954889 0.490607
Si Si4 0.844885 0.245930 0.758663
Si Si5 0.800823 0.520156 0.747307
Si Si6 0.415008 0.532127 0.425231
Si Si7 0.253595 0.725375 0.894010
Si Si8 0.351014 0.994512 0.906894
O O1 0.304091 0.113591 0.447092
O O2 0.154137 0.279533 0.383984
O O3 0.405223 0.399902 0.408786
O O4 0.903728 0.968039 0.707636
O O5 0.401936 0.680264 0.902660
O O6 0.500000 0.500000 0.000000
O O7 0.490628 0.702684 0.034311
O O8 0.510989 0.029790 0.328478
O O9 0.500000 0.000000 0.500000
O O10 0.043228 0.669056 0.686687
O O11 0.827412 0.413846 0.711556
O O12 0.617671 0.075523 0.817675
O O13 0.124807 0.402714 0.573334
O O14 0.801972 0.114750 0.912302
O O15 0.500000 0.500000 0.500000
O O16 0.607392 0.804369 0.224590
O O17 0.179411 0.786008 0.968371
O O18 0.000000 0.500000 0.000000
#
# Coordination Sequence:
#
# PCOD8035774 Si02
#       8
#     2   2   2   2   2   2   2   2
#     4  12  27  47  70 107 147 190 246 303 360 444
#     4  12  24  44  72 107 141 184 240 300 367 422
#     4  12  27  45  72 106 149 192 238 300 370 435
#     4  11  25  46  79 106 137 195 251 302 360 435
#     4  12  23  46  77 103 140 189 246 302 363 437
#     4  12  29  45  71 105 149 198 237 305 368 433
#     4  12  26  44  72 109 143 185 238 301 360 432
#     4  11  25  49  75 105 141 187 255 299 359 439
#
# _framework density 23.500416000000001
#
# number of rings (size 3 to 8) (size 9 to 14) (size 15 to 20)
#    0.000    0.250    5.000    3.750    5.250    0.500 
#    0.000    0.000    0.000    0.000    0.000    0.000 
#    0.000    0.000    0.000    0.000    0.000    0.000 
#
# Total GULP energy -198314.308258 kJ/mol
# GULP energy per Si atom -12394.644266 kJ/mol
# Density = 2.344693 g / cm^3
# Si number density = 23.500416 Si / 1000 Ang^3
#
#
#
# Elastic Constant Matrix: (Units=GPa)
#
#
# Indices 1 2 3 4 5 6 
#
# 1 72.0716 23.4632 16.6399 -8.3975 19.7081 8.4027
# 2 23.4632 110.1849 8.9488 -8.7994 0.2922 23.7119
# 3 16.6399 8.9488 97.8058 -0.7341 17.1053 6.3167
# 4 -8.3975 -8.7994 -0.7341 37.7947 -3.9366 1.0018
# 5 19.7081 0.2922 17.1053 -3.9366 41.8835 0.3186
# 6 8.4027 23.7119 6.3167 1.0018 0.3186 33.9848
#
#
#
# Elastic Compliance Matrix: (Units=1/GPa)
#
#
# Indices 1 2 3 4 5 6 
#
# 1 0.017746 -0.003016 -0.001270 0.002483 -0.007562 -0.002049
# 2 -0.003016 0.011503 -0.000359 0.002378 0.001765 -0.007300
# 3 -0.001270 -0.000359 0.011271 -0.000529 -0.004042 -0.001477
# 4 0.002483 0.002378 -0.000529 0.027807 0.001668 -0.003010
# 5 -0.007562 0.001765 -0.004042 0.001668 0.029221 0.001067
# 6 -0.002049 -0.007300 -0.001477 -0.003010 0.001067 0.035379
#
#
# Mechanical properties :
#
#
# Convention : Reuss Voigt Hill
#
# Bulk Modulus (GPa) = 32.01886 42.01846 37.01866
# Shear Modulus (GPa) = 32.75933 38.13329 35.44631
#
# Velocity S-wave (km/s) = 3.73767 4.03260 3.88793
# Velocity P-wave (km/s) = 5.68166 6.29295 5.99510
#
# Compressibility (1/GPa) = 0.03123159
#
# Stress axis : x y z
#
# Youngs Moduli (GPa) = 56.34974 86.93056 88.71943
#
# Poissons Ratio (x) = 0.26223 0.11265
# Poissons Ratio (y) = 0.16998 0.03182
# Poissons Ratio (z) = 0.07155 0.03117
#
# Static dielectric constant tensor:
#      x y z
#    x 4.164000 -0.108210 0.240170 
#    y -0.108210 4.084260 -0.093910 
#    z 0.240170 -0.093910 4.400250 
# 
# 
# High freq. dielectric constant tensor:
#      x y z
#    x 1.921560 0.001500 0.016370 
#    y 0.001500 1.948110 -0.000990 
#    z 0.016370 -0.000990 1.940980 
# 
# From -- ./inp_files/272446.got.cif
#   From: 2010.06.25/outbox.cif.g09.slc.cpg/sg2_137_cif.got.tgz:272446.got - 2010.06.27 13:26:56.
