data_PCOD8035472
_publ_section_title
;
Structure prediction by ZEFSAII (Michael W. Deem and Ramdas Pophale) SiO2 
 PCOD8035472
Probable space group: P -1
;
_chemical_formula_sum "Si O2"
_cell_formula_units_Z 16
_cell_length_a 23.899885
_cell_length_b 9.443648
_cell_length_c 8.938725
_cell_angle_alpha 61.047345
_cell_angle_beta 51.546648
_cell_angle_gamma 27.393349
_cell_volume 713.832671
_symmetry_space_group_name_H-M "P -1"
_symmetry_group_IT_number 2
_symmetry_cell_setting 'triclinic'
loop_
_space_group_symop_operation_xyz
x,y,z
-x,-y,-z
loop_
_atom_site_type_symbol
_atom_site_label
_atom_site_fract_x
_atom_site_fract_y
_atom_site_fract_z
Si Si1 0.369838 0.881608 0.133352
Si Si2 0.863075 0.832270 0.487050
Si Si3 0.876147 0.172813 0.809406
Si Si4 0.156847 0.802770 0.488517
Si Si5 0.113291 0.171266 0.903038
Si Si6 0.366531 0.803897 0.850584
Si Si7 0.590165 0.832756 0.077953
Si Si8 0.593363 0.920891 0.492162
O O1 0.486838 0.568939 0.198689
O O2 0.241704 0.113826 0.340081
O O3 0.322464 0.886756 0.055787
O O4 0.412224 0.977601 0.959358
O O5 0.879147 0.821244 0.289841
O O6 0.000000 0.500000 0.500000
O O7 0.809535 0.101115 0.520239
O O8 0.826744 0.202758 0.714035
O O9 0.748368 0.483422 0.961308
O O10 0.996283 0.073014 0.649564
O O11 0.940266 0.904371 0.936991
O O12 0.261283 0.454523 0.533703
O O13 0.261876 0.905484 0.870392
O O14 0.000000 0.500000 0.000000
O O15 0.374820 0.965112 0.682505
O O16 0.507646 0.869776 0.303687
O O17 0.500000 0.000000 0.000000
O O18 0.500000 0.000000 0.500000
#
# Coordination Sequence:
#
# PCOD8035472 Si02
#       8
#     2   2   2   2   2   2   2   2
#     4  11  25  45  70 102 141 187 227 285 350 411
#     4  12  27  45  72 101 140 184 233 286 352 416
#     4  11  25  46  73 101 139 183 237 290 347 414
#     4  11  25  47  72  99 139 187 233 288 350 414
#     4  12  27  45  71 104 140 182 233 290 346 418
#     4  11  25  45  72 100 143 182 232 286 347 410
#     4  12  25  43  71 106 144 184 234 285 351 415
#     4  12  25  44  71 104 142 186 233 288 346 418
#
# _framework density 22.414216
#
# number of rings (size 3 to 8) (size 9 to 14) (size 15 to 20)
#    0.000    0.500    2.500    5.250    7.000    3.000 
#    0.000    0.000    0.000    0.000    0.000    0.000 
#    0.000    0.000    0.000    0.000    0.000    0.000 
#
# Total GULP energy -198313.103678 kJ/mol
# GULP energy per Si atom -12394.568980 kJ/mol
# Density = 2.236320 g / cm^3
# Si number density = 22.414216 Si / 1000 Ang^3
#
#
#
# Elastic Constant Matrix: (Units=GPa)
#
#
# Indices 1 2 3 4 5 6 
#
# 1 86.0199 14.6160 25.0048 -0.7039 16.4347 -13.0828
# 2 14.6160 139.3595 54.4579 2.8227 5.6427 -7.0093
# 3 25.0048 54.4579 125.4756 -1.7560 11.6285 -8.4436
# 4 -0.7039 2.8227 -1.7560 39.3236 2.7474 1.2712
# 5 16.4347 5.6427 11.6285 2.7474 37.4729 -8.4864
# 6 -13.0828 -7.0093 -8.4436 1.2712 -8.4864 36.9262
#
#
#
# Elastic Compliance Matrix: (Units=1/GPa)
#
#
# Indices 1 2 3 4 5 6 
#
# 1 0.013620 -0.000338 -0.001915 0.000400 -0.004622 0.003247
# 2 -0.000338 0.008699 -0.003688 -0.000835 0.000218 0.000767
# 3 -0.001915 -0.003688 0.010156 0.000785 -0.001694 0.000527
# 4 0.000400 -0.000835 0.000785 0.025747 -0.002474 -0.001292
# 5 -0.004622 0.000218 -0.001694 -0.002474 0.030547 0.005122
# 6 0.003247 0.000767 0.000527 -0.001292 0.005122 0.029719
#
#
# Mechanical properties :
#
#
# Convention : Reuss Voigt Hill
#
# Bulk Modulus (GPa) = 48.56301 59.89027 54.22664
# Shear Modulus (GPa) = 36.43405 39.86294 38.14850
#
# Velocity S-wave (km/s) = 4.03611 4.22176 4.12998
# Velocity P-wave (km/s) = 6.59040 7.10930 6.85476
#
# Compressibility (1/GPa) = 0.02059180
#
# Stress axis : x y z
#
# Youngs Moduli (GPa) = 73.42410 114.95385 98.46741
#
# Poissons Ratio (x) = 0.03882 0.18857
# Poissons Ratio (y) = 0.02479 0.36320
# Poissons Ratio (z) = 0.14061 0.42401
#
# Static dielectric constant tensor:
#      x y z
#    x 3.999700 -0.135190 0.376940 
#    y -0.135190 3.923510 0.095340 
#    z 0.376940 0.095340 3.471370 
# 
# 
# High freq. dielectric constant tensor:
#      x y z
#    x 1.886150 -0.007530 -0.001240 
#    y -0.007530 1.893960 -0.002370 
#    z -0.001240 -0.002370 1.904020 
# 
# From -- ./inp_files/352113.got.cif
#   From: 2010.06.25/outbox.cif.g09.slc.cpg/sg2_177_cif.got.tgz:352113.got - 2010.06.27 13:26:56.
