data_PCOD8035695
_publ_section_title
;
Structure prediction by ZEFSAII (Michael W. Deem and Ramdas Pophale) SiO2 
 PCOD8035695
Probable space group: P -1
;
_chemical_formula_sum "Si O2"
_cell_formula_units_Z 16
_cell_length_a 20.491660
_cell_length_b 17.507950
_cell_length_c 11.406055
_cell_angle_alpha 34.772532
_cell_angle_beta 40.505272
_cell_angle_gamma 19.510803
_cell_volume 777.377215
_symmetry_space_group_name_H-M "P -1"
_symmetry_group_IT_number 2
_symmetry_cell_setting 'triclinic'
loop_
_space_group_symop_operation_xyz
x,y,z
-x,-y,-z
loop_
_atom_site_type_symbol
_atom_site_label
_atom_site_fract_x
_atom_site_fract_y
_atom_site_fract_z
Si Si1 0.893881 0.375437 0.554219
Si Si2 0.307101 0.535970 0.896272
Si Si3 0.511004 0.567642 0.639580
Si Si4 0.727351 0.066936 0.280391
Si Si5 0.540656 0.799244 0.677293
Si Si6 0.204806 0.331290 0.899742
Si Si7 0.436028 0.261266 0.829918
Si Si8 0.111161 0.918500 0.143320
O O1 0.736271 0.551846 0.649409
O O2 0.816011 0.554062 0.330360
O O3 0.943127 0.171154 0.699750
O O4 0.097176 0.202162 0.545779
O O5 0.372668 0.615036 0.711724
O O6 0.332419 0.455992 0.831340
O O7 0.437580 0.298183 0.105133
O O8 0.079002 0.785601 0.924787
O O9 0.504327 0.704834 0.395392
O O10 0.730302 0.259417 0.743816
O O11 0.444187 0.686274 0.711437
O O12 0.645400 0.049913 0.325238
O O13 0.808433 0.102718 0.056081
O O14 0.500000 0.000000 0.500000
O O15 0.281220 0.330304 0.906307
O O16 0.000000 0.500000 0.000000
O O17 0.364480 0.035767 0.023554
#
# Coordination Sequence:
#
# PCOD8035695 Si02
#       8
#     2   2   2   2   2   2   2   2
#     4  12  23  43  71 100 131 174 229 278 333 401
#     4  12  26  43  67 103 142 172 219 279 339 400
#     4  12  23  42  73  99 132 180 223 277 342 387
#     4  12  23  42  72 100 134 173 225 278 333 399
#     4  12  26  44  66  98 139 180 220 276 335 397
#     4  11  25  46  72  97 131 184 234 270 328 397
#     4  11  26  47  67 100 139 178 226 277 328 402
#     4  12  23  41  70 104 132 171 222 277 339 398
#
# _framework density 20.582028000000001
#
# number of rings (size 3 to 8) (size 9 to 14) (size 15 to 20)
#    0.000    0.250    6.250    3.375    0.000    5.000 
#    2.250    0.000    0.000    0.000    0.000    0.000 
#    0.000    0.000    0.000    0.000    0.000    0.000 
#
# Total GULP energy -198530.834361 kJ/mol
# GULP energy per Si atom -12408.177148 kJ/mol
# Density = 2.053518 g / cm^3
# Si number density = 20.582028 Si / 1000 Ang^3
#
#
#
# Elastic Constant Matrix: (Units=GPa)
#
#
# Indices 1 2 3 4 5 6 
#
# 1 91.7739 52.1009 50.5633 0.7894 4.9588 -9.0272
# 2 52.1009 106.3779 50.5372 -0.2328 2.5545 -7.5021
# 3 50.5633 50.5372 116.3929 -4.2391 -3.0347 2.6340
# 4 0.7894 -0.2328 -4.2391 34.5702 -7.3491 6.4729
# 5 4.9588 2.5545 -3.0347 -7.3491 29.2607 -3.5455
# 6 -9.0272 -7.5021 2.6340 6.4729 -3.5455 37.2039
#
#
#
# Elastic Compliance Matrix: (Units=1/GPa)
#
#
# Indices 1 2 3 4 5 6 
#
# 1 0.017730 -0.005760 -0.005459 -0.002488 -0.003251 0.003650
# 2 -0.005760 0.014122 -0.003710 -0.000688 -0.000599 0.001775
# 3 -0.005459 -0.003710 0.012828 0.002893 0.002918 -0.003206
# 4 -0.002488 -0.000688 0.002893 0.032147 0.008157 -0.005763
# 5 -0.003251 -0.000599 0.002918 0.008157 0.037253 0.001015
# 6 0.003650 0.001775 -0.003206 -0.005763 0.001015 0.029449
#
#
# Mechanical properties :
#
#
# Convention : Reuss Voigt Hill
#
# Bulk Modulus (GPa) = 67.47091 68.99417 68.23254
# Shear Modulus (GPa) = 28.03788 30.96319 29.50053
#
# Velocity S-wave (km/s) = 3.69487 3.88284 3.79002
# Velocity P-wave (km/s) = 7.14531 7.32777 7.23712
#
# Compressibility (1/GPa) = 0.01482120
#
# Stress axis : x y z
#
# Youngs Moduli (GPa) = 56.40036 70.80926 77.95292
#
# Poissons Ratio (x) = 0.40788 0.42557
# Poissons Ratio (y) = 0.32488 0.28924
# Poissons Ratio (z) = 0.30791 0.26273
#
# Static dielectric constant tensor:
#      x y z
#    x 3.856520 -0.119860 -0.011600 
#    y -0.119860 3.875110 -0.139640 
#    z -0.011600 -0.139640 4.000850 
# 
# 
# High freq. dielectric constant tensor:
#      x y z
#    x 1.807480 -0.012550 0.007290 
#    y -0.012550 1.812900 -0.001410 
#    z 0.007290 -0.001410 1.817100 
# 
# From -- ./inp_files/338220.got.cif
#   From: 2010.06.25/outbox.cif.g09.slc.cpg/sg2_170_cif.got.tgz:338220.got - 2010.06.27 13:26:56.
