data_PCOD8035685
_publ_section_title
;
Structure prediction by ZEFSAII (Michael W. Deem and Ramdas Pophale) SiO2 
 PCOD8035685
Probable space group: P -1
;
_chemical_formula_sum "Si O2"
_cell_formula_units_Z 16
_cell_length_a 21.385445
_cell_length_b 9.546872
_cell_length_c 10.936279
_cell_angle_alpha 131.199338
_cell_angle_beta 41.850145
_cell_angle_gamma 151.687173
_cell_volume 706.507001
_symmetry_space_group_name_H-M "P -1"
_symmetry_group_IT_number 2
_symmetry_cell_setting 'triclinic'
loop_
_space_group_symop_operation_xyz
x,y,z
-x,-y,-z
loop_
_atom_site_type_symbol
_atom_site_label
_atom_site_fract_x
_atom_site_fract_y
_atom_site_fract_z
Si Si1 0.818949 0.425560 0.768358
Si Si2 0.685254 0.303379 0.131460
Si Si3 0.842295 0.709847 0.504791
Si Si4 0.864797 0.073771 0.503220
Si Si5 0.574975 0.643802 0.111945
Si Si6 0.625090 0.330679 0.820381
Si Si7 0.587996 0.538140 0.500957
Si Si8 0.158843 0.648745 0.863469
O O1 0.848041 0.260952 0.681299
O O2 0.691749 0.254719 0.751821
O O3 0.970632 0.732002 0.663836
O O4 0.766308 0.475671 0.984795
O O5 0.600925 0.340419 0.341937
O O6 0.820346 0.428738 0.085175
O O7 0.552353 0.953280 0.101050
O O8 0.703952 0.479470 0.662694
O O9 0.842174 0.506878 0.329252
O O10 0.805122 0.829898 0.545141
O O11 0.000000 0.000000 0.500000
O O12 0.752116 0.881560 0.443563
O O13 0.465793 0.516909 0.312274
O O14 0.703886 0.996648 0.137200
O O15 0.500000 0.500000 0.000000
O O16 0.651256 0.563986 0.989369
O O17 0.500000 0.500000 0.500000
O O18 0.000000 0.500000 0.000000
#
# Coordination Sequence:
#
# PCOD8035685 Si02
#       8
#     2   2   2   2   2   2   2   2
#     4  11  26  45  72 105 147 193 249 299 381 453
#     4  12  26  45  72 106 151 193 244 312 369 454
#     4  12  25  48  79 108 148 192 255 313 383 444
#     4  11  25  46  72 107 143 199 244 311 375 454
#     4  12  26  47  78 110 151 199 250 317 379 444
#     4  12  24  45  78 108 144 193 248 304 379 449
#     4  12  26  46  72 107 151 194 251 310 380 451
#     4  12  29  46  72 112 146 197 249 308 372 450
#
# _framework density 22.646628
#
# number of rings (size 3 to 8) (size 9 to 14) (size 15 to 20)
#    0.000    0.250    3.750    4.875    3.500    2.500 
#    0.000    0.000    0.000    0.000    0.000    0.000 
#    0.000    0.000    0.000    0.000    0.000    0.000 
#
# Total GULP energy -198212.929518 kJ/mol
# GULP energy per Si atom -12388.308095 kJ/mol
# Density = 2.259508 g / cm^3
# Si number density = 22.646628 Si / 1000 Ang^3
#
#
#
# Elastic Constant Matrix: (Units=GPa)
#
#
# Indices 1 2 3 4 5 6 
#
# 1 138.7134 46.1875 76.4344 -7.4079 -14.7508 12.0847
# 2 46.1875 83.1993 48.5704 15.6997 0.7854 16.9093
# 3 76.4344 48.5704 162.5718 1.7775 8.7024 -10.9891
# 4 -7.4079 15.6997 1.7775 38.5302 0.3477 -6.6058
# 5 -14.7508 0.7854 8.7024 0.3477 38.2406 0.4941
# 6 12.0847 16.9093 -10.9891 -6.6058 0.4941 42.9673
#
#
#
# Elastic Compliance Matrix: (Units=1/GPa)
#
#
# Indices 1 2 3 4 5 6 
#
# 1 0.012558 -0.004156 -0.005215 0.003828 0.006116 -0.002712
# 2 -0.004156 0.021390 -0.004970 -0.011029 -0.000679 -0.010208
# 3 -0.005215 -0.004970 0.010746 0.001678 -0.004454 0.006480
# 4 0.003828 -0.011029 0.001678 0.032588 0.000913 0.008693
# 5 0.006116 -0.000679 -0.004454 0.000913 0.029565 -0.002792
# 6 -0.002712 -0.010208 0.006480 0.008693 -0.002792 0.031079
#
#
# Mechanical properties :
#
#
# Convention : Reuss Voigt Hill
#
# Bulk Modulus (GPa) = 62.45168 80.76323 71.60746
# Shear Modulus (GPa) = 29.07922 38.16708 33.62315
#
# Velocity S-wave (km/s) = 3.58724 4.10973 3.85734
# Velocity P-wave (km/s) = 6.69285 7.63280 7.17823
#
# Compressibility (1/GPa) = 0.01601238
#
# Stress axis : x y z
#
# Youngs Moduli (GPa) = 79.63331 46.75122 93.05880
#
# Poissons Ratio (x) = 0.19428 0.48531
# Poissons Ratio (y) = 0.33093 0.46248
# Poissons Ratio (z) = 0.41529 0.23234
#
# Static dielectric constant tensor:
#      x y z
#    x 5.843760 -0.402000 -0.298680 
#    y -0.402000 4.398350 0.151160 
#    z -0.298680 0.151160 4.358840 
# 
# 
# High freq. dielectric constant tensor:
#      x y z
#    x 1.906350 0.003540 -0.014270 
#    y 0.003540 1.900130 0.000130 
#    z -0.014270 0.000130 1.905600 
# 
# From -- ./inp_files/470130.got.cif
#   From: 2010.06.25/outbox.cif.g09.slc.cpg/sg2_236_cif.got.tgz:470130.got - 2010.06.27 13:26:56.
