data_PCOD8035570
_publ_section_title
;
Structure prediction by ZEFSAII (Michael W. Deem and Ramdas Pophale) SiO2 
 PCOD8035570
Probable space group: P -1
;
_chemical_formula_sum "Si O2"
_cell_formula_units_Z 16
_cell_length_a 22.614150
_cell_length_b 9.441010
_cell_length_c 19.823396
_cell_angle_alpha 34.111046
_cell_angle_beta 161.725981
_cell_angle_gamma 146.442693
_cell_volume 716.993071
_symmetry_space_group_name_H-M "P -1"
_symmetry_group_IT_number 2
_symmetry_cell_setting 'triclinic'
loop_
_space_group_symop_operation_xyz
x,y,z
-x,-y,-z
loop_
_atom_site_type_symbol
_atom_site_label
_atom_site_fract_x
_atom_site_fract_y
_atom_site_fract_z
Si Si1 0.306121 0.623715 0.057326
Si Si2 0.606633 0.583217 0.514023
Si Si3 0.522200 0.434063 0.249770
Si Si4 0.190883 0.559574 0.638033
Si Si5 0.421079 0.221374 0.957250
Si Si6 0.746830 0.101533 0.813529
Si Si7 0.868264 0.281639 0.728549
Si Si8 0.886436 0.062302 0.693834
O O1 0.450892 0.586209 0.286822
O O2 0.366884 0.525263 0.091149
O O3 0.089246 0.457328 0.907102
O O4 0.316560 0.927527 0.937100
O O5 0.500000 0.500000 0.500000
O O6 0.736500 0.387897 0.711732
O O7 0.740211 0.869133 0.561377
O O8 0.531705 0.573367 0.133809
O O9 0.738262 0.488797 0.494830
O O10 0.452538 0.115221 0.296887
O O11 0.267437 0.302643 0.808967
O O12 0.119207 0.655076 0.452169
O O13 0.000000 0.500000 0.500000
O O14 0.373600 0.771730 0.786814
O O15 0.795410 0.104116 0.785408
O O16 0.911599 0.012314 0.068833
O O17 0.839939 0.070876 0.719697
#
# Coordination Sequence:
#
# PCOD8035570 Si02
#       8
#     2   2   2   2   2   2   2   2
#     4  12  27  48  73 110 148 195 246 306 365 440
#     4  12  27  44  71 109 151 188 241 307 364 438
#     4  12  25  46  76 104 148 195 246 302 370 431
#     4  11  25  45  75 104 145 194 243 301 372 433
#     4  11  26  48  73 107 147 193 247 307 360 439
#     4  12  26  46  77 110 148 196 247 302 371 444
#     4  12  26  46  77 109 146 198 246 298 373 440
#     4  12  24  47  72 109 145 191 243 297 374 435
#
# _framework density 22.315418999999999
#
# number of rings (size 3 to 8) (size 9 to 14) (size 15 to 20)
#    0.000    0.250    5.000    3.750    1.750    3.500 
#    0.000    0.000    0.000    0.000    0.000    0.000 
#    0.000    0.000    0.000    0.000    0.000    0.000 
#
# Total GULP energy -198395.244981 kJ/mol
# GULP energy per Si atom -12399.702811 kJ/mol
# Density = 2.226463 g / cm^3
# Si number density = 22.315419 Si / 1000 Ang^3
#
#
#
# Elastic Constant Matrix: (Units=GPa)
#
#
# Indices 1 2 3 4 5 6 
#
# 1 100.8164 30.2613 38.2838 -2.5178 1.5044 6.6294
# 2 30.2613 103.5832 30.2919 -5.1806 2.4576 -3.3648
# 3 38.2838 30.2919 143.2827 -0.9563 4.3298 9.8088
# 4 -2.5178 -5.1806 -0.9563 30.4615 0.7852 -3.8206
# 5 1.5044 2.4576 4.3298 0.7852 40.8658 -2.4533
# 6 6.6294 -3.3648 9.8088 -3.8206 -2.4533 25.4834
#
#
#
# Elastic Compliance Matrix: (Units=1/GPa)
#
#
# Indices 1 2 3 4 5 6 
#
# 1 0.011849 -0.002837 -0.002387 0.000108 -0.000167 -0.002538
# 2 -0.002837 0.011224 -0.001814 0.002025 -0.000225 0.003200
# 3 -0.002387 -0.001814 0.008224 -0.000596 -0.000840 -0.002954
# 4 0.000108 0.002025 -0.000596 0.033864 -0.000382 0.005509
# 5 -0.000167 -0.000225 -0.000840 -0.000382 0.024746 0.002662
# 6 -0.002538 0.003200 -0.002954 0.005509 0.002662 0.042544
#
#
# Mechanical properties :
#
#
# Convention : Reuss Voigt Hill
#
# Bulk Modulus (GPa) = 58.06328 60.59513 59.32921
# Shear Modulus (GPa) = 32.83748 35.95182 34.39465
#
# Velocity S-wave (km/s) = 3.84019 4.01817 3.93019
# Velocity P-wave (km/s) = 6.76303 6.98144 6.87311
#
# Compressibility (1/GPa) = 0.01722259
#
# Stress axis : x y z
#
# Youngs Moduli (GPa) = 84.39596 89.09686 121.59547
#
# Poissons Ratio (x) = 0.25274 0.29021
# Poissons Ratio (y) = 0.23941 0.22053
# Poissons Ratio (z) = 0.20142 0.16159
#
# Static dielectric constant tensor:
#      x y z
#    x 4.029400 0.005160 0.087820 
#    y 0.005160 3.667120 -0.090680 
#    z 0.087820 -0.090680 4.316340 
# 
# 
# High freq. dielectric constant tensor:
#      x y z
#    x 1.885130 -0.000890 0.001910 
#    y -0.000890 1.869500 -0.006110 
#    z 0.001910 -0.006110 1.905240 
# 
# From -- ./inp_files/382650.got.cif
#   From: 2010.06.25/outbox.cif.g09.slc.cpg/sg2_192_cif.got.tgz:382650.got - 2010.06.27 13:26:56.
