data_PCOD8035764
_publ_section_title
;
Structure prediction by ZEFSAII (Michael W. Deem and Ramdas Pophale) SiO2 
 PCOD8035764
Probable space group: P -1
;
_chemical_formula_sum "Si O2"
_cell_formula_units_Z 16
_cell_length_a 27.029481
_cell_length_b 15.895692
_cell_length_c 5.310617
_cell_angle_alpha 123.408249
_cell_angle_beta 122.685619
_cell_angle_gamma 20.612709
_cell_volume 668.182648
_symmetry_space_group_name_H-M "P -1"
_symmetry_group_IT_number 2
_symmetry_cell_setting 'triclinic'
loop_
_space_group_symop_operation_xyz
x,y,z
-x,-y,-z
loop_
_atom_site_type_symbol
_atom_site_label
_atom_site_fract_x
_atom_site_fract_y
_atom_site_fract_z
Si Si1 0.950476 0.189771 0.650348
Si Si2 0.239797 0.152118 0.520181
Si Si3 0.411311 0.070831 0.688439
Si Si4 0.922745 0.918674 0.678902
Si Si5 0.671712 0.624948 0.354357
Si Si6 0.946644 0.652065 0.318973
Si Si7 0.475406 0.657718 0.166057
Si Si8 0.632211 0.476085 0.797929
O O1 0.780590 0.458695 0.613380
O O2 0.002633 0.139518 0.435718
O O3 0.000000 0.000000 0.500000
O O4 0.005847 0.171142 0.001361
O O5 0.334456 0.105043 0.698113
O O6 0.210099 0.142785 0.689033
O O7 0.079734 0.438903 0.518762
O O8 0.311726 0.952044 0.214360
O O9 0.303989 0.311266 0.639042
O O10 0.513953 0.860865 0.418646
O O11 0.500000 0.000000 0.000000
O O12 0.928593 0.793814 0.416271
O O13 0.759277 0.200375 0.703759
O O14 0.694318 0.492200 0.021172
O O15 0.000000 0.500000 0.000000
O O16 0.552402 0.593427 0.505390
O O17 0.500000 0.500000 0.000000
O O18 0.531625 0.606245 0.968316
#
# Coordination Sequence:
#
# PCOD8035764 Si02
#       8
#     2   2   2   2   2   2   2   2
#     4  12  27  47  77 113 155 205 257 321 394 468
#     4  11  26  49  74 111 149 199 259 318 388 456
#     4  11  25  46  77 108 157 199 260 317 391 468
#     4  12  28  49  78 111 158 207 262 323 390 468
#     4  11  26  43  73 113 150 204 254 319 395 459
#     4  11  29  48  78 107 153 207 262 323 384 470
#     4  12  27  46  78 108 147 196 255 320 380 461
#     4  12  26  47  75 110 150 196 252 316 388 461
#
# _framework density 23.945547999999999
#
# number of rings (size 3 to 8) (size 9 to 14) (size 15 to 20)
#    0.000    0.500    2.500    3.750   10.500    2.000 
#    0.000    0.000    0.000    0.000    0.000    0.000 
#    0.000    0.000    0.000    0.000    0.000    0.000 
#
# Total GULP energy -198293.765765 kJ/mol
# GULP energy per Si atom -12393.360360 kJ/mol
# Density = 2.389105 g / cm^3
# Si number density = 23.945548 Si / 1000 Ang^3
#
#
#
# Elastic Constant Matrix: (Units=GPa)
#
#
# Indices 1 2 3 4 5 6 
#
# 1 137.6119 53.7172 35.0153 14.4065 19.0398 -6.4718
# 2 53.7172 116.2632 18.7966 22.2421 6.9979 9.9775
# 3 35.0153 18.7966 104.4957 9.9277 0.9521 2.4717
# 4 14.4065 22.2421 9.9277 46.6667 10.9629 1.4752
# 5 19.0398 6.9979 0.9521 10.9629 45.1152 7.8888
# 6 -6.4718 9.9775 2.4717 1.4752 7.8888 42.3142
#
#
#
# Elastic Compliance Matrix: (Units=1/GPa)
#
#
# Indices 1 2 3 4 5 6 
#
# 1 0.010474 -0.004519 -0.002784 0.000432 -0.004401 0.003636
# 2 -0.004519 0.011771 -0.000106 -0.004504 0.001815 -0.003642
# 3 -0.002784 -0.000106 0.010699 -0.001702 0.001600 -0.001265
# 4 0.000432 -0.004504 -0.001702 0.025122 -0.005803 0.001433
# 5 -0.004401 0.001815 0.001600 -0.005803 0.026143 -0.005866
# 6 0.003636 -0.003642 -0.001265 0.001433 -0.005866 0.026165
#
#
# Mechanical properties :
#
#
# Convention : Reuss Voigt Hill
#
# Bulk Modulus (GPa) = 55.16599 63.71435 59.44017
# Shear Modulus (GPa) = 38.10027 43.54198 40.82112
#
# Velocity S-wave (km/s) = 3.99321 4.26887 4.13334
# Velocity P-wave (km/s) = 6.65951 7.13887 6.90335
#
# Compressibility (1/GPa) = 0.01812711
#
# Stress axis : x y z
#
# Youngs Moduli (GPa) = 95.47647 84.95433 93.47002
#
# Poissons Ratio (x) = 0.38389 0.26019
# Poissons Ratio (y) = 0.43144 0.00988
# Poissons Ratio (z) = 0.26578 0.00898
#
# Static dielectric constant tensor:
#      x y z
#    x 4.574180 0.150390 0.000960 
#    y 0.150390 4.589940 0.208550 
#    z 0.000960 0.208550 4.203570 
# 
# 
# High freq. dielectric constant tensor:
#      x y z
#    x 1.964610 0.009050 -0.000240 
#    y 0.009050 1.970720 0.014730 
#    z -0.000240 0.014730 1.945350 
# 
# From -- ./inp_files/128765.got.cif
#   From: 2010.06.25/outbox.cif.g09.slc.cpg/sg2_65_cif.got.tgz:128765.got - 2010.06.27 13:26:56.
