data_PCOD8035505
_publ_section_title
;
Structure prediction by ZEFSAII (Michael W. Deem and Ramdas Pophale) SiO2 
 PCOD8035505
Probable space group: P -1
;
_chemical_formula_sum "Si O2"
_cell_formula_units_Z 14
_cell_length_a 6.256958
_cell_length_b 13.944789
_cell_length_c 13.336994
_cell_angle_alpha 43.969928
_cell_angle_beta 108.775601
_cell_angle_gamma 130.113618
_cell_volume 595.414929
_symmetry_space_group_name_H-M "P -1"
_symmetry_group_IT_number 2
_symmetry_cell_setting 'triclinic'
loop_
_space_group_symop_operation_xyz
x,y,z
-x,-y,-z
loop_
_atom_site_type_symbol
_atom_site_label
_atom_site_fract_x
_atom_site_fract_y
_atom_site_fract_z
Si Si1 0.250493 0.183448 0.952352
Si Si2 0.768130 0.594597 0.044898
Si Si3 0.526434 0.370486 0.660930
Si Si4 0.169911 0.596375 0.630329
Si Si5 0.316133 0.156934 0.608741
Si Si6 0.277431 0.949568 0.419477
Si Si7 0.358802 0.853849 0.846449
O O1 0.183592 0.253442 0.987730
O O2 0.396164 0.341002 0.774355
O O3 0.481001 0.151439 0.031549
O O4 0.000000 0.000000 0.000000
O O5 0.758377 0.451382 0.217333
O O6 0.500000 0.500000 0.000000
O O7 0.026079 0.683031 0.935704
O O8 0.500000 0.500000 0.500000
O O9 0.318113 0.186427 0.706068
O O10 0.851567 0.430352 0.667578
O O11 0.429134 0.656522 0.547560
O O12 0.148032 0.753502 0.513271
O O13 0.005551 0.071203 0.575558
O O14 0.390772 0.027938 0.706164
O O15 0.500000 0.000000 0.500000
O O16 0.458243 0.120774 0.243181
#
# Coordination Sequence:
#
# PCOD8035505 Si02
#       7
#     2   2   2   2   2   2   2
#     4  12  28  47  72 106 148 190 241 294 359 433
#     4  12  29  47  73 107 148 189 239 299 366 427
#     4  12  23  45  72 104 145 184 241 304 358 422
#     4  11  26  44  71 108 137 193 235 303 362 425
#     4  11  25  45  72 102 143 188 242 295 362 430
#     4  11  26  45  73 100 142 189 245 293 356 437
#     4  11  26  47  70 103 142 193 238 294 360 435
#
# _framework density 23.513013999999998
#
# number of rings (size 3 to 8) (size 9 to 14) (size 15 to 20)
#    0.000    0.571    2.857    3.857   10.000    2.857 
#    0.000    0.000    0.000    0.000    0.000    0.000 
#    0.000    0.000    0.000    0.000    0.000    0.000 
#
# Total GULP energy -173436.685328 kJ/mol
# GULP energy per Si atom -12388.334666 kJ/mol
# Density = 2.345950 g / cm^3
# Si number density = 23.513014 Si / 1000 Ang^3
#
#
#
# Elastic Constant Matrix: (Units=GPa)
#
#
# Indices 1 2 3 4 5 6 
#
# 1 105.4421 37.2202 45.2475 1.9052 -10.3461 32.7284
# 2 37.2202 114.7017 27.1730 12.9517 -4.8836 31.4592
# 3 45.2475 27.1730 150.7774 17.4782 -10.3046 22.3121
# 4 1.9052 12.9517 17.4782 31.0521 7.9050 5.9339
# 5 -10.3461 -4.8836 -10.3046 7.9050 43.4081 1.2095
# 6 32.7284 31.4592 22.3121 5.9339 1.2095 45.4901
#
#
#
# Elastic Compliance Matrix: (Units=1/GPa)
#
#
# Indices 1 2 3 4 5 6 
#
# 1 0.013935 -0.001927 -0.002831 0.002451 0.002200 -0.007683
# 2 -0.001927 0.011547 -0.000021 -0.003956 0.001726 -0.006119
# 3 -0.002831 -0.000021 0.008424 -0.004843 0.002246 -0.001508
# 4 0.002451 -0.003956 -0.004843 0.038759 -0.008027 -0.001494
# 5 0.002200 0.001726 0.002246 -0.008027 0.025849 -0.003519
# 6 -0.007683 -0.006119 -0.001508 -0.001494 -0.003519 0.032770
#
#
# Mechanical properties :
#
#
# Convention : Reuss Voigt Hill
#
# Bulk Modulus (GPa) = 41.07161 65.57807 53.32484
# Shear Modulus (GPa) = 33.56652 41.40875 37.48764
#
# Velocity S-wave (km/s) = 3.78242 4.20110 3.99725
# Velocity P-wave (km/s) = 6.04823 7.17516 6.63567
#
# Compressibility (1/GPa) = 0.02434772
#
# Stress axis : x y z
#
# Youngs Moduli (GPa) = 71.75942 86.60368 118.71078
#
# Poissons Ratio (x) = 0.16689 0.33612
# Poissons Ratio (y) = 0.13829 0.00245
# Poissons Ratio (z) = 0.20318 0.00179
#
# Static dielectric constant tensor:
#      x y z
#    x 4.383140 0.233060 -0.615240 
#    y 0.233060 5.572760 -0.802310 
#    z -0.615240 -0.802310 6.382140 
# 
# 
# High freq. dielectric constant tensor:
#      x y z
#    x 1.938160 0.020840 -0.000680 
#    y 0.020840 1.919660 0.005600 
#    z -0.000680 0.005600 1.954270 
# 
# From -- ./inp_files/46183.got.cif
#   From: 2010.06.25/outbox.cif.g09.slc.cpg/sg2_24_cif.got.tgz:46183.got - 2010.06.27 13:26:56.
