data_PCOD8035395
_publ_section_title
;
Structure prediction by ZEFSAII (Michael W. Deem and Ramdas Pophale) SiO2 
 PCOD8035395
Probable space group: P -1
;
_chemical_formula_sum "Si O2"
_cell_formula_units_Z 16
_cell_length_a 8.586944
_cell_length_b 9.225175
_cell_length_c 15.459701
_cell_angle_alpha 39.394048
_cell_angle_beta 110.868716
_cell_angle_gamma 113.336501
_cell_volume 711.004600
_symmetry_space_group_name_H-M "P -1"
_symmetry_group_IT_number 2
_symmetry_cell_setting 'triclinic'
loop_
_space_group_symop_operation_xyz
x,y,z
-x,-y,-z
loop_
_atom_site_type_symbol
_atom_site_label
_atom_site_fract_x
_atom_site_fract_y
_atom_site_fract_z
Si Si1 0.732113 0.017285 0.828779
Si Si2 0.122349 0.105692 0.552953
Si Si3 0.376212 0.614263 0.654164
Si Si4 0.853952 0.152382 0.161021
Si Si5 0.519768 0.854514 0.153733
Si Si6 0.487998 0.000538 0.630962
Si Si7 0.090417 0.379492 0.949442
Si Si8 0.007537 0.557148 0.290902
O O1 0.651770 0.153095 0.823888
O O2 0.605623 0.963805 0.749500
O O3 0.912121 0.193156 0.765698
O O4 0.769172 0.769078 0.982056
O O5 0.312226 0.067287 0.593661
O O6 0.122717 0.379133 0.429049
O O7 0.052125 0.983242 0.686642
O O8 0.000000 0.000000 0.500000
O O9 0.474109 0.407936 0.749681
O O10 0.401749 0.793902 0.497787
O O11 0.178415 0.512426 0.673816
O O12 0.452908 0.751676 0.691322
O O13 0.817113 0.384033 0.094003
O O14 0.678840 0.979956 0.183656
O O15 0.963098 0.221021 0.064785
O O16 0.500000 0.000000 0.000000
O O17 0.995636 0.436265 0.817786
#
# Coordination Sequence:
#
# PCOD8035395 Si02
#       8
#     2   2   2   2   2   2   2   2
#     4  12  27  44  76 102 149 182 246 296 359 424
#     4  12  23  46  76 104 143 188 244 293 359 425
#     4  11  26  46  71 102 151 178 247 283 369 422
#     4  11  25  44  72 107 141 187 245 291 359 430
#     4  12  26  45  70 104 146 190 234 303 356 424
#     4  11  26  47  70 111 138 195 232 303 354 431
#     4  11  25  46  71 106 144 188 242 293 362 431
#     4  12  25  46  75 105 142 196 233 302 356 427
#
# _framework density 22.503371999999999
#
# number of rings (size 3 to 8) (size 9 to 14) (size 15 to 20)
#    0.000    0.500    3.750    3.375    5.250    2.000 
#    0.000    0.000    0.000    0.000    0.000    0.000 
#    0.000    0.000    0.000    0.000    0.000    0.000 
#
# Total GULP energy -198440.401963 kJ/mol
# GULP energy per Si atom -12402.525123 kJ/mol
# Density = 2.245215 g / cm^3
# Si number density = 22.503372 Si / 1000 Ang^3
#
#
#
# Elastic Constant Matrix: (Units=GPa)
#
#
# Indices 1 2 3 4 5 6 
#
# 1 98.7060 47.2807 57.8039 -6.0949 -1.8658 -6.1179
# 2 47.2807 92.4901 48.4898 -27.2087 22.8636 -2.9364
# 3 57.8039 48.4898 121.7392 -7.7904 18.0548 -4.3974
# 4 -6.0949 -27.2087 -7.7904 40.0424 -10.6058 8.2692
# 5 -1.8658 22.8636 18.0548 -10.6058 33.6856 -7.3746
# 6 -6.1179 -2.9364 -4.3974 8.2692 -7.3746 41.2193
#
#
#
# Elastic Compliance Matrix: (Units=1/GPa)
#
#
# Indices 1 2 3 4 5 6 
#
# 1 0.019088 -0.009606 -0.006947 -0.002807 0.011291 0.003991
# 2 -0.009606 0.023241 -0.002276 0.011529 -0.012454 -0.004554
# 3 -0.006947 -0.002276 0.013272 -0.001642 -0.006608 -0.000630
# 4 -0.002807 0.011529 -0.001642 0.033927 0.002229 -0.006178
# 5 0.011291 -0.012454 -0.006608 0.002229 0.044679 0.007630
# 6 0.003991 -0.004554 -0.000630 -0.006178 0.007630 0.027066
#
#
# Mechanical properties :
#
#
# Convention : Reuss Voigt Hill
#
# Bulk Modulus (GPa) = 55.73090 68.89822 62.31456
# Shear Modulus (GPa) = 24.40077 33.61351 29.00714
#
# Velocity S-wave (km/s) = 3.29647 3.86905 3.59418
# Velocity P-wave (km/s) = 6.26963 7.11637 6.70638
#
# Compressibility (1/GPa) = 0.01794337
#
# Stress axis : x y z
#
# Youngs Moduli (GPa) = 52.38855 43.02687 75.34785
#
# Poissons Ratio (x) = 0.41330 0.52347
# Poissons Ratio (y) = 0.50322 0.17149
# Poissons Ratio (z) = 0.36396 0.09793
#
# Static dielectric constant tensor:
#      x y z
#    x 3.962680 -0.174130 -0.080190 
#    y -0.174130 4.055830 -0.088680 
#    z -0.080190 -0.088680 4.386710 
# 
# 
# High freq. dielectric constant tensor:
#      x y z
#    x 1.886090 -0.002250 -0.004640 
#    y -0.002250 1.901920 -0.004970 
#    z -0.004640 -0.004970 1.904090 
# 
# From -- ./inp_files/298051.got.cif
#   From: 2010.06.25/outbox.cif.g09.slc.cpg/sg2_150_cif.got.tgz:298051.got - 2010.06.27 13:26:56.
