data_PCOD8035318
_publ_section_title
;
Structure prediction by ZEFSAII (Michael W. Deem and Ramdas Pophale) SiO2 
 PCOD8035318
Probable space group: P -1
;
_chemical_formula_sum "Si O2"
_cell_formula_units_Z 14
_cell_length_a 12.642636
_cell_length_b 18.436526
_cell_length_c 12.900863
_cell_angle_alpha 153.805989
_cell_angle_beta 33.142737
_cell_angle_gamma 153.841048
_cell_volume 577.249210
_symmetry_space_group_name_H-M "P -1"
_symmetry_group_IT_number 2
_symmetry_cell_setting 'triclinic'
loop_
_space_group_symop_operation_xyz
x,y,z
-x,-y,-z
loop_
_atom_site_type_symbol
_atom_site_label
_atom_site_fract_x
_atom_site_fract_y
_atom_site_fract_z
Si Si1 0.234830 0.331001 0.767748
Si Si2 0.767150 0.667951 0.455155
Si Si3 0.841695 0.904613 0.272317
Si Si4 0.145672 0.619771 0.916322
Si Si5 0.272161 0.555376 0.513098
Si Si6 0.026223 0.857839 0.869910
Si Si7 0.522981 0.047238 0.272499
O O1 0.203343 0.230806 0.551683
O O2 0.526478 0.478437 0.730650
O O3 0.111973 0.167430 0.751031
O O4 0.103431 0.440126 0.007742
O O5 0.500000 0.500000 0.500000
O O6 0.900494 0.555842 0.189969
O O7 0.917925 0.864130 0.658111
O O8 0.612732 0.908207 0.474560
O O9 0.827357 0.773705 0.019135
O O10 0.279067 0.589864 0.674662
O O11 0.325942 0.850748 0.110888
O O12 0.024403 0.339974 0.402055
O O13 0.313204 0.752029 0.677260
O O14 0.300843 0.987565 0.856671
O O15 0.000000 0.000000 0.000000
#
# Coordination Sequence:
#
# PCOD8035318 Si02
#       7
#     2   2   2   2   2   2   2
#     4  11  25  43  72 107 140 183 233 286 356 414
#     4  12  23  41  69 106 151 176 223 294 355 408
#     4  11  26  47  72 102 143 187 237 285 349 427
#     4  12  24  41  74 108 141 177 233 295 354 409
#     4  11  26  45  71 104 146 186 232 288 352 423
#     4  12  28  48  71 101 143 191 237 292 348 415
#     4  11  26  44  74 102 142 184 238 287 354 417
#
# _framework density 24.252956999999999
#
# number of rings (size 3 to 8) (size 9 to 14) (size 15 to 20)
#    0.000    0.571    2.857    4.286    4.000    4.000 
#    0.000    0.000    0.000    0.000    0.000    0.000 
#    0.000    0.000    0.000    0.000    0.000    0.000 
#
# Total GULP energy -173499.657179 kJ/mol
# GULP energy per Si atom -12392.832656 kJ/mol
# Density = 2.419776 g / cm^3
# Si number density = 24.252957 Si / 1000 Ang^3
#
#
#
# Elastic Constant Matrix: (Units=GPa)
#
#
# Indices 1 2 3 4 5 6 
#
# 1 150.3568 39.0499 47.4254 -10.0961 -22.1611 -5.5230
# 2 39.0499 57.6981 18.5222 -0.6521 0.7172 -4.1404
# 3 47.4254 18.5222 98.7387 -9.2531 6.2349 -0.3238
# 4 -10.0961 -0.6521 -9.2531 42.0708 5.4039 -4.8861
# 5 -22.1611 0.7172 6.2349 5.4039 40.5217 -4.4872
# 6 -5.5230 -4.1404 -0.3238 -4.8861 -4.4872 36.1553
#
#
#
# Elastic Compliance Matrix: (Units=1/GPa)
#
#
# Indices 1 2 3 4 5 6 
#
# 1 0.010626 -0.005730 -0.004364 0.000861 0.006677 0.001873
# 2 -0.005730 0.021701 -0.001191 -0.000773 -0.003109 0.001109
# 3 -0.004364 -0.001191 0.012959 0.002285 -0.004772 -0.000970
# 4 0.000861 -0.000773 0.002285 0.025198 -0.002883 0.003111
# 5 0.006677 -0.003109 -0.004772 -0.002883 0.029940 0.003947
# 6 0.001873 0.001109 -0.000970 0.003111 0.003947 0.028973
#
#
# Mechanical properties :
#
#
# Convention : Reuss Voigt Hill
#
# Bulk Modulus (GPa) = 44.01935 57.42095 50.72015
# Shear Modulus (GPa) = 31.33997 37.20266 34.27131
#
# Velocity S-wave (km/s) = 3.59864 3.92081 3.76317
# Velocity P-wave (km/s) = 5.95453 6.65013 6.31192
#
# Compressibility (1/GPa) = 0.02271728
#
# Stress axis : x y z
#
# Youngs Moduli (GPa) = 94.10831 46.08005 77.16396
#
# Poissons Ratio (x) = 0.26402 0.33672
# Poissons Ratio (y) = 0.53921 0.09193
# Poissons Ratio (z) = 0.41066 0.05490
#
# Static dielectric constant tensor:
#      x y z
#    x 4.528110 -0.082270 -0.227270 
#    y -0.082270 4.285640 -0.291270 
#    z -0.227270 -0.291270 4.569950 
# 
# 
# High freq. dielectric constant tensor:
#      x y z
#    x 1.972410 -0.008740 -0.009410 
#    y -0.008740 1.960950 -0.019890 
#    z -0.009410 -0.019890 1.967510 
# 
# From -- ./inp_files/437430.got.cif
#   From: 2010.06.25/outbox.cif.g09.slc.cpg/sg2_219_cif.got.tgz:437430.got - 2010.06.27 13:26:56.
