data_PCOD8035228
_publ_section_title
;
Structure prediction by ZEFSAII (Michael W. Deem and Ramdas Pophale) SiO2 
 PCOD8035228
Probable space group: P -1
;
_chemical_formula_sum "Si O2"
_cell_formula_units_Z 14
_cell_length_a 8.131474
_cell_length_b 11.440082
_cell_length_c 8.808476
_cell_angle_alpha 98.546167
_cell_angle_beta 49.213534
_cell_angle_gamma 101.478790
_cell_volume 607.812380
_symmetry_space_group_name_H-M "P -1"
_symmetry_group_IT_number 2
_symmetry_cell_setting 'triclinic'
loop_
_space_group_symop_operation_xyz
x,y,z
-x,-y,-z
loop_
_atom_site_type_symbol
_atom_site_label
_atom_site_fract_x
_atom_site_fract_y
_atom_site_fract_z
Si Si1 0.547813 0.583230 0.131544
Si Si2 0.220896 0.570573 0.829671
Si Si3 0.563866 0.888180 0.523278
Si Si4 0.385499 0.811865 0.923626
Si Si5 0.048855 0.962774 0.290224
Si Si6 0.240956 0.680232 0.531828
Si Si7 0.193246 0.220444 0.160209
O O1 0.593776 0.504161 0.234294
O O2 0.320168 0.632163 0.315678
O O3 0.500000 0.500000 0.000000
O O4 0.740363 0.697077 0.012507
O O5 0.233369 0.702669 0.917696
O O6 0.210188 0.575460 0.654945
O O7 0.000000 0.500000 0.000000
O O8 0.491789 0.900053 0.744463
O O9 0.438560 0.773285 0.496296
O O10 0.825440 0.887484 0.349570
O O11 0.500000 0.000000 0.500000
O O12 0.587210 0.757906 0.868370
O O13 0.245351 0.881407 0.140008
O O14 0.119959 0.078021 0.159912
O O15 0.000000 0.000000 0.500000
O O16 0.019108 0.731862 0.630973
#
# Coordination Sequence:
#
# PCOD8035228 Si02
#       7
#     2   2   2   2   2   2   2
#     4  12  27  48  73 106 146 190 238 301 358 434
#     4  11  24  51  70 107 144 190 243 296 365 419
#     4  11  25  45  69 105 142 191 238 290 365 423
#     4  11  27  46  72 103 147 189 239 298 355 433
#     4  12  27  45  72 106 147 189 233 297 363 430
#     4  11  27  46  76 106 145 189 241 300 359 431
#     4  12  25  45  73 108 139 187 246 289 363 417
#
# _framework density 23.033425999999999
#
# number of rings (size 3 to 8) (size 9 to 14) (size 15 to 20)
#    0.000    0.571    5.714    0.857    6.000    1.143 
#    2.571    0.000    0.000    0.000    0.000    0.000 
#    0.000    0.000    0.000    0.000    0.000    0.000 
#
# Total GULP energy -173503.489099 kJ/mol
# GULP energy per Si atom -12393.106364 kJ/mol
# Density = 2.298100 g / cm^3
# Si number density = 23.033426 Si / 1000 Ang^3
#
#
#
# Elastic Constant Matrix: (Units=GPa)
#
#
# Indices 1 2 3 4 5 6 
#
# 1 100.0894 23.3631 51.0666 10.5052 -27.1943 -7.5253
# 2 23.3631 107.5829 63.7039 -16.9193 -8.5497 -10.2979
# 3 51.0666 63.7039 150.0745 17.8547 -23.6188 6.7637
# 4 10.5052 -16.9193 17.8547 45.7628 -3.4890 -7.5073
# 5 -27.1943 -8.5497 -23.6188 -3.4890 41.9744 -3.8520
# 6 -7.5253 -10.2979 6.7637 -7.5073 -3.8520 37.2991
#
#
#
# Elastic Compliance Matrix: (Units=1/GPa)
#
#
# Indices 1 2 3 4 5 6 
#
# 1 0.014361 0.000136 -0.003908 -0.000440 0.007494 0.004329
# 2 0.000136 0.017302 -0.009101 0.011373 0.000241 0.008769
# 3 -0.003908 -0.009101 0.013521 -0.008808 0.001817 -0.007338
# 4 -0.000440 0.011373 -0.008808 0.031461 0.000704 0.011053
# 5 0.007494 0.000241 0.001817 0.000704 0.030223 0.004512
# 6 0.004329 0.008769 -0.007338 0.011053 0.004512 0.034126
#
#
# Mechanical properties :
#
#
# Convention : Reuss Voigt Hill
#
# Bulk Modulus (GPa) = 51.44556 70.44602 60.94579
# Shear Modulus (GPa) = 28.86534 39.64815 34.25674
#
# Velocity S-wave (km/s) = 3.54389 4.15339 3.86069
# Velocity P-wave (km/s) = 6.25533 7.32472 6.81105
#
# Compressibility (1/GPa) = 0.01943802
#
# Stress axis : x y z
#
# Youngs Moduli (GPa) = 69.63436 57.79772 73.96030
#
# Poissons Ratio (x) = -0.00785 0.28901
# Poissons Ratio (y) = -0.00946 0.67310
# Poissons Ratio (z) = 0.27210 0.52601
#
# Static dielectric constant tensor:
#      x y z
#    x 6.324330 -2.556150 0.516320 
#    y -2.556150 7.317250 -1.302680 
#    z 0.516320 -1.302680 4.713870 
# 
# 
# High freq. dielectric constant tensor:
#      x y z
#    x 1.907740 -0.011420 -0.016570 
#    y -0.011420 1.921170 -0.021440 
#    z -0.016570 -0.021440 1.912500 
# 
# From -- ./inp_files/27610.got.cif
#   From: 2010.06.25/outbox.cif.g09.slc.cpg/sg2_14_cif.got.tgz:27610.got - 2010.06.27 13:26:56.
