data_PCOD8035718
_publ_section_title
;
Structure prediction by ZEFSAII (Michael W. Deem and Ramdas Pophale) SiO2 
 PCOD8035718
Probable space group: P -1
;
_chemical_formula_sum "Si O2"
_cell_formula_units_Z 10
_cell_length_a 8.352061
_cell_length_b 7.763347
_cell_length_c 13.396556
_cell_angle_alpha 117.988085
_cell_angle_beta 31.257753
_cell_angle_gamma 110.901987
_cell_volume 396.136549
_symmetry_space_group_name_H-M "P -1"
_symmetry_group_IT_number 2
_symmetry_cell_setting 'triclinic'
loop_
_space_group_symop_operation_xyz
x,y,z
-x,-y,-z
loop_
_atom_site_type_symbol
_atom_site_label
_atom_site_fract_x
_atom_site_fract_y
_atom_site_fract_z
Si Si1 0.247863 0.135751 0.733159
Si Si2 0.562190 0.141101 0.121986
Si Si3 0.524606 0.770079 0.148685
Si Si4 0.516245 0.505257 0.375706
Si Si5 0.825902 0.593641 0.755264
O O1 0.327212 0.142264 0.809273
O O2 0.229969 0.354999 0.757695
O O3 0.500000 0.000000 0.500000
O O4 0.909856 0.058394 0.878576
O O5 0.611137 0.290043 0.225716
O O6 0.376093 0.242378 0.156577
O O7 0.611848 0.041064 0.792974
O O8 0.264693 0.627295 0.277208
O O9 0.783323 0.641939 0.908937
O O10 0.500000 0.500000 0.500000
O O11 0.182254 0.590025 0.532336
#
# Coordination Sequence:
#
# PCOD8035718 Si02
#       5
#     2   2   2   2   2
#     4  12  26  47  72 105 145 189 240 286 353 427
#     4  12  25  47  74 104 143 189 235 294 351 418
#     4  11  25  46  74 102 146 183 238 289 356 414
#     4  12  26  46  73 104 146 187 237 293 357 420
#     4  11  26  48  71 107 144 183 239 294 350 425
#
# _framework density 25.243818000000001
#
# number of rings (size 3 to 8) (size 9 to 14) (size 15 to 20)
#    0.000    0.400    2.000    6.000    5.600    0.800 
#    0.000    0.000    0.000    0.000    0.000    0.000 
#    0.000    0.000    0.000    0.000    0.000    0.000 
#
# Total GULP energy -124046.500372 kJ/mol
# GULP energy per Si atom -12404.650037 kJ/mol
# Density = 2.518636 g / cm^3
# Si number density = 25.243818 Si / 1000 Ang^3
#
#
#
# Elastic Constant Matrix: (Units=GPa)
#
#
# Indices 1 2 3 4 5 6 
#
# 1 130.8641 52.4229 44.0030 -5.2754 10.1942 -10.4148
# 2 52.4229 104.1240 -5.3811 -1.1723 2.1231 -30.4056
# 3 44.0030 -5.3811 94.2829 12.5036 1.5278 1.9809
# 4 -5.2754 -1.1723 12.5036 41.0918 5.9135 7.8485
# 5 10.1942 2.1231 1.5278 5.9135 42.7054 4.8907
# 6 -10.4148 -30.4056 1.9809 7.8485 4.8907 42.7524
#
#
#
# Elastic Compliance Matrix: (Units=1/GPa)
#
#
# Indices 1 2 3 4 5 6 
#
# 1 0.013349 -0.007675 -0.007175 0.004550 -0.002906 -0.002377
# 2 -0.007675 0.016746 0.004847 -0.004020 0.000177 0.010533
# 3 -0.007175 0.004847 0.014951 -0.005920 0.001537 0.001917
# 4 0.004550 -0.004020 -0.005920 0.028357 -0.003887 -0.006237
# 5 -0.002906 0.000177 0.001537 -0.003887 0.024904 -0.002789
# 6 -0.002377 0.010533 0.001917 -0.006237 -0.002789 0.031678
#
#
# Mechanical properties :
#
#
# Convention : Reuss Voigt Hill
#
# Bulk Modulus (GPa) = 39.93647 56.81785 48.37716
# Shear Modulus (GPa) = 31.57790 41.19167 36.38479
#
# Velocity S-wave (km/s) = 3.54067 4.04388 3.80061
# Velocity P-wave (km/s) = 5.70699 6.66036 6.20202
#
# Compressibility (1/GPa) = 0.02503977
#
# Stress axis : x y z
#
# Youngs Moduli (GPa) = 74.90982 59.71698 66.88310
#
# Poissons Ratio (x) = 0.45836 0.47987
# Poissons Ratio (y) = 0.57497 -0.32418
# Poissons Ratio (z) = 0.53746 -0.28944
#
# Static dielectric constant tensor:
#      x y z
#    x 4.465310 0.036100 0.178800 
#    y 0.036100 4.889630 0.021970 
#    z 0.178800 0.021970 4.648630 
# 
# 
# High freq. dielectric constant tensor:
#      x y z
#    x 2.007970 0.000310 0.022680 
#    y 0.000310 2.025840 0.006590 
#    z 0.022680 0.006590 2.007990 
# 
# From -- ./inp_files/147567.got.cif
#   From: 2010.06.25/outbox.cif.g09.slc.cpg/sg2_74_cif.got.tgz:147567.got - 2010.06.27 13:26:56.
