data_PCOD8035998
_publ_section_title
;
Structure prediction by ZEFSAII (Michael W. Deem and Ramdas Pophale) SiO2 
 PCOD8035998
Probable space group: P -1
;
_chemical_formula_sum "Si O2"
_cell_formula_units_Z 16
_cell_length_a 9.011216
_cell_length_b 13.263779
_cell_length_c 8.977631
_cell_angle_alpha 101.887959
_cell_angle_beta 124.351649
_cell_angle_gamma 55.037467
_cell_volume 715.002167
_symmetry_space_group_name_H-M "P -1"
_symmetry_group_IT_number 2
_symmetry_cell_setting 'triclinic'
loop_
_space_group_symop_operation_xyz
x,y,z
-x,-y,-z
loop_
_atom_site_type_symbol
_atom_site_label
_atom_site_fract_x
_atom_site_fract_y
_atom_site_fract_z
Si Si1 0.912598 0.104339 0.861765
Si Si2 0.576173 0.355229 0.850824
Si Si3 0.358826 0.956927 0.485102
Si Si4 0.551866 0.376082 0.192759
Si Si5 0.748481 0.877174 0.093564
Si Si6 0.950516 0.787604 0.493238
Si Si7 0.817434 0.627536 0.516129
Si Si8 0.322893 0.273942 0.215478
O O1 0.821763 0.239708 0.921467
O O2 0.703894 0.115461 0.679116
O O3 0.107945 0.069510 0.850943
O O4 0.000000 0.000000 0.000000
O O5 0.550566 0.477644 0.808790
O O6 0.411175 0.336230 0.663025
O O7 0.547800 0.349759 0.008979
O O8 0.484100 0.861852 0.660367
O O9 0.500000 0.000000 0.500000
O O10 0.131890 0.075765 0.453486
O O11 0.404183 0.343945 0.187127
O O12 0.788393 0.299293 0.381354
O O13 0.843714 0.801323 0.277199
O O14 0.797997 0.767100 0.974406
O O15 0.500000 0.000000 0.000000
O O16 0.853784 0.733929 0.531391
O O17 0.820174 0.629912 0.700520
O O18 0.000000 0.500000 0.500000
#
# Coordination Sequence:
#
# PCOD8035998 Si02
#       8
#     2   2   2   2   2   2   2   2
#     4  12  27  43  76 107 146 197 247 305 377 442
#     4  11  25  49  73 106 149 189 252 304 376 440
#     4  12  23  42  73 108 148 189 244 308 368 440
#     4  11  27  46  77 105 145 196 248 310 365 449
#     4  12  29  46  70 113 155 191 247 311 374 440
#     4  12  25  45  74 107 150 192 245 301 376 444
#     4  12  26  48  77 106 145 197 245 303 373 448
#     4  12  26  46  74 107 148 192 247 305 372 432
#
# _framework density 22.377554
#
# number of rings (size 3 to 8) (size 9 to 14) (size 15 to 20)
#    0.000    0.250    5.000    3.000    7.000    2.500 
#    0.000    1.875    0.000    0.000    0.000    0.000 
#    0.000    0.000    0.000    0.000    0.000    0.000 
#
# Total GULP energy -198321.308157 kJ/mol
# GULP energy per Si atom -12395.081760 kJ/mol
# Density = 2.232662 g / cm^3
# Si number density = 22.377554 Si / 1000 Ang^3
#
#
#
# Elastic Constant Matrix: (Units=GPa)
#
#
# Indices 1 2 3 4 5 6 
#
# 1 134.3934 55.5399 39.8827 0.1463 -4.5627 15.9489
# 2 55.5399 151.9631 39.8489 -2.6915 -11.2799 -20.9793
# 3 39.8827 39.8489 117.4329 5.1761 -7.5825 -3.9791
# 4 0.1463 -2.6915 5.1761 40.8698 6.7199 -2.9230
# 5 -4.5627 -11.2799 -7.5825 6.7199 30.0386 4.8372
# 6 15.9489 -20.9793 -3.9791 -2.9230 4.8372 35.7957
#
#
#
# Elastic Compliance Matrix: (Units=1/GPa)
#
#
# Indices 1 2 3 4 5 6 
#
# 1 0.010943 -0.004412 -0.002401 -0.000728 0.000835 -0.007901
# 2 -0.004412 0.009726 -0.001530 0.001196 0.001130 0.007441
# 3 -0.002401 -0.001530 0.010069 -0.001600 0.001813 0.000917
# 4 -0.000728 0.001196 -0.001600 0.026101 -0.006526 0.003861
# 5 0.000835 0.001130 0.001813 -0.006526 0.036561 -0.004982
# 6 -0.007901 0.007441 0.000917 0.003861 -0.004982 0.036908
#
#
# Mechanical properties :
#
#
# Convention : Reuss Voigt Hill
#
# Bulk Modulus (GPa) = 71.15901 74.92581 73.04241
# Shear Modulus (GPa) = 32.96445 39.24202 36.10323
#
# Velocity S-wave (km/s) = 3.84227 4.19218 4.02103
# Velocity P-wave (km/s) = 7.18000 7.54903 7.36682
#
# Compressibility (1/GPa) = 0.01405303
#
# Stress axis : x y z
#
# Youngs Moduli (GPa) = 91.38019 102.81289 99.31666
#
# Poissons Ratio (x) = 0.45356 0.23849
# Poissons Ratio (y) = 0.40313 0.15194
# Poissons Ratio (z) = 0.21943 0.15729
#
# Static dielectric constant tensor:
#      x y z
#    x 3.925520 -0.033120 0.064710 
#    y -0.033120 4.290400 -0.049340 
#    z 0.064710 -0.049340 4.082610 
# 
# 
# High freq. dielectric constant tensor:
#      x y z
#    x 1.883510 0.002710 -0.000920 
#    y 0.002710 1.900720 0.003410 
#    z -0.000920 0.003410 1.893660 
# 
# From -- ./inp_files/188779.got.cif
#   From: 2010.06.25/outbox.cif.g09.slc.cpg/sg2_95_cif.got.tgz:188779.got - 2010.06.27 13:26:56.
