data_PCOD8035542
_publ_section_title
;
Structure prediction by ZEFSAII (Michael W. Deem and Ramdas Pophale) SiO2 
 PCOD8035542
Probable space group: P -1
;
_chemical_formula_sum "Si O2"
_cell_formula_units_Z 14
_cell_length_a 12.394175
_cell_length_b 20.403083
_cell_length_c 14.172928
_cell_angle_alpha 21.668978
_cell_angle_beta 140.570783
_cell_angle_gamma 152.876020
_cell_volume 570.594540
_symmetry_space_group_name_H-M "P -1"
_symmetry_group_IT_number 2
_symmetry_cell_setting 'triclinic'
loop_
_space_group_symop_operation_xyz
x,y,z
-x,-y,-z
loop_
_atom_site_type_symbol
_atom_site_label
_atom_site_fract_x
_atom_site_fract_y
_atom_site_fract_z
Si Si1 0.726253 0.869064 0.492971
Si Si2 0.911863 0.370055 0.011846
Si Si3 0.213997 0.030527 0.137150
Si Si4 0.633899 0.718617 0.896393
Si Si5 0.490524 0.290190 0.797405
Si Si6 0.124757 0.928328 0.874674
Si Si7 0.810430 0.397654 0.290468
O O1 0.738558 0.059970 0.308151
O O2 0.682721 0.868886 0.350787
O O3 0.515359 0.577466 0.783118
O O4 0.000000 0.000000 0.500000
O O5 0.757518 0.406083 0.805399
O O6 0.000000 0.500000 0.000000
O O7 0.152562 0.531417 0.891412
O O8 0.276534 0.113568 0.175360
O O9 0.154134 0.777981 0.422855
O O10 0.449552 0.241801 0.946292
O O11 0.000000 0.000000 0.000000
O O12 0.462038 0.722583 0.714285
O O13 0.878238 0.866892 0.798527
O O14 0.500000 0.500000 0.500000
O O15 0.271744 0.031748 0.934140
O O16 0.024175 0.654551 0.153262
#
# Coordination Sequence:
#
# PCOD8035542 Si02
#       7
#     2   2   2   2   2   2   2
#     4  11  25  45  73 110 141 188 240 294 361 424
#     4  11  26  46  75 105 144 189 239 298 356 429
#     4  12  26  46  68 104 144 186 240 294 360 424
#     4  12  24  48  76 104 147 188 236 304 350 430
#     4  12  27  46  74 105 142 194 238 297 362 427
#     4  11  26  46  74 107 147 187 241 295 363 425
#     4  11  26  46  71 110 139 186 243 295 358 426
#
# _framework density 24.535810999999999
#
# number of rings (size 3 to 8) (size 9 to 14) (size 15 to 20)
#    0.000    0.571    4.286    3.429    4.000    4.000 
#    0.000    0.000    0.000    0.000    0.000    0.000 
#    0.000    0.000    0.000    0.000    0.000    0.000 
#
# Total GULP energy -173556.361025 kJ/mol
# GULP energy per Si atom -12396.882930 kJ/mol
# Density = 2.447997 g / cm^3
# Si number density = 24.535811 Si / 1000 Ang^3
#
#
#
# Elastic Constant Matrix: (Units=GPa)
#
#
# Indices 1 2 3 4 5 6 
#
# 1 119.4756 33.2613 40.2833 -10.3362 14.3893 -16.1995
# 2 33.2613 108.2856 36.8184 3.8615 20.7508 0.0023
# 3 40.2833 36.8184 142.3600 9.0212 34.0633 -0.2828
# 4 -10.3362 3.8615 9.0212 29.2915 4.5792 7.4854
# 5 14.3893 20.7508 34.0633 4.5792 39.1565 -4.3121
# 6 -16.1995 0.0023 -0.2828 7.4854 -4.3121 38.8839
#
#
#
# Elastic Compliance Matrix: (Units=1/GPa)
#
#
# Indices 1 2 3 4 5 6 
#
# 1 0.010838 -0.002511 -0.002547 0.004086 -0.000512 0.003653
# 2 -0.002511 0.011210 -0.001161 -0.001044 -0.004029 -0.001301
# 3 -0.002547 -0.001161 0.009837 -0.002370 -0.006872 -0.001295
# 4 0.004086 -0.001044 -0.002370 0.038677 -0.004094 -0.006214
# 5 -0.000512 -0.004029 -0.006872 -0.004094 0.034802 0.004384
# 6 0.003653 -0.001301 -0.001295 -0.006214 0.004384 0.028913
#
#
# Mechanical properties :
#
#
# Convention : Reuss Voigt Hill
#
# Bulk Modulus (GPa) = 51.41756 65.64969 58.53363
# Shear Modulus (GPa) = 32.63764 38.78360 35.71062
#
# Velocity S-wave (km/s) = 3.65115 3.98011 3.81917
# Velocity P-wave (km/s) = 6.22705 6.92361 6.58455
#
# Compressibility (1/GPa) = 0.01944861
#
# Stress axis : x y z
#
# Youngs Moduli (GPa) = 92.26699 89.20410 101.65435
#
# Poissons Ratio (x) = 0.22397 0.25887
# Poissons Ratio (y) = 0.23166 0.11804
# Poissons Ratio (z) = 0.23496 0.10358
#
# Static dielectric constant tensor:
#      x y z
#    x 5.368030 0.197510 0.325660 
#    y 0.197510 4.634260 0.102350 
#    z 0.325660 0.102350 4.793830 
# 
# 
# High freq. dielectric constant tensor:
#      x y z
#    x 2.006720 -0.004370 0.007270 
#    y -0.004370 1.965800 -0.000340 
#    z 0.007270 -0.000340 1.976600 
# 
# From -- ./inp_files/524017.got.cif
#   From: 2010.06.25/outbox.cif.g09.slc.cpg/sg2_263_cif.got.tgz:524017.got - 2010.06.27 13:26:56.
