data_PCOD8035441
_publ_section_title
;
Structure prediction by ZEFSAII (Michael W. Deem and Ramdas Pophale) SiO2 
 PCOD8035441
Probable space group: P -1
;
_chemical_formula_sum "Si O2"
_cell_formula_units_Z 14
_cell_length_a 8.112058
_cell_length_b 17.780293
_cell_length_c 17.863403
_cell_angle_alpha 20.930674
_cell_angle_beta 41.164548
_cell_angle_gamma 43.263293
_cell_volume 602.398453
_symmetry_space_group_name_H-M "P -1"
_symmetry_group_IT_number 2
_symmetry_cell_setting 'triclinic'
loop_
_space_group_symop_operation_xyz
x,y,z
-x,-y,-z
loop_
_atom_site_type_symbol
_atom_site_label
_atom_site_fract_x
_atom_site_fract_y
_atom_site_fract_z
Si Si1 0.026854 0.412354 0.377338
Si Si2 0.042419 0.342530 0.063339
Si Si3 0.038327 0.819059 0.075061
Si Si4 0.146320 0.727352 0.282373
Si Si5 0.363429 0.574948 0.621786
Si Si6 0.534926 0.175821 0.384874
Si Si7 0.551972 0.020533 0.690943
O O1 0.989944 0.667023 0.163913
O O2 0.291121 0.347148 0.307607
O O3 0.038526 0.301465 0.558021
O O4 0.797105 0.339151 0.475609
O O5 0.772654 0.294248 0.169343
O O6 0.196523 0.123844 0.238087
O O7 0.181579 0.453723 0.847442
O O8 0.000000 0.500000 0.000000
O O9 0.023608 0.681601 0.285450
O O10 0.315380 0.893454 0.906312
O O11 0.824453 0.018784 0.964253
O O12 0.410869 0.590515 0.331356
O O13 0.471096 0.765792 0.450924
O O14 0.578653 0.070827 0.548305
O O15 0.500000 0.000000 0.500000
#
# Coordination Sequence:
#
# PCOD8035441 Si02
#       7
#     2   2   2   2   2   2   2
#     4  12  27  47  70 106 142 182 234 289 347 410
#     4  12  26  47  71 100 142 186 234 279 347 416
#     4  11  25  44  78 103 138 186 231 288 347 415
#     4  11  25  48  72 106 142 181 233 286 352 416
#     4  12  28  45  73 105 142 188 226 288 351 414
#     4  12  27  46  74 103 141 184 234 292 341 411
#     4  12  25  49  71 105 140 183 236 284 350 411
#
# _framework density 23.240431999999998
#
# number of rings (size 3 to 8) (size 9 to 14) (size 15 to 20)
#    0.000    0.286    4.286    3.857    8.000    2.286 
#    0.000    0.000    0.000    0.000    0.000    0.000 
#    0.000    0.000    0.000    0.000    0.000    0.000 
#
# Total GULP energy -173677.450420 kJ/mol
# GULP energy per Si atom -12405.532173 kJ/mol
# Density = 2.318754 g / cm^3
# Si number density = 23.240432 Si / 1000 Ang^3
#
#
#
# Elastic Constant Matrix: (Units=GPa)
#
#
# Indices 1 2 3 4 5 6 
#
# 1 106.7910 32.2470 28.9056 -9.8665 -13.5688 10.9951
# 2 32.2470 122.9574 25.2324 -14.3573 -5.5025 -2.4909
# 3 28.9056 25.2324 55.2213 -1.6524 -7.5518 3.9539
# 4 -9.8665 -14.3573 -1.6524 41.2672 -7.6548 -4.2513
# 5 -13.5688 -5.5025 -7.5518 -7.6548 39.3024 -9.0938
# 6 10.9951 -2.4909 3.9539 -4.2513 -9.0938 45.4922
#
#
#
# Elastic Compliance Matrix: (Units=1/GPa)
#
#
# Indices 1 2 3 4 5 6 
#
# 1 0.012004 -0.001764 -0.004865 0.002446 0.003037 -0.001740
# 2 -0.001764 0.009761 -0.003411 0.003234 0.001146 0.001789
# 3 -0.004865 -0.003411 0.022471 -0.001198 0.001760 -0.000724
# 4 0.002446 0.003234 -0.001198 0.027636 0.007314 0.003735
# 5 0.003037 0.001146 0.001760 0.007314 0.029759 0.005808
# 6 -0.001740 0.001789 -0.000724 0.003735 0.005808 0.024073
#
#
# Mechanical properties :
#
#
# Convention : Reuss Voigt Hill
#
# Bulk Modulus (GPa) = 41.39725 50.85994 46.12859
# Shear Modulus (GPa) = 32.50229 38.45134 35.47681
#
# Velocity S-wave (km/s) = 3.74374 4.07197 3.91130
# Velocity P-wave (km/s) = 6.04473 6.63624 6.34738
#
# Compressibility (1/GPa) = 0.02415619
#
# Stress axis : x y z
#
# Youngs Moduli (GPa) = 83.30328 102.45188 44.50221
#
# Poissons Ratio (x) = 0.18070 0.21649
# Poissons Ratio (y) = 0.14692 0.15181
# Poissons Ratio (z) = 0.40525 0.34950
#
# Static dielectric constant tensor:
#      x y z
#    x 4.130950 -0.014690 0.029110 
#    y -0.014690 4.122350 -0.241740 
#    z 0.029110 -0.241740 4.161400 
# 
# 
# High freq. dielectric constant tensor:
#      x y z
#    x 1.913860 0.000890 0.001380 
#    y 0.000890 1.944350 -0.003430 
#    z 0.001380 -0.003430 1.926640 
# 
# From -- ./inp_files/360638.got.cif
#   From: 2010.06.25/outbox.cif.g09.slc.cpg/sg2_181_cif.got.tgz:360638.got - 2010.06.27 13:26:56.
