data_PCOD8035989
_publ_section_title
;
Structure prediction by ZEFSAII (Michael W. Deem and Ramdas Pophale) SiO2 
 PCOD8035989
Probable space group: P -1
;
_chemical_formula_sum "Si O2"
_cell_formula_units_Z 16
_cell_length_a 12.589621
_cell_length_b 9.583794
_cell_length_c 15.351867
_cell_angle_alpha 76.043745
_cell_angle_beta 152.386301
_cell_angle_gamma 112.540219
_cell_volume 771.701908
_symmetry_space_group_name_H-M "P -1"
_symmetry_group_IT_number 2
_symmetry_cell_setting 'triclinic'
loop_
_space_group_symop_operation_xyz
x,y,z
-x,-y,-z
loop_
_atom_site_type_symbol
_atom_site_label
_atom_site_fract_x
_atom_site_fract_y
_atom_site_fract_z
Si Si1 0.733476 0.465907 0.147850
Si Si2 0.329094 0.612329 0.077603
Si Si3 0.492349 0.560899 0.623350
Si Si4 0.042807 0.047095 0.759579
Si Si5 0.556276 0.162220 0.166367
Si Si6 0.135683 0.310139 0.281364
Si Si7 0.782543 0.264244 0.502511
Si Si8 0.744125 0.915347 0.279861
O O1 0.693662 0.294100 0.175753
O O2 0.970824 0.584232 0.351359
O O3 0.500000 0.500000 0.000000
O O4 0.765224 0.486338 0.064017
O O5 0.356583 0.503459 0.190560
O O6 0.598965 0.744603 0.238802
O O7 0.119651 0.679974 0.939552
O O8 0.249575 0.422551 0.430000
O O9 0.672384 0.646510 0.663937
O O10 0.417375 0.692264 0.595235
O O11 0.199023 0.099993 0.776504
O O12 0.840769 0.125643 0.612710
O O13 0.264251 0.123080 0.978833
O O14 0.905269 0.863211 0.693154
O O15 0.691070 0.205816 0.349121
O O16 0.568900 0.009104 0.155083
O O17 0.000000 0.000000 0.500000
#
# Coordination Sequence:
#
# PCOD8035989 Si02
#       8
#     2   2   2   2   2   2   2   2
#     4  12  23  40  63  97 140 177 207 265 335 411
#     4  12  23  44  70  98 134 174 225 275 331 397
#     4  11  27  45  72  98 127 179 233 282 327 385
#     4  12  24  44  67  99 138 175 218 269 338 403
#     4  12  24  40  64  98 140 177 213 266 337 404
#     4  11  25  49  71  95 129 178 234 282 326 385
#     4  12  26  42  64 100 138 175 221 272 336 395
#     4  12  23  39  66 103 133 172 214 268 335 402
#
# _framework density 20.733395000000002
#
# number of rings (size 3 to 8) (size 9 to 14) (size 15 to 20)
#    0.000    0.250    6.250    3.375    1.750    0.500 
#    0.000    0.625    0.000    0.000    0.000    0.000 
#    0.000    0.000    0.000    0.000    0.000    0.000 
#
# Total GULP energy -198446.123244 kJ/mol
# GULP energy per Si atom -12402.882703 kJ/mol
# Density = 2.068620 g / cm^3
# Si number density = 20.733395 Si / 1000 Ang^3
#
#
#
# Elastic Constant Matrix: (Units=GPa)
#
#
# Indices 1 2 3 4 5 6 
#
# 1 63.4368 30.6386 13.5919 -7.9985 7.1530 -7.6295
# 2 30.6386 107.7476 27.1552 -13.2793 4.8546 -10.2046
# 3 13.5919 27.1552 105.3668 -4.7827 1.4847 -0.5846
# 4 -7.9985 -13.2793 -4.7827 42.2527 -0.7638 4.7096
# 5 7.1530 4.8546 1.4847 -0.7638 26.7232 0.7116
# 6 -7.6295 -10.2046 -0.5846 4.7096 0.7116 28.6053
#
#
#
# Elastic Compliance Matrix: (Units=1/GPa)
#
#
# Indices 1 2 3 4 5 6 
#
# 1 0.019274 -0.004466 -0.001180 0.001659 -0.004324 0.003358
# 2 -0.004466 0.011693 -0.002309 0.002266 -0.000804 0.002580
# 3 -0.001180 -0.002309 0.010244 0.000324 0.000202 -0.000988
# 4 0.001659 0.002266 0.000324 0.025048 -0.000082 -0.002864
# 5 -0.004324 -0.000804 0.000202 -0.000082 0.038774 -0.002387
# 6 0.003358 0.002580 -0.000988 -0.002864 -0.002387 0.037285
#
#
# Mechanical properties :
#
#
# Convention : Reuss Voigt Hill
#
# Bulk Modulus (GPa) = 39.52456 46.59141 43.05799
# Shear Modulus (GPa) = 30.00075 33.19395 31.59735
#
# Velocity S-wave (km/s) = 3.80804 4.00558 3.90806
# Velocity P-wave (km/s) = 6.19996 6.62671 6.41689
#
# Compressibility (1/GPa) = 0.02530073
#
# Stress axis : x y z
#
# Youngs Moduli (GPa) = 51.88283 85.52440 97.61465
#
# Poissons Ratio (x) = 0.38194 0.11523
# Poissons Ratio (y) = 0.23170 0.22538
# Poissons Ratio (z) = 0.06125 0.19746
#
# Static dielectric constant tensor:
#      x y z
#    x 3.171430 -0.603320 -0.301040 
#    y -0.603320 3.512430 -0.213990 
#    z -0.301040 -0.213990 4.363000 
# 
# 
# High freq. dielectric constant tensor:
#      x y z
#    x 1.795220 -0.012820 -0.001010 
#    y -0.012820 1.818350 -0.002180 
#    z -0.001010 -0.002180 1.833690 
# 
# From -- ./inp_files/272472.got.cif
#   From: 2010.06.25/outbox.cif.g09.slc.cpg/sg2_137_cif.got.tgz:272472.got - 2010.06.27 13:26:56.
