data_PCOD8035334
_publ_section_title
;
Structure prediction by ZEFSAII (Michael W. Deem and Ramdas Pophale) SiO2 
 PCOD8035334
Probable space group: P -1
;
_chemical_formula_sum "Si O2"
_cell_formula_units_Z 14
_cell_length_a 6.295458
_cell_length_b 10.071068
_cell_length_c 10.965916
_cell_angle_alpha 73.984095
_cell_angle_beta 103.644250
_cell_angle_gamma 72.077373
_cell_volume 595.443535
_symmetry_space_group_name_H-M "P -1"
_symmetry_group_IT_number 2
_symmetry_cell_setting 'triclinic'
loop_
_space_group_symop_operation_xyz
x,y,z
-x,-y,-z
loop_
_atom_site_type_symbol
_atom_site_label
_atom_site_fract_x
_atom_site_fract_y
_atom_site_fract_z
Si Si1 0.081657 0.983162 0.205352
Si Si2 0.761473 0.887746 0.019022
Si Si3 0.420339 0.208058 0.610968
Si Si4 0.181591 0.484725 0.638626
Si Si5 0.780361 0.049921 0.367079
Si Si6 0.532101 0.638394 0.648692
Si Si7 0.000363 0.455403 0.870803
O O1 0.293436 0.864982 0.344569
O O2 0.976935 0.898603 0.120440
O O3 0.869421 0.083497 0.239698
O O4 0.204817 0.078028 0.126077
O O5 0.809959 0.714396 0.074275
O O6 0.500000 0.000000 0.000000
O O7 0.346027 0.303094 0.703350
O O8 0.334498 0.330236 0.458717
O O9 0.306257 0.086032 0.617826
O O10 0.322516 0.587592 0.594708
O O11 0.087276 0.535157 0.752107
O O12 0.000000 0.500000 0.500000
O O13 0.564208 0.204139 0.331667
O O14 0.000000 0.000000 0.500000
O O15 0.721403 0.501818 0.789050
O O16 0.000000 0.500000 0.000000
#
# Coordination Sequence:
#
# PCOD8035334 Si02
#       7
#     2   2   2   2   2   2   2
#     4  11  25  43  78 102 145 193 258 303 376 442
#     4  11  26  50  74 106 145 202 257 306 366 467
#     4  12  25  46  77 108 147 197 257 316 374 454
#     4  12  26  47  78 109 148 197 255 312 379 455
#     4  12  26  43  74 112 149 191 246 310 384 444
#     4  12  28  46  75 113 156 194 252 318 389 446
#     4  12  30  47  75 108 160 199 248 312 395 445
#
# _framework density 23.511887000000002
#
# number of rings (size 3 to 8) (size 9 to 14) (size 15 to 20)
#    0.000    0.286    2.857    5.143    8.000    1.714 
#    0.000    0.000    0.000    0.000    0.000    0.000 
#    0.000    0.000    0.000    0.000    0.000    0.000 
#
# Total GULP energy -173472.480354 kJ/mol
# GULP energy per Si atom -12390.891454 kJ/mol
# Density = 2.345837 g / cm^3
# Si number density = 23.511887 Si / 1000 Ang^3
#
#
#
# Elastic Constant Matrix: (Units=GPa)
#
#
# Indices 1 2 3 4 5 6 
#
# 1 135.5607 55.6229 63.7958 5.1568 -20.9949 0.2263
# 2 55.6229 125.1947 43.0057 -3.7651 -12.8298 -5.1520
# 3 63.7958 43.0057 130.3780 6.6362 -8.2615 -5.5936
# 4 5.1568 -3.7651 6.6362 33.9649 -13.9144 0.4930
# 5 -20.9949 -12.8298 -8.2615 -13.9144 46.8335 4.2670
# 6 0.2263 -5.1520 -5.5936 0.4930 4.2670 44.7829
#
#
#
# Elastic Compliance Matrix: (Units=1/GPa)
#
#
# Indices 1 2 3 4 5 6 
#
# 1 0.011265 -0.003204 -0.004296 0.000274 0.003615 -0.001310
# 2 -0.003204 0.010340 -0.001833 0.002722 0.001811 0.000774
# 3 -0.004296 -0.001833 0.010456 -0.002162 -0.001342 0.001268
# 4 0.000274 0.002722 -0.002162 0.034608 0.010895 -0.001377
# 5 0.003615 0.001811 -0.001342 0.010895 0.026710 -0.002642
# 6 -0.001310 0.000774 0.001268 -0.001377 -0.002642 0.022851
#
#
# Mechanical properties :
#
#
# Convention : Reuss Voigt Hill
#
# Bulk Modulus (GPa) = 74.66167 79.55360 77.10763
# Shear Modulus (GPa) = 35.87751 40.36352 38.12051
#
# Velocity S-wave (km/s) = 3.91055 4.14784 4.03094
# Velocity P-wave (km/s) = 7.22591 7.53978 7.38451
#
# Compressibility (1/GPa) = 0.01339375
#
# Stress axis : x y z
#
# Youngs Moduli (GPa) = 88.77004 96.70891 95.63492
#
# Poissons Ratio (x) = 0.30989 0.41087
# Poissons Ratio (y) = 0.28445 0.17534
# Poissons Ratio (z) = 0.38138 0.17731
#
# Static dielectric constant tensor:
#      x y z
#    x 4.499370 -0.708510 -0.321520 
#    y -0.708510 5.571990 0.650200 
#    z -0.321520 0.650200 4.860740 
# 
# 
# High freq. dielectric constant tensor:
#      x y z
#    x 1.945500 -0.020270 -0.003610 
#    y -0.020270 1.926350 0.000440 
#    z -0.003610 0.000440 1.941370 
# 
# From -- ./inp_files/360209.got.cif
#   From: 2010.06.25/outbox.cif.g09.slc.cpg/sg2_181_cif.got.tgz:360209.got - 2010.06.27 13:26:56.
