data_PCOD8035089
_publ_section_title
;
Structure prediction by ZEFSAII (Michael W. Deem and Ramdas Pophale) SiO2 
 PCOD8035089
Probable space group: P -1
;
_chemical_formula_sum "Si O2"
_cell_formula_units_Z 16
_cell_length_a 11.570243
_cell_length_b 9.000169
_cell_length_c 8.733985
_cell_angle_alpha 101.093799
_cell_angle_beta 116.808553
_cell_angle_gamma 63.269438
_cell_volume 724.938169
_symmetry_space_group_name_H-M "P -1"
_symmetry_group_IT_number 2
_symmetry_cell_setting 'triclinic'
loop_
_space_group_symop_operation_xyz
x,y,z
-x,-y,-z
loop_
_atom_site_type_symbol
_atom_site_label
_atom_site_fract_x
_atom_site_fract_y
_atom_site_fract_z
Si Si1 0.858537 0.591292 0.334623
Si Si2 0.161653 0.317109 0.009797
Si Si3 0.141088 0.864969 0.479833
Si Si4 0.661839 0.400002 0.232073
Si Si5 0.607341 0.962173 0.754302
Si Si6 0.868232 0.349359 0.839384
Si Si7 0.701316 0.928792 0.477900
Si Si8 0.618678 0.311225 0.857008
O O1 0.882450 0.609591 0.172550
O O2 0.761826 0.491474 0.270020
O O3 0.782205 0.774569 0.388644
O O4 0.000000 0.500000 0.500000
O O5 0.027911 0.286749 0.992920
O O6 0.193897 0.449429 0.160309
O O7 0.300888 0.143010 0.067513
O O8 0.256134 0.763670 0.653732
O O9 0.112186 0.730209 0.333896
O O10 0.209857 0.959965 0.433923
O O11 0.000000 0.000000 0.500000
O O12 0.518028 0.528587 0.257283
O O13 0.618889 0.330579 0.041860
O O14 0.451657 0.964121 0.669843
O O15 0.593864 0.148552 0.775573
O O16 0.684131 0.869433 0.625931
O O17 0.767023 0.293435 0.869841
#
# Coordination Sequence:
#
# PCOD8035089 Si02
#       8
#     2   2   2   2   2   2   2   2
#     4  12  25  47  69  99 143 181 227 284 343 411
#     4  11  27  44  72 107 131 185 230 282 346 408
#     4  12  27  46  68 104 141 183 228 282 347 408
#     4  11  26  44  72 100 137 182 230 282 347 406
#     4  11  26  46  72 100 141 179 232 284 343 407
#     4  11  25  46  69 102 136 177 235 277 345 405
#     4  11  26  45  68 104 138 184 226 283 345 404
#     4  11  24  48  69 101 137 182 229 288 339 405
#
# _framework density 22.070847000000001
#
# number of rings (size 3 to 8) (size 9 to 14) (size 15 to 20)
#    0.000    0.750    3.750    2.250   10.500    2.500 
#    0.000    0.000    0.000    0.000    0.000    0.000 
#    0.000    0.000    0.000    0.000    0.000    0.000 
#
# Total GULP energy -198395.328649 kJ/mol
# GULP energy per Si atom -12399.708041 kJ/mol
# Density = 2.202061 g / cm^3
# Si number density = 22.070847 Si / 1000 Ang^3
#
#
#
# Elastic Constant Matrix: (Units=GPa)
#
#
# Indices 1 2 3 4 5 6 
#
# 1 110.6592 33.9562 33.4892 3.9877 11.2528 -5.5434
# 2 33.9562 96.3420 44.7131 1.7904 -8.0648 -25.6646
# 3 33.4892 44.7131 90.2847 -7.6290 0.9659 -18.6962
# 4 3.9877 1.7904 -7.6290 48.5479 -0.4020 6.2992
# 5 11.2528 -8.0648 0.9659 -0.4020 26.5608 4.1200
# 6 -5.5434 -25.6646 -18.6962 6.2992 4.1200 31.8351
#
#
#
# Elastic Compliance Matrix: (Units=1/GPa)
#
#
# Indices 1 2 3 4 5 6 
#
# 1 0.011549 -0.003637 -0.002856 -0.001096 -0.005654 -0.001650
# 2 -0.003637 0.017330 -0.005443 -0.002438 0.005425 0.009922
# 3 -0.002856 -0.005443 0.015921 0.002378 -0.001638 0.004206
# 4 -0.001096 -0.002438 0.002378 0.021830 0.000771 -0.005179
# 5 -0.005654 0.005425 -0.001638 0.000771 0.042259 -0.003194
# 6 -0.001650 0.009922 0.004206 -0.005179 -0.003194 0.043031
#
#
# Mechanical properties :
#
#
# Convention : Reuss Voigt Hill
#
# Bulk Modulus (GPa) = 47.78637 57.95590 52.87113
# Shear Modulus (GPa) = 27.35681 33.73059 30.54370
#
# Velocity S-wave (km/s) = 3.52447 3.91357 3.72411
# Velocity P-wave (km/s) = 6.18554 6.83648 6.51914
#
# Compressibility (1/GPa) = 0.02092647
#
# Stress axis : x y z
#
# Youngs Moduli (GPa) = 86.58660 57.70224 62.81151
#
# Poissons Ratio (x) = 0.20989 0.17941
# Poissons Ratio (y) = 0.31495 0.34189
# Poissons Ratio (z) = 0.24732 0.31408
#
# Static dielectric constant tensor:
#      x y z
#    x 4.048700 -0.176810 0.187410 
#    y -0.176810 4.040470 0.163530 
#    z 0.187410 0.163530 3.996920 
# 
# 
# High freq. dielectric constant tensor:
#      x y z
#    x 1.880720 -0.006790 0.015470 
#    y -0.006790 1.877000 0.016370 
#    z 0.015470 0.016370 1.865980 
# 
# From -- ./inp_files/185143.got.cif
#   From: 2010.06.25/outbox.cif.g09.slc.cpg/sg2_93_cif.got.tgz:185143.got - 2010.06.27 13:26:56.
