data_PCOD8035059
_publ_section_title
;
Structure prediction by ZEFSAII (Michael W. Deem and Ramdas Pophale) SiO2 
 PCOD8035059
Probable space group: P -1
;
_chemical_formula_sum "Si O2"
_cell_formula_units_Z 14
_cell_length_a 12.088188
_cell_length_b 8.060299
_cell_length_c 18.264377
_cell_angle_alpha 36.134560
_cell_angle_beta 28.291767
_cell_angle_gamma 43.437474
_cell_volume 496.656299
_symmetry_space_group_name_H-M "P -1"
_symmetry_group_IT_number 2
_symmetry_cell_setting 'triclinic'
loop_
_space_group_symop_operation_xyz
x,y,z
-x,-y,-z
loop_
_atom_site_type_symbol
_atom_site_label
_atom_site_fract_x
_atom_site_fract_y
_atom_site_fract_z
Si Si1 0.738112 0.528453 0.308827
Si Si2 0.167598 0.199722 0.405258
Si Si3 0.766502 0.963397 0.801559
Si Si4 0.008531 0.693988 0.233776
Si Si5 0.508979 0.470489 0.808419
Si Si6 0.812569 0.281190 0.207136
Si Si7 0.554151 0.017615 0.143568
O O1 0.500000 0.500000 0.500000
O O2 0.923440 0.600124 0.236926
O O3 0.798645 0.262677 0.311831
O O4 0.714260 0.781000 0.174549
O O5 0.396219 0.269523 0.294207
O O6 0.291771 0.062049 0.311502
O O7 0.017620 0.955982 0.616816
O O8 0.986091 0.451515 0.394631
O O9 0.739908 0.250954 0.761939
O O10 0.520749 0.053875 0.869539
O O11 0.725312 0.664748 0.971306
O O12 0.883169 0.976130 0.239866
O O13 0.286605 0.714040 0.050196
O O14 0.434948 0.605924 0.724367
O O15 0.000000 0.500000 0.000000
#
# Coordination Sequence:
#
# PCOD8035059 Si02
#       7
#     2   2   2   2   2   2   2
#     4  12  28  51  78 117 162 206 267 328 393 476
#     4  12  27  47  79 112 155 205 262 330 395 465
#     4  11  24  47  76 112 150 198 268 320 392 470
#     4  12  27  51  81 116 159 210 266 324 400 476
#     4  11  25  48  76 108 155 196 264 325 387 475
#     4  12  27  50  83 112 157 215 258 322 406 471
#     4  12  24  51  71 112 154 205 263 325 394 468
#
# _framework density 28.188507999999999
#
# number of rings (size 3 to 8) (size 9 to 14) (size 15 to 20)
#    0.000    0.286    4.286    3.429    4.000    1.714 
#    2.571    0.000    0.000    0.000    0.000    0.000 
#    0.000    0.000    0.000    0.000    0.000    0.000 
#
# Total GULP energy -173437.445162 kJ/mol
# GULP energy per Si atom -12388.388940 kJ/mol
# Density = 2.812435 g / cm^3
# Si number density = 28.188508 Si / 1000 Ang^3
#
#
#
# Elastic Constant Matrix: (Units=GPa)
#
#
# Indices 1 2 3 4 5 6 
#
# 1 171.8798 40.6771 35.7269 -19.6543 11.5830 0.0061
# 2 40.6771 109.7573 11.9844 8.8019 3.1107 18.1460
# 3 35.7269 11.9844 145.1472 13.6738 -3.7764 11.9275
# 4 -19.6543 8.8019 13.6738 46.3057 -1.1655 8.6966
# 5 11.5830 3.1107 -3.7764 -1.1655 28.5503 6.3437
# 6 0.0061 18.1460 11.9275 8.6966 6.3437 41.3149
#
#
#
# Elastic Compliance Matrix: (Units=1/GPa)
#
#
# Indices 1 2 3 4 5 6 
#
# 1 0.007723 -0.003129 -0.002255 0.004144 -0.003289 0.001657
# 2 -0.003129 0.011170 0.000511 -0.002704 0.001042 -0.004644
# 3 -0.002255 0.000511 0.007921 -0.002913 0.002288 -0.002249
# 4 0.004144 -0.002704 -0.002913 0.025350 -0.000002 -0.003308
# 5 -0.003289 0.001042 0.002288 -0.000002 0.038097 -0.006967
# 6 0.001657 -0.004644 -0.002249 -0.003308 -0.006967 0.028659
#
#
# Mechanical properties :
#
#
# Convention : Reuss Voigt Hill
#
# Bulk Modulus (GPa) = 58.58559 67.06234 62.82396
# Shear Modulus (GPa) = 37.21498 45.79391 41.50444
#
# Velocity S-wave (km/s) = 3.63742 4.03496 3.84133
# Velocity P-wave (km/s) = 6.20240 6.74908 6.48151
#
# Compressibility (1/GPa) = 0.01706904
#
# Stress axis : x y z
#
# Youngs Moduli (GPa) = 129.48817 89.52649 126.24504
#
# Poissons Ratio (x) = 0.28012 0.28464
# Poissons Ratio (y) = 0.40516 -0.06455
# Poissons Ratio (z) = 0.29196 -0.04578
#
# Static dielectric constant tensor:
#      x y z
#    x 5.959610 -0.124050 0.171360 
#    y -0.124050 5.478700 -0.100210 
#    z 0.171360 -0.100210 4.950400 
# 
# 
# High freq. dielectric constant tensor:
#      x y z
#    x 2.171610 0.000940 0.001290 
#    y 0.000940 2.144610 -0.002620 
#    z 0.001290 -0.002620 2.135100 
# 
# From -- ./inp_files/566403.got.cif
#   From: 2010.06.25/outbox.cif.g09.slc.cpg/sg2_284_cif.got.tgz:566403.got - 2010.06.27 13:26:56.
