data_PCOD8035487
_publ_section_title
;
Structure prediction by ZEFSAII (Michael W. Deem and Ramdas Pophale) SiO2 
 PCOD8035487
Probable space group: P -1
;
_chemical_formula_sum "Si O2"
_cell_formula_units_Z 16
_cell_length_a 9.269569
_cell_length_b 15.084253
_cell_length_c 12.526687
_cell_angle_alpha 49.335643
_cell_angle_beta 132.511212
_cell_angle_gamma 141.069452
_cell_volume 780.745554
_symmetry_space_group_name_H-M "P -1"
_symmetry_group_IT_number 2
_symmetry_cell_setting 'triclinic'
loop_
_space_group_symop_operation_xyz
x,y,z
-x,-y,-z
loop_
_atom_site_type_symbol
_atom_site_label
_atom_site_fract_x
_atom_site_fract_y
_atom_site_fract_z
Si Si1 0.982324 0.859500 0.567189
Si Si2 0.918441 0.602417 0.387266
Si Si3 0.242783 0.730954 0.871727
Si Si4 0.771494 0.635061 0.056294
Si Si5 0.213196 0.900135 0.421728
Si Si6 0.450488 0.590735 0.475423
Si Si7 0.112187 0.590798 0.141330
Si Si8 0.770863 0.897762 0.892153
O O1 0.133957 0.824126 0.747011
O O2 0.073724 0.865218 0.489975
O O3 0.694133 0.735970 0.527946
O O4 0.000000 0.000000 0.500000
O O5 0.856244 0.632753 0.218508
O O6 0.674179 0.512398 0.404158
O O7 0.000000 0.500000 0.500000
O O8 0.127506 0.752441 0.433629
O O9 0.512700 0.829456 0.876592
O O10 0.058142 0.584203 0.825240
O O11 0.261681 0.682925 0.037775
O O12 0.948519 0.641907 0.052159
O O13 0.500000 0.500000 0.000000
O O14 0.777545 0.774961 0.937531
O O15 0.500000 0.000000 0.500000
O O16 0.161370 0.994207 0.254318
O O17 0.500000 0.500000 0.500000
O O18 0.293999 0.629324 0.300296
O O19 0.000000 0.000000 0.000000
#
# Coordination Sequence:
#
# PCOD8035487 Si02
#       8
#     2   2   2   2   2   2   2   2
#     4  12  29  47  71 106 141 189 235 290 357 422
#     4  12  27  46  74 105 140 186 245 298 346 421
#     4  11  25  47  69 101 143 181 232 289 352 409
#     4  12  27  44  72 107 138 185 240 286 350 423
#     4  12  27  48  72 100 148 189 235 298 358 417
#     4  12  25  45  74 102 141 185 238 284 353 416
#     4  11  25  45  71 104 139 179 235 296 337 413
#     4  12  27  46  71 101 145 188 231 285 362 424
#
# _framework density 20.493233
#
# number of rings (size 3 to 8) (size 9 to 14) (size 15 to 20)
#    0.000    0.250    7.500    0.000   10.500    1.000 
#    0.000    1.250    0.000    0.000    0.000    0.000 
#    0.000    0.000    0.000    0.000    0.000    0.000 
#
# Total GULP energy -198388.281344 kJ/mol
# GULP energy per Si atom -12399.267584 kJ/mol
# Density = 2.044659 g / cm^3
# Si number density = 20.493233 Si / 1000 Ang^3
#
#
#
# Elastic Constant Matrix: (Units=GPa)
#
#
# Indices 1 2 3 4 5 6 
#
# 1 93.4891 36.1233 10.7404 -10.2919 11.2667 -7.4202
# 2 36.1233 146.4031 26.8968 -6.5121 16.3352 -9.7156
# 3 10.7404 26.8968 91.7375 -9.9643 5.9727 -3.2588
# 4 -10.2919 -6.5121 -9.9643 38.0420 -0.9805 7.4883
# 5 11.2667 16.3352 5.9727 -0.9805 46.6945 -8.5249
# 6 -7.4202 -9.7156 -3.2588 7.4883 -8.5249 45.8713
#
#
#
# Elastic Compliance Matrix: (Units=1/GPa)
#
#
# Indices 1 2 3 4 5 6 
#
# 1 0.012303 -0.002625 -0.000241 0.002642 -0.001847 0.000643
# 2 -0.002625 0.008085 -0.001921 -0.000038 -0.001800 0.000823
# 3 -0.000241 -0.001921 0.011831 0.002723 -0.000761 -0.000191
# 4 0.002642 -0.000038 0.002723 0.028516 -0.001151 -0.004256
# 5 -0.001847 -0.001800 -0.000761 -0.001151 0.023253 0.003775
# 6 0.000643 0.000823 -0.000191 -0.004256 0.003775 0.023461
#
#
# Mechanical properties :
#
#
# Convention : Reuss Voigt Hill
#
# Bulk Modulus (GPa) = 44.16009 53.23897 48.69953
# Shear Modulus (GPa) = 40.13789 43.31286 41.72538
#
# Velocity S-wave (km/s) = 4.43040 4.60229 4.51716
# Velocity P-wave (km/s) = 6.91134 7.36727 7.14294
#
# Compressibility (1/GPa) = 0.02264488
#
# Stress axis : x y z
#
# Youngs Moduli (GPa) = 81.28232 123.68872 84.52727
#
# Poissons Ratio (x) = 0.32470 0.02035
# Poissons Ratio (y) = 0.21338 0.16236
# Poissons Ratio (z) = 0.01956 0.23758
#
# Static dielectric constant tensor:
#      x y z
#    x 3.828830 -0.161280 0.347940 
#    y -0.161280 3.751590 0.011760 
#    z 0.347940 0.011760 3.775030 
# 
# 
# High freq. dielectric constant tensor:
#      x y z
#    x 1.813850 0.002690 0.002490 
#    y 0.002690 1.812200 -0.004560 
#    z 0.002490 -0.004560 1.819050 
# 
# From -- ./inp_files/184299.got.cif
#   From: 2010.06.25/outbox.cif.g09.slc.cpg/sg2_93_cif.got.tgz:184299.got - 2010.06.27 13:26:56.
