data_PCOD8035584
_publ_section_title
;
Structure prediction by ZEFSAII (Michael W. Deem and Ramdas Pophale) SiO2 
 PCOD8035584
Probable space group: P -1
;
_chemical_formula_sum "Si O2"
_cell_formula_units_Z 14
_cell_length_a 9.042776
_cell_length_b 9.219972
_cell_length_c 8.817671
_cell_angle_alpha 82.680812
_cell_angle_beta 121.784866
_cell_angle_gamma 86.239052
_cell_volume 612.097109
_symmetry_space_group_name_H-M "P -1"
_symmetry_group_IT_number 2
_symmetry_cell_setting 'triclinic'
loop_
_space_group_symop_operation_xyz
x,y,z
-x,-y,-z
loop_
_atom_site_type_symbol
_atom_site_label
_atom_site_fract_x
_atom_site_fract_y
_atom_site_fract_z
Si Si1 0.041570 0.382648 0.174365
Si Si2 0.298675 0.868135 0.545493
Si Si3 0.684651 0.952420 0.182732
Si Si4 0.006972 0.046978 0.166599
Si Si5 0.734550 0.366838 0.215242
Si Si6 0.441991 0.342377 0.490012
Si Si7 0.447959 0.323716 0.832764
O O1 0.233378 0.377611 0.347409
O O2 0.017967 0.218684 0.137189
O O3 0.897443 0.430767 0.220627
O O4 0.000000 0.500000 0.000000
O O5 0.198993 0.756884 0.605934
O O6 0.472833 0.772809 0.577710
O O7 0.339737 0.998343 0.661130
O O8 0.178050 0.947550 0.339365
O O9 0.707495 0.772950 0.199942
O O10 0.840719 0.019664 0.179209
O O11 0.500000 0.000000 0.000000
O O12 0.000000 0.000000 0.000000
O O13 0.617825 0.502067 0.219018
O O14 0.617224 0.289901 0.040371
O O15 0.500000 0.500000 0.500000
O O16 0.501724 0.275962 0.695977
#
# Coordination Sequence:
#
# PCOD8035584 Si02
#       7
#     2   2   2   2   2   2   2
#     4  12  29  48  78 111 153 192 254 313 377 449
#     4  12  27  50  77 106 160 196 255 312 372 458
#     4  12  26  47  77 108 150 198 253 306 381 446
#     4  12  31  49  75 114 154 200 252 315 381 449
#     4  11  25  48  77 109 152 198 254 310 368 456
#     4  12  28  47  76 113 150 198 251 314 378 446
#     4  11  25  45  76 110 149 199 253 306 380 444
#
# _framework density 22.872187
#
# number of rings (size 3 to 8) (size 9 to 14) (size 15 to 20)
#    0.000    0.286    4.286    2.143   14.000    1.714 
#    0.000    0.000    0.000    0.000    0.000    0.000 
#    0.000    0.000    0.000    0.000    0.000    0.000 
#
# Total GULP energy -173543.325835 kJ/mol
# GULP energy per Si atom -12395.951845 kJ/mol
# Density = 2.282013 g / cm^3
# Si number density = 22.872187 Si / 1000 Ang^3
#
#
#
# Elastic Constant Matrix: (Units=GPa)
#
#
# Indices 1 2 3 4 5 6 
#
# 1 123.0112 43.1048 48.7725 13.5352 0.7730 3.7445
# 2 43.1048 138.9632 51.7808 5.0390 -0.4021 18.2460
# 3 48.7725 51.7808 152.1553 3.0395 -10.0177 -1.0587
# 4 13.5352 5.0390 3.0395 48.0972 3.0823 -4.8691
# 5 0.7730 -0.4021 -10.0177 3.0823 39.6892 1.2004
# 6 3.7445 18.2460 -1.0587 -4.8691 1.2004 42.4712
#
#
#
# Elastic Compliance Matrix: (Units=1/GPa)
#
#
# Indices 1 2 3 4 5 6 
#
# 1 0.010150 -0.002068 -0.002546 -0.002470 -0.000659 -0.000334
# 2 -0.002068 0.009327 -0.002549 -0.000612 -0.000342 -0.003949
# 3 -0.002546 -0.002549 0.008392 0.000476 0.002059 0.001525
# 4 -0.002470 -0.000612 0.000476 0.021934 -0.001634 0.003053
# 5 -0.000659 -0.000342 0.002059 -0.001634 0.025872 -0.000662
# 6 -0.000334 -0.003949 0.001525 0.003053 -0.000662 0.025678
#
#
# Mechanical properties :
#
#
# Convention : Reuss Voigt Hill
#
# Bulk Modulus (GPa) = 73.83816 77.93842 75.88829
# Shear Modulus (GPa) = 41.59953 44.08298 42.84126
#
# Velocity S-wave (km/s) = 4.26935 4.39494 4.33260
# Velocity P-wave (km/s) = 7.52703 7.73974 7.63412
#
# Compressibility (1/GPa) = 0.01354313
#
# Stress axis : x y z
#
# Youngs Moduli (GPa) = 98.52610 107.21431 119.15426
#
# Poissons Ratio (x) = 0.22172 0.30337
# Poissons Ratio (y) = 0.20375 0.30373
# Poissons Ratio (z) = 0.25085 0.27329
#
# Static dielectric constant tensor:
#      x y z
#    x 4.557660 0.730870 -0.386750 
#    y 0.730870 5.661940 -0.523370 
#    z -0.386750 -0.523370 4.646660 
# 
# 
# High freq. dielectric constant tensor:
#      x y z
#    x 1.898160 0.004410 -0.009170 
#    y 0.004410 1.931390 -0.003820 
#    z -0.009170 -0.003820 1.912940 
# 
# From -- ./inp_files/158252.got.cif
#   From: 2010.06.25/outbox.cif.g09.slc.cpg/sg2_80_cif.got.tgz:158252.got - 2010.06.27 13:26:56.
