data_PCOD8035714
_publ_section_title
;
Structure prediction by ZEFSAII (Michael W. Deem and Ramdas Pophale) SiO2 
 PCOD8035714
Probable space group: P -1
;
_chemical_formula_sum "Si O2"
_cell_formula_units_Z 16
_cell_length_a 8.670993
_cell_length_b 9.593884
_cell_length_c 11.205073
_cell_angle_alpha 88.092667
_cell_angle_beta 55.451843
_cell_angle_gamma 71.046145
_cell_volume 712.367723
_symmetry_space_group_name_H-M "P -1"
_symmetry_group_IT_number 2
_symmetry_cell_setting 'triclinic'
loop_
_space_group_symop_operation_xyz
x,y,z
-x,-y,-z
loop_
_atom_site_type_symbol
_atom_site_label
_atom_site_fract_x
_atom_site_fract_y
_atom_site_fract_z
Si Si1 0.586084 0.163832 0.391548
Si Si2 0.746499 0.117063 0.750948
Si Si3 0.013953 0.814460 0.749563
Si Si4 0.384409 0.657265 0.985004
Si Si5 0.932295 0.301348 0.516077
Si Si6 0.415350 0.129830 0.712777
Si Si7 0.998504 0.666041 0.007266
Si Si8 0.680989 0.631721 0.665326
O O1 0.825603 0.112942 0.286882
O O2 0.497340 0.189450 0.561680
O O3 0.478892 0.326117 0.373477
O O4 0.544089 0.042537 0.329604
O O5 0.901943 0.158396 0.595032
O O6 0.537576 0.145149 0.774768
O O7 0.713990 0.216361 0.879274
O O8 0.829597 0.945333 0.762959
O O9 0.108402 0.689371 0.608856
O O10 0.954845 0.741822 0.893137
O O11 0.211552 0.654248 0.969208
O O12 0.556773 0.696536 0.838640
O O13 0.500000 0.500000 0.000000
O O14 0.779521 0.452218 0.639164
O O15 0.160053 0.290436 0.436052
O O16 0.180569 0.231254 0.831319
O O17 0.000000 0.500000 0.000000
#
# Coordination Sequence:
#
# PCOD8035714 Si02
#       8
#     2   2   2   2   2   2   2   2
#     4  11  25  46  74 101 143 184 240 295 348 418
#     4  12  26  47  74 105 147 186 237 291 352 422
#     4  12  27  46  74 103 142 189 237 293 349 424
#     4  12  26  48  73 102 145 188 233 292 355 421
#     4  11  26  45  73 107 143 185 237 292 353 418
#     4  11  27  46  72 108 142 189 232 296 354 411
#     4  12  30  48  72 106 145 185 237 291 356 422
#     4  11  26  45  73 105 142 188 237 289 356 420
#
# _framework density 22.460311000000001
#
# number of rings (size 3 to 8) (size 9 to 14) (size 15 to 20)
#    0.000    0.500    3.750    2.625   12.250    2.000 
#    0.000    0.000    0.000    0.000    0.000    0.000 
#    0.000    0.000    0.000    0.000    0.000    0.000 
#
# Total GULP energy -198414.466634 kJ/mol
# GULP energy per Si atom -12400.904165 kJ/mol
# Density = 2.240919 g / cm^3
# Si number density = 22.460311 Si / 1000 Ang^3
#
#
#
# Elastic Constant Matrix: (Units=GPa)
#
#
# Indices 1 2 3 4 5 6 
#
# 1 101.2966 34.4916 33.1419 6.3937 5.7853 -9.5806
# 2 34.4916 79.9790 47.7325 -10.7380 2.6711 -14.7875
# 3 33.1419 47.7325 125.6636 -3.1519 -0.5242 -8.1690
# 4 6.3937 -10.7380 -3.1519 27.4951 -2.6424 8.2430
# 5 5.7853 2.6711 -0.5242 -2.6424 37.9975 4.2064
# 6 -9.5806 -14.7875 -8.1690 8.2430 4.2064 36.5688
#
#
#
# Elastic Compliance Matrix: (Units=1/GPa)
#
#
# Indices 1 2 3 4 5 6 
#
# 1 0.012792 -0.004850 -0.001519 -0.006075 -0.002348 0.002690
# 2 -0.004850 0.019729 -0.005788 0.006925 -0.000682 0.003932
# 3 -0.001519 -0.005788 0.010524 -0.000517 0.000787 -0.000362
# 4 -0.006075 0.006925 -0.000517 0.043636 0.004491 -0.009259
# 5 -0.002348 -0.000682 0.000787 0.004491 0.027589 -0.004901
# 6 0.002690 0.003932 -0.000362 -0.009259 -0.004901 0.032211
#
#
# Mechanical properties :
#
#
# Convention : Reuss Voigt Hill
#
# Bulk Modulus (GPa) = 53.38870 59.74123 56.56497
# Shear Modulus (GPa) = 28.24249 33.18382 30.71316
#
# Velocity S-wave (km/s) = 3.54989 3.84792 3.70190
# Velocity P-wave (km/s) = 6.37370 6.81163 6.59630
#
# Compressibility (1/GPa) = 0.01873056
#
# Stress axis : x y z
#
# Youngs Moduli (GPa) = 78.17110 50.68680 95.02306
#
# Poissons Ratio (x) = 0.24584 0.14432
# Poissons Ratio (y) = 0.37915 0.55002
# Poissons Ratio (z) = 0.11872 0.29339
#
# Static dielectric constant tensor:
#      x y z
#    x 4.174970 0.147690 0.170980 
#    y 0.147690 4.354250 0.362720 
#    z 0.170980 0.362720 4.702600 
# 
# 
# High freq. dielectric constant tensor:
#      x y z
#    x 1.896150 -0.004000 0.001470 
#    y -0.004000 1.883420 -0.001380 
#    z 0.001470 -0.001380 1.901050 
# 
# From -- ./inp_files/208964.got.cif
#   From: 2010.06.25/outbox.cif.g09.slc.cpg/sg2_105_cif.got.tgz:208964.got - 2010.06.27 13:26:56.
