data_PCOD8035016
_publ_section_title
;
Structure prediction by ZEFSAII (Michael W. Deem and Ramdas Pophale) SiO2 
 PCOD8035016
Probable space group: P -1
;
_chemical_formula_sum "Si O2"
_cell_formula_units_Z 12
_cell_length_a 8.499051
_cell_length_b 11.276850
_cell_length_c 14.915389
_cell_angle_alpha 150.846881
_cell_angle_beta 41.038312
_cell_angle_gamma 126.428700
_cell_volume 447.711745
_symmetry_space_group_name_H-M "P -1"
_symmetry_group_IT_number 2
_symmetry_cell_setting 'triclinic'
loop_
_space_group_symop_operation_xyz
x,y,z
-x,-y,-z
loop_
_atom_site_type_symbol
_atom_site_label
_atom_site_fract_x
_atom_site_fract_y
_atom_site_fract_z
Si Si1 0.731408 0.416540 0.066556
Si Si2 0.706367 0.815708 0.879551
Si Si3 0.839759 0.336915 0.164999
Si Si4 0.910514 0.618087 0.482105
Si Si5 0.120737 0.018968 0.556027
Si Si6 0.394174 0.289372 0.853717
O O1 0.559501 0.214536 0.991272
O O2 0.629099 0.653721 0.205321
O O3 0.737777 0.477945 0.210081
O O4 0.005720 0.286843 0.827085
O O5 0.718318 0.760025 0.730852
O O6 0.920936 0.626121 0.710449
O O7 0.735460 0.093257 0.068902
O O8 0.136120 0.261850 0.987593
O O9 0.756932 0.534003 0.410458
O O10 0.077995 0.803862 0.499456
O O11 0.415088 0.974283 0.390103
O O12 0.000000 0.000000 0.500000
O O13 0.500000 0.500000 0.000000
#
# Coordination Sequence:
#
# PCOD8035016 Si02
#       6
#     2   2   2   2   2   2
#     4  12  25  47  74 108 152 194 244 308 367 436
#     4  11  25  49  75 105 155 193 243 309 363 443
#     4  12  25  44  77 110 145 197 249 296 376 441
#     4  11  24  47  72 108 145 196 245 300 372 430
#     4  12  24  45  77 104 139 197 245 294 373 429
#     4  12  24  47  74 106 151 192 245 314 357 436
#
# _framework density 26.802961
#
# number of rings (size 3 to 8) (size 9 to 14) (size 15 to 20)
#    0.000    0.333    6.667    1.500    0.000    1.333 
#    0.000    3.333    0.000    0.000    0.000    0.000 
#    0.000    0.000    0.000    0.000    0.000    0.000 
#
# Total GULP energy -148866.648009 kJ/mol
# GULP energy per Si atom -12405.554001 kJ/mol
# Density = 2.674196 g / cm^3
# Si number density = 26.802961 Si / 1000 Ang^3
#
#
#
# Elastic Constant Matrix: (Units=GPa)
#
#
# Indices 1 2 3 4 5 6 
#
# 1 115.4774 15.2367 26.8396 -0.9439 6.1881 -0.5436
# 2 15.2367 96.0519 -8.0663 3.3579 -0.4438 3.0879
# 3 26.8396 -8.0663 97.1133 4.2468 16.6932 -11.8558
# 4 -0.9439 3.3579 4.2468 32.6317 -2.5305 -3.8292
# 5 6.1881 -0.4438 16.6932 -2.5305 52.3920 -8.7518
# 6 -0.5436 3.0879 -11.8558 -3.8292 -8.7518 52.4770
#
#
#
# Elastic Compliance Matrix: (Units=1/GPa)
#
#
# Indices 1 2 3 4 5 6 
#
# 1 0.009570 -0.001770 -0.002829 0.000755 -0.000279 -0.000427
# 2 -0.001770 0.010878 0.001450 -0.001441 -0.000312 -0.000488
# 3 -0.002829 0.001450 0.012077 -0.001829 -0.003267 0.001936
# 4 0.000755 -0.001441 -0.001829 0.031519 0.002401 0.002380
# 5 -0.000279 -0.000312 -0.003267 0.002401 0.020761 0.002915
# 6 -0.000427 -0.000488 0.001936 0.002380 0.002915 0.020177
#
#
# Mechanical properties :
#
#
# Convention : Reuss Voigt Hill
#
# Bulk Modulus (GPa) = 38.12842 41.85140 39.98991
# Shear Modulus (GPa) = 41.65873 45.80897 43.73385
#
# Velocity S-wave (km/s) = 3.94669 4.13861 4.04379
# Velocity P-wave (km/s) = 5.91817 6.20370 6.06262
#
# Compressibility (1/GPa) = 0.02622716
#
# Stress axis : x y z
#
# Youngs Moduli (GPa) = 104.49485 91.92772 82.79944
#
# Poissons Ratio (x) = 0.16268 0.23425
# Poissons Ratio (y) = 0.18492 -0.12003
# Poissons Ratio (z) = 0.29563 -0.13326
#
# Static dielectric constant tensor:
#      x y z
#    x 5.315890 0.007360 0.020410 
#    y 0.007360 5.190120 -0.169160 
#    z 0.020410 -0.169160 4.903300 
# 
# 
# High freq. dielectric constant tensor:
#      x y z
#    x 2.103170 -0.001410 0.002370 
#    y -0.001410 2.088220 -0.000350 
#    z 0.002370 -0.000350 2.068570 
# 
# From -- ./inp_files/216299.got.cif
#   From: 2010.06.25/outbox.cif.g09.slc.cpg/sg2_109_cif.got.tgz:216299.got - 2010.06.27 13:26:56.
