data_PCOD8035010
_publ_section_title
;
Structure prediction by ZEFSAII (Michael W. Deem and Ramdas Pophale) SiO2 
 PCOD8035010
Probable space group: P -1
;
_chemical_formula_sum "Si O2"
_cell_formula_units_Z 16
_cell_length_a 14.750152
_cell_length_b 12.852706
_cell_length_c 9.144873
_cell_angle_alpha 122.739350
_cell_angle_beta 119.005291
_cell_angle_gamma 109.588318
_cell_volume 743.994685
_symmetry_space_group_name_H-M "P -1"
_symmetry_group_IT_number 2
_symmetry_cell_setting 'triclinic'
loop_
_space_group_symop_operation_xyz
x,y,z
-x,-y,-z
loop_
_atom_site_type_symbol
_atom_site_label
_atom_site_fract_x
_atom_site_fract_y
_atom_site_fract_z
Si Si1 0.698912 0.459956 0.941382
Si Si2 0.036698 0.626362 0.253843
Si Si3 0.983665 0.573878 0.676194
Si Si4 0.695859 0.952805 0.645219
Si Si5 0.185961 0.165977 0.195378
Si Si6 0.297740 0.503596 0.698428
Si Si7 0.315099 0.096936 0.729814
Si Si8 0.676151 0.666409 0.865942
O O1 0.509120 0.205523 0.611413
O O2 0.694719 0.555490 0.880616
O O3 0.852867 0.511599 0.070152
O O4 0.734242 0.556154 0.200620
O O5 0.111350 0.605581 0.417546
O O6 0.188767 0.872038 0.528089
O O7 0.000000 0.500000 0.000000
O O8 0.866676 0.580661 0.559144
O O9 0.000000 0.500000 0.500000
O O10 0.179460 0.806695 0.057578
O O11 0.736552 0.894239 0.760138
O O12 0.734184 0.926704 0.496949
O O13 0.318222 0.393915 0.545335
O O14 0.167072 0.168554 0.007243
O O15 0.000000 0.000000 0.000000
O O16 0.481026 0.754062 0.999602
O O17 0.299212 0.203926 0.895822
O O18 0.500000 0.500000 0.500000
#
# Coordination Sequence:
#
# PCOD8035010 Si02
#       8
#     2   2   2   2   2   2   2   2
#     4  11  26  46  73 101 143 183 229 290 352 418
#     4  12  28  46  68 101 142 186 243 289 340 404
#     4  12  26  46  70 101 136 184 245 286 338 415
#     4  11  24  47  73 101 142 185 228 284 358 420
#     4  12  25  41  72 105 139 178 223 285 355 419
#     4  11  24  47  72 103 139 185 230 286 356 417
#     4  11  26  46  72 103 142 183 228 294 353 414
#     4  12  25  44  71 111 139 173 231 289 353 428
#
# _framework density 21.505528999999999
#
# number of rings (size 3 to 8) (size 9 to 14) (size 15 to 20)
#    0.000    0.500    6.250    0.750    7.000    4.500 
#    0.000    0.000    0.000    0.000    0.000    0.000 
#    0.000    0.000    0.000    0.000    0.000    0.000 
#
# Total GULP energy -198349.021822 kJ/mol
# GULP energy per Si atom -12396.813864 kJ/mol
# Density = 2.145658 g / cm^3
# Si number density = 21.505529 Si / 1000 Ang^3
#
#
#
# Elastic Constant Matrix: (Units=GPa)
#
#
# Indices 1 2 3 4 5 6 
#
# 1 85.8532 30.7561 40.5018 6.6797 -17.2493 23.2131
# 2 30.7561 143.5302 42.3248 -2.7684 2.7270 16.3750
# 3 40.5018 42.3248 109.3725 13.7085 -6.7061 12.2939
# 4 6.6797 -2.7684 13.7085 40.3836 7.4519 -1.8219
# 5 -17.2493 2.7270 -6.7061 7.4519 42.8534 -1.1796
# 6 23.2131 16.3750 12.2939 -1.8219 -1.1796 41.2760
#
#
#
# Elastic Compliance Matrix: (Units=1/GPa)
#
#
# Indices 1 2 3 4 5 6 
#
# 1 0.018254 -0.001934 -0.004223 -0.003412 0.007178 -0.008186
# 2 -0.001934 0.008452 -0.002805 0.002190 -0.002175 -0.001395
# 3 -0.004223 -0.002805 0.012389 -0.003916 0.001089 -0.000344
# 4 -0.003412 0.002190 -0.003916 0.028235 -0.006946 0.003264
# 5 0.007178 -0.002175 0.001089 -0.006946 0.027658 -0.003014
# 6 -0.008186 -0.001395 -0.000344 0.003264 -0.003014 0.029545
#
#
# Mechanical properties :
#
#
# Convention : Reuss Voigt Hill
#
# Bulk Modulus (GPa) = 47.23977 62.88013 55.05995
# Shear Modulus (GPa) = 33.44162 39.91415 36.67789
#
# Velocity S-wave (km/s) = 3.94766 4.31280 4.13426
# Velocity P-wave (km/s) = 6.54161 7.35546 6.96044
#
# Compressibility (1/GPa) = 0.02116860
#
# Stress axis : x y z
#
# Youngs Moduli (GPa) = 54.78231 118.32038 80.71888
#
# Poissons Ratio (x) = 0.22889 0.34089
# Poissons Ratio (y) = 0.10597 0.22644
# Poissons Ratio (z) = 0.23135 0.33192
#
# Static dielectric constant tensor:
#      x y z
#    x 3.975840 0.365900 0.006440 
#    y 0.365900 3.825780 -0.137990 
#    z 0.006440 -0.137990 4.120410 
# 
# 
# High freq. dielectric constant tensor:
#      x y z
#    x 1.843890 0.019670 -0.002520 
#    y 0.019670 1.857020 0.001330 
#    z -0.002520 0.001330 1.854190 
# 
# From -- ./inp_files/185395.got.cif
#   From: 2010.06.25/outbox.cif.g09.slc.cpg/sg2_93_cif.got.tgz:185395.got - 2010.06.27 13:26:56.
