data_PCOD8035274
_publ_section_title
;
Structure prediction by ZEFSAII (Michael W. Deem and Ramdas Pophale) SiO2 
 PCOD8035274
Probable space group: P -1
;
_chemical_formula_sum "Si O2"
_cell_formula_units_Z 14
_cell_length_a 9.220540
_cell_length_b 11.301778
_cell_length_c 9.376828
_cell_angle_alpha 110.328417
_cell_angle_beta 45.480804
_cell_angle_gamma 119.605379
_cell_volume 605.761131
_symmetry_space_group_name_H-M "P -1"
_symmetry_group_IT_number 2
_symmetry_cell_setting 'triclinic'
loop_
_space_group_symop_operation_xyz
x,y,z
-x,-y,-z
loop_
_atom_site_type_symbol
_atom_site_label
_atom_site_fract_x
_atom_site_fract_y
_atom_site_fract_z
Si Si1 0.133464 0.948275 0.997349
Si Si2 0.825597 0.506067 0.238097
Si Si3 0.645330 0.349289 0.730649
Si Si4 0.100318 0.368382 0.455870
Si Si5 0.615377 0.794356 0.882889
Si Si6 0.562106 0.196958 0.285602
Si Si7 0.709110 0.734900 0.298634
O O1 0.966367 0.808626 0.121164
O O2 0.247814 0.062626 0.081347
O O3 0.319777 0.902078 0.779661
O O4 0.000000 0.000000 0.000000
O O5 0.929046 0.582360 0.344508
O O6 0.684229 0.353144 0.315956
O O7 0.672844 0.581141 0.307736
O O8 0.000000 0.500000 0.000000
O O9 0.748065 0.511512 0.702504
O O10 0.444179 0.270465 0.732843
O O11 0.849203 0.299884 0.543157
O O12 0.547152 0.315395 0.943118
O O13 0.210563 0.257882 0.333825
O O14 0.465342 0.818822 0.872257
O O15 0.333653 0.165467 0.512294
#
# Coordination Sequence:
#
# PCOD8035274 Si02
#       7
#     2   2   2   2   2   2   2
#     4  12  29  48  72 106 146 197 245 295 350 436
#     4  12  23  46  78 107 146 182 241 304 369 420
#     4  11  25  42  74 107 147 187 237 298 368 418
#     4  11  25  45  72 113 144 188 237 305 361 432
#     4  12  26  48  71 106 149 190 246 290 361 431
#     4  12  26  47  77 104 146 188 245 299 363 428
#     4  12  25  47  74 106 142 196 237 301 362 424
#
# _framework density 23.111419999999999
#
# number of rings (size 3 to 8) (size 9 to 14) (size 15 to 20)
#    0.000    0.286    5.714    3.000    2.000    4.571 
#    0.000    0.000    0.000    0.000    0.000    0.000 
#    0.000    0.000    0.000    0.000    0.000    0.000 
#
# Total GULP energy -173596.266764 kJ/mol
# GULP energy per Si atom -12399.733340 kJ/mol
# Density = 2.305882 g / cm^3
# Si number density = 23.111420 Si / 1000 Ang^3
#
#
#
# Elastic Constant Matrix: (Units=GPa)
#
#
# Indices 1 2 3 4 5 6 
#
# 1 120.8231 32.2258 37.9407 19.4127 -10.5712 -15.3680
# 2 32.2258 83.3104 24.6951 25.5643 -12.6181 1.4480
# 3 37.9407 24.6951 100.8571 23.1596 -9.6614 -6.2415
# 4 19.4127 25.5643 23.1596 35.5869 -4.9238 -8.6122
# 5 -10.5712 -12.6181 -9.6614 -4.9238 38.6752 2.7671
# 6 -15.3680 1.4480 -6.2415 -8.6122 2.7671 41.9342
#
#
#
# Elastic Compliance Matrix: (Units=1/GPa)
#
#
# Indices 1 2 3 4 5 6 
#
# 1 0.010568 -0.002896 -0.002754 -0.000969 0.000896 0.003305
# 2 -0.002896 0.017282 -0.000528 -0.011016 0.003615 -0.004238
# 3 -0.002754 -0.000528 0.012626 -0.006251 0.001468 -0.000492
# 4 -0.000969 -0.011016 -0.006251 0.042429 -0.000580 0.007847
# 5 0.000896 0.003615 0.001468 -0.000580 0.027683 -0.001524
# 6 0.003305 -0.004238 -0.000492 0.007847 -0.001524 0.026843
#
#
# Mechanical properties :
#
#
# Convention : Reuss Voigt Hill
#
# Bulk Modulus (GPa) = 35.56233 54.96821 45.26527
# Shear Modulus (GPa) = 31.41477 37.24784 34.33131
#
# Velocity S-wave (km/s) = 3.69083 4.01891 3.85836
# Velocity P-wave (km/s) = 5.79515 6.73581 6.28311
#
# Compressibility (1/GPa) = 0.02811964
#
# Stress axis : x y z
#
# Youngs Moduli (GPa) = 94.62402 57.86407 79.20245
#
# Poissons Ratio (x) = 0.16759 0.21809
# Poissons Ratio (y) = 0.27405 0.04184
# Poissons Ratio (z) = 0.26056 0.03057
#
# Static dielectric constant tensor:
#      x y z
#    x 4.307820 -0.048480 -0.190540 
#    y -0.048480 4.052380 -0.180370 
#    z -0.190540 -0.180370 4.453220 
# 
# 
# High freq. dielectric constant tensor:
#      x y z
#    x 1.926920 -0.005270 -0.009880 
#    y -0.005270 1.898070 -0.000310 
#    z -0.009880 -0.000310 1.925000 
# 
# From -- ./inp_files/184674.got.cif
#   From: 2010.06.25/outbox.cif.g09.slc.cpg/sg2_93_cif.got.tgz:184674.got - 2010.06.27 13:26:56.
