data_PCOD8035804
_publ_section_title
;
Structure prediction by ZEFSAII (Michael W. Deem and Ramdas Pophale) SiO2 
 PCOD8035804
Probable space group: P -1
;
_chemical_formula_sum "Si O2"
_cell_formula_units_Z 16
_cell_length_a 11.072844
_cell_length_b 19.339942
_cell_length_c 9.102401
_cell_angle_alpha 137.278344
_cell_angle_beta 105.782005
_cell_angle_gamma 41.786316
_cell_volume 698.221093
_symmetry_space_group_name_H-M "P -1"
_symmetry_group_IT_number 2
_symmetry_cell_setting 'triclinic'
loop_
_space_group_symop_operation_xyz
x,y,z
-x,-y,-z
loop_
_atom_site_type_symbol
_atom_site_label
_atom_site_fract_x
_atom_site_fract_y
_atom_site_fract_z
Si Si1 0.306248 0.492621 0.551633
Si Si2 0.077467 0.678261 0.247242
Si Si3 0.232746 0.422751 0.135084
Si Si4 0.788960 0.218334 0.414585
Si Si5 0.602121 0.031018 0.515817
Si Si6 0.431500 0.950868 0.804866
Si Si7 0.992595 0.877493 0.964561
Si Si8 0.133871 0.482095 0.720921
O O1 0.343010 0.423694 0.292816
O O2 0.548498 0.334983 0.465811
O O3 0.134743 0.527486 0.627030
O O4 0.197573 0.679969 0.807812
O O5 0.064965 0.605122 0.263316
O O6 0.246500 0.659398 0.302513
O O7 0.172300 0.555436 0.946792
O O8 0.832905 0.894683 0.469780
O O9 0.097131 0.421473 0.164717
O O10 0.432899 0.241257 0.815230
O O11 0.932058 0.030456 0.249792
O O12 0.942779 0.155054 0.234050
O O13 0.657361 0.970567 0.268260
O O14 0.500000 0.000000 0.500000
O O15 0.653153 0.733352 0.519837
O O16 0.234809 0.034812 0.967952
O O17 0.500000 0.000000 0.000000
#
# Coordination Sequence:
#
# PCOD8035804 Si02
#       8
#     2   2   2   2   2   2   2   2
#     4  12  26  47  76 107 141 195 246 294 370 423
#     4  12  26  48  72 106 149 195 239 299 357 437
#     4  12  26  45  76 107 150 189 238 305 359 439
#     4  11  27  47  75 103 144 198 250 297 352 431
#     4  12  27  44  74 109 148 192 236 290 379 431
#     4  12  27  47  77 110 148 188 240 307 364 433
#     4  11  25  47  71 106 143 184 253 296 351 428
#     4  12  25  47  69 110 151 181 242 303 370 426
#
# _framework density 22.915378
#
# number of rings (size 3 to 8) (size 9 to 14) (size 15 to 20)
#    0.000    0.250    5.000    3.375    7.000    0.500 
#    0.000    1.250    0.000    0.000    0.000    0.000 
#    0.000    0.000    0.000    0.000    0.000    0.000 
#
# Total GULP energy -198379.203343 kJ/mol
# GULP energy per Si atom -12398.700209 kJ/mol
# Density = 2.286322 g / cm^3
# Si number density = 22.915378 Si / 1000 Ang^3
#
#
#
# Elastic Constant Matrix: (Units=GPa)
#
#
# Indices 1 2 3 4 5 6 
#
# 1 99.8986 32.8194 41.2546 3.4022 5.6003 3.4150
# 2 32.8194 110.5579 47.1041 4.4176 12.0655 4.2094
# 3 41.2546 47.1041 127.0788 9.9177 18.7658 -9.9543
# 4 3.4022 4.4176 9.9177 35.8078 1.4294 5.8564
# 5 5.6003 12.0655 18.7658 1.4294 42.7727 2.6022
# 6 3.4150 4.2094 -9.9543 5.8564 2.6022 36.3581
#
#
#
# Elastic Compliance Matrix: (Units=1/GPa)
#
#
# Indices 1 2 3 4 5 6 
#
# 1 0.012148 -0.002161 -0.003413 0.000348 0.000622 -0.001926
# 2 -0.002161 0.011387 -0.003500 0.000149 -0.001277 -0.002006
# 3 -0.003413 -0.003500 0.011425 -0.003012 -0.003758 0.004608
# 4 0.000348 0.000149 -0.003012 0.029616 0.000590 -0.005687
# 5 0.000622 -0.001277 -0.003758 0.000590 0.025461 -0.002857
# 6 -0.001926 -0.002006 0.004608 -0.005687 -0.002857 0.030299
#
#
# Mechanical properties :
#
#
# Convention : Reuss Voigt Hill
#
# Bulk Modulus (GPa) = 59.47149 64.43238 61.95193
# Shear Modulus (GPa) = 34.70075 37.41154 36.05615
#
# Velocity S-wave (km/s) = 3.89562 4.04492 3.97097
# Velocity P-wave (km/s) = 6.80026 7.07063 6.93676
#
# Compressibility (1/GPa) = 0.01681478
#
# Stress axis : x y z
#
# Youngs Moduli (GPa) = 82.31487 87.81728 87.52527
#
# Poissons Ratio (x) = 0.18975 0.29870
# Poissons Ratio (y) = 0.17786 0.30631
# Poissons Ratio (z) = 0.28092 0.30733
#
# Static dielectric constant tensor:
#      x y z
#    x 4.321190 -0.020520 -0.009850 
#    y -0.020520 4.702160 0.286030 
#    z -0.009850 0.286030 4.556810 
# 
# 
# High freq. dielectric constant tensor:
#      x y z
#    x 1.907190 0.010670 0.009100 
#    y 0.010670 1.900680 0.011280 
#    z 0.009100 0.011280 1.918630 
# 
# From -- ./inp_files/283394.got.cif
#   From: 2010.06.25/outbox.cif.g09.slc.cpg/sg2_142_cif.got.tgz:283394.got - 2010.06.27 13:26:56.
