data_PCOD8035628
_publ_section_title
;
Structure prediction by ZEFSAII (Michael W. Deem and Ramdas Pophale) SiO2 
 PCOD8035628
Probable space group: P -1
;
_chemical_formula_sum "Si O2"
_cell_formula_units_Z 16
_cell_length_a 12.347352
_cell_length_b 18.104648
_cell_length_c 9.624498
_cell_angle_alpha 135.565859
_cell_angle_beta 132.123936
_cell_angle_gamma 29.232285
_cell_volume 728.406753
_symmetry_space_group_name_H-M "P -1"
_symmetry_group_IT_number 2
_symmetry_cell_setting 'triclinic'
loop_
_space_group_symop_operation_xyz
x,y,z
-x,-y,-z
loop_
_atom_site_type_symbol
_atom_site_label
_atom_site_fract_x
_atom_site_fract_y
_atom_site_fract_z
Si Si1 0.633285 0.855688 0.309348
Si Si2 0.607755 0.428464 0.219504
Si Si3 0.818812 0.036917 0.307178
Si Si4 0.144605 0.523018 0.340023
Si Si5 0.827795 0.313427 0.963657
Si Si6 0.920874 0.620820 0.709622
Si Si7 0.510701 0.281093 0.123105
Si Si8 0.470054 0.953701 0.772302
O O1 0.884639 0.694392 0.354797
O O2 0.500000 0.000000 0.500000
O O3 0.668850 0.901546 0.260903
O O4 0.500415 0.819329 0.114286
O O5 0.724942 0.458860 0.440579
O O6 0.360501 0.606426 0.206547
O O7 0.602585 0.326180 0.170236
O O8 0.742637 0.325951 0.058708
O O9 0.680268 0.177329 0.260535
O O10 0.655057 0.085999 0.353082
O O11 0.000000 0.000000 0.500000
O O12 0.942641 0.873038 0.117179
O O13 0.166171 0.394990 0.252737
O O14 0.260188 0.447528 0.186743
O O15 0.876079 0.411874 0.125502
O O16 0.711500 0.798827 0.704487
O O17 0.000000 0.500000 0.500000
O O18 0.500000 0.000000 0.000000
#
# Coordination Sequence:
#
# PCOD8035628 Si02
#       8
#     2   2   2   2   2   2   2   2
#     4  12  28  46  73 107 143 188 240 294 360 421
#     4  11  27  45  70 103 146 185 234 292 361 435
#     4  12  27  44  74 105 142 190 240 291 362 424
#     4  12  25  45  73 106 139 184 236 291 356 418
#     4  11  25  46  70 104 141 187 236 294 360 422
#     4  12  22  42  75 101 138 181 236 292 348 417
#     4  12  26  48  70 106 146 185 238 293 357 426
#     4  12  24  47  72 105 141 185 241 297 346 424
#
# _framework density 21.965748999999999
#
# number of rings (size 3 to 8) (size 9 to 14) (size 15 to 20)
#    0.000    0.250    5.000    3.000    5.250    1.500 
#    0.000    0.000    0.000    0.000    0.000    0.000 
#    0.000    0.000    0.000    0.000    0.000    0.000 
#
# Total GULP energy -198424.940149 kJ/mol
# GULP energy per Si atom -12401.558759 kJ/mol
# Density = 2.191575 g / cm^3
# Si number density = 21.965749 Si / 1000 Ang^3
#
#
#
# Elastic Constant Matrix: (Units=GPa)
#
#
# Indices 1 2 3 4 5 6 
#
# 1 153.2930 34.0017 41.7497 -14.9248 13.3218 17.9713
# 2 34.0017 103.9207 37.2456 5.0886 4.1845 -8.4132
# 3 41.7497 37.2456 117.1898 -6.3036 10.1304 -6.0395
# 4 -14.9248 5.0886 -6.3036 30.9974 -11.2692 -2.0505
# 5 13.3218 4.1845 10.1304 -11.2692 34.1089 0.5292
# 6 17.9713 -8.4132 -6.0395 -2.0505 0.5292 39.6907
#
#
#
# Elastic Compliance Matrix: (Units=1/GPa)
#
#
# Indices 1 2 3 4 5 6 
#
# 1 0.008668 -0.002525 -0.002236 0.003384 -0.001222 -0.004609
# 2 -0.002525 0.011955 -0.002870 -0.003912 -0.000968 0.003051
# 3 -0.002236 -0.002870 0.010545 0.001105 -0.001574 0.002087
# 4 0.003384 -0.003912 0.001105 0.038995 0.011719 -0.000335
# 5 -0.001222 -0.000968 -0.001574 0.011719 0.034249 0.000258
# 6 -0.004609 0.003051 0.002087 -0.000335 0.000258 0.028225
#
#
# Mechanical properties :
#
#
# Convention : Reuss Voigt Hill
#
# Bulk Modulus (GPa) = 62.86062 66.71084 64.78573
# Shear Modulus (GPa) = 32.63711 38.38649 35.51180
#
# Velocity S-wave (km/s) = 3.85881 4.18492 4.02517
# Velocity P-wave (km/s) = 6.96661 7.33401 7.15267
#
# Compressibility (1/GPa) = 0.01590821
#
# Stress axis : x y z
#
# Youngs Moduli (GPa) = 115.36207 83.64885 94.83468
#
# Poissons Ratio (x) = 0.21118 0.21202
# Poissons Ratio (y) = 0.29124 0.27213
# Poissons Ratio (z) = 0.25791 0.24004
#
# Static dielectric constant tensor:
#      x y z
#    x 4.352780 -0.288650 0.066310 
#    y -0.288650 3.626050 -0.113770 
#    z 0.066310 -0.113770 3.980400 
# 
# 
# High freq. dielectric constant tensor:
#      x y z
#    x 1.875040 -0.004710 0.005890 
#    y -0.004710 1.875800 0.000820 
#    z 0.005890 0.000820 1.871870 
# 
# From -- ./inp_files/205085.got.cif
#   From: 2010.06.25/outbox.cif.g09.slc.cpg/sg2_103_cif.got.tgz:205085.got - 2010.06.27 13:26:56.
