data_PCOD8035304
_publ_section_title
;
Structure prediction by ZEFSAII (Michael W. Deem and Ramdas Pophale) SiO2 
 PCOD8035304
Probable space group: P -1
;
_chemical_formula_sum "Si O2"
_cell_formula_units_Z 16
_cell_length_a 14.869580
_cell_length_b 9.158841
_cell_length_c 8.992439
_cell_angle_alpha 114.931213
_cell_angle_beta 70.690177
_cell_angle_gamma 139.818351
_cell_volume 716.458602
_symmetry_space_group_name_H-M "P -1"
_symmetry_group_IT_number 2
_symmetry_cell_setting 'triclinic'
loop_
_space_group_symop_operation_xyz
x,y,z
-x,-y,-z
loop_
_atom_site_type_symbol
_atom_site_label
_atom_site_fract_x
_atom_site_fract_y
_atom_site_fract_z
Si Si1 0.645873 0.084115 0.133647
Si Si2 0.212677 0.616607 0.099149
Si Si3 0.851813 0.842937 0.432531
Si Si4 0.281235 0.145660 0.099895
Si Si5 0.984285 0.869039 0.094547
Si Si6 0.602275 0.321625 0.461564
Si Si7 0.616730 0.397465 0.825902
Si Si8 0.692033 0.947209 0.640837
O O1 0.650665 0.206346 0.325828
O O2 0.495696 0.813271 0.088511
O O3 0.678898 0.226890 0.029441
O O4 0.743073 0.042441 0.073025
O O5 0.242456 0.501612 0.141352
O O6 0.213760 0.777571 0.267585
O O7 0.061848 0.374141 0.017282
O O8 0.726696 0.597195 0.478061
O O9 0.797833 0.960504 0.500914
O O10 0.868336 0.802941 0.237767
O O11 0.000000 0.000000 0.500000
O O12 0.378494 0.402580 0.083575
O O13 0.351553 0.181116 0.231700
O O14 0.131360 0.038655 0.172022
O O15 0.000000 0.000000 0.000000
O O16 0.585056 0.289374 0.633367
O O17 0.453431 0.194424 0.422494
#
# Coordination Sequence:
#
# PCOD8035304 Si02
#       8
#     2   2   2   2   2   2   2   2
#     4  11  25  43  70 104 137 186 226 290 355 409
#     4  11  25  44  72  98 147 182 234 282 355 411
#     4  12  25  47  73  99 140 191 230 285 358 414
#     4  11  25  43  71 104 141 182 241 286 347 417
#     4  12  25  47  70 102 139 189 236 289 344 423
#     4  12  25  45  72 106 142 183 234 293 351 418
#     4  12  23  45  68 105 148 177 228 295 350 412
#     4  11  25  46  72 107 137 185 237 290 352 418
#
# _framework density 22.332066000000001
#
# number of rings (size 3 to 8) (size 9 to 14) (size 15 to 20)
#    0.000    0.500    6.250    1.500    1.750    4.000 
#    0.000    0.625    0.000    0.000    0.000    0.000 
#    0.000    0.000    0.000    0.000    0.000    0.000 
#
# Total GULP energy -198269.399858 kJ/mol
# GULP energy per Si atom -12391.837491 kJ/mol
# Density = 2.228124 g / cm^3
# Si number density = 22.332066 Si / 1000 Ang^3
#
#
#
# Elastic Constant Matrix: (Units=GPa)
#
#
# Indices 1 2 3 4 5 6 
#
# 1 75.5290 34.7213 57.7234 7.7358 -12.7249 -15.4512
# 2 34.7213 123.9702 50.4832 18.4087 0.1455 -11.3212
# 3 57.7234 50.4832 87.2813 6.3709 -13.2885 -1.6025
# 4 7.7358 18.4087 6.3709 30.9688 -5.9450 -2.4246
# 5 -12.7249 0.1455 -13.2885 -5.9450 40.1679 -0.3632
# 6 -15.4512 -11.3212 -1.6025 -2.4246 -0.3632 41.1948
#
#
#
# Elastic Compliance Matrix: (Units=1/GPa)
#
#
# Indices 1 2 3 4 5 6 
#
# 1 0.031613 0.000981 -0.020627 -0.002809 0.002873 0.011184
# 2 0.000981 0.012096 -0.007614 -0.006238 -0.003148 0.003001
# 3 -0.020627 -0.007614 0.029655 0.003641 0.003767 -0.008428
# 4 -0.002809 -0.006238 0.003641 0.037037 0.005815 -0.000395
# 5 0.002873 -0.003148 0.003767 0.005815 0.027932 0.000947
# 6 0.011184 0.003001 -0.008428 -0.000395 0.000947 0.028952
#
#
# Mechanical properties :
#
#
# Convention : Reuss Voigt Hill
#
# Bulk Modulus (GPa) = 53.06448 63.62625 58.34537
# Shear Modulus (GPa) = 21.92146 32.05649 26.98897
#
# Velocity S-wave (km/s) = 3.13647 3.79284 3.48016
# Velocity P-wave (km/s) = 6.07698 6.90896 6.50628
#
# Compressibility (1/GPa) = 0.01884500
#
# Stress axis : x y z
#
# Youngs Moduli (GPa) = 31.63279 82.66871 33.72070
#
# Poissons Ratio (x) = -0.08107 0.69554
# Poissons Ratio (y) = -0.03102 0.25675
# Poissons Ratio (z) = 0.65247 0.62944
#
# Static dielectric constant tensor:
#      x y z
#    x 4.334140 -0.128310 -0.333830 
#    y -0.128310 4.126330 0.130770 
#    z -0.333830 0.130770 4.136940 
# 
# 
# High freq. dielectric constant tensor:
#      x y z
#    x 1.872900 -0.011120 -0.008820 
#    y -0.011120 1.893340 0.008930 
#    z -0.008820 0.008930 1.880730 
# 
# From -- ./inp_files/206262.got.cif
#   From: 2010.06.25/outbox.cif.g09.slc.cpg/sg2_104_cif.got.tgz:206262.got - 2010.06.27 13:26:56.
