data_PCOD8035563
_publ_section_title
;
Structure prediction by ZEFSAII (Michael W. Deem and Ramdas Pophale) SiO2 
 PCOD8035563
Probable space group: P -1
;
_chemical_formula_sum "Si O2"
_cell_formula_units_Z 14
_cell_length_a 13.031312
_cell_length_b 11.278858
_cell_length_c 10.919976
_cell_angle_alpha 154.964188
_cell_angle_beta 118.388878
_cell_angle_gamma 62.850708
_cell_volume 596.123389
_symmetry_space_group_name_H-M "P -1"
_symmetry_group_IT_number 2
_symmetry_cell_setting 'triclinic'
loop_
_space_group_symop_operation_xyz
x,y,z
-x,-y,-z
loop_
_atom_site_type_symbol
_atom_site_label
_atom_site_fract_x
_atom_site_fract_y
_atom_site_fract_z
Si Si1 0.660705 0.040002 0.821119
Si Si2 0.280861 0.884701 0.337605
Si Si3 0.156307 0.378019 0.868139
Si Si4 0.103183 0.553330 0.273671
Si Si5 0.498834 0.435574 0.732036
Si Si6 0.573575 0.721612 0.812684
Si Si7 0.796733 0.961927 0.063695
O O1 0.722056 0.961613 0.652717
O O2 0.581923 0.790654 0.588765
O O3 0.586748 0.335684 0.032484
O O4 0.758871 0.075830 0.014963
O O5 0.411947 0.746065 0.301301
O O6 0.244609 0.110502 0.634294
O O7 0.189852 0.645577 0.059957
O O8 0.026005 0.302905 0.685780
O O9 0.161939 0.451700 0.083415
O O10 0.181944 0.779155 0.593532
O O11 0.094121 0.274572 0.094647
O O12 0.575614 0.620373 0.859759
O O13 0.500000 0.500000 0.500000
O O14 0.703406 0.757491 0.875979
O O15 0.500000 0.000000 0.000000
#
# Coordination Sequence:
#
# PCOD8035563 Si02
#       7
#     2   2   2   2   2   2   2
#     4  12  25  43  66 101 145 182 227 272 330 426
#     4  12  25  44  71  99 135 187 233 280 334 399
#     4  11  25  48  70 100 131 170 244 294 335 399
#     4  11  25  45  74  98 130 178 225 294 356 398
#     4  12  23  43  66  98 140 188 225 276 336 400
#     4  12  22  39  62  99 140 173 218 275 328 404
#     4  12  23  42  68 103 139 178 219 279 355 405
#
# _framework density 23.48507
#
# number of rings (size 3 to 8) (size 9 to 14) (size 15 to 20)
#    0.000    0.286    2.857    6.857    0.000    4.571 
#    0.000    4.286    0.000    0.000    0.000    0.000 
#    0.000    0.000    0.000    0.000    0.000    0.000 
#
# Total GULP energy -173537.145983 kJ/mol
# GULP energy per Si atom -12395.510427 kJ/mol
# Density = 2.343162 g / cm^3
# Si number density = 23.485070 Si / 1000 Ang^3
#
#
#
# Elastic Constant Matrix: (Units=GPa)
#
#
# Indices 1 2 3 4 5 6 
#
# 1 52.7670 45.8634 32.5433 -4.3293 -2.7873 -1.2043
# 2 45.8634 141.5794 53.3005 -5.2709 -5.2182 5.1448
# 3 32.5433 53.3005 166.8220 1.4983 -0.3263 -5.5509
# 4 -4.3293 -5.2709 1.4983 45.6707 -5.4673 -0.0308
# 5 -2.7873 -5.2182 -0.3263 -5.4673 36.0759 5.9829
# 6 -1.2043 5.1448 -5.5509 -0.0308 5.9829 27.1645
#
#
#
# Elastic Compliance Matrix: (Units=1/GPa)
#
#
# Indices 1 2 3 4 5 6 
#
# 1 0.027837 -0.007906 -0.002855 0.001935 0.000953 0.001940
# 2 -0.007906 0.010546 -0.001933 0.000710 0.001515 -0.003076
# 3 -0.002855 -0.001933 0.007238 -0.000835 -0.000878 0.001911
# 4 0.001935 0.000710 -0.000835 0.022649 0.003850 -0.001042
# 5 0.000953 0.001515 -0.000878 0.003850 0.029744 -0.006971
# 6 0.001940 -0.003076 0.001911 -0.001042 -0.006971 0.039406
#
#
# Mechanical properties :
#
#
# Convention : Reuss Voigt Hill
#
# Bulk Modulus (GPa) = 49.42424 69.39809 59.41116
# Shear Modulus (GPa) = 29.48927 37.07964 33.28445
#
# Velocity S-wave (km/s) = 3.54737 3.97780 3.76874
# Velocity P-wave (km/s) = 6.15379 7.12118 6.65509
#
# Compressibility (1/GPa) = 0.02023299
#
# Stress axis : x y z
#
# Youngs Moduli (GPa) = 35.92296 94.82266 138.15196
#
# Poissons Ratio (x) = 0.74967 0.39448
# Poissons Ratio (y) = 0.28401 0.26704
# Poissons Ratio (z) = 0.10257 0.18329
#
# Static dielectric constant tensor:
#      x y z
#    x 4.357960 -0.056960 0.122750 
#    y -0.056960 4.211390 0.131000 
#    z 0.122750 0.131000 4.336530 
# 
# 
# High freq. dielectric constant tensor:
#      x y z
#    x 1.906150 -0.009460 0.004350 
#    y -0.009460 1.942280 0.007810 
#    z 0.004350 0.007810 1.948530 
# 
# From -- ./inp_files/452722.got.cif
#   From: 2010.06.25/outbox.cif.g09.slc.cpg/sg2_227_cif.got.tgz:452722.got - 2010.06.27 13:26:56.
