data_PCOD8035676
_publ_section_title
;
Structure prediction by ZEFSAII (Michael W. Deem and Ramdas Pophale) SiO2 
 PCOD8035676
Probable space group: P -1
;
_chemical_formula_sum "Si O2"
_cell_formula_units_Z 14
_cell_length_a 15.768012
_cell_length_b 20.818721
_cell_length_c 11.421617
_cell_angle_alpha 149.318055
_cell_angle_beta 138.002767
_cell_angle_gamma 19.727460
_cell_volume 595.938183
_symmetry_space_group_name_H-M "P -1"
_symmetry_group_IT_number 2
_symmetry_cell_setting 'triclinic'
loop_
_space_group_symop_operation_xyz
x,y,z
-x,-y,-z
loop_
_atom_site_type_symbol
_atom_site_label
_atom_site_fract_x
_atom_site_fract_y
_atom_site_fract_z
Si Si1 0.538797 0.820811 0.246127
Si Si2 0.443883 0.233654 0.404381
Si Si3 0.278804 0.967345 0.983115
Si Si4 0.733308 0.067977 0.659427
Si Si5 0.211902 0.708701 0.873492
Si Si6 0.322201 0.572568 0.516693
Si Si7 0.890070 0.710930 0.883450
O O1 0.502762 0.826435 0.080750
O O2 0.301150 0.957201 0.285295
O O3 0.826638 0.522625 0.125548
O O4 0.500000 0.000000 0.500000
O O5 0.545927 0.148285 0.508913
O O6 0.386195 0.428456 0.618631
O O7 0.179388 0.375737 0.344686
O O8 0.671485 0.974004 0.149650
O O9 0.104867 0.224839 0.137939
O O10 0.471647 0.723518 0.706194
O O11 0.076520 0.055754 0.988000
O O12 0.650522 0.289888 0.921807
O O13 0.047983 0.771802 0.479634
O O14 0.205376 0.744562 0.782943
O O15 0.500000 0.500000 0.500000
#
# Coordination Sequence:
#
# PCOD8035676 Si02
#       7
#     2   2   2   2   2   2   2
#     4  12  26  45  75 110 146 196 249 300 369 437
#     4  11  25  46  72 104 149 193 248 306 363 437
#     4  12  24  46  77 106 147 198 241 303 373 427
#     4  12  25  44  71 109 146 189 247 303 366 445
#     4  12  24  46  71 108 146 189 244 301 371 441
#     4  12  24  45  71 106 147 190 240 301 368 434
#     4  11  26  49  71 108 150 194 252 307 358 434
#
# _framework density 23.492369
#
# number of rings (size 3 to 8) (size 9 to 14) (size 15 to 20)
#    0.000    0.286    4.286    5.143    0.000    1.714 
#    0.000    5.714    0.000    0.000    0.000    0.000 
#    0.000    0.000    0.000    0.000    0.000    0.000 
#
# Total GULP energy -173549.457456 kJ/mol
# GULP energy per Si atom -12396.389818 kJ/mol
# Density = 2.343890 g / cm^3
# Si number density = 23.492369 Si / 1000 Ang^3
#
#
#
# Elastic Constant Matrix: (Units=GPa)
#
#
# Indices 1 2 3 4 5 6 
#
# 1 111.5332 29.0879 35.4783 -2.6879 4.3806 -3.6067
# 2 29.0879 111.8662 26.8351 -1.6983 -3.2294 4.2417
# 3 35.4783 26.8351 119.0926 -0.4919 4.1873 -9.8728
# 4 -2.6879 -1.6983 -0.4919 41.0172 0.8096 -3.6893
# 5 4.3806 -3.2294 4.1873 0.8096 44.5208 -1.1908
# 6 -3.6067 4.2417 -9.8728 -3.6893 -1.1908 40.1406
#
#
#
# Elastic Compliance Matrix: (Units=1/GPa)
#
#
# Indices 1 2 3 4 5 6 
#
# 1 0.010399 -0.002135 -0.002534 0.000632 -0.000936 0.000567
# 2 -0.002135 0.010020 -0.001796 0.000084 0.001060 -0.001653
# 3 -0.002534 -0.001796 0.009778 0.000103 -0.000739 0.002355
# 4 0.000632 0.000084 0.000103 0.024644 -0.000452 0.002325
# 5 -0.000936 0.001060 -0.000739 -0.000452 0.022715 0.000254
# 6 0.000567 -0.001653 0.002355 0.002325 0.000254 0.025938
#
#
# Mechanical properties :
#
#
# Convention : Reuss Voigt Hill
#
# Bulk Modulus (GPa) = 57.91430 58.36608 58.14019
# Shear Modulus (GPa) = 40.92308 41.87509 41.39908
#
# Velocity S-wave (km/s) = 4.17822 4.22654 4.20245
# Velocity P-wave (km/s) = 6.92695 6.97975 6.95340
#
# Compressibility (1/GPa) = 0.01726689
#
# Stress axis : x y z
#
# Youngs Moduli (GPa) = 96.16059 99.80314 102.26968
#
# Poissons Ratio (x) = 0.21308 0.25919
# Poissons Ratio (y) = 0.20531 0.18364
# Poissons Ratio (z) = 0.24371 0.17921
#
# Static dielectric constant tensor:
#      x y z
#    x 4.189260 0.024820 0.176280 
#    y 0.024820 4.459210 -0.123100 
#    z 0.176280 -0.123100 4.212810 
# 
# 
# High freq. dielectric constant tensor:
#      x y z
#    x 1.939310 0.000140 -0.000600 
#    y 0.000140 1.925480 0.005700 
#    z -0.000600 0.005700 1.948510 
# 
# From -- ./inp_files/457642.got.cif
#   From: 2010.06.25/outbox.cif.g09.slc.cpg/sg2_229_cif.got.tgz:457642.got - 2010.06.27 13:26:56.
