data_PCOD8035850
_publ_section_title
;
Structure prediction by ZEFSAII (Michael W. Deem and Ramdas Pophale) SiO2 
 PCOD8035850
Probable space group: P -1
;
_chemical_formula_sum "Si O2"
_cell_formula_units_Z 14
_cell_length_a 11.577913
_cell_length_b 9.596874
_cell_length_c 9.509303
_cell_angle_alpha 144.453454
_cell_angle_beta 103.094002
_cell_angle_gamma 75.091579
_cell_volume 593.310566
_symmetry_space_group_name_H-M "P -1"
_symmetry_group_IT_number 2
_symmetry_cell_setting 'triclinic'
loop_
_space_group_symop_operation_xyz
x,y,z
-x,-y,-z
loop_
_atom_site_type_symbol
_atom_site_label
_atom_site_fract_x
_atom_site_fract_y
_atom_site_fract_z
Si Si1 0.442830 0.243241 0.269888
Si Si2 0.437719 0.894602 0.218628
Si Si3 0.680565 0.843698 0.358267
Si Si4 0.002657 0.194055 0.041472
Si Si5 0.750826 0.396406 0.191059
Si Si6 0.195553 0.510028 0.402483
Si Si7 0.114304 0.979743 0.613588
O O1 0.500000 0.500000 0.500000
O O2 0.307454 0.309799 0.229078
O O3 0.442258 0.156130 0.360288
O O4 0.500000 0.000000 0.000000
O O5 0.573021 0.759645 0.165774
O O6 0.374751 0.917885 0.374191
O O7 0.365697 0.735794 0.968294
O O8 0.726632 0.665399 0.349215
O O9 0.788135 0.877619 0.313590
O O10 0.070911 0.403620 0.296614
O O11 0.864775 0.279838 0.035570
O O12 0.074560 0.099916 0.847627
O O13 0.000000 0.000000 0.000000
O O14 0.779609 0.374825 0.345935
O O15 0.176913 0.708639 0.436816
O O16 0.000000 0.000000 0.500000
#
# Coordination Sequence:
#
# PCOD8035850 Si02
#       7
#     2   2   2   2   2   2   2
#     4  12  27  47  79 114 156 204 265 329 393 472
#     4  11  25  47  74 108 152 204 260 322 397 466
#     4  11  26  45  73 107 156 200 259 321 397 470
#     4  12  27  45  79 109 149 199 264 325 393 472
#     4  12  24  47  77 107 150 209 261 318 395 475
#     4  12  27  47  78 109 151 203 262 326 395 476
#     4  12  28  49  75 114 157 200 262 328 398 467
#
# _framework density 23.596409999999999
#
# number of rings (size 3 to 8) (size 9 to 14) (size 15 to 20)
#    0.000    0.286    2.857    5.143    6.000    3.429 
#    0.000    0.000    0.000    0.000    0.000    0.000 
#    0.000    0.000    0.000    0.000    0.000    0.000 
#
# Total GULP energy -173546.204222 kJ/mol
# GULP energy per Si atom -12396.157444 kJ/mol
# Density = 2.354270 g / cm^3
# Si number density = 23.596410 Si / 1000 Ang^3
#
#
#
# Elastic Constant Matrix: (Units=GPa)
#
#
# Indices 1 2 3 4 5 6 
#
# 1 166.6768 56.5709 54.5884 -8.8256 -1.8801 -3.9652
# 2 56.5709 141.4470 34.6878 -5.6771 -2.1154 -3.5419
# 3 54.5884 34.6878 105.4053 -7.5282 3.4738 10.2031
# 4 -8.8256 -5.6771 -7.5282 36.3253 -3.4413 -0.9449
# 5 -1.8801 -2.1154 3.4738 -3.4413 48.8967 1.1135
# 6 -3.9652 -3.5419 10.2031 -0.9449 1.1135 53.5176
#
#
#
# Elastic Compliance Matrix: (Units=1/GPa)
#
#
# Indices 1 2 3 4 5 6 
#
# 1 0.007980 -0.002275 -0.003440 0.000946 0.000494 0.001103
# 2 -0.002275 0.008425 -0.001642 0.000481 0.000412 0.000702
# 3 -0.003440 -0.001642 0.012186 0.001277 -0.000919 -0.002645
# 4 0.000946 0.000481 0.001277 0.028292 0.001950 0.000317
# 5 0.000494 0.000412 -0.000919 0.001950 0.020694 -0.000157
# 6 0.001103 0.000702 -0.002645 0.000317 -0.000157 0.019327
#
#
# Mechanical properties :
#
#
# Convention : Reuss Voigt Hill
#
# Bulk Modulus (GPa) = 72.05034 78.35815 75.20425
# Shear Modulus (GPa) = 43.01304 45.59339 44.30322
#
# Velocity S-wave (km/s) = 4.27413 4.40047 4.33776
# Velocity P-wave (km/s) = 7.41339 7.68756 7.55172
#
# Compressibility (1/GPa) = 0.01387918
#
# Stress axis : x y z
#
# Youngs Moduli (GPa) = 125.30917 118.68979 82.05910
#
# Poissons Ratio (x) = 0.27004 0.28225
# Poissons Ratio (y) = 0.28510 0.13470
# Poissons Ratio (z) = 0.43102 0.19484
#
# Static dielectric constant tensor:
#      x y z
#    x 4.348220 -0.413620 0.284450 
#    y -0.413620 4.440680 0.159460 
#    z 0.284450 0.159460 3.827970 
# 
# 
# High freq. dielectric constant tensor:
#      x y z
#    x 1.959360 -0.005570 -0.002580 
#    y -0.005570 1.949430 -0.004150 
#    z -0.002580 -0.004150 1.921870 
# 
# From -- ./inp_files/84431.got.cif
#   From: 2010.06.25/outbox.cif.g09.slc.cpg/sg2_43_cif.got.tgz:84431.got - 2010.06.27 13:26:56.
