data_PCOD8035959
_publ_section_title
;
Structure prediction by ZEFSAII (Michael W. Deem and Ramdas Pophale) SiO2 
 PCOD8035959
Probable space group: P -1
;
_chemical_formula_sum "Si O2"
_cell_formula_units_Z 16
_cell_length_a 18.066172
_cell_length_b 9.379626
_cell_length_c 6.893780
_cell_angle_alpha 130.682951
_cell_angle_beta 58.349725
_cell_angle_gamma 106.987971
_cell_volume 751.850157
_symmetry_space_group_name_H-M "P -1"
_symmetry_group_IT_number 2
_symmetry_cell_setting 'triclinic'
loop_
_space_group_symop_operation_xyz
x,y,z
-x,-y,-z
loop_
_atom_site_type_symbol
_atom_site_label
_atom_site_fract_x
_atom_site_fract_y
_atom_site_fract_z
Si Si1 0.268708 0.488934 0.330978
Si Si2 0.003490 0.205800 0.250244
Si Si3 0.174481 0.634632 0.206589
Si Si4 0.545923 0.688091 0.151908
Si Si5 0.062424 0.371272 0.937061
Si Si6 0.275322 0.823005 0.912640
Si Si7 0.537564 0.034142 0.188561
Si Si8 0.848006 0.825287 0.679595
O O1 0.214607 0.583326 0.312957
O O2 0.295754 0.651808 0.583614
O O3 0.215182 0.343649 0.394734
O O4 0.352063 0.370231 0.022250
O O5 0.092254 0.217898 0.255260
O O6 0.919777 0.254405 0.539847
O O7 0.005657 0.340041 0.178595
O O8 0.000000 0.000000 0.000000
O O9 0.153130 0.456869 0.947704
O O10 0.241218 0.755705 0.106640
O O11 0.514518 0.782172 0.482157
O O12 0.524289 0.843281 0.153905
O O13 0.500000 0.500000 0.000000
O O14 0.094058 0.182736 0.605245
O O15 0.000000 0.500000 0.000000
O O16 0.361208 0.928991 0.930061
O O17 0.202693 0.970408 0.047986
O O18 0.500000 0.000000 0.000000
#
# Coordination Sequence:
#
# PCOD8035959 Si02
#       8
#     2   2   2   2   2   2   2   2
#     4  12  25  47  71 103 142 182 236 289 349 418
#     4  12  26  44  65  98 137 190 237 283 351 412
#     4  12  26  42  69 102 135 185 236 287 345 414
#     4  11  25  48  77 104 144 192 224 288 365 423
#     4  12  24  42  67  94 136 185 233 286 348 406
#     4  12  27  45  70 107 139 181 236 292 349 417
#     4  11  27  48  74 110 147 180 234 289 355 437
#     4  12  25  45  71  97 144 184 234 295 345 410
#
# _framework density 21.280835
#
# number of rings (size 3 to 8) (size 9 to 14) (size 15 to 20)
#    0.000    0.250    6.250    2.625    3.500    3.500 
#    2.250    0.000    0.000    0.000    0.000    0.000 
#    0.000    0.000    0.000    0.000    0.000    0.000 
#
# Total GULP energy -198440.277951 kJ/mol
# GULP energy per Si atom -12402.517372 kJ/mol
# Density = 2.123240 g / cm^3
# Si number density = 21.280835 Si / 1000 Ang^3
#
#
#
# Elastic Constant Matrix: (Units=GPa)
#
#
# Indices 1 2 3 4 5 6 
#
# 1 92.3888 15.5271 48.2742 0.6978 3.4730 2.5147
# 2 15.5271 87.7301 46.1057 -1.9076 6.9159 6.6248
# 3 48.2742 46.1057 138.1930 1.4786 -5.4598 0.4255
# 4 0.6978 -1.9076 1.4786 40.0390 -0.8712 0.2644
# 5 3.4730 6.9159 -5.4598 -0.8712 40.3279 4.2265
# 6 2.5147 6.6248 0.4255 0.2644 4.2265 33.4563
#
#
#
# Elastic Compliance Matrix: (Units=1/GPa)
#
#
# Indices 1 2 3 4 5 6 
#
# 1 0.013397 0.000394 -0.004879 -0.000068 -0.001800 -0.000795
# 2 0.000394 0.014425 -0.005067 0.000820 -0.002918 -0.002459
# 3 -0.004879 -0.005067 0.010738 -0.000501 0.002637 0.000904
# 4 -0.000068 0.000820 -0.000501 0.025045 0.000380 -0.000397
# 5 -0.001800 -0.002918 0.002637 0.000380 0.026092 -0.002620
# 6 -0.000795 -0.002459 0.000904 -0.000397 -0.002620 0.030759
#
#
# Mechanical properties :
#
#
# Convention : Reuss Voigt Hill
#
# Bulk Modulus (GPa) = 51.39947 59.79177 55.59562
# Shear Modulus (GPa) = 34.23577 36.65831 35.44704
#
# Velocity S-wave (km/s) = 4.01529 4.15492 4.08570
# Velocity P-wave (km/s) = 6.76033 7.15370 6.95979
#
# Compressibility (1/GPa) = 0.01945545
#
# Stress axis : x y z
#
# Youngs Moduli (GPa) = 74.64426 69.32260 93.12872
#
# Poissons Ratio (x) = -0.02728 0.45438
# Poissons Ratio (y) = -0.02937 0.47186
# Poissons Ratio (z) = 0.36419 0.35124
#
# Static dielectric constant tensor:
#      x y z
#    x 3.809120 0.202120 -0.138520 
#    y 0.202120 3.874060 0.080490 
#    z -0.138520 0.080490 4.092830 
# 
# 
# High freq. dielectric constant tensor:
#      x y z
#    x 1.837830 0.005780 -0.000360 
#    y 0.005780 1.840990 0.001240 
#    z -0.000360 0.001240 1.853100 
# 
# From -- ./inp_files/48426.got.cif
#   From: 2010.06.25/outbox.cif.g09.slc.cpg/sg2_25_cif.got.tgz:48426.got - 2010.06.27 13:26:56.
