data_PCOD8035741
_publ_section_title
;
Structure prediction by ZEFSAII (Michael W. Deem and Ramdas Pophale) SiO2 
 PCOD8035741
Probable space group: P -1
;
_chemical_formula_sum "Si O2"
_cell_formula_units_Z 14
_cell_length_a 8.227118
_cell_length_b 8.211055
_cell_length_c 17.692913
_cell_angle_alpha 69.966993
_cell_angle_beta 115.728495
_cell_angle_gamma 55.643754
_cell_volume 544.949213
_symmetry_space_group_name_H-M "P -1"
_symmetry_group_IT_number 2
_symmetry_cell_setting 'triclinic'
loop_
_space_group_symop_operation_xyz
x,y,z
-x,-y,-z
loop_
_atom_site_type_symbol
_atom_site_label
_atom_site_fract_x
_atom_site_fract_y
_atom_site_fract_z
Si Si1 0.100576 0.681715 0.482553
Si Si2 0.133866 0.583398 0.023016
Si Si3 0.788419 0.151416 0.773376
Si Si4 0.283812 0.359844 0.816379
Si Si5 0.220965 0.269996 0.466781
Si Si6 0.971217 0.708245 0.125445
Si Si7 0.796810 0.193649 0.228217
O O1 0.394293 0.502079 0.627880
O O2 0.254704 0.428820 0.489161
O O3 0.799642 0.849009 0.448026
O O4 0.966037 0.958012 0.369133
O O5 0.499533 0.328897 0.102013
O O6 0.857395 0.947468 0.882434
O O7 0.000000 0.500000 0.000000
O O8 0.240776 0.515525 0.144088
O O9 0.982838 0.172825 0.826014
O O10 0.927893 0.973427 0.750111
O O11 0.008720 0.494143 0.796812
O O12 0.347299 0.510620 0.816233
O O13 0.145252 0.434408 0.693019
O O14 0.629532 0.982532 0.962380
O O15 0.500000 0.000000 0.500000
#
# Coordination Sequence:
#
# PCOD8035741 Si02
#       7
#     2   2   2   2   2   2   2
#     4  11  28  48  77 110 155 197 250 313 376 444
#     4  12  28  43  74 108 150 195 250 306 372 449
#     4  12  25  50  74 107 151 194 247 307 375 448
#     4  11  25  46  75 104 147 193 254 306 375 447
#     4  11  26  49  78 109 151 204 251 304 374 454
#     4  11  26  45  74 106 145 197 246 311 373 444
#     4  12  27  47  73 112 146 198 249 309 377 444
#
# _framework density 25.690465
#
# number of rings (size 3 to 8) (size 9 to 14) (size 15 to 20)
#    0.000    0.571    1.429    4.714   14.000    1.714 
#    0.000    0.000    0.000    0.000    0.000    0.000 
#    0.000    0.000    0.000    0.000    0.000    0.000 
#
# Total GULP energy -173518.014369 kJ/mol
# GULP energy per Si atom -12394.143884 kJ/mol
# Density = 2.563199 g / cm^3
# Si number density = 25.690465 Si / 1000 Ang^3
#
#
#
# Elastic Constant Matrix: (Units=GPa)
#
#
# Indices 1 2 3 4 5 6 
#
# 1 136.2035 34.0148 34.8739 4.0612 -19.1354 28.0944
# 2 34.0148 86.1699 9.9712 7.9700 -6.6927 -3.1623
# 3 34.8739 9.9712 105.6246 15.5156 -4.8151 25.1193
# 4 4.0612 7.9700 15.5156 31.5156 0.8464 -2.1651
# 5 -19.1354 -6.6927 -4.8151 0.8464 53.6109 1.4482
# 6 28.0944 -3.1623 25.1193 -2.1651 1.4482 43.8505
#
#
#
# Elastic Compliance Matrix: (Units=1/GPa)
#
#
# Indices 1 2 3 4 5 6 
#
# 1 0.010444 -0.003919 -0.001407 -0.000182 0.003285 -0.006286
# 2 -0.003919 0.013583 -0.000486 -0.002446 0.000194 0.003642
# 3 -0.001407 -0.000486 0.012530 -0.006344 0.000842 -0.006652
# 4 -0.000182 -0.002446 -0.006344 0.035911 -0.001653 0.005402
# 5 0.003285 0.000194 0.000842 -0.001653 0.020041 -0.003317
# 6 -0.006286 0.003642 -0.006652 0.005402 -0.003317 0.031281
#
#
# Mechanical properties :
#
#
# Convention : Reuss Voigt Hill
#
# Bulk Modulus (GPa) = 40.10708 53.96863 47.03785
# Shear Modulus (GPa) = 34.78825 42.40462 38.59643
#
# Velocity S-wave (km/s) = 3.68384 4.06716 3.88024
# Velocity P-wave (km/s) = 5.80860 6.56571 6.19873
#
# Compressibility (1/GPa) = 0.02493325
#
# Stress axis : x y z
#
# Youngs Moduli (GPa) = 95.74597 73.62145 79.80603
#
# Poissons Ratio (x) = 0.28850 0.11230
# Poissons Ratio (y) = 0.37519 0.03882
# Poissons Ratio (z) = 0.13473 0.03581
#
# Static dielectric constant tensor:
#      x y z
#    x 4.921970 -0.405780 -0.126990 
#    y -0.405780 4.483070 0.242610 
#    z -0.126990 0.242610 4.632530 
# 
# 
# High freq. dielectric constant tensor:
#      x y z
#    x 2.050960 -0.012980 -0.003000 
#    y -0.012980 2.011750 0.015140 
#    z -0.003000 0.015140 2.035240 
# 
# From -- ./inp_files/555212.got.cif
#   From: 2010.06.25/outbox.cif.g09.slc.cpg/sg2_278_cif.got.tgz:555212.got - 2010.06.27 13:26:56.
