data_PCOD8035374
_publ_section_title
;
Structure prediction by ZEFSAII (Michael W. Deem and Ramdas Pophale) SiO2 
 PCOD8035374
Probable space group: P -1
;
_chemical_formula_sum "Si O2"
_cell_formula_units_Z 14
_cell_length_a 9.590924
_cell_length_b 9.256644
_cell_length_c 19.327866
_cell_angle_alpha 144.399908
_cell_angle_beta 45.677687
_cell_angle_gamma 137.318494
_cell_volume 654.629937
_symmetry_space_group_name_H-M "P -1"
_symmetry_group_IT_number 2
_symmetry_cell_setting 'triclinic'
loop_
_space_group_symop_operation_xyz
x,y,z
-x,-y,-z
loop_
_atom_site_type_symbol
_atom_site_label
_atom_site_fract_x
_atom_site_fract_y
_atom_site_fract_z
Si Si1 0.369451 0.881003 0.930163
Si Si2 0.552262 0.879809 0.253343
Si Si3 0.924638 0.823996 0.025402
Si Si4 0.690951 0.238893 0.469592
Si Si5 0.457127 0.521621 0.270740
Si Si6 0.305057 0.803633 0.173061
Si Si7 0.088050 0.171573 0.343083
O O1 0.358320 0.575216 0.807313
O O2 0.485400 0.060242 0.893600
O O3 0.130668 0.856819 0.011533
O O4 0.500000 0.000000 0.000000
O O5 0.780938 0.937461 0.163680
O O6 0.474946 0.600204 0.214769
O O7 0.377197 0.857190 0.248490
O O8 0.568264 0.119202 0.394299
O O9 0.792593 0.513318 0.930631
O O10 0.000000 0.000000 0.000000
O O11 0.533665 0.226511 0.584761
O O12 0.838258 0.558294 0.528492
O O13 0.839993 0.076081 0.372896
O O14 0.231722 0.263151 0.259122
O O15 0.130311 0.929747 0.270927
#
# Coordination Sequence:
#
# PCOD8035374 Si02
#       7
#     2   2   2   2   2   2   2
#     4  11  25  44  70  97 129 177 223 277 326 397
#     4  12  24  39  71  95 136 181 215 273 336 395
#     4  12  28  44  66 100 138 171 221 283 333 391
#     4   9  20  41  69  97 131 174 223 265 333 386
#     4   9  21  40  66  97 132 165 223 270 321 391
#     4  11  25  46  63 101 135 171 223 274 334 390
#     4   8  20  42  66  93 137 164 225 274 314 398
#
# _framework density 21.386126999999998
#
# number of rings (size 3 to 8) (size 9 to 14) (size 15 to 20)
#    0.857    0.857    1.429    1.714    8.000    1.714 
#    0.000    0.714    0.000    0.000    0.000    0.000 
#    0.000    0.000    0.000    0.000    0.000    0.000 
#
# Total GULP energy -173551.861756 kJ/mol
# GULP energy per Si atom -12396.561554 kJ/mol
# Density = 2.133745 g / cm^3
# Si number density = 21.386127 Si / 1000 Ang^3
#
#
#
# Elastic Constant Matrix: (Units=GPa)
#
#
# Indices 1 2 3 4 5 6 
#
# 1 97.6891 28.9724 35.5299 -10.3183 10.5116 -3.4873
# 2 28.9724 83.1281 20.5680 -6.7116 4.3622 -26.3662
# 3 35.5299 20.5680 95.2191 -9.7718 0.5041 -8.6217
# 4 -10.3183 -6.7116 -9.7718 31.1241 -1.0644 0.3057
# 5 10.5116 4.3622 0.5041 -1.0644 44.2731 -1.9441
# 6 -3.4873 -26.3662 -8.6217 0.3057 -1.9441 32.4685
#
#
#
# Elastic Compliance Matrix: (Units=1/GPa)
#
#
# Indices 1 2 3 4 5 6 
#
# 1 0.013467 -0.004442 -0.004143 0.002144 -0.002812 -0.003449
# 2 -0.004442 0.018490 -0.000825 0.002113 -0.000079 0.014294
# 3 -0.004143 -0.000825 0.012679 0.002444 0.001080 0.002293
# 4 0.002144 0.002113 0.002444 0.034046 0.000174 0.002285
# 5 -0.002812 -0.000079 0.001080 0.000174 0.023312 0.001315
# 6 -0.003449 0.014294 0.002293 0.002285 0.001315 0.042703
#
#
# Mechanical properties :
#
#
# Convention : Reuss Voigt Hill
#
# Bulk Modulus (GPa) = 38.73515 49.57521 44.15518
# Shear Modulus (GPa) = 29.04909 34.30420 31.67665
#
# Velocity S-wave (km/s) = 3.68953 4.00939 3.85278
# Velocity P-wave (km/s) = 6.02510 6.68319 6.36265
#
# Compressibility (1/GPa) = 0.02581634
#
# Stress axis : x y z
#
# Youngs Moduli (GPa) = 74.25788 54.08200 78.87102
#
# Poissons Ratio (x) = 0.24022 0.32675
# Poissons Ratio (y) = 0.32984 0.06508
# Poissons Ratio (z) = 0.30764 0.04463
#
# Static dielectric constant tensor:
#      x y z
#    x 3.742800 -0.035490 -0.266370 
#    y -0.035490 3.878160 0.024790 
#    z -0.266370 0.024790 4.087750 
# 
# 
# High freq. dielectric constant tensor:
#      x y z
#    x 1.825910 0.001300 -0.010220 
#    y 0.001300 1.844730 0.006370 
#    z -0.010220 0.006370 1.848120 
# 
# From -- ./inp_files/555677.got.cif
#   From: 2010.06.25/outbox.cif.g09.slc.cpg/sg2_278_cif.got.tgz:555677.got - 2010.06.27 13:26:56.
