data_PCOD8035723
_publ_section_title
;
Structure prediction by ZEFSAII (Michael W. Deem and Ramdas Pophale) SiO2 
 PCOD8035723
Probable space group: P -1
;
_chemical_formula_sum "Si O2"
_cell_formula_units_Z 12
_cell_length_a 14.122604
_cell_length_b 9.109935
_cell_length_c 5.197576
_cell_angle_alpha 112.104499
_cell_angle_beta 76.045388
_cell_angle_gamma 61.791417
_cell_volume 468.580923
_symmetry_space_group_name_H-M "P -1"
_symmetry_group_IT_number 2
_symmetry_cell_setting 'triclinic'
loop_
_space_group_symop_operation_xyz
x,y,z
-x,-y,-z
loop_
_atom_site_type_symbol
_atom_site_label
_atom_site_fract_x
_atom_site_fract_y
_atom_site_fract_z
Si Si1 0.693387 0.734817 0.079645
Si Si2 0.433635 0.950944 0.208856
Si Si3 0.423077 0.616355 0.872322
Si Si4 0.077979 0.098284 0.744313
Si Si5 0.115377 0.264585 0.321162
Si Si6 0.820913 0.298319 0.836813
O O1 0.559035 0.783316 0.182296
O O2 0.679452 0.860245 0.423983
O O3 0.747094 0.787673 0.838929
O O4 0.802371 0.493933 0.869974
O O5 0.380554 0.843555 0.051618
O O6 0.500000 0.000000 0.000000
O O7 0.500000 0.500000 0.500000
O O8 0.500000 0.500000 0.000000
O O9 0.304957 0.627248 0.895901
O O10 0.106411 0.195965 0.562386
O O11 0.932763 0.194765 0.899472
O O12 0.154559 0.857005 0.504155
O O13 0.110719 0.132853 0.022772
O O14 0.000000 0.500000 0.500000
#
# Coordination Sequence:
#
# PCOD8035723 Si02
#       6
#     2   2   2   2   2   2
#     4  11  25  46  74 105 147 189 242 305 358 433
#     4  11  26  46  73 108 143 192 246 296 368 429
#     4  12  27  47  74 106 145 190 237 298 366 428
#     4  11  28  49  74 107 146 195 243 297 359 431
#     4  12  26  48  75 107 145 192 244 297 361 425
#     4  11  25  49  74 105 148 192 242 298 363 430
#
# _framework density 25.609241000000001
#
# number of rings (size 3 to 8) (size 9 to 14) (size 15 to 20)
#    0.000    0.667    3.333    2.500    7.000    6.667 
#    3.000    0.000    0.000    0.000    0.000    0.000 
#    0.000    0.000    0.000    0.000    0.000    0.000 
#
# Total GULP energy -148752.300182 kJ/mol
# GULP energy per Si atom -12396.025015 kJ/mol
# Density = 2.555095 g / cm^3
# Si number density = 25.609241 Si / 1000 Ang^3
#
#
#
# Elastic Constant Matrix: (Units=GPa)
#
#
# Indices 1 2 3 4 5 6 
#
# 1 119.6463 -2.0588 29.5390 -9.3934 -21.4085 20.1996
# 2 -2.0588 77.7717 41.1547 11.4236 1.5565 22.6022
# 3 29.5390 41.1547 126.7910 5.5786 -2.3915 11.4604
# 4 -9.3934 11.4236 5.5786 51.7428 8.6668 3.7830
# 5 -21.4085 1.5565 -2.3915 8.6668 54.8818 0.9428
# 6 20.1996 22.6022 11.4604 3.7830 0.9428 35.1311
#
#
#
# Elastic Compliance Matrix: (Units=1/GPa)
#
#
# Indices 1 2 3 4 5 6 
#
# 1 0.011541 0.004229 -0.003273 0.001443 0.004158 -0.008555
# 2 0.004229 0.020501 -0.006304 -0.002336 0.001392 -0.013351
# 3 -0.003273 -0.006304 0.010469 -0.000416 -0.000620 0.002584
# 4 0.001443 -0.002336 -0.000416 0.020689 -0.002633 -0.001349
# 5 0.004158 0.001392 -0.000620 -0.002633 0.020250 -0.003344
# 6 -0.008555 -0.013351 0.002584 -0.001349 -0.003344 0.041365
#
#
# Mechanical properties :
#
#
# Convention : Reuss Voigt Hill
#
# Bulk Modulus (GPa) = 31.43263 51.27542 41.35402
# Shear Modulus (GPa) = 34.21963 45.38940 39.80452
#
# Velocity S-wave (km/s) = 3.65940 4.21454 3.94674
# Velocity P-wave (km/s) = 5.49141 6.61429 6.07883
#
# Compressibility (1/GPa) = 0.03181407
#
# Stress axis : x y z
#
# Youngs Moduli (GPa) = 86.65103 48.77778 95.52279
#
# Poissons Ratio (x) = -0.20626 0.31264
# Poissons Ratio (y) = -0.36642 0.60216
# Poissons Ratio (z) = 0.28361 0.30749
#
# Static dielectric constant tensor:
#      x y z
#    x 5.976320 -0.305910 -0.515530 
#    y -0.305910 4.793640 0.417860 
#    z -0.515530 0.417860 4.721410 
# 
# 
# High freq. dielectric constant tensor:
#      x y z
#    x 2.045530 0.009180 -0.014100 
#    y 0.009180 2.024290 0.016590 
#    z -0.014100 0.016590 2.029880 
# 
# From -- ./inp_files/25451.got.cif
#   From: 2010.06.25/outbox.cif.g09.slc.cpg/sg2_13_cif.got.tgz:25451.got - 2010.06.27 13:26:56.
