data_PCOD8035106
_publ_section_title
;
Structure prediction by ZEFSAII (Michael W. Deem and Ramdas Pophale) SiO2 
 PCOD8035106
Probable space group: P -1
;
_chemical_formula_sum "Si O2"
_cell_formula_units_Z 12
_cell_length_a 13.949582
_cell_length_b 8.195191
_cell_length_c 9.155483
_cell_angle_alpha 78.528131
_cell_angle_beta 37.019489
_cell_angle_gamma 63.151855
_cell_volume 536.166395
_symmetry_space_group_name_H-M "P -1"
_symmetry_group_IT_number 2
_symmetry_cell_setting 'triclinic'
loop_
_space_group_symop_operation_xyz
x,y,z
-x,-y,-z
loop_
_atom_site_type_symbol
_atom_site_label
_atom_site_fract_x
_atom_site_fract_y
_atom_site_fract_z
Si Si1 0.854186 0.972474 0.275165
Si Si2 0.370429 0.209811 0.431790
Si Si3 0.347397 0.184784 0.984637
Si Si4 0.340149 0.455235 0.175606
Si Si5 0.017690 0.164121 0.529052
Si Si6 0.492894 0.308583 0.554139
O O1 0.797478 0.821007 0.302707
O O2 0.921582 0.905635 0.368367
O O3 0.670148 0.175623 0.459735
O O4 0.000000 0.000000 0.000000
O O5 0.283195 0.405782 0.409915
O O6 0.491852 0.220889 0.413534
O O7 0.504840 0.033965 0.194422
O O8 0.418321 0.265977 0.014201
O O9 0.157218 0.203688 0.260785
O O10 0.320579 0.322232 0.852067
O O11 0.171672 0.636566 0.271903
O O12 0.500000 0.500000 0.000000
O O13 0.000000 0.000000 0.500000
O O14 0.500000 0.500000 0.500000
#
# Coordination Sequence:
#
# PCOD8035106 Si02
#       6
#     2   2   2   2   2   2
#     4  11  27  46  69 101 147 183 233 291 348 416
#     4  11  25  47  74 103 141 187 233 288 355 414
#     4  11  24  48  72 100 142 184 238 291 341 419
#     4  12  26  44  74 102 141 182 239 292 349 419
#     4  12  29  44  71 107 140 187 236 292 353 407
#     4  11  27  46  74 105 142 190 232 283 356 420
#
# _framework density 22.381112000000002
#
# number of rings (size 3 to 8) (size 9 to 14) (size 15 to 20)
#    0.000    0.667    1.667    5.000   18.667    0.000 
#    0.000    1.667    0.000    0.000    0.000    0.000 
#    0.000    0.000    0.000    0.000    0.000    0.000 
#
# Total GULP energy -148724.959332 kJ/mol
# GULP energy per Si atom -12393.746611 kJ/mol
# Density = 2.233017 g / cm^3
# Si number density = 22.381112 Si / 1000 Ang^3
#
#
#
# Elastic Constant Matrix: (Units=GPa)
#
#
# Indices 1 2 3 4 5 6 
#
# 1 154.0879 88.6312 72.9314 -3.3711 -11.4678 4.5961
# 2 88.6312 170.5032 72.4630 -33.1918 -9.2599 -8.8597
# 3 72.9314 72.4630 131.9567 -26.9839 -5.1500 2.1729
# 4 -3.3711 -33.1918 -26.9839 38.3727 -1.4634 -5.7283
# 5 -11.4678 -9.2599 -5.1500 -1.4634 30.5322 -6.0053
# 6 4.5961 -8.8597 2.1729 -5.7283 -6.0053 56.2192
#
#
#
# Elastic Compliance Matrix: (Units=1/GPa)
#
#
# Indices 1 2 3 4 5 6 
#
# 1 0.012195 -0.005756 -0.005091 -0.007800 0.001134 -0.002381
# 2 -0.005756 0.011457 -0.001207 0.009163 0.002236 0.003495
# 3 -0.005091 -0.001207 0.012580 0.007447 0.000305 0.000531
# 4 -0.007800 0.009163 0.007447 0.039637 0.004242 0.006286
# 5 0.001134 0.002236 0.000305 0.004242 0.034980 0.004417
# 6 -0.002381 0.003495 0.000531 0.006286 0.004417 0.019625
#
#
# Mechanical properties :
#
#
# Convention : Reuss Voigt Hill
#
# Bulk Modulus (GPa) = 82.47243 102.73322 92.60283
# Shear Modulus (GPa) = 31.52154 39.85966 35.69060
#
# Velocity S-wave (km/s) = 3.75694 4.22471 3.99767
# Velocity P-wave (km/s) = 7.46649 8.35458 7.92299
#
# Compressibility (1/GPa) = 0.01212526
#
# Stress axis : x y z
#
# Youngs Moduli (GPa) = 82.00124 87.28515 79.48970
#
# Poissons Ratio (x) = 0.50243 0.40465
# Poissons Ratio (y) = 0.47202 0.09591
# Poissons Ratio (z) = 0.41743 0.10531
#
# Static dielectric constant tensor:
#      x y z
#    x 4.345190 -0.050280 -0.064240 
#    y -0.050280 3.422780 -1.022540 
#    z -0.064240 -1.022540 3.975770 
# 
# 
# High freq. dielectric constant tensor:
#      x y z
#    x 1.892690 0.000990 -0.003620 
#    y 0.000990 1.906510 -0.029680 
#    z -0.003620 -0.029680 1.871330 
# 
# From -- ./inp_files/159229.got.cif
#   From: 2010.06.25/outbox.cif.g09.slc.cpg/sg2_80_cif.got.tgz:159229.got - 2010.06.27 13:26:56.
