data_PCOD8035347
_publ_section_title
;
Structure prediction by ZEFSAII (Michael W. Deem and Ramdas Pophale) SiO2 
 PCOD8035347
Probable space group: P -1
;
_chemical_formula_sum "Si O2"
_cell_formula_units_Z 16
_cell_length_a 11.051500
_cell_length_b 6.620869
_cell_length_c 15.365085
_cell_angle_alpha 135.466748
_cell_angle_beta 77.031424
_cell_angle_gamma 88.573968
_cell_volume 739.724127
_symmetry_space_group_name_H-M "P -1"
_symmetry_group_IT_number 2
_symmetry_cell_setting 'triclinic'
loop_
_space_group_symop_operation_xyz
x,y,z
-x,-y,-z
loop_
_atom_site_type_symbol
_atom_site_label
_atom_site_fract_x
_atom_site_fract_y
_atom_site_fract_z
Si Si1 0.794699 0.679376 0.920026
Si Si2 0.402141 0.695901 0.142874
Si Si3 0.317212 0.272183 0.581638
Si Si4 0.545593 0.959580 0.337854
Si Si5 0.010607 0.127653 0.767273
Si Si6 0.800933 0.810088 0.765144
Si Si7 0.129178 0.881281 0.496578
Si Si8 0.239676 0.942580 0.790165
O O1 0.699570 0.473088 0.860077
O O2 0.798441 0.852373 0.882662
O O3 0.935634 0.462732 0.853518
O O4 0.743148 0.926316 0.077956
O O5 0.477531 0.744828 0.231350
O O6 0.331737 0.004244 0.200307
O O7 0.500000 0.500000 0.000000
O O8 0.366402 0.228913 0.659068
O O9 0.225140 0.607386 0.695185
O O10 0.436638 0.229857 0.482447
O O11 0.235419 0.043174 0.496557
O O12 0.633135 0.080076 0.293799
O O13 0.102154 0.950799 0.622824
O O14 0.108166 0.154570 0.836816
O O15 0.917425 0.928940 0.748401
O O16 0.816189 0.470282 0.632282
O O17 0.000000 0.000000 0.500000
#
# Coordination Sequence:
#
# PCOD8035347 Si02
#       8
#     2   2   2   2   2   2   2   2
#     4  11  25  46  67 105 136 179 225 279 337 407
#     4  11  25  45  72  98 135 178 229 283 334 403
#     4  11  27  44  70 100 136 180 226 281 336 402
#     4  11  25  47  65  98 140 172 230 282 334 397
#     4  11  25  44  68 104 137 175 226 279 342 401
#     4  11  26  43  71 101 135 178 229 282 344 395
#     4  12  23  46  73 102 139 175 227 285 339 403
#     4  12  25  43  72  96 139 184 222 273 342 405
#
# _framework density 21.629684999999998
#
# number of rings (size 3 to 8) (size 9 to 14) (size 15 to 20)
#    0.000    0.750    3.750    2.625    5.250    4.000 
#    0.000    0.000    0.000    0.000    0.000    0.000 
#    0.000    0.000    0.000    0.000    0.000    0.000 
#
# Total GULP energy -198489.639081 kJ/mol
# GULP energy per Si atom -12405.602443 kJ/mol
# Density = 2.158045 g / cm^3
# Si number density = 21.629685 Si / 1000 Ang^3
#
#
#
# Elastic Constant Matrix: (Units=GPa)
#
#
# Indices 1 2 3 4 5 6 
#
# 1 106.2700 17.3186 19.7786 6.5775 0.7394 -4.2087
# 2 17.3186 57.4160 29.5548 -0.3764 -7.8566 11.6402
# 3 19.7786 29.5548 108.9297 -5.8869 -1.3183 4.6235
# 4 6.5775 -0.3764 -5.8869 35.4713 -1.4719 0.2613
# 5 0.7394 -7.8566 -1.3183 -1.4719 37.4726 -3.1001
# 6 -4.2087 11.6402 4.6235 0.2613 -3.1001 30.8882
#
#
#
# Elastic Compliance Matrix: (Units=1/GPa)
#
#
# Indices 1 2 3 4 5 6 
#
# 1 0.010415 -0.003159 -0.001280 -0.002230 -0.000774 0.002742
# 2 -0.003159 0.023310 -0.005352 0.000174 0.004106 -0.008003
# 3 -0.001280 -0.005352 0.010959 0.001973 -0.000624 0.000123
# 4 -0.002230 0.000174 0.001973 0.028991 0.001224 -0.000787
# 5 -0.000774 0.004106 -0.000624 0.001224 0.027688 0.001209
# 6 0.002742 -0.008003 0.000123 -0.000787 0.001209 0.035874
#
#
# Mechanical properties :
#
#
# Convention : Reuss Voigt Hill
#
# Bulk Modulus (GPa) = 39.83885 45.10219 42.47052
# Shear Modulus (GPa) = 30.26871 34.49733 32.38302
#
# Velocity S-wave (km/s) = 3.74492 3.99796 3.87351
# Velocity P-wave (km/s) = 6.09572 6.49683 6.29947
#
# Compressibility (1/GPa) = 0.02510112
#
# Stress axis : x y z
#
# Youngs Moduli (GPa) = 96.01470 42.89993 91.25197
#
# Poissons Ratio (x) = 0.13552 0.11683
# Poissons Ratio (y) = 0.30331 0.48839
# Poissons Ratio (z) = 0.12292 0.22961
#
# Static dielectric constant tensor:
#      x y z
#    x 4.103550 -0.013570 0.036350 
#    y -0.013570 3.694470 -0.292870 
#    z 0.036350 -0.292870 3.961170 
# 
# 
# High freq. dielectric constant tensor:
#      x y z
#    x 1.862690 -0.003210 -0.002060 
#    y -0.003210 1.850740 -0.010110 
#    z -0.002060 -0.010110 1.860590 
# 
# From -- ./inp_files/69260.got.cif
#   From: 2010.06.25/outbox.cif.g09.slc.cpg/sg2_35_cif.got.tgz:69260.got - 2010.06.27 13:26:56.
