data_PCOD8035104
_publ_section_title
;
Structure prediction by ZEFSAII (Michael W. Deem and Ramdas Pophale) SiO2 
 PCOD8035104
Probable space group: P -1
;
_chemical_formula_sum "Si O2"
_cell_formula_units_Z 14
_cell_length_a 18.843026
_cell_length_b 10.089995
_cell_length_c 15.399611
_cell_angle_alpha 35.141416
_cell_angle_beta 158.099578
_cell_angle_gamma 142.617556
_cell_volume 619.756369
_symmetry_space_group_name_H-M "P -1"
_symmetry_group_IT_number 2
_symmetry_cell_setting 'triclinic'
loop_
_space_group_symop_operation_xyz
x,y,z
-x,-y,-z
loop_
_atom_site_type_symbol
_atom_site_label
_atom_site_fract_x
_atom_site_fract_y
_atom_site_fract_z
Si Si1 0.725299 0.082791 0.712110
Si Si2 0.642380 0.788499 0.008969
Si Si3 0.230144 0.504837 0.338569
Si Si4 0.754854 0.356411 0.427220
Si Si5 0.808269 0.287049 0.991120
Si Si6 0.420574 0.732419 0.079323
Si Si7 0.822015 0.629749 0.124547
O O1 0.778997 0.233404 0.779105
O O2 0.794330 0.246805 0.622072
O O3 0.500000 0.000000 0.500000
O O4 0.829004 0.855917 0.948833
O O5 0.683701 0.606060 0.228048
O O6 0.702655 0.674035 0.049850
O O7 0.765200 0.034222 0.035509
O O8 0.414022 0.806603 0.732581
O O9 0.403492 0.405040 0.633276
O O10 0.036701 0.336845 0.238902
O O11 0.249393 0.523459 0.245148
O O12 0.958673 0.392497 0.588576
O O13 0.697939 0.288858 0.954747
O O14 0.282312 0.606384 0.914512
O O15 0.500000 0.000000 0.000000
#
# Coordination Sequence:
#
# PCOD8035104 Si02
#       7
#     2   2   2   2   2   2   2
#     4  12  21  45  72 100 136 180 231 283 333 403
#     4  11  25  46  70 101 139 179 228 282 340 407
#     4  11  24  48  71  99 141 183 229 281 344 408
#     4  11  25  40  72 101 137 174 228 286 339 392
#     4  11  26  46  70 101 139 187 225 278 347 412
#     4  12  29  44  70 105 142 178 227 286 346 409
#     4  12  25  47  70 102 134 181 235 276 338 409
#
# _framework density 22.589521000000001
#
# number of rings (size 3 to 8) (size 9 to 14) (size 15 to 20)
#    0.000    0.571    4.286    2.143    8.000    1.714 
#    0.000    0.000    0.000    0.000    0.000    0.000 
#    0.000    0.000    0.000    0.000    0.000    0.000 
#
# Total GULP energy -173596.964561 kJ/mol
# GULP energy per Si atom -12399.783183 kJ/mol
# Density = 2.253811 g / cm^3
# Si number density = 22.589521 Si / 1000 Ang^3
#
#
#
# Elastic Constant Matrix: (Units=GPa)
#
#
# Indices 1 2 3 4 5 6 
#
# 1 87.8946 51.8782 16.1360 10.2415 6.0084 -1.6514
# 2 51.8782 160.6373 46.5118 22.7087 11.7508 -11.3985
# 3 16.1360 46.5118 103.9829 23.2103 18.3913 0.6385
# 4 10.2415 22.7087 23.2103 47.6282 8.3173 -3.2717
# 5 6.0084 11.7508 18.3913 8.3173 20.8349 -1.8596
# 6 -1.6514 -11.3985 0.6385 -3.2717 -1.8596 36.4619
#
#
#
# Elastic Compliance Matrix: (Units=1/GPa)
#
#
# Indices 1 2 3 4 5 6 
#
# 1 0.014161 -0.004487 0.000274 -0.000833 -0.001545 -0.000920
# 2 -0.004487 0.008946 -0.002894 -0.001666 -0.000311 0.002479
# 3 0.000274 -0.002894 0.013280 -0.003737 -0.008848 -0.001911
# 4 -0.000833 -0.001666 -0.003737 0.024816 -0.005298 0.001463
# 5 -0.001545 -0.000311 -0.008848 -0.005298 0.058767 0.002510
# 6 -0.000920 0.002479 -0.001911 0.001463 0.002510 0.028452
#
#
# Mechanical properties :
#
#
# Convention : Reuss Voigt Hill
#
# Bulk Modulus (GPa) = 45.09882 64.61854 54.85868
# Shear Modulus (GPa) = 29.40734 36.85092 33.12913
#
# Velocity S-wave (km/s) = 3.61198 4.04335 3.83374
# Velocity P-wave (km/s) = 6.11580 7.10394 6.62831
#
# Compressibility (1/GPa) = 0.02217353
#
# Stress axis : x y z
#
# Youngs Moduli (GPa) = 70.61776 111.77677 75.30365
#
# Poissons Ratio (x) = 0.50157 -0.02067
# Poissons Ratio (y) = 0.31688 0.21791
# Poissons Ratio (z) = -0.01938 0.32346
#
# Static dielectric constant tensor:
#      x y z
#    x 4.278840 0.184070 -0.172990 
#    y 0.184070 4.458890 -0.211440 
#    z -0.172990 -0.211440 4.398640 
# 
# 
# High freq. dielectric constant tensor:
#      x y z
#    x 1.888470 0.019150 -0.008910 
#    y 0.019150 1.905740 0.006760 
#    z -0.008910 0.006760 1.897790 
# 
# From -- ./inp_files/577935.got.cif
#   From: 2010.06.25/outbox.cif.g09.slc.cpg/sg2_289_cif.got.tgz:577935.got - 2010.06.27 13:26:56.
