data_PCOD8035986
_publ_section_title
;
Structure prediction by ZEFSAII (Michael W. Deem and Ramdas Pophale) SiO2 
 PCOD8035986
Probable space group: P -1
;
_chemical_formula_sum "Si O2"
_cell_formula_units_Z 16
_cell_length_a 11.137555
_cell_length_b 11.757786
_cell_length_c 6.605253
_cell_angle_alpha 111.469680
_cell_angle_beta 57.430719
_cell_angle_gamma 102.205318
_cell_volume 678.257098
_symmetry_space_group_name_H-M "P -1"
_symmetry_group_IT_number 2
_symmetry_cell_setting 'triclinic'
loop_
_space_group_symop_operation_xyz
x,y,z
-x,-y,-z
loop_
_atom_site_type_symbol
_atom_site_label
_atom_site_fract_x
_atom_site_fract_y
_atom_site_fract_z
Si Si1 0.313283 0.668151 0.343065
Si Si2 0.728260 0.855715 0.229010
Si Si3 0.022392 0.298221 0.966263
Si Si4 0.592713 0.704875 0.894714
Si Si5 0.216831 0.882461 0.772391
Si Si6 0.513261 0.112908 0.209161
Si Si7 0.886414 0.450693 0.864305
Si Si8 0.658740 0.494262 0.434401
O O1 0.284522 0.813579 0.470322
O O2 0.317381 0.632952 0.554025
O O3 0.464479 0.638807 0.089482
O O4 0.184999 0.596758 0.304291
O O5 0.590209 0.894007 0.506429
O O6 0.821568 0.762701 0.216441
O O7 0.817540 0.979378 0.173493
O O8 0.684054 0.792834 0.015415
O O9 0.019181 0.425453 0.184310
O O10 0.923344 0.193351 0.084621
O O11 0.975899 0.339644 0.808992
O O12 0.519828 0.768289 0.811683
O O13 0.690569 0.599865 0.642833
O O14 0.324877 0.884596 0.863176
O O15 0.500000 0.000000 0.000000
O O16 0.768393 0.502815 0.158390
O O17 0.500000 0.500000 0.500000
#
# Coordination Sequence:
#
# PCOD8035986 Si02
#       8
#     2   2   2   2   2   2   2   2
#     4  12  24  43  73 106 140 189 233 293 362 413
#     4  12  26  47  71 108 145 183 241 292 350 431
#     4  11  26  49  72  98 149 192 235 292 351 424
#     4  12  24  40  73 108 142 182 231 301 361 409
#     4  12  24  48  72 103 146 187 237 291 354 429
#     4  12  24  46  74 106 138 182 237 294 356 413
#     4  11  25  49  71 101 145 191 240 291 354 422
#     4  12  24  41  72 109 142 177 238 301 354 415
#
# _framework density 23.589874999999999
#
# number of rings (size 3 to 8) (size 9 to 14) (size 15 to 20)
#    0.000    0.250    5.000    4.875    1.750    0.500 
#    6.750    1.250    0.000    0.000    0.000    0.000 
#    0.000    0.000    0.000    0.000    0.000    0.000 
#
# Total GULP energy -198395.052380 kJ/mol
# GULP energy per Si atom -12399.690774 kJ/mol
# Density = 2.353618 g / cm^3
# Si number density = 23.589875 Si / 1000 Ang^3
#
#
#
# Elastic Constant Matrix: (Units=GPa)
#
#
# Indices 1 2 3 4 5 6 
#
# 1 113.1989 38.3374 21.1735 2.7758 17.9351 -5.6043
# 2 38.3374 127.4573 16.9857 3.5983 11.1063 -2.4721
# 3 21.1735 16.9857 86.9623 16.4635 16.5344 4.7826
# 4 2.7758 3.5983 16.4635 37.4404 5.3033 0.7492
# 5 17.9351 11.1063 16.5344 5.3033 32.0451 4.9662
# 6 -5.6043 -2.4721 4.7826 0.7492 4.9662 45.2144
#
#
#
# Elastic Compliance Matrix: (Units=1/GPa)
#
#
# Indices 1 2 3 4 5 6 
#
# 1 0.010833 -0.002630 -0.001450 0.000732 -0.004814 0.001869
# 2 -0.002630 0.008867 -0.000863 -0.000116 -0.001196 0.000383
# 3 -0.001450 -0.000863 0.014042 -0.005240 -0.005102 -0.001065
# 4 0.000732 -0.000116 -0.005240 0.029328 -0.002587 0.000437
# 5 -0.004814 -0.001196 -0.005102 -0.002587 0.038035 -0.004257
# 6 0.001869 0.000383 -0.001065 0.000437 -0.004257 0.022942
#
#
# Mechanical properties :
#
#
# Convention : Reuss Voigt Hill
#
# Bulk Modulus (GPa) = 41.92002 53.40132 47.66067
# Shear Modulus (GPa) = 35.23957 39.68144 37.46050
#
# Velocity S-wave (km/s) = 3.86922 4.10584 3.98928
# Velocity P-wave (km/s) = 6.14574 6.72040 6.43948
#
# Compressibility (1/GPa) = 0.02385495
#
# Stress axis : x y z
#
# Youngs Moduli (GPa) = 92.30751 112.77969 71.21722
#
# Poissons Ratio (x) = 0.29663 0.10326
# Poissons Ratio (y) = 0.24279 0.06148
# Poissons Ratio (z) = 0.13384 0.09736
#
# Static dielectric constant tensor:
#      x y z
#    x 4.423370 -0.084680 0.035370 
#    y -0.084680 4.582120 0.192050 
#    z 0.035370 0.192050 4.181230 
# 
# 
# High freq. dielectric constant tensor:
#      x y z
#    x 1.940570 0.000140 0.005420 
#    y 0.000140 1.950970 0.008650 
#    z 0.005420 0.008650 1.923710 
# 
# From -- ./inp_files/71673.got.cif
#   From: 2010.06.25/outbox.cif.g09.slc.cpg/sg2_36_cif.got.tgz:71673.got - 2010.06.27 13:26:56.
