data_PCOD8035667
_publ_section_title
;
Structure prediction by ZEFSAII (Michael W. Deem and Ramdas Pophale) SiO2 
 PCOD8035667
Probable space group: P -1
;
_chemical_formula_sum "Si O2"
_cell_formula_units_Z 14
_cell_length_a 8.489761
_cell_length_b 17.735308
_cell_length_c 11.865805
_cell_angle_alpha 38.825831
_cell_angle_beta 146.559711
_cell_angle_gamma 132.006163
_cell_volume 616.320673
_symmetry_space_group_name_H-M "P -1"
_symmetry_group_IT_number 2
_symmetry_cell_setting 'triclinic'
loop_
_space_group_symop_operation_xyz
x,y,z
-x,-y,-z
loop_
_atom_site_type_symbol
_atom_site_label
_atom_site_fract_x
_atom_site_fract_y
_atom_site_fract_z
Si Si1 0.695476 0.170263 0.350780
Si Si2 0.431005 0.328055 0.394544
Si Si3 0.897925 0.974507 0.844322
Si Si4 0.304260 0.613602 0.741600
Si Si5 0.195958 0.738765 0.921737
Si Si6 0.366825 0.453453 0.590888
Si Si7 0.645509 0.129233 0.908699
O O1 0.414102 0.086243 0.267890
O O2 0.640315 0.301507 0.215626
O O3 0.838091 0.176645 0.305313
O O4 0.913681 0.102943 0.639825
O O5 0.607550 0.308249 0.408004
O O6 0.568141 0.450008 0.386068
O O7 0.441873 0.217792 0.617743
O O8 0.097785 0.344251 0.145604
O O9 0.090295 0.882105 0.003529
O O10 0.000000 0.000000 0.000000
O O11 0.971924 0.570544 0.590721
O O12 0.500000 0.500000 0.000000
O O13 0.475968 0.666550 0.145799
O O14 0.238741 0.814513 0.971873
O O15 0.500000 0.500000 0.500000
O O16 0.500000 0.000000 0.000000
#
# Coordination Sequence:
#
# PCOD8035667 Si02
#       7
#     2   2   2   2   2   2   2
#     4  11  26  44  72 105 142 190 237 299 358 424
#     4  12  26  47  72 106 146 188 242 298 359 428
#     4  11  25  46  72 102 146 189 243 293 360 422
#     4  12  27  46  76 109 146 188 243 297 364 432
#     4  12  26  46  74 104 148 186 241 296 361 429
#     4  12  25  46  75 104 146 192 235 295 367 428
#     4  12  27  44  74 104 145 191 244 294 360 426
#
# _framework density 22.715447000000001
#
# number of rings (size 3 to 8) (size 9 to 14) (size 15 to 20)
#    0.000    0.286    1.429    6.857    8.000    4.571 
#    0.000    0.000    0.000    0.000    0.000    0.000 
#    0.000    0.000    0.000    0.000    0.000    0.000 
#
# Total GULP energy -173654.464989 kJ/mol
# GULP energy per Si atom -12403.890356 kJ/mol
# Density = 2.266375 g / cm^3
# Si number density = 22.715447 Si / 1000 Ang^3
#
#
#
# Elastic Constant Matrix: (Units=GPa)
#
#
# Indices 1 2 3 4 5 6 
#
# 1 146.0952 45.6584 60.6562 16.9975 -9.6562 -6.7392
# 2 45.6584 126.8025 61.4025 9.5994 -5.1798 -8.9320
# 3 60.6562 61.4025 135.3323 8.5620 -2.5662 -4.9563
# 4 16.9975 9.5994 8.5620 35.5057 0.1896 5.3053
# 5 -9.6562 -5.1798 -2.5662 0.1896 47.3038 6.2416
# 6 -6.7392 -8.9320 -4.9563 5.3053 6.2416 49.0982
#
#
#
# Elastic Compliance Matrix: (Units=1/GPa)
#
#
# Indices 1 2 3 4 5 6 
#
# 1 0.009126 -0.001362 -0.003200 -0.003365 0.001440 0.000862
# 2 -0.001362 0.010555 -0.004026 -0.001446 0.000478 0.001422
# 3 -0.003200 -0.004026 0.010635 0.000065 -0.000512 -0.000040
# 4 -0.003365 -0.001446 0.000065 0.030749 -0.000439 -0.003985
# 5 0.001440 0.000478 -0.000512 -0.000439 0.021789 -0.002490
# 6 0.000862 0.001422 -0.000040 -0.003985 -0.002490 0.021488
#
#
# Mechanical properties :
#
#
# Convention : Reuss Voigt Hill
#
# Bulk Modulus (GPa) = 76.10731 82.62938 79.36834
# Shear Modulus (GPa) = 39.71469 42.41572 41.06521
#
# Velocity S-wave (km/s) = 4.18587 4.32587 4.25645
# Velocity P-wave (km/s) = 7.54582 7.83618 7.69237
#
# Compressibility (1/GPa) = 0.01313934
#
# Stress axis : x y z
#
# Youngs Moduli (GPa) = 109.58032 94.73786 94.02783
#
# Poissons Ratio (x) = 0.12902 0.30094
# Poissons Ratio (y) = 0.14923 0.37857
# Poissons Ratio (z) = 0.35071 0.38143
#
# Static dielectric constant tensor:
#      x y z
#    x 4.324850 -0.036250 -0.079850 
#    y -0.036250 4.112070 -0.080280 
#    z -0.079850 -0.080280 4.588940 
# 
# 
# High freq. dielectric constant tensor:
#      x y z
#    x 1.917960 -0.000360 -0.005910 
#    y -0.000360 1.902760 0.005940 
#    z -0.005910 0.005940 1.907770 
# 
# From -- ./inp_files/46100.got.cif
#   From: 2010.06.25/outbox.cif.g09.slc.cpg/sg2_24_cif.got.tgz:46100.got - 2010.06.27 13:26:56.
