data_PCOD8035809
_publ_section_title
;
Structure prediction by ZEFSAII (Michael W. Deem and Ramdas Pophale) SiO2 
 PCOD8035809
Probable space group: P -1
;
_chemical_formula_sum "Si O2"
_cell_formula_units_Z 12
_cell_length_a 11.503415
_cell_length_b 9.643716
_cell_length_c 5.034634
_cell_angle_alpha 64.843882
_cell_angle_beta 82.130293
_cell_angle_gamma 63.635280
_cell_volume 452.035422
_symmetry_space_group_name_H-M "P -1"
_symmetry_group_IT_number 2
_symmetry_cell_setting 'triclinic'
loop_
_space_group_symop_operation_xyz
x,y,z
-x,-y,-z
loop_
_atom_site_type_symbol
_atom_site_label
_atom_site_fract_x
_atom_site_fract_y
_atom_site_fract_z
Si Si1 0.685432 0.011741 0.063964
Si Si2 0.922966 0.602882 0.691782
Si Si3 0.330907 0.409471 0.038096
Si Si4 0.199763 0.799280 0.761670
Si Si5 0.079044 0.116707 0.215745
Si Si6 0.452665 0.209779 0.634791
O O1 0.713971 0.139228 0.136513
O O2 0.601029 0.930432 0.310041
O O3 0.603572 0.117377 0.747324
O O4 0.822403 0.859529 0.046079
O O5 0.778581 0.618206 0.736704
O O6 0.920827 0.788732 0.581708
O O7 0.000000 0.500000 0.500000
O O8 0.000000 0.500000 0.000000
O O9 0.448142 0.325996 0.285652
O O10 0.291330 0.604743 0.823756
O O11 0.366914 0.314252 0.826073
O O12 0.064329 0.815632 0.927626
O O13 0.143820 0.913832 0.420677
#
# Coordination Sequence:
#
# PCOD8035809 Si02
#       6
#     2   2   2   2   2   2
#     4  11  26  48  74 105 143 200 240 303 359 434
#     4  12  25  44  75 107 146 189 240 297 362 428
#     4  12  26  48  72 113 144 191 243 305 354 436
#     4  11  27  43  75 104 154 185 242 300 379 415
#     4  11  25  47  71 111 145 194 237 305 365 442
#     4  11  28  48  79 102 148 194 253 290 357 433
#
# _framework density 26.546595
#
# number of rings (size 3 to 8) (size 9 to 14) (size 15 to 20)
#    0.000    0.667    3.333    2.500    7.000    4.000 
#    0.000    0.000    0.000    0.000    0.000    0.000 
#    0.000    0.000    0.000    0.000    0.000    0.000 
#
# Total GULP energy -148778.336864 kJ/mol
# GULP energy per Si atom -12398.194739 kJ/mol
# Density = 2.648617 g / cm^3
# Si number density = 26.546595 Si / 1000 Ang^3
#
#
#
# Elastic Constant Matrix: (Units=GPa)
#
#
# Indices 1 2 3 4 5 6 
#
# 1 122.4563 44.1335 -8.8313 10.9672 14.4936 10.4094
# 2 44.1335 110.6014 13.7478 -12.0668 -0.2003 20.6570
# 3 -8.8313 13.7478 73.1051 -10.2601 19.9854 14.6472
# 4 10.9672 -12.0668 -10.2601 51.2529 -9.9773 3.0009
# 5 14.4936 -0.2003 19.9854 -9.9773 30.6022 4.4007
# 6 10.4094 20.6570 14.6472 3.0009 4.4007 34.6530
#
#
#
# Elastic Compliance Matrix: (Units=1/GPa)
#
#
# Indices 1 2 3 4 5 6 
#
# 1 0.012523 -0.006135 0.004982 -0.005221 -0.010873 -0.000377
# 2 -0.006135 0.013768 -0.003426 0.005814 0.008055 -0.006442
# 3 0.004982 -0.003426 0.020125 -0.000365 -0.014774 -0.006053
# 4 -0.005221 0.005814 -0.000365 0.024473 0.011494 -0.005322
# 5 -0.010873 0.008055 -0.014774 0.011494 0.051685 -0.002850
# 6 -0.000377 -0.006442 -0.006053 -0.005322 -0.002850 0.036193
#
#
# Mechanical properties :
#
#
# Convention : Reuss Voigt Hill
#
# Bulk Modulus (GPa) = 26.83976 44.91807 35.87892
# Shear Modulus (GPa) = 27.72469 40.44248 34.08358
#
# Velocity S-wave (km/s) = 3.23519 3.90738 3.58706
# Velocity P-wave (km/s) = 4.90792 6.10852 5.54083
#
# Compressibility (1/GPa) = 0.03725816
#
# Stress axis : x y z
#
# Youngs Moduli (GPa) = 79.85153 72.63423 49.68858
#
# Poissons Ratio (x) = 0.44563 -0.24754
# Poissons Ratio (y) = 0.48991 0.17021
# Poissons Ratio (z) = -0.39781 0.24881
#
# Static dielectric constant tensor:
#      x y z
#    x 4.420520 -0.804810 -0.069200 
#    y -0.804810 4.235160 -0.604490 
#    z -0.069200 -0.604490 4.549920 
# 
# 
# High freq. dielectric constant tensor:
#      x y z
#    x 2.080990 -0.011170 0.013680 
#    y -0.011170 2.071270 -0.012500 
#    z 0.013680 -0.012500 2.058330 
# 
# From -- ./inp_files/23028.got.cif
#   From: 2010.06.25/outbox.cif.g09.slc.cpg/sg2_12_cif.got.tgz:23028.got - 2010.06.27 13:26:56.
