data_PCOD8035654
_publ_section_title
;
Structure prediction by ZEFSAII (Michael W. Deem and Ramdas Pophale) SiO2 
 PCOD8035654
Probable space group: P -1
;
_chemical_formula_sum "Si O2"
_cell_formula_units_Z 14
_cell_length_a 5.046896
_cell_length_b 12.875741
_cell_length_c 12.676524
_cell_angle_alpha 49.766301
_cell_angle_beta 80.505604
_cell_angle_gamma 74.707154
_cell_volume 606.581809
_symmetry_space_group_name_H-M "P -1"
_symmetry_group_IT_number 2
_symmetry_cell_setting 'triclinic'
loop_
_space_group_symop_operation_xyz
x,y,z
-x,-y,-z
loop_
_atom_site_type_symbol
_atom_site_label
_atom_site_fract_x
_atom_site_fract_y
_atom_site_fract_z
Si Si1 0.028096 0.870513 0.805032
Si Si2 0.103088 0.918690 0.150402
Si Si3 0.918319 0.497830 0.695397
Si Si4 0.201603 0.549992 0.033437
Si Si5 0.538182 0.988320 0.628766
Si Si6 0.721579 0.748011 0.409951
Si Si7 0.504510 0.346427 0.708092
O O1 0.317025 0.910401 0.742020
O O2 0.840039 0.895315 0.695855
O O3 0.099634 0.714443 0.944058
O O4 0.851751 0.968152 0.840911
O O5 0.394146 0.818821 0.166548
O O6 0.902170 0.822917 0.271951
O O7 0.000000 0.000000 0.000000
O O8 0.790432 0.518313 0.806773
O O9 0.916023 0.649045 0.545950
O O10 0.747865 0.420703 0.677614
O O11 0.228034 0.411048 0.746823
O O12 0.500000 0.500000 0.000000
O O13 0.000000 0.500000 0.000000
O O14 0.500000 0.000000 0.500000
O O15 0.500757 0.141342 0.582371
O O16 0.559397 0.649370 0.416759
#
# Coordination Sequence:
#
# PCOD8035654 Si02
#       7
#     2   2   2   2   2   2   2
#     4  11  25  46  71 105 139 180 240 287 352 421
#     4  11  25  46  73 107 146 187 232 291 354 424
#     4  12  28  44  75 106 145 189 235 293 354 422
#     4  12  28  52  73 105 140 189 239 296 354 425
#     4  11  25  46  74 102 140 186 237 295 348 413
#     4  11  26  44  73 107 146 189 235 290 356 420
#     4  12  24  47  70 109 145 185 237 287 356 422
#
# _framework density 23.080151000000001
#
# number of rings (size 3 to 8) (size 9 to 14) (size 15 to 20)
#    0.000    0.571    2.857    3.857    6.000    2.857 
#    0.000    0.000    0.000    0.000    0.000    0.000 
#    0.000    0.000    0.000    0.000    0.000    0.000 
#
# Total GULP energy -173609.623468 kJ/mol
# GULP energy per Si atom -12400.687391 kJ/mol
# Density = 2.302762 g / cm^3
# Si number density = 23.080151 Si / 1000 Ang^3
#
#
#
# Elastic Constant Matrix: (Units=GPa)
#
#
# Indices 1 2 3 4 5 6 
#
# 1 97.0201 25.1067 24.2272 -20.2362 16.6477 -6.1603
# 2 25.1067 87.4397 51.9523 -4.2785 1.4823 -6.2140
# 3 24.2272 51.9523 159.7766 -4.1184 21.4666 -7.6045
# 4 -20.2362 -4.2785 -4.1184 34.3395 -0.4502 10.5718
# 5 16.6477 1.4823 21.4666 -0.4502 34.9355 -3.5159
# 6 -6.1603 -6.2140 -7.6045 10.5718 -3.5159 46.8341
#
#
#
# Elastic Compliance Matrix: (Units=1/GPa)
#
#
# Indices 1 2 3 4 5 6 
#
# 1 0.013950 -0.003634 0.000108 0.007979 -0.006550 -0.000922
# 2 -0.003634 0.015417 -0.005002 -0.001178 0.004271 0.001342
# 3 0.000108 -0.005002 0.008572 0.000312 -0.005073 0.000291
# 4 0.007979 -0.001178 0.000312 0.035965 -0.004235 -0.007492
# 5 -0.006550 0.004271 -0.005073 -0.004235 0.034874 0.002455
# 6 -0.000922 0.001342 0.000291 -0.007492 0.002455 0.023331
#
#
# Mechanical properties :
#
#
# Convention : Reuss Voigt Hill
#
# Bulk Modulus (GPa) = 47.88449 60.75653 54.32051
# Shear Modulus (GPa) = 32.02507 39.41850 35.72178
#
# Velocity S-wave (km/s) = 3.72904 4.13715 3.93838
# Velocity P-wave (km/s) = 6.27161 7.01446 6.65341
#
# Compressibility (1/GPa) = 0.02088359
#
# Stress axis : x y z
#
# Youngs Moduli (GPa) = 71.68419 64.86211 116.65293
#
# Poissons Ratio (x) = 0.23570 -0.01260
# Poissons Ratio (y) = 0.26049 0.58354
# Poissons Ratio (z) = -0.00774 0.32446
#
# Static dielectric constant tensor:
#      x y z
#    x 4.307730 -0.141420 0.168750 
#    y -0.141420 4.445470 -0.091710 
#    z 0.168750 -0.091710 4.158060 
# 
# 
# High freq. dielectric constant tensor:
#      x y z
#    x 1.916420 -0.002160 0.018850 
#    y -0.002160 1.925560 -0.007710 
#    z 0.018850 -0.007710 1.913670 
# 
# From -- ./inp_files/363643.got.cif
#   From: 2010.06.25/outbox.cif.g09.slc.cpg/sg2_182_cif.got.tgz:363643.got - 2010.06.27 13:26:56.
