data_PCOD8035146
_publ_section_title
;
Structure prediction by ZEFSAII (Michael W. Deem and Ramdas Pophale) SiO2 
 PCOD8035146
Probable space group: P -1
;
_chemical_formula_sum "Si O2"
_cell_formula_units_Z 16
_cell_length_a 13.236780
_cell_length_b 8.528730
_cell_length_c 8.526163
_cell_angle_alpha 130.867613
_cell_angle_beta 88.977248
_cell_angle_gamma 94.715281
_cell_volume 724.609148
_symmetry_space_group_name_H-M "P -1"
_symmetry_group_IT_number 2
_symmetry_cell_setting 'triclinic'
loop_
_space_group_symop_operation_xyz
x,y,z
-x,-y,-z
loop_
_atom_site_type_symbol
_atom_site_label
_atom_site_fract_x
_atom_site_fract_y
_atom_site_fract_z
Si Si1 0.981390 0.568082 0.215853
Si Si2 0.610232 0.986422 0.056128
Si Si3 0.776036 0.726670 0.293647
Si Si4 0.971416 0.785172 0.781491
Si Si5 0.679362 0.357518 0.530006
Si Si6 0.606577 0.561306 0.959553
Si Si7 0.256742 0.205624 0.317975
Si Si8 0.126447 0.850483 0.548862
O O1 0.862419 0.585700 0.260214
O O2 0.025076 0.407120 0.228187
O O3 0.049842 0.791251 0.368176
O O4 0.000000 0.500000 0.000000
O O5 0.632826 0.185287 0.297113
O O6 0.611548 0.788553 0.035891
O O7 0.692366 0.971664 0.902022
O O8 0.500000 0.000000 0.000000
O O9 0.728896 0.829717 0.517587
O O10 0.828611 0.908645 0.297922
O O11 0.694438 0.576455 0.100462
O O12 0.861141 0.791114 0.713853
O O13 0.058970 0.771960 0.645841
O O14 0.000000 0.000000 0.000000
O O15 0.616690 0.386586 0.711217
O O16 0.684462 0.572762 0.577377
O O17 0.785359 0.300146 0.554338
O O18 0.500000 0.500000 0.000000
#
# Coordination Sequence:
#
# PCOD8035146 Si02
#       8
#     2   2   2   2   2   2   2   2
#     4  12  25  41  69 106 145 191 242 285 350 428
#     4  11  27  49  76 103 136 189 244 298 364 430
#     4  12  26  45  69 110 145 186 243 299 356 429
#     4  12  25  43  69  99 147 195 234 283 351 425
#     4  11  24  48  74  99 144 191 232 296 363 430
#     4  11  28  49  74 104 143 183 238 311 365 418
#     4  11  26  46  71 105 145 188 240 294 358 427
#     4  12  23  45  68 102 148 191 233 286 359 421
#
# _framework density 22.080870999999998
#
# number of rings (size 3 to 8) (size 9 to 14) (size 15 to 20)
#    0.000    0.500    3.750    3.750    8.750    2.500 
#    0.000    0.000    0.000    0.000    0.000    0.000 
#    0.000    0.000    0.000    0.000    0.000    0.000 
#
# Total GULP energy -198332.309545 kJ/mol
# GULP energy per Si atom -12395.769347 kJ/mol
# Density = 2.203061 g / cm^3
# Si number density = 22.080871 Si / 1000 Ang^3
#
#
#
# Elastic Constant Matrix: (Units=GPa)
#
#
# Indices 1 2 3 4 5 6 
#
# 1 130.3467 32.5687 64.5693 -7.7558 -2.1649 8.0232
# 2 32.5687 61.3574 40.2867 -10.4375 -1.4783 10.0805
# 3 64.5693 40.2867 198.5098 -7.8583 0.2407 14.1161
# 4 -7.7558 -10.4375 -7.8583 37.1072 3.1744 -3.7823
# 5 -2.1649 -1.4783 0.2407 3.1744 41.3585 -4.8603
# 6 8.0232 10.0805 14.1161 -3.7823 -4.8603 37.1610
#
#
#
# Elastic Compliance Matrix: (Units=1/GPa)
#
#
# Indices 1 2 3 4 5 6 
#
# 1 0.009799 -0.003473 -0.002453 0.000508 0.000347 -0.000145
# 2 -0.003473 0.021271 -0.002763 0.004323 -0.000155 -0.003551
# 3 -0.002453 -0.002763 0.006484 -0.000008 -0.000410 -0.001238
# 4 0.000508 0.004323 -0.000008 0.028569 -0.001849 0.001387
# 5 0.000347 -0.000155 -0.000410 -0.001849 0.024708 0.003166
# 6 -0.000145 -0.003551 -0.001238 0.001387 0.003166 0.028930
#
#
# Mechanical properties :
#
#
# Convention : Reuss Voigt Hill
#
# Bulk Modulus (GPa) = 49.56136 73.89591 61.72864
# Shear Modulus (GPa) = 34.75491 39.97794 37.36642
#
# Velocity S-wave (km/s) = 3.97165 4.25964 4.11816
# Velocity P-wave (km/s) = 6.59743 7.59812 7.11539
#
# Compressibility (1/GPa) = 0.02017701
#
# Stress axis : x y z
#
# Youngs Moduli (GPa) = 102.04702 47.01292 154.21603
#
# Poissons Ratio (x) = 0.16326 0.37825
# Poissons Ratio (y) = 0.35437 0.42617
# Poissons Ratio (z) = 0.25029 0.12992
#
# Static dielectric constant tensor:
#      x y z
#    x 4.701070 0.069830 -0.362820 
#    y 0.069830 4.052430 -0.151600 
#    z -0.362820 -0.151600 4.533020 
# 
# 
# High freq. dielectric constant tensor:
#      x y z
#    x 1.876420 0.001440 -0.000810 
#    y 0.001440 1.862750 -0.005250 
#    z -0.000810 -0.005250 1.893650 
# 
# From -- ./inp_files/246004.got.cif
#   From: 2010.06.25/outbox.cif.g09.slc.cpg/sg2_124_cif.got.tgz:246004.got - 2010.06.27 13:26:56.
