data_PCOD8035997
_publ_section_title
;
Structure prediction by ZEFSAII (Michael W. Deem and Ramdas Pophale) SiO2 
 PCOD8035997
Probable space group: P -1
;
_chemical_formula_sum "Si O2"
_cell_formula_units_Z 16
_cell_length_a 16.075150
_cell_length_b 8.063751
_cell_length_c 14.354589
_cell_angle_alpha 138.223263
_cell_angle_beta 32.724974
_cell_angle_gamma 135.077199
_cell_volume 653.144609
_symmetry_space_group_name_H-M "P -1"
_symmetry_group_IT_number 2
_symmetry_cell_setting 'triclinic'
loop_
_space_group_symop_operation_xyz
x,y,z
-x,-y,-z
loop_
_atom_site_type_symbol
_atom_site_label
_atom_site_fract_x
_atom_site_fract_y
_atom_site_fract_z
Si Si1 0.534391 0.394350 0.814147
Si Si2 0.665136 0.483834 0.241123
Si Si3 0.863769 0.260998 0.497621
Si Si4 0.859434 0.442686 0.216201
Si Si5 0.989531 0.036693 0.635974
Si Si6 0.429641 0.710216 0.465888
Si Si7 0.930660 0.909807 0.125954
Si Si8 0.661955 0.907623 0.987133
O O1 0.691498 0.316321 0.673723
O O2 0.544884 0.439060 0.713250
O O3 0.525717 0.678580 0.975940
O O4 0.375278 0.176733 0.903384
O O5 0.749421 0.534703 0.282561
O O6 0.502397 0.582233 0.431601
O O7 0.774667 0.691870 0.157645
O O8 0.635053 0.190123 0.113065
O O9 0.000000 0.500000 0.500000
O O10 0.906160 0.141861 0.310017
O O11 0.863247 0.056464 0.495478
O O12 0.753897 0.316549 0.350132
O O13 0.992365 0.668583 0.230179
O O14 0.945481 0.236665 0.000600
O O15 0.827209 0.882281 0.773682
O O16 0.000000 0.000000 0.500000
O O17 0.500000 0.000000 0.500000
O O18 0.000000 0.000000 0.000000
#
# Coordination Sequence:
#
# PCOD8035997 Si02
#       8
#     2   2   2   2   2   2   2   2
#     4  11  26  50  72 106 150 194 243 314 373 454
#     4  12  25  45  72 106 143 200 242 308 374 442
#     4  12  26  46  77 106 151 193 246 306 380 439
#     4  12  25  46  75 107 151 187 255 311 367 446
#     4  12  26  47  74 110 144 194 248 307 373 448
#     4  12  27  47  71 107 148 195 251 303 376 451
#     4  12  26  46  76 112 148 197 252 309 373 450
#     4  11  25  49  73 106 148 192 247 303 385 444
#
# _framework density 24.496873000000001
#
# number of rings (size 3 to 8) (size 9 to 14) (size 15 to 20)
#    0.000    0.250    3.750    5.250    3.500    1.500 
#    4.500    0.000    0.000    0.000    0.000    0.000 
#    0.000    0.000    0.000    0.000    0.000    0.000 
#
# Total GULP energy -198251.232629 kJ/mol
# GULP energy per Si atom -12390.702039 kJ/mol
# Density = 2.444112 g / cm^3
# Si number density = 24.496873 Si / 1000 Ang^3
#
#
#
# Elastic Constant Matrix: (Units=GPa)
#
#
# Indices 1 2 3 4 5 6 
#
# 1 85.9288 12.3992 29.8121 8.0135 2.5435 3.7597
# 2 12.3992 163.4175 53.0078 1.7139 6.4213 11.6714
# 3 29.8121 53.0078 125.2417 -3.4250 11.1851 11.1188
# 4 8.0135 1.7139 -3.4250 55.4512 -0.4828 0.5506
# 5 2.5435 6.4213 11.1851 -0.4828 36.9758 1.5123
# 6 3.7597 11.6714 11.1188 0.5506 1.5123 17.1553
#
#
#
# Elastic Compliance Matrix: (Units=1/GPa)
#
#
# Indices 1 2 3 4 5 6 
#
# 1 0.012927 0.000107 -0.003108 -0.002055 0.000040 -0.000828
# 2 0.000107 0.007259 -0.002806 -0.000385 -0.000297 -0.003105
# 3 -0.003108 -0.002806 0.010510 0.001205 -0.002297 -0.004058
# 4 -0.002055 -0.000385 0.001205 0.018425 0.000112 -0.000670
# 5 0.000040 -0.000297 -0.002297 0.000112 0.027821 -0.000774
# 6 -0.000828 -0.003105 -0.004058 -0.000670 -0.000774 0.063305
#
#
# Mechanical properties :
#
#
# Convention : Reuss Voigt Hill
#
# Bulk Modulus (GPa) = 52.40845 62.78070 57.59458
# Shear Modulus (GPa) = 31.60086 40.54105 36.07095
#
# Velocity S-wave (km/s) = 3.59555 4.07252 3.84144
# Velocity P-wave (km/s) = 6.21914 6.91358 6.57553
#
# Compressibility (1/GPa) = 0.01908089
#
# Stress axis : x y z
#
# Youngs Moduli (GPa) = 77.35552 137.76315 95.14339
#
# Poissons Ratio (x) = -0.01469 0.29575
# Poissons Ratio (y) = -0.00825 0.26697
# Poissons Ratio (z) = 0.24046 0.38656
#
# Static dielectric constant tensor:
#      x y z
#    x 4.906090 -0.247060 0.405440 
#    y -0.247060 4.985860 -0.301000 
#    z 0.405440 -0.301000 5.094040 
# 
# 
# High freq. dielectric constant tensor:
#      x y z
#    x 1.955050 -0.005310 0.003580 
#    y -0.005310 1.997590 -0.004310 
#    z 0.003580 -0.004310 1.987930 
# 
# From -- ./inp_files/537673.got.cif
#   From: 2010.06.25/outbox.cif.g09.slc.cpg/sg2_269_cif.got.tgz:537673.got - 2010.06.27 13:26:56.
