data_PCOD8035307
_publ_section_title
;
Structure prediction by ZEFSAII (Michael W. Deem and Ramdas Pophale) SiO2 
 PCOD8035307
Probable space group: P -1
;
_chemical_formula_sum "Si O2"
_cell_formula_units_Z 16
_cell_length_a 14.024734
_cell_length_b 9.479381
_cell_length_c 9.048454
_cell_angle_alpha 99.388610
_cell_angle_beta 43.213898
_cell_angle_gamma 117.746177
_cell_volume 697.498427
_symmetry_space_group_name_H-M "P -1"
_symmetry_group_IT_number 2
_symmetry_cell_setting 'triclinic'
loop_
_space_group_symop_operation_xyz
x,y,z
-x,-y,-z
loop_
_atom_site_type_symbol
_atom_site_label
_atom_site_fract_x
_atom_site_fract_y
_atom_site_fract_z
Si Si1 0.937365 0.611915 0.159118
Si Si2 0.370183 0.030776 0.236879
Si Si3 0.889790 0.002283 0.000417
Si Si4 0.873336 0.526458 0.556066
Si Si5 0.562674 0.900047 0.498524
Si Si6 0.441906 0.597944 0.978362
Si Si7 0.365813 0.529339 0.721087
Si Si8 0.000857 0.874202 0.587684
O O1 0.888050 0.534749 0.364915
O O2 0.797229 0.595477 0.205347
O O3 0.000000 0.500000 0.000000
O O4 0.065704 0.810038 0.062573
O O5 0.374872 0.005873 0.401300
O O6 0.182262 0.901587 0.390144
O O7 0.407473 0.217572 0.193075
O O8 0.500000 0.000000 0.000000
O O9 0.703567 0.897110 0.244682
O O10 0.000000 0.000000 0.000000
O O11 0.921677 0.899143 0.825685
O O12 0.692125 0.379316 0.777089
O O13 0.000000 0.500000 0.500000
O O14 0.879875 0.690750 0.635725
O O15 0.410974 0.716397 0.665707
O O16 0.500000 0.000000 0.500000
O O17 0.500000 0.500000 0.000000
O O18 0.359304 0.502074 0.900808
O O19 0.500000 0.500000 0.500000
O O20 0.000000 0.000000 0.500000
#
# Coordination Sequence:
#
# PCOD8035307 Si02
#       8
#     2   2   2   2   2   2   2   2
#     4  12  27  47  69 103 143 183 233 289 346 418
#     4  11  26  46  68 101 142 179 228 287 343 417
#     4  12  26  46  74 102 142 183 236 289 348 418
#     4  12  27  46  70 103 140 185 235 284 351 417
#     4  11  26  45  69 103 137 181 231 280 349 416
#     4  11  25  44  70 101 136 178 229 280 342 412
#     4  11  25  43  70  99 138 177 226 285 341 406
#     4  12  26  47  72 102 141 185 234 292 348 408
#
# _framework density 22.939119999999999
#
# number of rings (size 3 to 8) (size 9 to 14) (size 15 to 20)
#    0.000    0.500    2.500    4.500    8.750    6.000 
#    0.000    0.000    0.000    0.000    0.000    0.000 
#    0.000    0.000    0.000    0.000    0.000    0.000 
#
# Total GULP energy -198337.141803 kJ/mol
# GULP energy per Si atom -12396.071363 kJ/mol
# Density = 2.288691 g / cm^3
# Si number density = 22.939120 Si / 1000 Ang^3
#
#
#
# Elastic Constant Matrix: (Units=GPa)
#
#
# Indices 1 2 3 4 5 6 
#
# 1 133.8824 15.0056 48.1797 1.9073 19.4329 -17.4229
# 2 15.0056 70.8187 13.4565 9.2039 10.6152 -4.3862
# 3 48.1797 13.4565 163.0452 21.5104 12.7952 -0.3484
# 4 1.9073 9.2039 21.5104 45.6074 -1.6795 0.8266
# 5 19.4329 10.6152 12.7952 -1.6795 51.4321 0.3094
# 6 -17.4229 -4.3862 -0.3484 0.8266 0.3094 43.2556
#
#
#
# Elastic Compliance Matrix: (Units=1/GPa)
#
#
# Indices 1 2 3 4 5 6 
#
# 1 0.009360 -0.000975 -0.002580 0.000857 -0.002688 0.003653
# 2 -0.000975 0.015281 -0.000354 -0.003001 -0.002803 0.001231
# 3 -0.002580 -0.000354 0.007435 -0.003343 -0.000905 -0.000945
# 4 0.000857 -0.003001 -0.003343 0.024152 0.001919 -0.000461
# 5 -0.002688 -0.002803 -0.000905 0.001919 0.021334 -0.001563
# 6 0.003653 0.001231 -0.000945 -0.000461 -0.001563 0.024727
#
#
# Mechanical properties :
#
#
# Convention : Reuss Voigt Hill
#
# Bulk Modulus (GPa) = 41.22512 57.89223 49.55867
# Shear Modulus (GPa) = 42.30309 47.46597 44.88453
#
# Velocity S-wave (km/s) = 4.29901 4.55380 4.42824
# Velocity P-wave (km/s) = 6.53089 7.27609 6.91354
#
# Compressibility (1/GPa) = 0.02425706
#
# Stress axis : x y z
#
# Youngs Moduli (GPa) = 106.83456 65.44070 134.49961
#
# Poissons Ratio (x) = 0.06383 0.34698
# Poissons Ratio (y) = 0.10420 0.04767
# Poissons Ratio (z) = 0.27561 0.02319
#
# Static dielectric constant tensor:
#      x y z
#    x 4.080340 -0.037910 0.036390 
#    y -0.037910 4.979860 -0.616680 
#    z 0.036390 -0.616680 4.589800 
# 
# 
# High freq. dielectric constant tensor:
#      x y z
#    x 1.916760 -0.007690 0.006180 
#    y -0.007690 1.916210 -0.001840 
#    z 0.006180 -0.001840 1.924150 
# 
# From -- ./inp_files/298666.got.cif
#   From: 2010.06.25/outbox.cif.g09.slc.cpg/sg2_150_cif.got.tgz:298666.got - 2010.06.27 13:26:56.
