data_PCOD8035202
_publ_section_title
;
Structure prediction by ZEFSAII (Michael W. Deem and Ramdas Pophale) SiO2 
 PCOD8035202
Probable space group: P -1
;
_chemical_formula_sum "Si O2"
_cell_formula_units_Z 10
_cell_length_a 13.775597
_cell_length_b 7.297925
_cell_length_c 5.000192
_cell_angle_alpha 117.644672
_cell_angle_beta 92.307943
_cell_angle_gamma 120.432659
_cell_volume 358.142944
_symmetry_space_group_name_H-M "P -1"
_symmetry_group_IT_number 2
_symmetry_cell_setting 'triclinic'
loop_
_space_group_symop_operation_xyz
x,y,z
-x,-y,-z
loop_
_atom_site_type_symbol
_atom_site_label
_atom_site_fract_x
_atom_site_fract_y
_atom_site_fract_z
Si Si1 0.383690 0.367301 0.669991
Si Si2 0.582541 0.906835 0.925400
Si Si3 0.822188 0.339660 0.525425
Si Si4 0.022904 0.840604 0.591982
Si Si5 0.759946 0.675158 0.878863
O O1 0.515088 0.642977 0.920145
O O2 0.402838 0.154677 0.423025
O O3 0.325207 0.419715 0.451402
O O4 0.294372 0.268354 0.839676
O O5 0.500000 0.000000 0.000000
O O6 0.715382 0.103160 0.184741
O O7 0.905467 0.264885 0.609740
O O8 0.772417 0.445501 0.806631
O O9 0.898428 0.591745 0.514618
O O10 0.000000 0.000000 0.500000
O O11 0.110375 0.047822 0.973846
#
# Coordination Sequence:
#
# PCOD8035202 Si02
#       5
#     2   2   2   2   2
#     4  11  27  48  77 116 161 208 256 336 400 471
#     4  11  24  49  78 114 159 208 262 325 401 480
#     4  11  25  50  80 116 158 211 270 324 403 479
#     4  11  26  50  79 114 162 207 269 333 398 470
#     4  12  25  51  78 114 160 207 266 331 399 474
#
# _framework density 27.921811999999999
#
# number of rings (size 3 to 8) (size 9 to 14) (size 15 to 20)
#    0.000    0.800    4.000    1.800    0.000    6.400 
#    0.000    0.000    0.000    0.000    0.000    0.000 
#    0.000    0.000    0.000    0.000    0.000    0.000 
#
# Total GULP energy -123957.684732 kJ/mol
# GULP energy per Si atom -12395.768473 kJ/mol
# Density = 2.785826 g / cm^3
# Si number density = 27.921812 Si / 1000 Ang^3
#
#
#
# Elastic Constant Matrix: (Units=GPa)
#
#
# Indices 1 2 3 4 5 6 
#
# 1 196.9287 58.9234 64.7518 16.3057 -25.5828 -30.6536
# 2 58.9234 136.1157 63.9863 28.7415 4.4943 -2.3953
# 3 64.7518 63.9863 139.3941 37.0826 -14.2835 23.4134
# 4 16.3057 28.7415 37.0826 47.2401 0.9644 1.0383
# 5 -25.5828 4.4943 -14.2835 0.9644 40.7427 17.3142
# 6 -30.6536 -2.3953 23.4134 1.0383 17.3142 57.7165
#
#
#
# Elastic Compliance Matrix: (Units=1/GPa)
#
#
# Indices 1 2 3 4 5 6 
#
# 1 0.007761 -0.001790 -0.003825 0.001269 0.001524 0.005119
# 2 -0.001790 0.011024 -0.004610 -0.002431 -0.005160 0.002969
# 3 -0.003825 -0.004610 0.016085 -0.008433 0.008709 -0.011209
# 4 0.001269 -0.002431 -0.008433 0.028817 -0.004643 0.004868
# 5 0.001524 -0.005160 0.008709 -0.004643 0.034895 -0.013322
# 6 0.005119 0.002969 -0.011209 0.004868 -0.013322 0.028624
#
#
# Mechanical properties :
#
#
# Convention : Reuss Voigt Hill
#
# Bulk Modulus (GPa) = 69.34004 94.19571 81.76788
# Shear Modulus (GPa) = 32.79496 48.12499 40.45997
#
# Velocity S-wave (km/s) = 3.43086 4.15609 3.81076
# Velocity P-wave (km/s) = 6.37039 7.53920 6.97931
#
# Compressibility (1/GPa) = 0.01442168
#
# Stress axis : x y z
#
# Youngs Moduli (GPa) = 128.85105 90.70760 62.16924
#
# Poissons Ratio (x) = 0.16235 0.23778
# Poissons Ratio (y) = 0.23063 0.28659
# Poissons Ratio (z) = 0.49282 0.41815
#
# Static dielectric constant tensor:
#      x y z
#    x 6.255810 -0.094860 -0.090550 
#    y -0.094860 5.150390 0.608460 
#    z -0.090550 0.608460 5.528450 
# 
# 
# High freq. dielectric constant tensor:
#      x y z
#    x 2.178010 0.000430 -0.003360 
#    y 0.000430 2.111910 0.039310 
#    z -0.003360 0.039310 2.133730 
# 
# From -- ./inp_files/86875.got.cif
#   From: 2010.06.25/outbox.cif.g09.slc.cpg/sg2_44_cif.got.tgz:86875.got - 2010.06.27 13:26:56.
