data_PCOD8035295
_publ_section_title
;
Structure prediction by ZEFSAII (Michael W. Deem and Ramdas Pophale) SiO2 
 PCOD8035295
Probable space group: P -1
;
_chemical_formula_sum "Si O2"
_cell_formula_units_Z 14
_cell_length_a 6.624124
_cell_length_b 15.499106
_cell_length_c 13.466136
_cell_angle_alpha 136.203297
_cell_angle_beta 42.242310
_cell_angle_gamma 115.716371
_cell_volume 628.098785
_symmetry_space_group_name_H-M "P -1"
_symmetry_group_IT_number 2
_symmetry_cell_setting 'triclinic'
loop_
_space_group_symop_operation_xyz
x,y,z
-x,-y,-z
loop_
_atom_site_type_symbol
_atom_site_label
_atom_site_fract_x
_atom_site_fract_y
_atom_site_fract_z
Si Si1 0.810014 0.918764 0.869130
Si Si2 0.930006 0.648009 0.112429
Si Si3 0.229509 0.661664 0.805110
Si Si4 0.110519 0.454505 0.529723
Si Si5 0.198505 0.109762 0.928479
Si Si6 0.830266 0.148447 0.668827
Si Si7 0.787328 0.270989 0.576484
O O1 0.967798 0.794640 0.648911
O O2 0.708399 0.882332 0.984387
O O3 0.116435 0.977166 0.817968
O O4 0.500000 0.000000 0.000000
O O5 0.570254 0.715207 0.305636
O O6 0.093524 0.746594 0.194822
O O7 0.000000 0.500000 0.000000
O O8 0.040429 0.639488 0.952502
O O9 0.198325 0.569031 0.650645
O O10 0.584641 0.654306 0.693102
O O11 0.117389 0.798922 0.912584
O O12 0.000000 0.500000 0.500000
O O13 0.856375 0.412311 0.659249
O O14 0.472064 0.147361 0.798315
O O15 0.899706 0.197779 0.576376
O O16 0.000000 0.000000 0.500000
#
# Coordination Sequence:
#
# PCOD8035295 Si02
#       7
#     2   2   2   2   2   2   2
#     4  11  25  44  72 103 147 189 245 302 370 442
#     4  12  28  46  73 105 150 196 248 305 374 441
#     4  11  25  43  69 103 139 189 242 297 366 438
#     4  11  25  44  72 103 147 189 245 302 370 442
#     4  11  25  43  69 103 139 189 242 297 366 438
#     4  12  28  46  73 105 150 196 248 305 374 441
#     4  12  26  44  72 106 146 184 248 306 368 438
#
# _framework density 22.289489
#
# number of rings (size 3 to 8) (size 9 to 14) (size 15 to 20)
#    0.000    0.571    1.429    5.143   10.000    8.000 
#    0.000    0.000    0.000    0.000    0.000    0.000 
#    0.000    0.000    0.000    0.000    0.000    0.000 
#
# Total GULP energy -173472.449175 kJ/mol
# GULP energy per Si atom -12390.889227 kJ/mol
# Density = 2.223876 g / cm^3
# Si number density = 22.289489 Si / 1000 Ang^3
#
#
#
# Elastic Constant Matrix: (Units=GPa)
#
#
# Indices 1 2 3 4 5 6 
#
# 1 122.9328 46.1100 45.8712 -8.3645 -5.3403 -18.2510
# 2 46.1100 128.3209 22.4569 -11.4611 2.5328 -15.6434
# 3 45.8712 22.4569 85.6864 1.4328 -9.7714 2.1739
# 4 -8.3645 -11.4611 1.4328 38.2206 1.8468 -6.9303
# 5 -5.3403 2.5328 -9.7714 1.8468 35.7290 -2.2970
# 6 -18.2510 -15.6434 2.1739 -6.9303 -2.2970 46.6510
#
#
#
# Elastic Compliance Matrix: (Units=1/GPa)
#
#
# Indices 1 2 3 4 5 6 
#
# 1 0.012241 -0.002521 -0.006002 0.002974 0.000515 0.004690
# 2 -0.002521 0.009562 -0.001435 0.002919 -0.001428 0.002650
# 3 -0.006002 -0.001435 0.015804 -0.003205 0.003444 -0.003873
# 4 0.002974 0.002919 -0.003205 0.029077 -0.001722 0.006526
# 5 0.000515 -0.001428 0.003444 -0.001722 0.029245 0.000746
# 6 0.004690 0.002650 -0.003873 0.006526 0.000746 0.025346
#
#
# Mechanical properties :
#
#
# Convention : Reuss Voigt Hill
#
# Bulk Modulus (GPa) = 56.52870 62.86847 59.69858
# Shear Modulus (GPa) = 33.99291 38.95359 36.47325
#
# Velocity S-wave (km/s) = 3.90944 4.18499 4.04956
# Velocity P-wave (km/s) = 6.76717 7.18463 6.97902
#
# Compressibility (1/GPa) = 0.01769013
#
# Stress axis : x y z
#
# Youngs Moduli (GPa) = 81.69403 104.58071 63.27320
#
# Poissons Ratio (x) = 0.26363 0.37979
# Poissons Ratio (y) = 0.20594 0.09082
# Poissons Ratio (z) = 0.49035 0.15011
#
# Static dielectric constant tensor:
#      x y z
#    x 3.845170 0.351720 0.169310 
#    y 0.351720 3.875640 -0.237340 
#    z 0.169310 -0.237340 3.958380 
# 
# 
# High freq. dielectric constant tensor:
#      x y z
#    x 1.894210 0.002890 -0.004760 
#    y 0.002890 1.899560 0.000350 
#    z -0.004760 0.000350 1.883740 
# 
# From -- ./inp_files/59893.got.cif
#   From: 2010.06.25/outbox.cif.g09.slc.cpg/sg2_30_cif.got.tgz:59893.got - 2010.06.27 13:26:56.
