data_PCOD8035326
_publ_section_title
;
Structure prediction by ZEFSAII (Michael W. Deem and Ramdas Pophale) SiO2 
 PCOD8035326
Probable space group: P -1
;
_chemical_formula_sum "Si O2"
_cell_formula_units_Z 16
_cell_length_a 10.318421
_cell_length_b 11.844122
_cell_length_c 6.470840
_cell_angle_alpha 64.739253
_cell_angle_beta 112.262112
_cell_angle_gamma 93.324015
_cell_volume 656.787511
_symmetry_space_group_name_H-M "P -1"
_symmetry_group_IT_number 2
_symmetry_cell_setting 'triclinic'
loop_
_space_group_symop_operation_xyz
x,y,z
-x,-y,-z
loop_
_atom_site_type_symbol
_atom_site_label
_atom_site_fract_x
_atom_site_fract_y
_atom_site_fract_z
Si Si1 0.793231 0.393127 0.427947
Si Si2 0.455303 0.722497 0.481341
Si Si3 0.363437 0.994806 0.291349
Si Si4 0.024473 0.615558 0.069763
Si Si5 0.119747 0.807752 0.698163
Si Si6 0.810645 0.932498 0.503700
Si Si7 0.368002 0.194816 0.808517
Si Si8 0.271820 0.348751 0.010564
O O1 0.645513 0.385553 0.465698
O O2 0.850426 0.263824 0.445717
O O3 0.762306 0.500562 0.151466
O O4 0.909941 0.429381 0.634083
O O5 0.350547 0.849137 0.365809
O O6 0.503625 0.735960 0.261095
O O7 0.587465 0.694373 0.741045
O O8 0.500000 0.000000 0.500000
O O9 0.224616 0.064979 0.271434
O O10 0.399474 0.062993 0.049174
O O11 0.868452 0.695804 0.934409
O O12 0.000000 0.500000 0.000000
O O13 0.133045 0.705242 0.970232
O O14 0.963089 0.879429 0.556804
O O15 0.220158 0.918471 0.700906
O O16 0.709432 0.841073 0.416236
O O17 0.281901 0.294969 0.826976
#
# Coordination Sequence:
#
# PCOD8035326 Si02
#       8
#     2   2   2   2   2   2   2   2
#     4  12  28  48  76 107 147 192 244 303 362 424
#     4  12  27  46  74 109 148 190 245 301 362 427
#     4  12  23  44  67 105 143 190 240 294 355 435
#     4  12  27  47  77 103 142 194 246 292 363 436
#     4  11  25  46  71 107 146 186 244 302 361 423
#     4  11  25  43  74 105 145 191 241 301 358 432
#     4  12  25  42  75 102 150 190 241 288 373 420
#     4  12  27  49  73 108 147 194 245 297 358 440
#
# _framework density 24.361001999999999
#
# number of rings (size 3 to 8) (size 9 to 14) (size 15 to 20)
#    0.000    0.250    5.000    3.375    5.250    1.500 
#    0.000    3.125    0.000    0.000    0.000    0.000 
#    0.000    0.000    0.000    0.000    0.000    0.000 
#
# Total GULP energy -198253.113636 kJ/mol
# GULP energy per Si atom -12390.819602 kJ/mol
# Density = 2.430556 g / cm^3
# Si number density = 24.361002 Si / 1000 Ang^3
#
#
#
# Elastic Constant Matrix: (Units=GPa)
#
#
# Indices 1 2 3 4 5 6 
#
# 1 122.0420 30.4201 35.8757 9.6419 -21.7062 -10.6018
# 2 30.4201 98.0566 19.7033 6.3628 -4.7969 -20.8036
# 3 35.8757 19.7033 95.7151 -5.3711 -10.5965 -9.1704
# 4 9.6419 6.3628 -5.3711 33.4547 -1.6219 -7.8919
# 5 -21.7062 -4.7969 -10.5965 -1.6219 40.1553 -4.6399
# 6 -10.6018 -20.8036 -9.1704 -7.8919 -4.6399 42.5224
#
#
#
# Elastic Compliance Matrix: (Units=1/GPa)
#
#
# Indices 1 2 3 4 5 6 
#
# 1 0.010790 -0.002093 -0.003146 -0.002751 0.004757 0.000996
# 2 -0.002093 0.012257 -0.001220 -0.000681 0.000579 0.005149
# 3 -0.003146 -0.001220 0.012508 0.003760 0.001862 0.002217
# 4 -0.002751 -0.000681 0.003760 0.032917 0.001453 0.006059
# 5 0.004757 0.000579 0.001862 0.001453 0.028703 0.005272
# 6 0.000996 0.005149 0.002217 0.006059 0.005272 0.028462
#
#
# Mechanical properties :
#
#
# Convention : Reuss Voigt Hill
#
# Bulk Modulus (GPa) = 44.17275 54.20134 49.18705
# Shear Modulus (GPa) = 34.22297 38.54744 36.38520
#
# Velocity S-wave (km/s) = 3.75217 3.98218 3.86888
# Velocity P-wave (km/s) = 6.07813 6.59100 6.33975
#
# Compressibility (1/GPa) = 0.02263839
#
# Stress axis : x y z
#
# Youngs Moduli (GPa) = 92.67654 81.58373 79.95177
#
# Poissons Ratio (x) = 0.17073 0.25152
# Poissons Ratio (y) = 0.19395 0.09752
# Poissons Ratio (z) = 0.29155 0.09951
#
# Static dielectric constant tensor:
#      x y z
#    x 4.898890 -0.180360 -0.761430 
#    y -0.180360 4.729390 0.014930 
#    z -0.761430 0.014930 4.377780 
# 
# 
# High freq. dielectric constant tensor:
#      x y z
#    x 1.981420 -0.004320 -0.030460 
#    y -0.004320 1.977710 -0.017750 
#    z -0.030460 -0.017750 1.956050 
# 
# From -- ./inp_files/69349.got.cif
#   From: 2010.06.25/outbox.cif.g09.slc.cpg/sg2_35_cif.got.tgz:69349.got - 2010.06.27 13:26:56.
