data_PCOD8035117
_publ_section_title
;
Structure prediction by ZEFSAII (Michael W. Deem and Ramdas Pophale) SiO2 
 PCOD8035117
Probable space group: P -1
;
_chemical_formula_sum "Si O2"
_cell_formula_units_Z 14
_cell_length_a 19.213334
_cell_length_b 19.794230
_cell_length_c 5.081672
_cell_angle_alpha 118.899596
_cell_angle_beta 53.994770
_cell_angle_gamma 160.955833
_cell_volume 490.571998
_symmetry_space_group_name_H-M "P -1"
_symmetry_group_IT_number 2
_symmetry_cell_setting 'triclinic'
loop_
_space_group_symop_operation_xyz
x,y,z
-x,-y,-z
loop_
_atom_site_type_symbol
_atom_site_label
_atom_site_fract_x
_atom_site_fract_y
_atom_site_fract_z
Si Si1 0.797689 0.837053 0.864296
Si Si2 0.730437 0.643057 0.989453
Si Si3 0.910763 0.709592 0.214209
Si Si4 0.196200 0.726541 0.055266
Si Si5 0.790149 0.461735 0.729331
Si Si6 0.451871 0.073684 0.025894
Si Si7 0.642558 0.877874 0.287132
O O1 0.841685 0.821161 0.001256
O O2 0.557505 0.598028 0.821648
O O3 0.749765 0.884965 0.144825
O O4 0.000000 0.000000 0.500000
O O5 0.837016 0.670598 0.596902
O O6 0.817605 0.694781 0.183724
O O7 0.787768 0.523835 0.081067
O O8 0.202203 0.953106 0.982222
O O9 0.065662 0.673272 0.457154
O O10 0.269017 0.853259 0.908945
O O11 0.427233 0.871890 0.899158
O O12 0.000000 0.500000 0.000000
O O13 0.633569 0.362689 0.644502
O O14 0.659720 0.271905 0.737644
O O15 0.325234 0.042799 0.375393
#
# Coordination Sequence:
#
# PCOD8035117 Si02
#       7
#     2   2   2   2   2   2   2
#     4  11  24  48  75 113 149 204 256 318 376 457
#     4  11  27  51  75 109 158 204 255 321 381 444
#     4  12  27  50  79 112 156 205 260 314 383 452
#     4  11  24  48  72 107 148 191 246 315 382 458
#     4  12  26  46  76 107 150 199 248 317 379 456
#     4  11  26  45  73 106 146 194 252 307 383 460
#     4  12  25  47  72 111 145 201 253 309 380 450
#
# _framework density 28.538115000000001
#
# number of rings (size 3 to 8) (size 9 to 14) (size 15 to 20)
#    0.000    0.571    5.714    1.286    2.000    4.571 
#    5.143    0.000    0.000    0.000    0.000    0.000 
#    0.000    0.000    0.000    0.000    0.000    0.000 
#
# Total GULP energy -173541.447043 kJ/mol
# GULP energy per Si atom -12395.817646 kJ/mol
# Density = 2.847316 g / cm^3
# Si number density = 28.538115 Si / 1000 Ang^3
#
#
#
# Elastic Constant Matrix: (Units=GPa)
#
#
# Indices 1 2 3 4 5 6 
#
# 1 80.4617 27.4847 26.4445 -4.6626 -21.3093 -24.0835
# 2 27.4847 125.6943 8.5365 -15.3420 -16.7218 -50.8328
# 3 26.4445 8.5365 74.2139 -30.8628 -19.3819 6.4290
# 4 -4.6626 -15.3420 -30.8628 49.0795 -10.4765 -1.4443
# 5 -21.3093 -16.7218 -19.3819 -10.4765 41.3434 1.7020
# 6 -24.0835 -50.8328 6.4290 -1.4443 1.7020 57.7153
#
#
#
# Elastic Compliance Matrix: (Units=1/GPa)
#
#
# Indices 1 2 3 4 5 6 
#
# 1 0.018474 0.000936 -0.005455 0.000390 0.007074 0.008942
# 2 0.000936 0.015619 0.003415 0.009721 0.010299 0.013706
# 3 -0.005455 0.003415 0.029631 0.023035 0.018402 -0.002536
# 4 0.000390 0.009721 0.023035 0.043617 0.025717 0.006491
# 5 0.007074 0.010299 0.018402 0.025717 0.046763 0.009238
# 6 0.008942 0.013706 -0.002536 0.006491 0.009238 0.033302
#
#
# Mechanical properties :
#
#
# Convention : Reuss Voigt Hill
#
# Bulk Modulus (GPa) = 16.25639 45.03348 30.64494
# Shear Modulus (GPa) = 23.79601 44.15458 33.97529
#
# Velocity S-wave (km/s) = 2.89075 3.93773 3.45414
# Velocity P-wave (km/s) = 4.10495 6.04059 5.16427
#
# Compressibility (1/GPa) = 0.06151428
#
# Stress axis : x y z
#
# Youngs Moduli (GPa) = 54.12996 64.02532 33.74861
#
# Poissons Ratio (x) = -0.05992 0.18411
# Poissons Ratio (y) = -0.05066 -0.11525
# Poissons Ratio (z) = 0.29530 -0.21864
#
# Static dielectric constant tensor:
#      x y z
#    x 5.333840 -0.021040 -0.628160 
#    y -0.021040 2.649500 1.605960 
#    z -0.628160 1.605960 3.866140 
# 
# 
# High freq. dielectric constant tensor:
#      x y z
#    x 2.161590 -0.021430 -0.021480 
#    y -0.021430 2.191010 -0.016180 
#    z -0.021480 -0.016180 2.148090 
# 
# From -- ./inp_files/120471.got.cif
#   From: 2010.06.25/outbox.cif.g09.slc.cpg/sg2_61_cif.got.tgz:120471.got - 2010.06.27 13:26:56.
