data_PCOD8035474
_publ_section_title
;
Structure prediction by ZEFSAII (Michael W. Deem and Ramdas Pophale) SiO2 
 PCOD8035474
Probable space group: P -1
;
_chemical_formula_sum "Si O2"
_cell_formula_units_Z 14
_cell_length_a 11.623111
_cell_length_b 11.224365
_cell_length_c 20.282194
_cell_angle_alpha 139.889601
_cell_angle_beta 155.955011
_cell_angle_gamma 52.613895
_cell_volume 651.286744
_symmetry_space_group_name_H-M "P -1"
_symmetry_group_IT_number 2
_symmetry_cell_setting 'triclinic'
loop_
_space_group_symop_operation_xyz
x,y,z
-x,-y,-z
loop_
_atom_site_type_symbol
_atom_site_label
_atom_site_fract_x
_atom_site_fract_y
_atom_site_fract_z
Si Si1 0.693782 0.046318 0.924723
Si Si2 0.357640 0.268747 0.341573
Si Si3 0.470623 0.857092 0.864080
Si Si4 0.228159 0.428733 0.047600
Si Si5 0.299409 0.285624 0.782552
Si Si6 0.824589 0.748957 0.445617
Si Si7 0.121408 0.818972 0.359771
O O1 0.681238 0.847277 0.797038
O O2 0.562464 0.995538 0.907076
O O3 0.494829 0.144372 0.820625
O O4 0.027142 0.208527 0.174703
O O5 0.500000 0.500000 0.500000
O O6 0.558830 0.207920 0.474843
O O7 0.688931 0.732073 0.934168
O O8 0.120967 0.717444 0.616854
O O9 0.500000 0.000000 0.000000
O O10 0.531475 0.609068 0.269472
O O11 0.000000 0.500000 0.000000
O O12 0.083780 0.346223 0.866840
O O13 0.167945 0.297343 0.647194
O O14 0.025682 0.198007 0.652392
O O15 0.500000 0.500000 0.000000
O O16 0.832720 0.969367 0.557513
#
# Coordination Sequence:
#
# PCOD8035474 Si02
#       7
#     2   2   2   2   2   2   2
#     4  11  25  45  70 104 144 178 229 294 349 420
#     4  11  26  43  70 106 142 182 225 291 368 413
#     4  12  26  50  71 101 144 190 239 282 345 421
#     4  12  30  47  71 103 142 192 240 284 343 429
#     4  12  22  44  77 105 137 175 233 299 355 409
#     4  12  25  47  77 100 141 184 236 298 352 412
#     4  12  24  47  69 106 139 181 236 290 357 413
#
# _framework density 21.495906999999999
#
# number of rings (size 3 to 8) (size 9 to 14) (size 15 to 20)
#    0.000    0.286    5.714    2.571    4.000    1.714 
#    0.000    0.000    0.000    0.000    0.000    0.000 
#    0.000    0.000    0.000    0.000    0.000    0.000 
#
# Total GULP energy -173704.667037 kJ/mol
# GULP energy per Si atom -12407.476217 kJ/mol
# Density = 2.144698 g / cm^3
# Si number density = 21.495907 Si / 1000 Ang^3
#
#
#
# Elastic Constant Matrix: (Units=GPa)
#
#
# Indices 1 2 3 4 5 6 
#
# 1 96.9195 23.8005 51.7896 -2.3301 4.9973 -7.1743
# 2 23.8005 100.7539 36.9322 -2.4867 -3.7964 -10.1583
# 3 51.7896 36.9322 152.5965 -5.1224 6.0592 -4.6870
# 4 -2.3301 -2.4867 -5.1224 51.1744 4.2951 0.5102
# 5 4.9973 -3.7964 6.0592 4.2951 33.5219 1.2240
# 6 -7.1743 -10.1583 -4.6870 0.5102 1.2240 29.4138
#
#
#
# Elastic Compliance Matrix: (Units=1/GPa)
#
#
# Indices 1 2 3 4 5 6 
#
# 1 0.013018 -0.001474 -0.003929 0.000233 -0.001504 0.002099
# 2 -0.001474 0.011489 -0.002251 0.000083 0.001801 0.003173
# 3 -0.003929 -0.002251 0.008495 0.000673 -0.001278 -0.000341
# 4 0.000233 0.000083 0.000673 0.019849 -0.002689 -0.000040
# 5 -0.001504 0.001801 -0.001278 -0.002689 0.030878 -0.001187
# 6 0.002099 0.003173 -0.000341 -0.000040 -0.001187 0.035601
#
#
# Mechanical properties :
#
#
# Convention : Reuss Voigt Hill
#
# Bulk Modulus (GPa) = 56.52561 63.92382 60.22472
# Shear Modulus (GPa) = 35.57790 38.67186 37.12488
#
# Velocity S-wave (km/s) = 4.07271 4.24610 4.16031
# Velocity P-wave (km/s) = 6.96197 7.33767 7.15229
#
# Compressibility (1/GPa) = 0.01769109
#
# Stress axis : x y z
#
# Youngs Moduli (GPa) = 76.81654 87.04332 117.72166
#
# Poissons Ratio (x) = 0.12832 0.46258
# Poissons Ratio (y) = 0.11324 0.26505
# Poissons Ratio (z) = 0.30184 0.19598
#
# Static dielectric constant tensor:
#      x y z
#    x 4.002640 0.196250 0.014230 
#    y 0.196250 4.282340 -0.109880 
#    z 0.014230 -0.109880 4.192490 
# 
# 
# High freq. dielectric constant tensor:
#      x y z
#    x 1.837320 -0.002650 -0.001240 
#    y -0.002650 1.851300 -0.002040 
#    z -0.001240 -0.002040 1.870940 
# 
# From -- ./inp_files/190436.got.cif
#   From: 2010.06.25/outbox.cif.g09.slc.cpg/sg2_96_cif.got.tgz:190436.got - 2010.06.27 13:26:56.
