data_PCOD8035028
_publ_section_title
;
Structure prediction by ZEFSAII (Michael W. Deem and Ramdas Pophale) SiO2 
 PCOD8035028
Probable space group: P -1
;
_chemical_formula_sum "Si O2"
_cell_formula_units_Z 16
_cell_length_a 15.511868
_cell_length_b 8.825210
_cell_length_c 8.771467
_cell_angle_alpha 88.252411
_cell_angle_beta 111.821652
_cell_angle_gamma 42.652895
_cell_volume 661.300237
_symmetry_space_group_name_H-M "P -1"
_symmetry_group_IT_number 2
_symmetry_cell_setting 'triclinic'
loop_
_space_group_symop_operation_xyz
x,y,z
-x,-y,-z
loop_
_atom_site_type_symbol
_atom_site_label
_atom_site_fract_x
_atom_site_fract_y
_atom_site_fract_z
Si Si1 0.098744 0.159358 0.487112
Si Si2 0.899342 0.292761 0.740257
Si Si3 0.352265 0.025107 0.190204
Si Si4 0.583917 0.255877 0.468474
Si Si5 0.308024 0.433137 0.135934
Si Si6 0.355620 0.521682 0.627982
Si Si7 0.933993 0.644005 0.224249
Si Si8 0.139488 0.779105 0.742031
O O1 0.126981 0.208075 0.661634
O O2 0.998842 0.390738 0.296102
O O3 0.992123 0.146511 0.438440
O O4 0.265641 0.903422 0.534486
O O5 0.847622 0.319451 0.876726
O O6 0.751846 0.453257 0.533106
O O7 0.925813 0.438097 0.746635
O O8 0.057841 0.000908 0.800283
O O9 0.350785 0.940367 0.353169
O O10 0.503318 0.765314 0.203548
O O11 0.365641 0.187493 0.216084
O O12 0.200412 0.178612 0.993698
O O13 0.449297 0.359761 0.273849
O O14 0.560230 0.476671 0.449824
O O15 0.257683 0.517981 0.924573
O O16 0.251506 0.722895 0.696321
#
# Coordination Sequence:
#
# PCOD8035028 Si02
#       8
#     2   2   2   2   2   2   2   2
#     4  11  24  47  73 107 145 189 243 302 360 426
#     4  12  25  47  73 104 148 191 238 299 359 428
#     4  12  28  48  73 108 150 189 243 297 358 436
#     4  12  27  46  72 103 152 193 236 296 362 428
#     4  12  29  47  72 110 144 196 239 298 362 427
#     4  12  27  47  74 105 150 193 236 301 361 427
#     4  11  26  44  76 108 142 193 243 297 364 425
#     4  12  26  49  75 106 145 188 248 301 358 426
#
# _framework density 24.194762000000001
#
# number of rings (size 3 to 8) (size 9 to 14) (size 15 to 20)
#    0.000    0.250    5.000    3.000    7.000    2.000 
#    0.000    0.000    0.000    0.000    0.000    0.000 
#    0.000    0.000    0.000    0.000    0.000    0.000 
#
# Total GULP energy -198354.737406 kJ/mol
# GULP energy per Si atom -12397.171088 kJ/mol
# Density = 2.413969 g / cm^3
# Si number density = 24.194762 Si / 1000 Ang^3
#
#
#
# Elastic Constant Matrix: (Units=GPa)
#
#
# Indices 1 2 3 4 5 6 
#
# 1 180.5177 52.7618 49.9134 -10.7661 2.0084 2.8655
# 2 52.7618 73.5315 13.4326 -11.6869 -2.2041 4.8455
# 3 49.9134 13.4326 95.2662 -3.2194 5.3616 -1.9282
# 4 -10.7661 -11.6869 -3.2194 28.2809 3.5371 -1.2631
# 5 2.0084 -2.2041 5.3616 3.5371 41.5528 7.5365
# 6 2.8655 4.8455 -1.9282 -1.2631 7.5365 41.5182
#
#
#
# Elastic Compliance Matrix: (Units=1/GPa)
#
#
# Indices 1 2 3 4 5 6 
#
# 1 0.008000 -0.005017 -0.003451 0.000608 -0.000248 -0.000063
# 2 -0.005017 0.018181 0.000152 0.005409 0.001052 -0.001795
# 3 -0.003451 0.000152 0.012414 0.000420 -0.001664 0.001112
# 4 0.000608 0.005409 0.000420 0.038331 -0.003260 0.001104
# 5 -0.000248 0.001052 -0.001664 -0.003260 0.025517 -0.004914
# 6 -0.000063 -0.001795 0.001112 0.001104 -0.004914 0.025277
#
#
# Mechanical properties :
#
#
# Convention : Reuss Voigt Hill
#
# Bulk Modulus (GPa) = 45.52915 64.61454 55.07185
# Shear Modulus (GPa) = 32.96579 37.81756 35.39168
#
# Velocity S-wave (km/s) = 3.69523 3.95783 3.82878
# Velocity P-wave (km/s) = 6.08810 6.90289 6.50826
#
# Compressibility (1/GPa) = 0.02196395
#
# Stress axis : x y z
#
# Youngs Moduli (GPa) = 124.99850 55.00251 80.55471
#
# Poissons Ratio (x) = 0.27593 0.27799
# Poissons Ratio (y) = 0.62707 -0.01225
# Poissons Ratio (z) = 0.43137 -0.00837
#
# Static dielectric constant tensor:
#      x y z
#    x 4.830580 -0.216550 -0.264310 
#    y -0.216550 4.843650 -0.122510 
#    z -0.264310 -0.122510 4.205490 
# 
# 
# High freq. dielectric constant tensor:
#      x y z
#    x 1.989420 -0.006470 -0.014460 
#    y -0.006470 1.980610 -0.014990 
#    z -0.014460 -0.014990 1.959510 
# 
# From -- ./inp_files/187811.got.cif
#   From: 2010.06.25/outbox.cif.g09.slc.cpg/sg2_94_cif.got.tgz:187811.got - 2010.06.27 13:26:56.
