data_PCOD8035250
_publ_section_title
;
Structure prediction by ZEFSAII (Michael W. Deem and Ramdas Pophale) SiO2 
 PCOD8035250
Probable space group: P -1
;
_chemical_formula_sum "Si O2"
_cell_formula_units_Z 14
_cell_length_a 11.123465
_cell_length_b 9.140940
_cell_length_c 14.846595
_cell_angle_alpha 132.129129
_cell_angle_beta 148.487605
_cell_angle_gamma 57.343184
_cell_volume 583.144289
_symmetry_space_group_name_H-M "P -1"
_symmetry_group_IT_number 2
_symmetry_cell_setting 'triclinic'
loop_
_space_group_symop_operation_xyz
x,y,z
-x,-y,-z
loop_
_atom_site_type_symbol
_atom_site_label
_atom_site_fract_x
_atom_site_fract_y
_atom_site_fract_z
Si Si1 0.590012 0.137834 0.033286
Si Si2 0.077220 0.191824 0.296573
Si Si3 0.347916 0.745254 0.454875
Si Si4 0.775240 0.911549 0.371782
Si Si5 0.646761 0.599517 0.293241
Si Si6 0.253811 0.793614 0.214951
Si Si7 0.853565 0.653314 0.780256
O O1 0.572872 0.368669 0.139739
O O2 0.851214 0.091396 0.159957
O O3 0.438641 0.077077 0.825585
O O4 0.500000 0.000000 0.000000
O O5 0.186086 0.371141 0.501742
O O6 0.003914 0.283592 0.192831
O O7 0.269116 0.032561 0.337086
O O8 0.316543 0.692934 0.307614
O O9 0.608396 0.745552 0.656552
O O10 0.185713 0.583102 0.339134
O O11 0.255145 0.955484 0.504002
O O12 0.778059 0.690016 0.324193
O O13 0.000000 0.000000 0.500000
O O14 0.420714 0.719631 0.214096
O O15 0.991820 0.734420 0.990332
#
# Coordination Sequence:
#
# PCOD8035250 Si02
#       7
#     2   2   2   2   2   2   2
#     4  12  30  47  73 109 148 198 252 304 374 446
#     4  12  24  48  74 108 153 192 247 307 375 441
#     4  11  25  46  71 112 150 190 249 304 369 441
#     4  12  27  47  73 102 150 195 252 298 371 444
#     4  12  26  48  77 107 150 196 246 310 373 442
#     4  12  24  46  79 109 147 195 251 302 378 431
#     4  11  25  41  74 112 149 190 241 313 368 441
#
# _framework density 24.007778999999999
#
# number of rings (size 3 to 8) (size 9 to 14) (size 15 to 20)
#    0.000    0.286    2.857    5.571    6.000    1.143 
#    0.000    0.000    0.000    0.000    0.000    0.000 
#    0.000    0.000    0.000    0.000    0.000    0.000 
#
# Total GULP energy -173648.603545 kJ/mol
# GULP energy per Si atom -12403.471682 kJ/mol
# Density = 2.395314 g / cm^3
# Si number density = 24.007779 Si / 1000 Ang^3
#
#
#
# Elastic Constant Matrix: (Units=GPa)
#
#
# Indices 1 2 3 4 5 6 
#
# 1 119.9209 55.8550 40.8711 15.3119 9.6697 17.3201
# 2 55.8550 112.9599 29.0669 16.9415 6.1655 19.5579
# 3 40.8711 29.0669 119.0736 -14.2471 -5.1125 10.1851
# 4 15.3119 16.9415 -14.2471 39.2743 8.6488 3.7423
# 5 9.6697 6.1655 -5.1125 8.6488 35.0744 4.3042
# 6 17.3201 19.5579 10.1851 3.7423 4.3042 41.1494
#
#
#
# Elastic Compliance Matrix: (Units=1/GPa)
#
#
# Indices 1 2 3 4 5 6 
#
# 1 0.012446 -0.004248 -0.003616 -0.003705 -0.002081 -0.001770
# 2 -0.004248 0.012628 -0.001826 -0.004158 0.000127 -0.003397
# 3 -0.003616 -0.001826 0.010949 0.005919 0.001580 -0.001024
# 4 -0.003705 -0.004158 0.005919 0.032031 -0.005247 -0.000294
# 5 -0.002081 0.000127 0.001580 -0.005247 0.030872 -0.002328
# 6 -0.001770 -0.003397 -0.001024 -0.000294 -0.002328 0.027185
#
#
# Mechanical properties :
#
#
# Convention : Reuss Voigt Hill
#
# Bulk Modulus (GPa) = 60.08759 67.06004 63.57382
# Shear Modulus (GPa) = 33.10409 38.17703 35.64056
#
# Velocity S-wave (km/s) = 3.71737 3.99205 3.85716
# Velocity P-wave (km/s) = 6.59605 7.01726 6.80991
#
# Compressibility (1/GPa) = 0.01664237
#
# Stress axis : x y z
#
# Youngs Moduli (GPa) = 80.34389 79.18989 91.33440
#
# Poissons Ratio (x) = 0.33641 0.33030
# Poissons Ratio (y) = 0.34131 0.16676
# Poissons Ratio (z) = 0.29056 0.14459
#
# Static dielectric constant tensor:
#      x y z
#    x 4.379510 0.154430 0.111820 
#    y 0.154430 4.195310 0.028090 
#    z 0.111820 0.028090 4.585000 
# 
# 
# High freq. dielectric constant tensor:
#      x y z
#    x 1.954150 0.013450 0.000350 
#    y 0.013450 1.949860 -0.001530 
#    z 0.000350 -0.001530 1.970600 
# 
# From -- ./inp_files/306696.got.cif
#   From: 2010.06.25/outbox.cif.g09.slc.cpg/sg2_154_cif.got.tgz:306696.got - 2010.06.27 13:26:56.
