data_PCOD8035458
_publ_section_title
;
Structure prediction by ZEFSAII (Michael W. Deem and Ramdas Pophale) SiO2 
 PCOD8035458
Probable space group: P -1
;
_chemical_formula_sum "Si O2"
_cell_formula_units_Z 14
_cell_length_a 6.233687
_cell_length_b 20.635985
_cell_length_c 5.940695
_cell_angle_alpha 73.269467
_cell_angle_beta 90.000466
_cell_angle_gamma 56.659637
_cell_volume 599.327802
_symmetry_space_group_name_H-M "P -1"
_symmetry_group_IT_number 2
_symmetry_cell_setting 'triclinic'
loop_
_space_group_symop_operation_xyz
x,y,z
-x,-y,-z
loop_
_atom_site_type_symbol
_atom_site_label
_atom_site_fract_x
_atom_site_fract_y
_atom_site_fract_z
Si Si1 0.711808 0.456308 0.739157
Si Si2 0.221001 0.178783 0.026952
Si Si3 0.720998 0.678783 0.115472
Si Si4 0.250005 0.749996 0.385153
Si Si5 0.492957 0.612697 0.860839
Si Si6 0.211811 0.956313 0.848223
Si Si7 0.992951 0.112701 0.413764
O O1 0.500000 0.500000 0.500000
O O2 0.693257 0.523678 0.837762
O O3 0.007250 0.399467 0.701169
O O4 0.667472 0.394411 0.933988
O O5 0.492747 0.100532 0.000098
O O6 0.148573 0.147985 0.276522
O O7 0.250008 0.249999 0.040978
O O8 0.006863 0.213633 0.798595
O O9 0.506855 0.713629 0.274124
O O10 0.648588 0.647982 0.927492
O O11 0.287506 0.676612 0.611616
O O12 0.212512 0.823376 0.464872
O O13 0.167479 0.894420 0.777155
O O14 0.193267 0.023688 0.614902
O O15 0.000000 0.000000 0.000000
#
# Coordination Sequence:
#
# PCOD8035458 Si02
#       7
#     2   2   2   2   2   2   2
#     4  11  25  47  72 100 135 176 226 281 336 398
#     4  12  25  44  69  99 138 179 224 276 335 400
#     4  12  25  44  69  99 138 179 224 276 335 400
#     4  12  26  44  68 100 138 178 226 276 332 402
#     4  11  25  45  69 101 136 178 226 275 339 401
#     4  11  25  47  72 100 135 176 226 281 336 398
#     4  11  25  45  69 101 136 178 226 275 339 401
#
# _framework density 23.359506
#
# number of rings (size 3 to 8) (size 9 to 14) (size 15 to 20)
#    0.000    0.571    0.000    8.571    0.000   12.571 
#    0.000    2.857    0.000    0.000    0.000    0.000 
#    0.000    0.000    0.000    0.000    0.000    0.000 
#
# Total GULP energy -173681.230573 kJ/mol
# GULP energy per Si atom -12405.802184 kJ/mol
# Density = 2.330634 g / cm^3
# Si number density = 23.359506 Si / 1000 Ang^3
#
#
#
# Elastic Constant Matrix: (Units=GPa)
#
#
# Indices 1 2 3 4 5 6 
#
# 1 147.7416 98.7698 90.0469 -5.1974 4.5713 -12.7998
# 2 98.7698 149.8766 61.6579 4.6393 7.2836 -9.5988
# 3 90.0469 61.6579 137.8004 -10.8774 2.7485 -6.6465
# 4 -5.1974 4.6393 -10.8774 46.6151 -0.2971 3.4055
# 5 4.5713 7.2836 2.7485 -0.2971 32.7018 -12.4670
# 6 -12.7998 -9.5988 -6.6465 3.4055 -12.4670 63.0012
#
#
#
# Elastic Compliance Matrix: (Units=1/GPa)
#
#
# Indices 1 2 3 4 5 6 
#
# 1 0.016578 -0.007946 -0.007150 0.000867 0.000625 0.001480
# 2 -0.007946 0.012229 -0.000422 -0.002212 -0.001594 0.000008
# 3 -0.007150 -0.000422 0.012271 0.002133 -0.000051 -0.000348
# 4 0.000867 -0.002212 0.002133 0.022351 -0.000044 -0.001153
# 5 0.000625 -0.001594 -0.000051 -0.000044 0.033319 0.006475
# 6 0.001480 0.000008 -0.000348 -0.001153 0.006475 0.017482
#
#
# Mechanical properties :
#
#
# Convention : Reuss Voigt Hill
#
# Bulk Modulus (GPa) = 99.58887 104.04086 101.81487
# Shear Modulus (GPa) = 33.64463 40.79323 37.21893
#
# Velocity S-wave (km/s) = 3.79924 4.18344 3.99596
# Velocity P-wave (km/s) = 7.87219 8.24442 8.06045
#
# Compressibility (1/GPa) = 0.01004128
#
# Stress axis : x y z
#
# Youngs Moduli (GPa) = 60.32025 81.77596 81.49490
#
# Poissons Ratio (x) = 0.64979 0.58273
# Poissons Ratio (y) = 0.47930 0.03436
# Poissons Ratio (z) = 0.43132 0.03448
#
# Static dielectric constant tensor:
#      x y z
#    x 4.189560 0.079450 -0.022220 
#    y 0.079450 4.639840 -0.157670 
#    z -0.022220 -0.157670 4.195070 
# 
# 
# High freq. dielectric constant tensor:
#      x y z
#    x 1.919690 0.003270 -0.001290 
#    y 0.003270 1.954440 -0.010590 
#    z -0.001290 -0.010590 1.925180 
# 
# From -- ./inp_files/10797.got.cif
#   From: 2010.06.25/outbox.cif.g09.slc.cpg/sg2_6_cif.got.tgz:10797.got - 2010.06.27 13:26:56.
