data_PCOD8035747
_publ_section_title
;
Structure prediction by ZEFSAII (Michael W. Deem and Ramdas Pophale) SiO2 
 PCOD8035747
Probable space group: P -1
;
_chemical_formula_sum "Si O2"
_cell_formula_units_Z 12
_cell_length_a 9.389630
_cell_length_b 11.317069
_cell_length_c 17.800029
_cell_angle_alpha 137.632386
_cell_angle_beta 152.595749
_cell_angle_gamma 42.850487
_cell_volume 568.208997
_symmetry_space_group_name_H-M "P -1"
_symmetry_group_IT_number 2
_symmetry_cell_setting 'triclinic'
loop_
_space_group_symop_operation_xyz
x,y,z
-x,-y,-z
loop_
_atom_site_type_symbol
_atom_site_label
_atom_site_fract_x
_atom_site_fract_y
_atom_site_fract_z
Si Si1 0.216547 0.106828 0.193580
Si Si2 0.447612 0.633478 0.607710
Si Si3 0.937681 0.274332 0.287131
Si Si4 0.863428 0.926201 0.472874
Si Si5 0.509801 0.559974 0.312395
Si Si6 0.175502 0.938487 0.324724
O O1 0.380133 0.207046 0.254923
O O2 0.001026 0.256947 0.219304
O O3 0.480615 0.960588 0.297714
O O4 0.000000 0.000000 0.000000
O O5 0.500000 0.500000 0.500000
O O6 0.591990 0.534954 0.705810
O O7 0.062052 0.716388 0.477953
O O8 0.606680 0.417693 0.222090
O O9 0.212569 0.344600 0.490124
O O10 0.922696 0.074748 0.216917
O O11 0.938904 0.038612 0.631890
O O12 0.000000 0.000000 0.500000
O O13 0.219519 0.725568 0.224922
O O14 0.500000 0.000000 0.500000
#
# Coordination Sequence:
#
# PCOD8035747 Si02
#       6
#     2   2   2   2   2   2
#     4  11  23  39  57  85 124 160 185 233 310 359
#     4  11  20  36  61  88 114 148 207 247 278 340
#     4  10  19  33  56  89 115 148 192 248 289 340
#     4  10  19  34  57  86 113 150 194 241 285 340
#     4  10  18  31  59  88 110 143 202 253 278 326
#     4  10  17  31  55  89 111 139 196 250 285 324
#
# _framework density 21.118988000000002
#
# number of rings (size 3 to 8) (size 9 to 14) (size 15 to 20)
#    0.000    1.667    6.667    1.000    0.000    0.000 
#    0.000    1.667    0.000    1.000    0.000    0.000 
#    0.000    0.000    0.000    0.000    0.000    0.000 
#
# Total GULP energy -148686.952125 kJ/mol
# GULP energy per Si atom -12390.579344 kJ/mol
# Density = 2.107092 g / cm^3
# Si number density = 21.118988 Si / 1000 Ang^3
#
#
#
# Elastic Constant Matrix: (Units=GPa)
#
#
# Indices 1 2 3 4 5 6 
#
# 1 115.5119 53.1037 4.9394 7.2470 -4.4298 -13.3926
# 2 53.1037 175.7500 25.7165 13.8589 -2.6612 -13.8019
# 3 4.9394 25.7165 46.9972 6.6095 1.6401 -6.9395
# 4 7.2470 13.8589 6.6095 11.7265 0.8061 -4.3814
# 5 -4.4298 -2.6612 1.6401 0.8061 14.8528 10.0826
# 6 -13.3926 -13.8019 -6.9395 -4.3814 10.0826 47.9269
#
#
#
# Elastic Compliance Matrix: (Units=1/GPa)
#
#
# Indices 1 2 3 4 5 6 
#
# 1 0.010387 -0.002907 0.001124 -0.003115 0.001520 0.001624
# 2 -0.002907 0.007461 -0.003034 -0.005297 0.000947 0.000214
# 3 0.001124 -0.003034 0.024788 -0.009609 -0.004531 0.003104
# 4 -0.003115 -0.005297 -0.009609 0.102724 -0.011895 0.008106
# 5 0.001520 0.000947 -0.004531 -0.011895 0.081436 -0.018178
# 6 0.001624 0.000214 0.003104 0.008106 -0.018178 0.026395
#
#
# Mechanical properties :
#
#
# Convention : Reuss Voigt Hill
#
# Bulk Modulus (GPa) = 30.30091 56.19756 43.24924
# Shear Modulus (GPa) = 18.25978 31.86788 25.06383
#
# Velocity S-wave (km/s) = 2.94362 3.88876 3.44872
# Velocity P-wave (km/s) = 5.09235 6.84332 6.03171
#
# Compressibility (1/GPa) = 0.03300231
#
# Stress axis : x y z
#
# Youngs Moduli (GPa) = 96.27051 134.03208 40.34268
#
# Poissons Ratio (x) = 0.38961 -0.04533
# Poissons Ratio (y) = 0.27984 0.12239
# Poissons Ratio (z) = -0.10818 0.40661
#
# Static dielectric constant tensor:
#      x y z
#    x 4.224860 -0.039210 0.032170 
#    y -0.039210 6.602250 0.130010 
#    z 0.032170 0.130010 3.177290 
# 
# 
# High freq. dielectric constant tensor:
#      x y z
#    x 1.850850 -0.007810 -0.005760 
#    y -0.007810 1.849880 0.008350 
#    z -0.005760 0.008350 1.736740 
# 
# From -- ./inp_files/156120.got.cif
#   From: 2010.06.25/outbox.cif.g09.slc.cpg/sg2_79_cif.got.tgz:156120.got - 2010.06.27 13:26:56.
