data_PCOD8035340
_publ_section_title
;
Structure prediction by ZEFSAII (Michael W. Deem and Ramdas Pophale) SiO2 
 PCOD8035340
Probable space group: P -1
;
_chemical_formula_sum "Si O2"
_cell_formula_units_Z 16
_cell_length_a 9.819331
_cell_length_b 17.104332
_cell_length_c 5.618086
_cell_angle_alpha 99.936129
_cell_angle_beta 114.073097
_cell_angle_gamma 52.459334
_cell_volume 679.334111
_symmetry_space_group_name_H-M "P -1"
_symmetry_group_IT_number 2
_symmetry_cell_setting 'triclinic'
loop_
_space_group_symop_operation_xyz
x,y,z
-x,-y,-z
loop_
_atom_site_type_symbol
_atom_site_label
_atom_site_fract_x
_atom_site_fract_y
_atom_site_fract_z
Si Si1 0.322616 0.233298 0.206045
Si Si2 0.047228 0.709583 0.835763
Si Si3 0.335671 0.493043 0.833515
Si Si4 0.428191 0.090907 0.827317
Si Si5 0.088712 0.109000 0.444315
Si Si6 0.311755 0.902040 0.318750
Si Si7 0.798136 0.226704 0.674007
Si Si8 0.402198 0.383547 0.316139
O O1 0.527837 0.143060 0.391563
O O2 0.291522 0.336613 0.221079
O O3 0.165122 0.249505 0.273316
O O4 0.298708 0.198371 0.917126
O O5 0.148948 0.604025 0.725382
O O6 0.057338 0.790562 0.750387
O O7 0.156795 0.700532 0.148400
O O8 0.361036 0.439287 0.571673
O O9 0.500000 0.500000 0.000000
O O10 0.326222 0.445738 0.048589
O O11 0.288815 0.089522 0.551538
O O12 0.604640 0.082451 0.845878
O O13 0.500000 0.000000 0.000000
O O14 0.988403 0.133278 0.640612
O O15 0.124364 0.009200 0.317792
O O16 0.260971 0.824932 0.208296
O O17 0.624615 0.297944 0.409069
#
# Coordination Sequence:
#
# PCOD8035340 Si02
#       8
#     2   2   2   2   2   2   2   2
#     4  11  25  45  71 103 139 191 235 298 356 436
#     4  12  26  43  73 102 141 184 241 304 360 433
#     4  12  26  48  77 106 144 191 241 307 373 432
#     4  12  23  41  71  98 142 195 237 284 359 433
#     4  12  24  42  69 104 144 185 245 292 359 432
#     4  11  25  44  67 100 146 187 236 290 361 434
#     4  11  26  44  69 106 139 189 240 297 363 432
#     4  11  28  48  76 105 146 191 246 298 374 434
#
# _framework density 23.552478000000001
#
# number of rings (size 3 to 8) (size 9 to 14) (size 15 to 20)
#    0.000    0.500    5.000    2.625    5.250    2.500 
#    0.000    0.000    0.000    0.000    0.000    0.000 
#    0.000    0.000    0.000    0.000    0.000    0.000 
#
# Total GULP energy -198224.684795 kJ/mol
# GULP energy per Si atom -12389.042800 kJ/mol
# Density = 2.349887 g / cm^3
# Si number density = 23.552478 Si / 1000 Ang^3
#
#
#
# Elastic Constant Matrix: (Units=GPa)
#
#
# Indices 1 2 3 4 5 6 
#
# 1 108.9090 38.1712 16.0707 3.7230 -14.3177 8.1855
# 2 38.1712 149.4251 32.4255 7.9897 -8.0386 2.9734
# 3 16.0707 32.4255 66.1343 3.0056 -13.6570 9.9626
# 4 3.7230 7.9897 3.0056 42.8418 2.9637 -2.0555
# 5 -14.3177 -8.0386 -13.6570 2.9637 32.8524 4.7771
# 6 8.1855 2.9734 9.9626 -2.0555 4.7771 39.5343
#
#
#
# Elastic Compliance Matrix: (Units=1/GPa)
#
#
# Indices 1 2 3 4 5 6 
#
# 1 0.010873 -0.002413 -0.000069 -0.000935 0.004590 -0.002656
# 2 -0.002413 0.008089 -0.003581 -0.000968 -0.000592 0.000815
# 3 -0.000069 -0.003581 0.019509 -0.001534 0.008171 -0.005700
# 4 -0.000935 -0.000968 -0.001534 0.024087 -0.003799 0.002364
# 5 0.004590 -0.000592 0.008171 -0.003799 0.037147 -0.007651
# 6 -0.002656 0.000815 -0.005700 0.002364 -0.007651 0.028267
#
#
# Mechanical properties :
#
#
# Convention : Reuss Voigt Hill
#
# Bulk Modulus (GPa) = 37.95609 55.31146 46.63378
# Shear Modulus (GPa) = 33.58441 38.89912 36.24177
#
# Velocity S-wave (km/s) = 3.78026 4.06839 3.92697
# Velocity P-wave (km/s) = 5.93332 6.75310 6.35644
#
# Compressibility (1/GPa) = 0.02634623
#
# Stress axis : x y z
#
# Youngs Moduli (GPa) = 91.97290 123.61819 51.25890
#
# Poissons Ratio (x) = 0.29827 0.00352
# Poissons Ratio (y) = 0.22191 0.18355
# Poissons Ratio (z) = 0.00632 0.44266
#
# Static dielectric constant tensor:
#      x y z
#    x 4.396140 0.026350 -0.008640 
#    y 0.026350 0.743540 0.605150 
#    z -0.008640 0.605150 4.301280 
# 
# 
# High freq. dielectric constant tensor:
#      x y z
#    x 1.943000 0.006990 0.000870 
#    y 0.006990 1.943270 -0.000690 
#    z 0.000870 -0.000690 1.915160 
# 
# From -- ./inp_files/46656.got.cif
#   From: 2010.06.25/outbox.cif.g09.slc.cpg/sg2_24_cif.got.tgz:46656.got - 2010.06.27 13:26:56.
