data_PCOD8035602
_publ_section_title
;
Structure prediction by ZEFSAII (Michael W. Deem and Ramdas Pophale) SiO2 
 PCOD8035602
Probable space group: P -1
;
_chemical_formula_sum "Si O2"
_cell_formula_units_Z 14
_cell_length_a 5.252356
_cell_length_b 9.143242
_cell_length_c 18.596194
_cell_angle_alpha 134.316421
_cell_angle_beta 114.580778
_cell_angle_gamma 81.569626
_cell_volume 566.658261
_symmetry_space_group_name_H-M "P -1"
_symmetry_group_IT_number 2
_symmetry_cell_setting 'triclinic'
loop_
_space_group_symop_operation_xyz
x,y,z
-x,-y,-z
loop_
_atom_site_type_symbol
_atom_site_label
_atom_site_fract_x
_atom_site_fract_y
_atom_site_fract_z
Si Si1 0.930572 0.685244 0.931249
Si Si2 0.695111 0.931653 0.344300
Si Si3 0.375960 0.280956 0.445887
Si Si4 0.215635 0.122254 0.163689
Si Si5 0.229551 0.262965 0.571791
Si Si6 0.131996 0.706692 0.697679
Si Si7 0.416020 0.456874 0.892943
O O1 0.133542 0.543669 0.873569
O O2 0.780406 0.776346 0.879517
O O3 0.686419 0.560675 0.911859
O O4 0.131961 0.871483 0.063792
O O5 0.606391 0.774576 0.349008
O O6 0.676546 0.790360 0.222038
O O7 0.481859 0.084976 0.358548
O O8 0.011789 0.055798 0.445369
O O9 0.500000 0.500000 0.500000
O O10 0.460237 0.308297 0.549466
O O11 0.034455 0.246587 0.377944
O O12 0.542242 0.194379 0.252689
O O13 0.985761 0.188485 0.211996
O O14 0.079767 0.460305 0.627208
O O15 0.500000 0.500000 0.000000
#
# Coordination Sequence:
#
# PCOD8035602 Si02
#       7
#     2   2   2   2   2   2   2
#     4  11  25  50  73 107 148 194 262 308 370 445
#     4  11  27  47  75 105 152 204 247 304 380 453
#     4  12  26  46  72 111 153 195 247 313 378 449
#     4  11  25  45  78 109 146 199 245 318 377 440
#     4  11  25  47  72 110 151 201 249 301 374 469
#     4  12  25  43  77 111 155 192 251 311 383 449
#     4  12  28  49  76 108 150 200 255 309 371 447
#
# _framework density 24.706249
#
# number of rings (size 3 to 8) (size 9 to 14) (size 15 to 20)
#    0.000    0.571    1.429    5.571    6.000    3.429 
#    0.000    0.000    0.000    0.000    0.000    0.000 
#    0.000    0.000    0.000    0.000    0.000    0.000 
#
# Total GULP energy -173613.889908 kJ/mol
# GULP energy per Si atom -12400.992136 kJ/mol
# Density = 2.465002 g / cm^3
# Si number density = 24.706249 Si / 1000 Ang^3
#
#
#
# Elastic Constant Matrix: (Units=GPa)
#
#
# Indices 1 2 3 4 5 6 
#
# 1 123.2573 37.9507 45.4780 25.2632 -5.4835 -13.2612
# 2 37.9507 104.9325 42.7492 15.5992 -13.4318 -21.1177
# 3 45.4780 42.7492 125.4573 6.9291 -23.3286 -17.6152
# 4 25.2632 15.5992 6.9291 38.1669 -10.1194 -11.3851
# 5 -5.4835 -13.4318 -23.3286 -10.1194 47.8445 0.9978
# 6 -13.2612 -21.1177 -17.6152 -11.3851 0.9978 42.0689
#
#
#
# Elastic Compliance Matrix: (Units=1/GPa)
#
#
# Indices 1 2 3 4 5 6 
#
# 1 0.011282 -0.002079 -0.003571 -0.006856 -0.002465 -0.000779
# 2 -0.002079 0.012611 -0.002575 -0.001658 0.001610 0.004110
# 3 -0.003571 -0.002575 0.011339 0.003666 0.005105 0.003201
# 4 -0.006856 -0.001658 0.003666 0.035171 0.007811 0.007875
# 5 -0.002465 0.001610 0.005105 0.007811 0.025135 0.003686
# 6 -0.000779 0.004110 0.003201 0.007875 0.003686 0.028972
#
#
# Mechanical properties :
#
#
# Convention : Reuss Voigt Hill
#
# Bulk Modulus (GPa) = 53.24276 67.33366 60.28821
# Shear Modulus (GPa) = 33.96272 40.78067 37.37170
#
# Velocity S-wave (km/s) = 3.71166 4.06719 3.89349
# Velocity P-wave (km/s) = 6.32184 7.02630 6.68336
#
# Compressibility (1/GPa) = 0.01878190
#
# Stress axis : x y z
#
# Youngs Moduli (GPa) = 88.63344 79.29798 88.19149
#
# Poissons Ratio (x) = 0.16486 0.31490
# Poissons Ratio (y) = 0.18427 0.22713
# Poissons Ratio (z) = 0.31648 0.20423
#
# Static dielectric constant tensor:
#      x y z
#    x 4.388840 -0.116480 0.062820 
#    y -0.116480 5.048320 -0.310360 
#    z 0.062820 -0.310360 5.148600 
# 
# 
# High freq. dielectric constant tensor:
#      x y z
#    x 1.983790 0.002650 -0.007330 
#    y 0.002650 2.000240 0.002390 
#    z -0.007330 0.002390 1.995520 
# 
# From -- ./inp_files/548468.got.cif
#   From: 2010.06.25/outbox.cif.g09.slc.cpg/sg2_275_cif.got.tgz:548468.got - 2010.06.27 13:26:56.
