data_PCOD8035328
_publ_section_title
;
Structure prediction by ZEFSAII (Michael W. Deem and Ramdas Pophale) SiO2 
 PCOD8035328
Probable space group: P -1
;
_chemical_formula_sum "Si O2"
_cell_formula_units_Z 16
_cell_length_a 5.013488
_cell_length_b 12.593441
_cell_length_c 20.427495
_cell_angle_alpha 39.744620
_cell_angle_beta 64.304274
_cell_angle_gamma 84.283116
_cell_volume 679.145433
_symmetry_space_group_name_H-M "P -1"
_symmetry_group_IT_number 2
_symmetry_cell_setting 'triclinic'
loop_
_space_group_symop_operation_xyz
x,y,z
-x,-y,-z
loop_
_atom_site_type_symbol
_atom_site_label
_atom_site_fract_x
_atom_site_fract_y
_atom_site_fract_z
Si Si1 0.387301 0.936102 0.177900
Si Si2 0.384733 0.476583 0.819371
Si Si3 0.574102 0.824797 0.562700
Si Si4 0.225382 0.782075 0.490431
Si Si5 0.205875 0.991994 0.771321
Si Si6 0.854305 0.394036 0.716772
Si Si7 0.750263 0.587596 0.989710
Si Si8 0.906598 0.171349 0.929971
O O1 0.379479 0.739652 0.249807
O O2 0.640609 0.019852 0.169825
O O3 0.014299 0.893054 0.255000
O O4 0.522574 0.081238 0.034125
O O5 0.397325 0.677352 0.708101
O O6 0.686171 0.468325 0.753779
O O7 0.066813 0.313522 0.903927
O O8 0.433452 0.458864 0.899506
O O9 0.399325 0.742248 0.553255
O O10 0.957075 0.863520 0.497183
O O11 0.500000 0.000000 0.500000
O O12 0.088997 0.580158 0.567495
O O13 0.493930 0.924063 0.348892
O O14 0.951476 0.802204 0.859486
O O15 0.994079 0.271090 0.802860
O O16 0.500000 0.500000 0.000000
O O17 0.000000 0.500000 0.000000
O O18 0.000000 0.000000 0.000000
#
# Coordination Sequence:
#
# PCOD8035328 Si02
#       8
#     2   2   2   2   2   2   2   2
#     4  12  25  42  74 108 147 193 241 292 373 439
#     4  11  25  46  76 108 148 185 252 314 374 437
#     4  11  25  48  77 106 139 195 258 320 368 423
#     4  11  26  48  72 103 153 195 248 305 366 443
#     4  12  27  49  69 105 151 198 242 297 360 456
#     4  11  25  43  74 110 147 189 246 307 371 437
#     4  12  29  49  72 103 145 195 243 303 373 442
#     4  12  22  42  72 110 149 189 236 314 377 436
#
# _framework density 23.559021000000001
#
# number of rings (size 3 to 8) (size 9 to 14) (size 15 to 20)
#    0.000    0.500    3.750    3.750    3.500    1.000 
#    0.000    0.000    0.000    0.000    0.000    0.000 
#    0.000    0.000    0.000    0.000    0.000    0.000 
#
# Total GULP energy -198279.698035 kJ/mol
# GULP energy per Si atom -12392.481127 kJ/mol
# Density = 2.350540 g / cm^3
# Si number density = 23.559021 Si / 1000 Ang^3
#
#
#
# Elastic Constant Matrix: (Units=GPa)
#
#
# Indices 1 2 3 4 5 6 
#
# 1 117.4439 39.5768 46.0547 4.2343 -6.1901 -1.8182
# 2 39.5768 114.6168 70.8366 -13.7371 -6.0103 12.6518
# 3 46.0547 70.8366 179.7009 -15.6867 -9.5489 0.2325
# 4 4.2343 -13.7371 -15.6867 32.2933 -6.9836 -0.5992
# 5 -6.1901 -6.0103 -9.5489 -6.9836 32.7586 -4.9807
# 6 -1.8182 12.6518 0.2325 -0.5992 -4.9807 42.0701
#
#
#
# Elastic Compliance Matrix: (Units=1/GPa)
#
#
# Indices 1 2 3 4 5 6 
#
# 1 0.010388 -0.003052 -0.001737 -0.003396 0.000381 0.001373
# 2 -0.003052 0.013251 -0.004014 0.004228 0.000990 -0.003917
# 3 -0.001737 -0.004014 0.007950 0.002855 0.002070 0.001374
# 4 -0.003396 0.004228 0.002855 0.036495 0.008765 0.000123
# 5 0.000381 0.000990 0.002070 0.008765 0.033836 0.003838
# 6 0.001373 -0.003917 0.001374 0.000123 0.003838 0.025456
#
#
# Mechanical properties :
#
#
# Convention : Reuss Voigt Hill
#
# Bulk Modulus (GPa) = 71.52259 80.52197 76.02228
# Shear Modulus (GPa) = 33.41297 38.44397 35.92847
#
# Velocity S-wave (km/s) = 3.77007 4.04396 3.90941
# Velocity P-wave (km/s) = 7.02681 7.48718 7.26064
#
# Compressibility (1/GPa) = 0.01398160
#
# Stress axis : x y z
#
# Youngs Moduli (GPa) = 96.26269 75.46828 125.78765
#
# Poissons Ratio (x) = 0.23033 0.21853
# Poissons Ratio (y) = 0.29379 0.50495
# Poissons Ratio (z) = 0.16723 0.30295
#
# Static dielectric constant tensor:
#      x y z
#    x 4.352870 -0.022880 -0.071470 
#    y -0.022880 4.397900 -0.079780 
#    z -0.071470 -0.079780 4.660320 
# 
# 
# High freq. dielectric constant tensor:
#      x y z
#    x 1.937490 0.001400 -0.005570 
#    y 0.001400 1.934620 -0.015140 
#    z -0.005570 -0.015140 1.939470 
# 
# From -- ./inp_files/583001.got.cif
#   From: 2010.06.25/outbox.cif.g09.slc.cpg/sg2_292_cif.got.tgz:583001.got - 2010.06.27 13:26:56.
