data_PCOD8035420
_publ_section_title
;
Structure prediction by ZEFSAII (Michael W. Deem and Ramdas Pophale) SiO2 
 PCOD8035420
Probable space group: P -1
;
_chemical_formula_sum "Si O2"
_cell_formula_units_Z 14
_cell_length_a 9.550364
_cell_length_b 8.290595
_cell_length_c 8.837996
_cell_angle_alpha 74.342280
_cell_angle_beta 99.358025
_cell_angle_gamma 112.105074
_cell_volume 622.817522
_symmetry_space_group_name_H-M "P -1"
_symmetry_group_IT_number 2
_symmetry_cell_setting 'triclinic'
loop_
_space_group_symop_operation_xyz
x,y,z
-x,-y,-z
loop_
_atom_site_type_symbol
_atom_site_label
_atom_site_fract_x
_atom_site_fract_y
_atom_site_fract_z
Si Si1 0.366904 0.060590 0.410644
Si Si2 0.166426 0.495176 0.518560
Si Si3 0.143015 0.091107 0.601501
Si Si4 0.415771 0.605418 0.770020
Si Si5 0.854776 0.029152 0.038902
Si Si6 0.470733 0.256312 0.932945
Si Si7 0.278778 0.773215 0.221677
O O1 0.283384 0.071224 0.546106
O O2 0.428811 0.259385 0.304536
O O3 0.500000 0.000000 0.500000
O O4 0.269504 0.919081 0.306498
O O5 0.164269 0.295473 0.583297
O O6 0.269986 0.607737 0.647076
O O7 0.233724 0.581546 0.345748
O O8 0.000000 0.500000 0.500000
O O9 0.124065 0.974131 0.778321
O O10 0.000000 0.000000 0.500000
O O11 0.426133 0.410990 0.807316
O O12 0.410083 0.665254 0.928373
O O13 0.687653 0.887423 0.001100
O O14 0.846157 0.218144 0.927885
O O15 0.000000 0.000000 0.000000
O O16 0.556475 0.178482 0.841854
#
# Coordination Sequence:
#
# PCOD8035420 Si02
#       7
#     2   2   2   2   2   2   2
#     4  12  24  41  71 104 139 185 239 290 351 427
#     4  12  26  48  73 106 146 192 241 301 362 434
#     4  12  28  47  72 102 146 192 241 294 364 425
#     4  11  25  44  74 100 150 184 245 292 366 418
#     4  12  25  45  72 104 148 185 235 300 358 427
#     4  11  25  46  73 107 141 194 240 299 359 430
#     4  12  26  44  74 107 142 187 245 293 360 427
#
# _framework density 22.478493
#
# number of rings (size 3 to 8) (size 9 to 14) (size 15 to 20)
#    0.000    0.286    4.286    4.714    2.000    1.143 
#    0.000    1.429    0.000    0.000    0.000    0.000 
#    0.000    0.000    0.000    0.000    0.000    0.000 
#
# Total GULP energy -173553.261327 kJ/mol
# GULP energy per Si atom -12396.661523 kJ/mol
# Density = 2.242733 g / cm^3
# Si number density = 22.478493 Si / 1000 Ang^3
#
#
#
# Elastic Constant Matrix: (Units=GPa)
#
#
# Indices 1 2 3 4 5 6 
#
# 1 147.3124 12.6592 50.2278 12.8679 -8.0999 -6.1943
# 2 12.6592 57.9817 32.7710 7.5467 3.7557 1.4046
# 3 50.2278 32.7710 174.1172 -2.7767 12.2511 0.6082
# 4 12.8679 7.5467 -2.7767 36.1460 2.8159 -1.6501
# 5 -8.0999 3.7557 12.2511 2.8159 43.6721 3.7051
# 6 -6.1943 1.4046 0.6082 -1.6501 3.7051 31.9761
#
#
#
# Elastic Compliance Matrix: (Units=1/GPa)
#
#
# Indices 1 2 3 4 5 6 
#
# 1 0.008121 -0.000100 -0.002543 -0.003193 0.002333 0.001191
# 2 -0.000100 0.020035 -0.003788 -0.004461 -0.000305 -0.001022
# 3 -0.002543 -0.003788 0.007396 0.002446 -0.002373 -0.000066
# 4 -0.003193 -0.004461 0.002446 0.030218 -0.002965 0.001434
# 5 0.002333 -0.000305 -0.002373 -0.002965 0.024423 -0.002473
# 6 0.001191 -0.001022 -0.000066 0.001434 -0.002473 0.031911
#
#
# Mechanical properties :
#
#
# Convention : Reuss Voigt Hill
#
# Bulk Modulus (GPa) = 44.07332 63.41412 53.74372
# Shear Modulus (GPa) = 35.08029 41.27572 38.17800
#
# Velocity S-wave (km/s) = 3.95475 4.28978 4.12566
# Velocity P-wave (km/s) = 6.36418 7.26695 6.83050
#
# Compressibility (1/GPa) = 0.02268946
#
# Stress axis : x y z
#
# Youngs Moduli (GPa) = 123.13315 49.91311 135.20755
#
# Poissons Ratio (x) = 0.00500 0.34385
# Poissons Ratio (y) = 0.01233 0.51217
# Poissons Ratio (z) = 0.31315 0.18907
#
# Static dielectric constant tensor:
#      x y z
#    x 4.104490 0.429650 0.185900 
#    y 0.429650 4.661210 -0.011710 
#    z 0.185900 -0.011710 4.684590 
# 
# 
# High freq. dielectric constant tensor:
#      x y z
#    x 1.884450 -0.000220 0.005880 
#    y -0.000220 1.873630 -0.014820 
#    z 0.005880 -0.014820 1.917950 
# 
# From -- ./inp_files/156608.got.cif
#   From: 2010.06.25/outbox.cif.g09.slc.cpg/sg2_79_cif.got.tgz:156608.got - 2010.06.27 13:26:56.
