data_PCOD8035346
_publ_section_title
;
Structure prediction by ZEFSAII (Michael W. Deem and Ramdas Pophale) SiO2 
 PCOD8035346
Probable space group: P -1
;
_chemical_formula_sum "Si O2"
_cell_formula_units_Z 16
_cell_length_a 12.658335
_cell_length_b 16.796903
_cell_length_c 9.136153
_cell_angle_alpha 147.180926
_cell_angle_beta 135.905677
_cell_angle_gamma 53.812646
_cell_volume 732.159568
_symmetry_space_group_name_H-M "P -1"
_symmetry_group_IT_number 2
_symmetry_cell_setting 'triclinic'
loop_
_space_group_symop_operation_xyz
x,y,z
-x,-y,-z
loop_
_atom_site_type_symbol
_atom_site_label
_atom_site_fract_x
_atom_site_fract_y
_atom_site_fract_z
Si Si1 0.575064 0.845510 0.366105
Si Si2 0.420318 0.651980 0.686562
Si Si3 0.069625 0.632937 0.368077
Si Si4 0.104777 0.913949 0.361705
Si Si5 0.894080 0.906352 0.639672
Si Si6 0.587704 0.152142 0.290367
Si Si7 0.441107 0.660931 0.189235
Si Si8 0.085097 0.641054 0.739796
O O1 0.751676 0.849889 0.507404
O O2 0.546410 0.789283 0.415168
O O3 0.500000 0.000000 0.500000
O O4 0.491563 0.709037 0.994089
O O5 0.500000 0.500000 0.500000
O O6 0.243628 0.625209 0.490133
O O7 0.445836 0.789444 0.814354
O O8 0.038472 0.637337 0.517755
O O9 0.990170 0.779808 0.463467
O O10 0.000000 0.500000 0.000000
O O11 0.236590 0.866897 0.528169
O O12 0.168196 0.008033 0.431089
O O13 0.021060 0.774389 0.980891
O O14 0.000000 0.000000 0.500000
O O15 0.000000 0.000000 0.000000
O O16 0.536971 0.289050 0.545965
O O17 0.500000 0.000000 0.000000
O O18 0.500000 0.500000 0.000000
O O19 0.267355 0.652618 0.949133
O O20 0.000000 0.500000 0.500000
#
# Coordination Sequence:
#
# PCOD8035346 Si02
#       8
#     2   2   2   2   2   2   2   2
#     4  12  24  45  72 101 140 186 236 292 355 423
#     4  12  25  47  72 103 142 185 238 295 353 428
#     4  12  27  45  72 105 141 187 240 294 358 422
#     4  11  25  47  70 102 141 184 231 291 355 424
#     4  12  25  45  73 105 142 186 243 294 357 426
#     4  11  25  44  68 103 139 178 231 288 352 419
#     4  11  25  44  70 101 139 186 233 289 355 420
#     4  11  26  46  69 102 144 183 236 291 355 426
#
# _framework density 21.853159999999999
#
# number of rings (size 3 to 8) (size 9 to 14) (size 15 to 20)
#    0.000    0.500    2.500    6.000    7.000    2.000 
#    0.000    0.000    0.000    0.000    0.000    0.000 
#    0.000    0.000    0.000    0.000    0.000    0.000 
#
# Total GULP energy -198267.761666 kJ/mol
# GULP energy per Si atom -12391.735104 kJ/mol
# Density = 2.180342 g / cm^3
# Si number density = 21.853160 Si / 1000 Ang^3
#
#
#
# Elastic Constant Matrix: (Units=GPa)
#
#
# Indices 1 2 3 4 5 6 
#
# 1 123.8107 32.0486 45.3698 15.2737 9.3004 -14.9500
# 2 32.0486 95.8912 20.9712 24.6647 -2.2136 -7.0170
# 3 45.3698 20.9712 147.8187 18.8627 -8.1851 -21.3449
# 4 15.2737 24.6647 18.8627 45.0709 -2.7567 -4.9381
# 5 9.3004 -2.2136 -8.1851 -2.7567 49.2275 7.6857
# 6 -14.9500 -7.0170 -21.3449 -4.9381 7.6857 44.7554
#
#
#
# Elastic Compliance Matrix: (Units=1/GPa)
#
#
# Indices 1 2 3 4 5 6 
#
# 1 0.010253 -0.002533 -0.002502 -0.000974 -0.002868 0.002220
# 2 -0.002533 0.012913 -0.000203 -0.006051 0.000639 0.000304
# 3 -0.002502 -0.000203 0.008286 -0.002141 0.001312 0.002623
# 4 -0.000974 -0.006051 -0.002141 0.026839 0.000981 0.000498
# 5 -0.002868 0.000639 0.001312 0.000981 0.021760 -0.003861
# 6 0.002220 0.000304 0.002623 0.000498 -0.003861 0.025102
#
#
# Mechanical properties :
#
#
# Convention : Reuss Voigt Hill
#
# Bulk Modulus (GPa) = 47.67197 62.69997 55.18597
# Shear Modulus (GPa) = 40.77632 45.75284 43.26458
#
# Velocity S-wave (km/s) = 4.32432 4.58060 4.45431
# Velocity P-wave (km/s) = 6.84069 7.53191 7.19461
#
# Compressibility (1/GPa) = 0.02097669
#
# Stress axis : x y z
#
# Youngs Moduli (GPa) = 97.53485 77.44263 120.68103
#
# Poissons Ratio (x) = 0.19616 0.30189
# Poissons Ratio (y) = 0.24705 0.02451
# Poissons Ratio (z) = 0.24399 0.01573
#
# Static dielectric constant tensor:
#      x y z
#    x 4.124770 0.046340 -0.236330 
#    y 0.046340 4.147600 -0.000590 
#    z -0.236330 -0.000590 4.154690 
# 
# 
# High freq. dielectric constant tensor:
#      x y z
#    x 1.868950 0.002250 -0.011430 
#    y 0.002250 1.869900 0.005550 
#    z -0.011430 0.005550 1.877150 
# 
# From -- ./inp_files/280302.got.cif
#   From: 2010.06.25/outbox.cif.g09.slc.cpg/sg2_141_cif.got.tgz:280302.got - 2010.06.27 13:26:56.
