data_PCOD8035824
_publ_section_title
;
Structure prediction by ZEFSAII (Michael W. Deem and Ramdas Pophale) SiO2 
 PCOD8035824
Probable space group: P -1
;
_chemical_formula_sum "Si O2"
_cell_formula_units_Z 16
_cell_length_a 17.905021
_cell_length_b 5.278156
_cell_length_c 7.815872
_cell_angle_alpha 60.403923
_cell_angle_beta 97.323426
_cell_angle_gamma 96.786105
_cell_volume 635.725251
_symmetry_space_group_name_H-M "P -1"
_symmetry_group_IT_number 2
_symmetry_cell_setting 'triclinic'
loop_
_space_group_symop_operation_xyz
x,y,z
-x,-y,-z
loop_
_atom_site_type_symbol
_atom_site_label
_atom_site_fract_x
_atom_site_fract_y
_atom_site_fract_z
Si Si1 0.433739 0.190655 0.472261
Si Si2 0.931765 0.695497 0.961671
Si Si3 0.238759 0.474537 0.001759
Si Si4 0.533675 0.207331 0.796643
Si Si5 0.120622 0.962327 0.477518
Si Si6 0.067722 0.332564 0.649463
Si Si7 0.696497 0.149314 0.793860
Si Si8 0.723564 0.158564 0.440612
O O1 0.461560 0.284461 0.638438
O O2 0.430093 0.468753 0.249518
O O3 0.500000 0.000000 0.500000
O O4 0.352327 0.041386 0.527735
O O5 0.851095 0.510125 0.995853
O O6 0.946275 0.824597 0.116481
O O7 0.929514 0.949214 0.730920
O O8 0.000000 0.500000 0.000000
O O9 0.266820 0.620705 0.785109
O O10 0.282436 0.653622 0.103671
O O11 0.258341 0.141796 0.099063
O O12 0.605947 0.056031 0.785050
O O13 0.500000 0.000000 0.000000
O O14 0.088831 0.089531 0.601308
O O15 0.127420 0.609450 0.606468
O O16 0.208648 0.068147 0.454450
O O17 0.000000 0.500000 0.500000
O O18 0.720189 0.325972 0.567439
#
# Coordination Sequence:
#
# PCOD8035824 Si02
#       8
#     2   2   2   2   2   2   2   2
#     4  11  25  47  72 114 150 204 259 321 388 466
#     4  12  28  51  79 115 155 201 263 321 391 472
#     4  12  30  48  77 117 149 209 262 323 392 472
#     4  11  26  46  77 110 157 205 262 323 396 469
#     4  12  29  48  78 113 153 207 254 324 386 470
#     4  12  28  51  78 113 153 199 257 317 397 463
#     4  12  28  50  78 113 155 205 268 316 393 466
#     4  12  27  50  81 105 164 202 262 325 395 462
#
# _framework density 25.168106000000002
#
# number of rings (size 3 to 8) (size 9 to 14) (size 15 to 20)
#    0.000    0.250    5.000    1.875    5.250    4.000 
#    0.000    0.000    0.000    0.000    0.000    0.000 
#    0.000    0.000    0.000    0.000    0.000    0.000 
#
# Total GULP energy -198231.650266 kJ/mol
# GULP energy per Si atom -12389.478142 kJ/mol
# Density = 2.511082 g / cm^3
# Si number density = 25.168106 Si / 1000 Ang^3
#
#
#
# Elastic Constant Matrix: (Units=GPa)
#
#
# Indices 1 2 3 4 5 6 
#
# 1 133.5360 12.1087 22.3356 4.0714 4.5195 -20.7715
# 2 12.1087 97.7046 53.0626 11.0025 -3.6447 -7.9753
# 3 22.3356 53.0626 177.7975 20.0034 -17.4522 -10.4241
# 4 4.0714 11.0025 20.0034 52.0342 3.5991 0.4627
# 5 4.5195 -3.6447 -17.4522 3.5991 47.0091 7.3937
# 6 -20.7715 -7.9753 -10.4241 0.4627 7.3937 25.8145
#
#
#
# Elastic Compliance Matrix: (Units=1/GPa)
#
#
# Indices 1 2 3 4 5 6 
#
# 1 0.008885 -0.000088 -0.000853 -0.000254 -0.002330 0.007449
# 2 -0.000088 0.012464 -0.003476 -0.001272 -0.000624 0.002578
# 3 -0.000853 -0.003476 0.007300 -0.002190 0.002615 0.000478
# 4 -0.000254 -0.001272 -0.002190 0.020516 -0.002269 -0.001199
# 5 -0.002330 -0.000624 0.002615 -0.002269 0.023818 -0.007793
# 6 0.007449 0.002578 0.000478 -0.001199 -0.007793 0.047975
#
#
# Mechanical properties :
#
#
# Convention : Reuss Voigt Hill
#
# Bulk Modulus (GPa) = 50.46801 64.89466 57.68134
# Shear Modulus (GPa) = 36.65782 46.40697 41.53240
#
# Velocity S-wave (km/s) = 3.82058 4.29870 4.06667
# Velocity P-wave (km/s) = 6.28954 7.10485 6.70959
#
# Compressibility (1/GPa) = 0.01981453
#
# Stress axis : x y z
#
# Youngs Moduli (GPa) = 112.55396 80.23205 136.98782
#
# Poissons Ratio (x) = 0.00706 0.11689
# Poissons Ratio (y) = 0.00990 0.47612
# Poissons Ratio (z) = 0.09604 0.27886
#
# Static dielectric constant tensor:
#      x y z
#    x 4.753310 0.573030 -0.388280 
#    y 0.573030 6.019630 0.009240 
#    z -0.388280 0.009240 4.558840 
# 
# 
# High freq. dielectric constant tensor:
#      x y z
#    x 2.037690 0.008140 0.005330 
#    y 0.008140 1.991030 0.005180 
#    z 0.005330 0.005180 2.021530 
# 
# From -- ./inp_files/322217.got.cif
#   From: 2010.06.25/outbox.cif.g09.slc.cpg/sg2_162_cif.got.tgz:322217.got - 2010.06.27 13:26:56.
