data_PCOD8035630
_publ_section_title
;
Structure prediction by ZEFSAII (Michael W. Deem and Ramdas Pophale) SiO2 
 PCOD8035630
Probable space group: P -1
;
_chemical_formula_sum "Si O2"
_cell_formula_units_Z 16
_cell_length_a 23.218173
_cell_length_b 6.541908
_cell_length_c 14.262015
_cell_angle_alpha 68.055305
_cell_angle_beta 159.846902
_cell_angle_gamma 111.108891
_cell_volume 691.975631
_symmetry_space_group_name_H-M "P -1"
_symmetry_group_IT_number 2
_symmetry_cell_setting 'triclinic'
loop_
_space_group_symop_operation_xyz
x,y,z
-x,-y,-z
loop_
_atom_site_type_symbol
_atom_site_label
_atom_site_fract_x
_atom_site_fract_y
_atom_site_fract_z
Si Si1 0.645625 0.589064 0.833316
Si Si2 0.718102 0.460490 0.423907
Si Si3 0.686717 0.640387 0.668460
Si Si4 0.848368 0.086446 0.812017
Si Si5 0.053070 0.711517 0.881329
Si Si6 0.414312 0.763138 0.921978
Si Si7 0.828996 0.950580 0.147249
Si Si8 0.823051 0.223508 0.264878
O O1 0.655549 0.628747 0.732430
O O2 0.467065 0.472339 0.604723
O O3 0.666392 0.825703 0.876003
O O4 0.794419 0.440240 0.122856
O O5 0.776215 0.311748 0.624287
O O6 0.691796 0.304237 0.320425
O O7 0.856814 0.651929 0.580108
O O8 0.550222 0.577644 0.179400
O O9 0.703372 0.895683 0.620780
O O10 0.854572 0.516214 0.919984
O O11 0.915986 0.121747 0.014352
O O12 0.000000 0.000000 0.000000
O O13 0.124228 0.827410 0.876608
O O14 0.290612 0.777698 0.817337
O O15 0.500000 0.000000 0.000000
O O16 0.983475 0.785432 0.408416
O O17 0.781606 0.012047 0.170875
#
# Coordination Sequence:
#
# PCOD8035630 Si02
#       8
#     2   2   2   2   2   2   2   2
#     4  11  25  46  70 105 147 189 239 297 369 432
#     4  11  28  47  75 110 144 194 251 291 370 436
#     4  11  26  45  71 107 147 192 236 302 363 434
#     4  12  27  45  76 107 146 197 241 301 365 432
#     4  12  25  46  74 106 147 186 247 298 363 446
#     4  11  28  50  74 106 150 193 239 311 359 430
#     4  11  25  46  73 108 143 193 240 305 363 436
#     4  11  26  44  75 104 144 190 247 292 371 432
#
# _framework density 23.122199999999999
#
# number of rings (size 3 to 8) (size 9 to 14) (size 15 to 20)
#    0.000    0.750    3.750    1.500    8.750    5.500 
#    0.000    0.000    0.000    0.000    0.000    0.000 
#    0.000    0.000    0.000    0.000    0.000    0.000 
#
# Total GULP energy -198473.277035 kJ/mol
# GULP energy per Si atom -12404.579815 kJ/mol
# Density = 2.306957 g / cm^3
# Si number density = 23.122200 Si / 1000 Ang^3
#
#
#
# Elastic Constant Matrix: (Units=GPa)
#
#
# Indices 1 2 3 4 5 6 
#
# 1 106.9202 33.6482 41.3911 12.4080 2.5978 -20.4459
# 2 33.6482 98.0089 52.2055 27.1507 -0.0255 3.4249
# 3 41.3911 52.2055 88.1526 16.5885 -2.1490 -6.0654
# 4 12.4080 27.1507 16.5885 57.6990 1.0754 -2.1579
# 5 2.5978 -0.0255 -2.1490 1.0754 31.0826 -5.7871
# 6 -20.4459 3.4249 -6.0654 -2.1579 -5.7871 45.6242
#
#
#
# Elastic Compliance Matrix: (Units=1/GPa)
#
#
# Indices 1 2 3 4 5 6 
#
# 1 0.012747 -0.002208 -0.004275 -0.000270 -0.000376 0.005249
# 2 -0.002208 0.016966 -0.008302 -0.005245 -0.000888 -0.003728
# 3 -0.004275 -0.008302 0.018499 -0.000476 0.001904 0.001386
# 4 -0.000270 -0.005245 -0.000476 0.020045 -0.000505 0.001094
# 5 -0.000376 -0.000888 0.001904 -0.000505 0.033159 0.004333
# 6 0.005249 -0.003728 0.001386 0.001094 0.004333 0.025336
#
#
# Mechanical properties :
#
#
# Convention : Reuss Voigt Hill
#
# Bulk Modulus (GPa) = 53.64073 60.84125 57.24099
# Shear Modulus (GPa) = 30.76244 37.93695 34.34969
#
# Velocity S-wave (km/s) = 3.65146 4.05497 3.85849
# Velocity P-wave (km/s) = 6.40521 6.94937 6.68283
#
# Compressibility (1/GPa) = 0.01864255
#
# Stress axis : x y z
#
# Youngs Moduli (GPa) = 78.45169 58.93984 54.05635
#
# Poissons Ratio (x) = 0.13014 0.23107
# Poissons Ratio (y) = 0.17322 0.44879
# Poissons Ratio (z) = 0.33535 0.48933
#
# Static dielectric constant tensor:
#      x y z
#    x 4.391220 0.318320 -0.030250 
#    y 0.318320 4.788450 0.164360 
#    z -0.030250 0.164360 4.401190 
# 
# 
# High freq. dielectric constant tensor:
#      x y z
#    x 1.916990 -0.006880 -0.006090 
#    y -0.006880 1.926440 0.004150 
#    z -0.006090 0.004150 1.918170 
# 
# From -- ./inp_files/542154.got.cif
#   From: 2010.06.25/outbox.cif.g09.slc.cpg/sg2_272_cif.got.tgz:542154.got - 2010.06.27 13:26:56.
