data_PCOD8035186
_publ_section_title
;
Structure prediction by ZEFSAII (Michael W. Deem and Ramdas Pophale) SiO2 
 PCOD8035186
Probable space group: P -1
;
_chemical_formula_sum "Si O2"
_cell_formula_units_Z 16
_cell_length_a 13.640562
_cell_length_b 22.023400
_cell_length_c 6.556192
_cell_angle_alpha 102.718034
_cell_angle_beta 79.925771
_cell_angle_gamma 158.635140
_cell_volume 697.400984
_symmetry_space_group_name_H-M "P -1"
_symmetry_group_IT_number 2
_symmetry_cell_setting 'triclinic'
loop_
_space_group_symop_operation_xyz
x,y,z
-x,-y,-z
loop_
_atom_site_type_symbol
_atom_site_label
_atom_site_fract_x
_atom_site_fract_y
_atom_site_fract_z
Si Si1 0.111058 0.011258 0.105974
Si Si2 0.337871 0.437456 0.699526
Si Si3 0.858640 0.551662 0.702388
Si Si4 0.379424 0.346861 0.882818
Si Si5 0.812873 0.166451 0.466585
Si Si6 0.435293 0.736540 0.577585
Si Si7 0.850782 0.355451 0.043259
Si Si8 0.376141 0.074941 0.738672
O O1 0.861510 0.840916 0.198807
O O2 0.332186 0.162346 0.300606
O O3 0.233704 0.030566 0.932178
O O4 0.000000 0.000000 0.000000
O O5 0.500000 0.500000 0.500000
O O6 0.270955 0.348655 0.834453
O O7 0.055666 0.308509 0.651322
O O8 0.533481 0.599283 0.869460
O O9 0.616250 0.459330 0.734741
O O10 0.777458 0.441247 0.530940
O O11 0.108087 0.734838 0.652010
O O12 0.943474 0.579605 0.920186
O O13 0.500000 0.000000 0.500000
O O14 0.817656 0.096549 0.351784
O O15 0.294726 0.708154 0.741905
O O16 0.567414 0.848594 0.419820
O O17 0.658095 0.214620 0.835787
O O18 0.000000 0.500000 0.000000
#
# Coordination Sequence:
#
# PCOD8035186 Si02
#       8
#     2   2   2   2   2   2   2   2
#     4  11  26  43  73 109 139 186 248 307 364 433
#     4  11  24  49  72  99 149 195 235 296 370 439
#     4  12  26  44  73 111 140 192 248 297 365 446
#     4  11  26  44  74 104 139 191 245 294 365 441
#     4  12  28  45  74 111 148 195 245 305 373 441
#     4  11  25  47  72 101 146 189 244 298 370 442
#     4  11  25  44  74  99 142 190 243 300 365 431
#     4  11  25  48  71 100 146 193 234 307 375 426
#
# _framework density 22.942326999999999
#
# number of rings (size 3 to 8) (size 9 to 14) (size 15 to 20)
#    0.000    0.750    2.500    3.375    8.750    4.500 
#    0.000    0.000    0.000    0.000    0.000    0.000 
#    0.000    0.000    0.000    0.000    0.000    0.000 
#
# Total GULP energy -198312.016657 kJ/mol
# GULP energy per Si atom -12394.501041 kJ/mol
# Density = 2.289011 g / cm^3
# Si number density = 22.942327 Si / 1000 Ang^3
#
#
#
# Elastic Constant Matrix: (Units=GPa)
#
#
# Indices 1 2 3 4 5 6 
#
# 1 93.6403 29.7839 21.2742 2.5987 38.8643 -0.9957
# 2 29.7839 126.6593 30.7448 -6.2995 20.5594 -9.0508
# 3 21.2742 30.7448 85.2909 6.0587 16.3488 0.3431
# 4 2.5987 -6.2995 6.0587 38.5755 5.1302 4.1968
# 5 38.8643 20.5594 16.3488 5.1302 44.1256 4.6168
# 6 -0.9957 -9.0508 0.3431 4.1968 4.6168 55.2279
#
#
#
# Elastic Compliance Matrix: (Units=1/GPa)
#
#
# Indices 1 2 3 4 5 6 
#
# 1 0.017352 -0.001346 -0.001121 0.000570 -0.014440 0.001263
# 2 -0.001346 0.009542 -0.002759 0.002262 -0.002669 0.001608
# 3 -0.001121 -0.002759 0.013634 -0.002163 -0.002508 -0.000183
# 4 0.000570 0.002262 -0.002163 0.027245 -0.003780 -0.001360
# 5 -0.014440 -0.002669 -0.002508 -0.003780 0.038370 -0.003603
# 6 0.001263 0.001608 -0.000183 -0.001360 -0.003603 0.018799
#
#
# Mechanical properties :
#
#
# Convention : Reuss Voigt Hill
#
# Bulk Modulus (GPa) = 33.24886 52.13291 42.69089
# Shear Modulus (GPa) = 34.38324 42.50498 38.44411
#
# Velocity S-wave (km/s) = 3.87548 4.30896 4.09795
# Velocity P-wave (km/s) = 5.87789 6.89412 6.40619
#
# Compressibility (1/GPa) = 0.03007622
#
# Stress axis : x y z
#
# Youngs Moduli (GPa) = 57.62875 104.79728 73.34623
#
# Poissons Ratio (x) = 0.14105 0.08221
# Poissons Ratio (y) = 0.07756 0.20240
# Poissons Ratio (z) = 0.06459 0.28918
#
# Static dielectric constant tensor:
#      x y z
#    x 4.605390 0.315270 0.267100 
#    y 0.315270 4.511260 0.271210 
#    z 0.267100 0.271210 4.239240 
# 
# 
# High freq. dielectric constant tensor:
#      x y z
#    x 1.914910 0.005220 0.012890 
#    y 0.005220 1.918900 0.009400 
#    z 0.012890 0.009400 1.904820 
# 
# From -- ./inp_files/101197.got.cif
#   From: 2010.06.25/outbox.cif.g09.slc.cpg/sg2_51_cif.got.tgz:101197.got - 2010.06.27 13:26:56.
