data_PCOD8035484
_publ_section_title
;
Structure prediction by ZEFSAII (Michael W. Deem and Ramdas Pophale) SiO2 
 PCOD8035484
Probable space group: P -1
;
_chemical_formula_sum "Si O2"
_cell_formula_units_Z 16
_cell_length_a 9.506277
_cell_length_b 10.951343
_cell_length_c 17.769338
_cell_angle_alpha 72.333618
_cell_angle_beta 24.615233
_cell_angle_gamma 65.153611
_cell_volume 683.947182
_symmetry_space_group_name_H-M "P -1"
_symmetry_group_IT_number 2
_symmetry_cell_setting 'triclinic'
loop_
_space_group_symop_operation_xyz
x,y,z
-x,-y,-z
loop_
_atom_site_type_symbol
_atom_site_label
_atom_site_fract_x
_atom_site_fract_y
_atom_site_fract_z
Si Si1 0.815938 0.087754 0.000322
Si Si2 0.645553 0.701218 0.172835
Si Si3 0.651945 0.235468 0.544622
Si Si4 0.414855 0.592764 0.751980
Si Si5 0.882419 0.905433 0.301899
Si Si6 0.778768 0.026712 0.742940
Si Si7 0.764042 0.648877 0.714401
Si Si8 0.756312 0.636360 0.425286
O O1 0.614690 0.248116 0.087825
O O2 0.535310 0.030400 0.108850
O O3 0.111314 0.077753 0.794489
O O4 0.000000 0.000000 0.000000
O O5 0.669696 0.741364 0.241987
O O6 0.567602 0.562459 0.227409
O O7 0.307462 0.825374 0.280333
O O8 0.014468 0.693066 0.953404
O O9 0.499368 0.333828 0.529222
O O10 0.943421 0.278822 0.440734
O O11 0.837996 0.077551 0.457208
O O12 0.712953 0.607139 0.661774
O O13 0.498102 0.637006 0.621103
O O14 0.941964 0.748705 0.322744
O O15 0.180197 0.951210 0.191672
O O16 0.500000 0.000000 0.500000
O O17 0.914998 0.509760 0.716434
#
# Coordination Sequence:
#
# PCOD8035484 Si02
#       8
#     2   2   2   2   2   2   2   2
#     4  11  28  49  74 107 144 185 235 297 350 418
#     4  11  25  45  74 105 138 186 240 279 365 406
#     4  11  25  45  71 102 142 186 232 292 349 416
#     4  11  26  46  72 102 143 185 230 297 342 426
#     4  12  28  46  74 106 141 191 235 286 361 417
#     4  11  25  46  74 103 145 184 238 291 347 424
#     4  11  25  45  75 102 139 188 236 284 357 408
#     4  12  26  47  72 101 146 185 236 292 349 419
#
# _framework density 23.393619999999999
#
# number of rings (size 3 to 8) (size 9 to 14) (size 15 to 20)
#    0.000    0.750    2.500    3.000    8.750    3.500 
#    2.250    0.000    0.000    0.000    0.000    0.000 
#    0.000    0.000    0.000    0.000    0.000    0.000 
#
# Total GULP energy -198414.724636 kJ/mol
# GULP energy per Si atom -12400.920290 kJ/mol
# Density = 2.334037 g / cm^3
# Si number density = 23.393620 Si / 1000 Ang^3
#
#
#
# Elastic Constant Matrix: (Units=GPa)
#
#
# Indices 1 2 3 4 5 6 
#
# 1 155.0624 49.2867 62.7543 11.4498 19.9151 -15.0744
# 2 49.2867 144.7999 68.8447 27.0749 11.6013 -24.8377
# 3 62.7543 68.8447 146.0860 17.2664 29.0085 -20.3061
# 4 11.4498 27.0749 17.2664 38.8756 -0.7498 -2.6966
# 5 19.9151 11.6013 29.0085 -0.7498 35.6821 -3.2422
# 6 -15.0744 -24.8377 -20.3061 -2.6966 -3.2422 43.8985
#
#
#
# Elastic Compliance Matrix: (Units=1/GPa)
#
#
# Indices 1 2 3 4 5 6 
#
# 1 0.008189 -0.001284 -0.002300 -0.000481 -0.002218 0.000828
# 2 -0.001284 0.010505 -0.003319 -0.005206 0.000223 0.003664
# 3 -0.002300 -0.003319 0.011212 -0.001986 -0.006621 0.001908
# 4 -0.000481 -0.005206 -0.001986 0.030321 0.004043 -0.001868
# 5 -0.002218 0.000223 -0.006621 0.004043 0.034577 -0.000896
# 6 0.000828 0.003664 0.001908 -0.001868 -0.000896 0.025839
#
#
# Mechanical properties :
#
#
# Convention : Reuss Voigt Hill
#
# Bulk Modulus (GPa) = 62.11097 89.74662 75.92879
# Shear Modulus (GPa) = 35.76157 41.36208 38.56182
#
# Velocity S-wave (km/s) = 3.91409 4.20943 4.06444
# Velocity P-wave (km/s) = 6.85819 7.87863 7.38605
#
# Compressibility (1/GPa) = 0.01610022
#
# Stress axis : x y z
#
# Youngs Moduli (GPa) = 122.11604 95.19246 89.19045
#
# Poissons Ratio (x) = 0.12222 0.20516
# Poissons Ratio (y) = 0.15679 0.29599
# Poissons Ratio (z) = 0.28090 0.31591
#
# Static dielectric constant tensor:
#      x y z
#    x 4.926050 0.621490 0.156850 
#    y 0.621490 4.845880 0.395050 
#    z 0.156850 0.395050 4.336760 
# 
# 
# High freq. dielectric constant tensor:
#      x y z
#    x 1.941200 0.013480 0.001560 
#    y 0.013480 1.938520 0.014260 
#    z 0.001560 0.014260 1.922900 
# 
# From -- ./inp_files/500338.got.cif
#   From: 2010.06.25/outbox.cif.g09.slc.cpg/sg2_251_cif.got.tgz:500338.got - 2010.06.27 13:26:56.
