data_PCOD8035899
_publ_section_title
;
Structure prediction by ZEFSAII (Michael W. Deem and Ramdas Pophale) SiO2 
 PCOD8035899
Probable space group: P -1
;
_chemical_formula_sum "Si O2"
_cell_formula_units_Z 16
_cell_length_a 8.681060
_cell_length_b 15.555925
_cell_length_c 9.918757
_cell_angle_alpha 46.245465
_cell_angle_beta 79.220423
_cell_angle_gamma 107.318838
_cell_volume 759.033549
_symmetry_space_group_name_H-M "P -1"
_symmetry_group_IT_number 2
_symmetry_cell_setting 'triclinic'
loop_
_space_group_symop_operation_xyz
x,y,z
-x,-y,-z
loop_
_atom_site_type_symbol
_atom_site_label
_atom_site_fract_x
_atom_site_fract_y
_atom_site_fract_z
Si Si1 0.395590 0.495985 0.155550
Si Si2 0.519576 0.829760 0.280682
Si Si3 0.020227 0.744008 0.929309
Si Si4 0.594903 0.220529 0.146835
Si Si5 0.650725 0.001599 0.806746
Si Si6 0.930011 0.781233 0.610601
Si Si7 0.387170 0.512852 0.623222
Si Si8 0.715797 0.916193 0.434576
O O1 0.164972 0.355188 0.332379
O O2 0.497025 0.466783 0.284847
O O3 0.500000 0.500000 0.000000
O O4 0.416826 0.644388 0.020568
O O5 0.390622 0.656871 0.448788
O O6 0.657982 0.861838 0.349549
O O7 0.373806 0.870217 0.298216
O O8 0.650823 0.926689 0.025846
O O9 0.935414 0.719894 0.819968
O O10 0.179907 0.711734 0.938422
O O11 0.840303 0.630039 0.181068
O O12 0.115104 0.908559 0.787839
O O13 0.519651 0.120092 0.133866
O O14 0.469143 0.122265 0.404902
O O15 0.858288 0.076350 0.622342
O O16 0.792962 0.834476 0.585762
O O17 0.500000 0.500000 0.500000
#
# Coordination Sequence:
#
# PCOD8035899 Si02
#       8
#     2   2   2   2   2   2   2   2
#     4  12  24  45  66 102 140 176 224 282 335 402
#     4  11  25  48  68  96 143 178 223 286 336 402
#     4  12  26  42  72 105 133 181 230 278 346 398
#     4  12  24  45  70 101 142 179 226 284 335 406
#     4  11  26  46  70 101 137 181 228 281 338 403
#     4  12  25  41  73 102 135 180 230 281 341 396
#     4  12  27  48  69  99 140 181 224 281 344 406
#     4  12  23  44  71 104 138 176 233 282 334 405
#
# _framework density 21.079438
#
# number of rings (size 3 to 8) (size 9 to 14) (size 15 to 20)
#    0.000    0.250    6.250    2.250    5.250    2.000 
#    0.000    1.250    0.000    0.000    0.000    0.000 
#    0.000    0.000    0.000    0.000    0.000    0.000 
#
# Total GULP energy -198486.673195 kJ/mol
# GULP energy per Si atom -12405.417075 kJ/mol
# Density = 2.103146 g / cm^3
# Si number density = 21.079438 Si / 1000 Ang^3
#
#
#
# Elastic Constant Matrix: (Units=GPa)
#
#
# Indices 1 2 3 4 5 6 
#
# 1 115.4015 38.9827 60.6021 1.7005 -6.2490 -0.4198
# 2 38.9827 104.6298 50.8469 -9.4146 -2.6062 -12.2458
# 3 60.6021 50.8469 114.5509 -5.6979 -11.5371 -10.5297
# 4 1.7005 -9.4146 -5.6979 50.5955 0.1099 5.6386
# 5 -6.2490 -2.6062 -11.5371 0.1099 38.9342 -5.8220
# 6 -0.4198 -12.2458 -10.5297 5.6386 -5.8220 34.4076
#
#
#
# Elastic Compliance Matrix: (Units=1/GPa)
#
#
# Indices 1 2 3 4 5 6 
#
# 1 0.012521 -0.002150 -0.005964 -0.001239 -0.000238 -0.002275
# 2 -0.002150 0.012924 -0.004277 0.001669 -0.000313 0.002938
# 3 -0.005964 -0.004277 0.014479 0.000657 0.003543 0.003328
# 4 -0.001239 0.001669 0.000657 0.020485 -0.000344 -0.002636
# 5 -0.000238 -0.000313 0.003543 -0.000344 0.027526 0.005684
# 6 -0.002275 0.002938 0.003328 -0.002636 0.005684 0.032493
#
#
# Mechanical properties :
#
#
# Convention : Reuss Voigt Hill
#
# Bulk Modulus (GPa) = 66.05190 70.60505 68.32848
# Shear Modulus (GPa) = 33.27600 37.06417 35.17009
#
# Velocity S-wave (km/s) = 3.97747 4.19777 4.08910
# Velocity P-wave (km/s) = 7.24545 7.55397 7.40132
#
# Compressibility (1/GPa) = 0.01513961
#
# Stress axis : x y z
#
# Youngs Moduli (GPa) = 79.86605 77.37839 69.06461
#
# Poissons Ratio (x) = 0.16638 0.41193
# Poissons Ratio (y) = 0.17172 0.29542
# Poissons Ratio (z) = 0.47636 0.33098
#
# Static dielectric constant tensor:
#      x y z
#    x 3.816360 0.066810 0.030510 
#    y 0.066810 4.066700 -0.219830 
#    z 0.030510 -0.219830 3.954220 
# 
# 
# High freq. dielectric constant tensor:
#      x y z
#    x 1.830140 0.001250 0.008890 
#    y 0.001250 1.835200 -0.008770 
#    z 0.008890 -0.008770 1.833690 
# 
# From -- ./inp_files/184345.got.cif
#   From: 2010.06.25/outbox.cif.g09.slc.cpg/sg2_93_cif.got.tgz:184345.got - 2010.06.27 13:26:56.
