data_PCOD8035097
_publ_section_title
;
Structure prediction by ZEFSAII (Michael W. Deem and Ramdas Pophale) SiO2 
 PCOD8035097
Probable space group: P -1
;
_chemical_formula_sum "Si O2"
_cell_formula_units_Z 16
_cell_length_a 10.353677
_cell_length_b 19.801379
_cell_length_c 12.886709
_cell_angle_alpha 154.512809
_cell_angle_beta 139.690657
_cell_angle_gamma 39.838099
_cell_volume 704.825604
_symmetry_space_group_name_H-M "P -1"
_symmetry_group_IT_number 2
_symmetry_cell_setting 'triclinic'
loop_
_space_group_symop_operation_xyz
x,y,z
-x,-y,-z
loop_
_atom_site_type_symbol
_atom_site_label
_atom_site_fract_x
_atom_site_fract_y
_atom_site_fract_z
Si Si1 0.073668 0.913110 0.264153
Si Si2 0.948847 0.183103 0.258137
Si Si3 0.873993 0.372644 0.265402
Si Si4 0.325798 0.954203 0.665789
Si Si5 0.493368 0.345829 0.513012
Si Si6 0.517605 0.742815 0.845783
Si Si7 0.757791 0.551451 0.910556
Si Si8 0.722843 0.868813 0.440900
O O1 0.221489 0.872962 0.399454
O O2 0.124964 0.060019 0.437461
O O3 0.105674 0.754172 0.991952
O O4 0.835633 0.968602 0.233962
O O5 0.950819 0.286841 0.301404
O O6 0.725589 0.237825 0.255487
O O7 0.143051 0.197700 0.466520
O O8 0.000000 0.000000 0.000000
O O9 0.638080 0.480916 0.280953
O O10 0.000000 0.500000 0.500000
O O11 0.502876 0.804621 0.617504
O O12 0.430763 0.085282 0.862220
O O13 0.414928 0.305440 0.297385
O O14 0.713375 0.385025 0.691508
O O15 0.666474 0.594733 0.798453
O O16 0.658780 0.716701 0.143027
O O17 0.000000 0.500000 0.000000
O O18 0.500000 0.000000 0.500000
#
# Coordination Sequence:
#
# PCOD8035097 Si02
#       8
#     2   2   2   2   2   2   2   2
#     4  11  24  48  70 107 147 187 249 292 357 442
#     4  12  26  45  77 104 143 191 242 297 355 433
#     4  12  28  46  70 108 149 187 233 303 369 424
#     4  11  26  45  78 100 143 199 236 300 359 429
#     4  12  27  45  70 109 147 184 239 302 360 423
#     4  12  25  48  74 109 143 193 250 290 359 439
#     4  12  25  42  71 106 143 184 235 299 359 410
#     4  12  25  46  75 105 144 190 244 294 354 436
#
# _framework density 22.700652000000002
#
# number of rings (size 3 to 8) (size 9 to 14) (size 15 to 20)
#    0.000    0.250    3.750    5.250    5.250    1.500 
#    0.000    0.000    0.000    0.000    0.000    0.000 
#    0.000    0.000    0.000    0.000    0.000    0.000 
#
# Total GULP energy -198395.759778 kJ/mol
# GULP energy per Si atom -12399.734986 kJ/mol
# Density = 2.264898 g / cm^3
# Si number density = 22.700652 Si / 1000 Ang^3
#
#
#
# Elastic Constant Matrix: (Units=GPa)
#
#
# Indices 1 2 3 4 5 6 
#
# 1 88.4053 47.5723 29.7167 -1.3712 -1.7349 9.3562
# 2 47.5723 140.5254 21.8334 0.5378 -6.9159 -4.8724
# 3 29.7167 21.8334 107.7948 2.3597 -6.4592 7.6623
# 4 -1.3712 0.5378 2.3597 38.5352 4.6630 7.1099
# 5 -1.7349 -6.9159 -6.4592 4.6630 52.6867 2.3137
# 6 9.3562 -4.8724 7.6623 7.1099 2.3137 33.6611
#
#
#
# Elastic Compliance Matrix: (Units=1/GPa)
#
#
# Indices 1 2 3 4 5 6 
#
# 1 0.015511 -0.004976 -0.003001 0.001724 -0.000457 -0.004681
# 2 -0.004976 0.009044 -0.000596 -0.000922 0.000902 0.002961
# 3 -0.003001 -0.000596 0.010424 -0.000592 0.001223 -0.001584
# 4 0.001724 -0.000922 -0.000592 0.027468 -0.002299 -0.006122
# 5 -0.000457 0.000902 0.001223 -0.002299 0.019475 -0.000874
# 6 -0.004681 0.002961 -0.001584 -0.006122 -0.000874 0.033151
#
#
# Mechanical properties :
#
#
# Convention : Reuss Voigt Hill
#
# Bulk Modulus (GPa) = 56.07654 59.44115 57.75885
# Shear Modulus (GPa) = 36.18888 40.81683 38.50286
#
# Velocity S-wave (km/s) = 3.99705 4.24494 4.12286
# Velocity P-wave (km/s) = 6.78661 7.08997 6.93995
#
# Compressibility (1/GPa) = 0.01783277
#
# Stress axis : x y z
#
# Youngs Moduli (GPa) = 64.46972 110.57094 95.93555
#
# Poissons Ratio (x) = 0.55023 0.28786
# Poissons Ratio (y) = 0.32082 0.05720
# Poissons Ratio (z) = 0.19345 0.06592
#
# Static dielectric constant tensor:
#      x y z
#    x 4.092980 0.250650 -0.098360 
#    y 0.250650 3.772220 -1.072410 
#    z -0.098360 -1.072410 2.754500 
# 
# 
# High freq. dielectric constant tensor:
#      x y z
#    x 1.897610 0.001430 0.000910 
#    y 0.001430 1.904740 0.000540 
#    z 0.000910 0.000540 1.914840 
# 
# From -- ./inp_files/403631.got.cif
#   From: 2010.06.25/outbox.cif.g09.slc.cpg/sg2_202_cif.got.tgz:403631.got - 2010.06.27 13:26:56.
