data_PCOD8035381
_publ_section_title
;
Structure prediction by ZEFSAII (Michael W. Deem and Ramdas Pophale) SiO2 
 PCOD8035381
Probable space group: P -1
;
_chemical_formula_sum "Si O2"
_cell_formula_units_Z 16
_cell_length_a 11.127443
_cell_length_b 11.482403
_cell_length_c 6.256906
_cell_angle_alpha 63.086198
_cell_angle_beta 88.490973
_cell_angle_gamma 75.535884
_cell_volume 686.769361
_symmetry_space_group_name_H-M "P -1"
_symmetry_group_IT_number 2
_symmetry_cell_setting 'triclinic'
loop_
_space_group_symop_operation_xyz
x,y,z
-x,-y,-z
loop_
_atom_site_type_symbol
_atom_site_label
_atom_site_fract_x
_atom_site_fract_y
_atom_site_fract_z
Si Si1 0.882197 0.436064 0.064941
Si Si2 0.422129 0.152858 0.914508
Si Si3 0.805198 0.777961 0.412589
Si Si4 0.021699 0.744594 0.145659
Si Si5 0.810326 0.229005 0.533258
Si Si6 0.347172 0.338311 0.162687
Si Si7 0.470358 0.636405 0.520452
Si Si8 0.886729 0.947792 0.624882
O O1 0.897796 0.301190 0.324138
O O2 0.749358 0.537858 0.059477
O O3 0.000000 0.500000 0.000000
O O4 0.884024 0.382942 0.866592
O O5 0.289048 0.152793 0.826427
O O6 0.491736 0.247998 0.710236
O O7 0.399860 0.206997 0.117148
O O8 0.500000 0.000000 0.000000
O O9 0.932230 0.694759 0.359917
O O10 0.744438 0.679758 0.629224
O O11 0.827414 0.890186 0.478318
O O12 0.115108 0.812346 0.213178
O O13 0.928890 0.844698 0.904070
O O14 0.676264 0.331800 0.468846
O O15 0.785765 0.088011 0.573960
O O16 0.462253 0.380484 0.235207
O O17 0.500000 0.500000 0.500000
O O18 0.000000 0.000000 0.500000
#
# Coordination Sequence:
#
# PCOD8035381 Si02
#       8
#     2   2   2   2   2   2   2   2
#     4  12  25  44  71 102 140 188 234 291 366 432
#     4  11  27  46  74 105 140 198 249 301 362 428
#     4  11  25  44  71 102 146 184 236 297 360 432
#     4  12  24  43  68 103 141 180 234 290 366 430
#     4  12  27  42  70 104 139 186 239 294 361 430
#     4  11  26  49  72 103 151 191 243 298 358 430
#     4  11  27  48  72 107 148 193 247 301 360 433
#     4  12  24  43  67 105 143 184 232 299 362 425
#
# _framework density 23.297487
#
# number of rings (size 3 to 8) (size 9 to 14) (size 15 to 20)
#    0.000    0.500    2.500    4.875    5.250    8.000 
#    0.000    0.000    0.000    0.000    0.000    0.000 
#    0.000    0.000    0.000    0.000    0.000    0.000 
#
# Total GULP energy -198250.741838 kJ/mol
# GULP energy per Si atom -12390.671365 kJ/mol
# Density = 2.324446 g / cm^3
# Si number density = 23.297487 Si / 1000 Ang^3
#
#
#
# Elastic Constant Matrix: (Units=GPa)
#
#
# Indices 1 2 3 4 5 6 
#
# 1 113.1281 37.2676 42.1009 13.5859 12.4983 4.4206
# 2 37.2676 167.8378 47.0485 17.3827 12.3766 -3.1497
# 3 42.1009 47.0485 84.7693 17.4297 11.0089 7.7538
# 4 13.5859 17.3827 17.4297 39.3861 8.2642 0.7662
# 5 12.4983 12.3766 11.0089 8.2642 43.8847 6.1798
# 6 4.4206 -3.1497 7.7538 0.7662 6.1798 43.1732
#
#
#
# Elastic Compliance Matrix: (Units=1/GPa)
#
#
# Indices 1 2 3 4 5 6 
#
# 1 0.011166 -0.000977 -0.004569 -0.001073 -0.001534 -0.000155
# 2 -0.000977 0.007334 -0.003334 -0.001260 -0.000912 0.001387
# 3 -0.004569 -0.003334 0.017160 -0.004310 -0.000877 -0.002655
# 4 -0.001073 -0.001260 -0.004310 0.029012 -0.003838 0.000827
# 5 -0.001534 -0.000912 -0.000877 -0.003838 0.024881 -0.003245
# 6 -0.000155 0.001387 -0.002655 0.000827 -0.003245 0.024206
#
#
# Mechanical properties :
#
#
# Convention : Reuss Voigt Hill
#
# Bulk Modulus (GPa) = 55.87207 68.72989 62.30098
# Shear Modulus (GPa) = 36.36708 41.24336 38.80522
#
# Velocity S-wave (km/s) = 3.95522 4.21205 4.08565
# Velocity P-wave (km/s) = 6.70018 7.29522 7.00402
#
# Compressibility (1/GPa) = 0.01789803
#
# Stress axis : x y z
#
# Youngs Moduli (GPa) = 89.55426 136.36039 58.27577
#
# Poissons Ratio (x) = 0.13325 0.26628
# Poissons Ratio (y) = 0.08751 0.19431
# Poissons Ratio (z) = 0.40920 0.45468
#
# Static dielectric constant tensor:
#      x y z
#    x 4.198920 -0.305400 0.157510 
#    y -0.305400 4.738440 0.094890 
#    z 0.157510 0.094890 4.393470 
# 
# 
# High freq. dielectric constant tensor:
#      x y z
#    x 1.932630 0.000180 -0.001420 
#    y 0.000180 1.932270 0.010650 
#    z -0.001420 0.010650 1.921040 
# 
# From -- ./inp_files/69187.got.cif
#   From: 2010.06.25/outbox.cif.g09.slc.cpg/sg2_35_cif.got.tgz:69187.got - 2010.06.27 13:26:56.
