data_PCOD8035115
_publ_section_title
;
Structure prediction by ZEFSAII (Michael W. Deem and Ramdas Pophale) SiO2 
 PCOD8035115
Probable space group: P -1
;
_chemical_formula_sum "Si O2"
_cell_formula_units_Z 16
_cell_length_a 6.572315
_cell_length_b 9.297351
_cell_length_c 15.518716
_cell_angle_alpha 89.775550
_cell_angle_beta 84.690772
_cell_angle_gamma 133.459612
_cell_volume 682.358632
_symmetry_space_group_name_H-M "P -1"
_symmetry_group_IT_number 2
_symmetry_cell_setting 'triclinic'
loop_
_space_group_symop_operation_xyz
x,y,z
-x,-y,-z
loop_
_atom_site_type_symbol
_atom_site_label
_atom_site_fract_x
_atom_site_fract_y
_atom_site_fract_z
Si Si1 0.136417 0.608449 0.130353
Si Si2 0.636252 0.525340 0.086423
Si Si3 0.438078 0.596913 0.566566
Si Si4 0.030847 0.052617 0.352453
Si Si5 0.060882 0.746687 0.305173
Si Si6 0.077477 0.252803 0.189858
Si Si7 0.765706 0.893238 0.083547
Si Si8 0.558703 0.166582 0.553098
O O1 0.064631 0.415396 0.169844
O O2 0.437637 0.762113 0.067637
O O3 0.893267 0.536698 0.071464
O O4 0.139601 0.719135 0.210057
O O5 0.386194 0.338635 0.154340
O O6 0.759458 0.730657 0.126011
O O7 0.500000 0.500000 0.000000
O O8 0.500000 0.500000 0.500000
O O9 0.728243 0.807404 0.587431
O O10 0.253991 0.455288 0.655364
O O11 0.277847 0.641567 0.516323
O O12 0.024089 0.190721 0.291297
O O13 0.085933 0.931782 0.297933
O O14 0.731994 0.895481 0.410878
O O15 0.271092 0.787123 0.368301
O O16 0.837836 0.053091 0.146547
O O17 0.000000 0.000000 0.000000
O O18 0.500000 0.000000 0.500000
#
# Coordination Sequence:
#
# PCOD8035115 Si02
#       8
#     2   2   2   2   2   2   2   2
#     4  11  28  44  74 106 140 188 240 291 361 430
#     4  11  24  49  71 105 142 178 232 292 353 431
#     4  12  25  44  71 103 142 194 238 297 356 404
#     4  12  26  46  69 101 148 190 235 297 353 419
#     4  12  26  47  69 104 145 190 239 292 357 424
#     4  11  26  45  71 103 142 184 238 292 359 423
#     4  11  24  48  72 106 141 181 231 293 358 425
#     4  12  25  44  71 103 144 186 249 294 348 420
#
# _framework density 23.448080999999998
#
# number of rings (size 3 to 8) (size 9 to 14) (size 15 to 20)
#    0.000    0.500    3.750    3.750    3.500    8.500 
#    0.000    0.000    0.000    0.000    0.000    0.000 
#    0.000    0.000    0.000    0.000    0.000    0.000 
#
# Total GULP energy -198362.283272 kJ/mol
# GULP energy per Si atom -12397.642704 kJ/mol
# Density = 2.339471 g / cm^3
# Si number density = 23.448081 Si / 1000 Ang^3
#
#
#
# Elastic Constant Matrix: (Units=GPa)
#
#
# Indices 1 2 3 4 5 6 
#
# 1 141.6336 45.5879 32.5000 2.3613 10.3790 -0.2685
# 2 45.5879 113.3382 17.9585 0.8878 6.2075 -12.8641
# 3 32.5000 17.9585 83.5325 -0.0418 6.1818 -3.5375
# 4 2.3613 0.8878 -0.0418 42.0558 -1.2861 -5.5127
# 5 10.3790 6.2075 6.1818 -1.2861 41.6092 1.8894
# 6 -0.2685 -12.8641 -3.5375 -5.5127 1.8894 45.6529
#
#
#
# Elastic Compliance Matrix: (Units=1/GPa)
#
#
# Indices 1 2 3 4 5 6 
#
# 1 0.008798 -0.003157 -0.002694 -0.000609 -0.001294 -0.001067
# 2 -0.003157 0.010609 -0.000868 0.000318 -0.000792 0.002975
# 3 -0.002694 -0.000868 0.013332 0.000258 -0.001210 0.000854
# 4 -0.000609 0.000318 0.000258 0.024220 0.000679 0.003003
# 5 -0.001294 -0.000792 -0.001210 0.000679 0.024732 -0.001266
# 6 -0.001067 0.002975 0.000854 0.003003 -0.001266 0.023218
#
#
# Mechanical properties :
#
#
# Convention : Reuss Voigt Hill
#
# Bulk Modulus (GPa) = 51.81094 58.95522 55.38308
# Shear Modulus (GPa) = 40.07047 42.02742 41.04895
#
# Velocity S-wave (km/s) = 4.13837 4.23822 4.18859
# Velocity P-wave (km/s) = 6.70663 7.01053 6.86026
#
# Compressibility (1/GPa) = 0.01930094
#
# Stress axis : x y z
#
# Youngs Moduli (GPa) = 113.66434 94.25857 75.00801
#
# Poissons Ratio (x) = 0.29761 0.20207
# Poissons Ratio (y) = 0.35888 0.06508
# Poissons Ratio (z) = 0.30620 0.08179
#
# Static dielectric constant tensor:
#      x y z
#    x 2.942930 -0.266600 -0.527840 
#    y -0.266600 4.544290 -0.122990 
#    z -0.527840 -0.122990 3.928050 
# 
# 
# High freq. dielectric constant tensor:
#      x y z
#    x 1.934540 -0.001360 -0.001610 
#    y -0.001360 1.947640 0.001840 
#    z -0.001610 0.001840 1.924960 
# 
# From -- ./inp_files/548107.got.cif
#   From: 2010.06.25/outbox.cif.g09.slc.cpg/sg2_275_cif.got.tgz:548107.got - 2010.06.27 13:26:56.
