data_PCOD8035275
_publ_section_title
;
Structure prediction by ZEFSAII (Michael W. Deem and Ramdas Pophale) SiO2 
 PCOD8035275
Probable space group: P -1
;
_chemical_formula_sum "Si O2"
_cell_formula_units_Z 14
_cell_length_a 9.180814
_cell_length_b 11.703610
_cell_length_c 18.461257
_cell_angle_alpha 151.462173
_cell_angle_beta 46.531634
_cell_angle_gamma 143.667190
_cell_volume 560.095349
_symmetry_space_group_name_H-M "P -1"
_symmetry_group_IT_number 2
_symmetry_cell_setting 'triclinic'
loop_
_space_group_symop_operation_xyz
x,y,z
-x,-y,-z
loop_
_atom_site_type_symbol
_atom_site_label
_atom_site_fract_x
_atom_site_fract_y
_atom_site_fract_z
Si Si1 0.041009 0.028423 0.181219
Si Si2 0.368590 0.597816 0.018345
Si Si3 0.268229 0.489008 0.599808
Si Si4 0.734541 0.020588 0.506153
Si Si5 0.358070 0.915559 0.689638
Si Si6 0.440338 0.053346 0.131170
Si Si7 0.604794 0.446911 0.743511
O O1 0.204884 0.219294 0.162637
O O2 0.221728 0.101852 0.228069
O O3 0.900808 0.680951 0.019434
O O4 0.846026 0.108815 0.308609
O O5 0.513043 0.467523 0.864656
O O6 0.510106 0.780957 0.142650
O O7 0.345477 0.779036 0.063859
O O8 0.500000 0.500000 0.500000
O O9 0.017444 0.159928 0.509744
O O10 0.215552 0.653420 0.649374
O O11 0.325507 0.652592 0.748961
O O12 0.558308 0.898486 0.568678
O O13 0.729723 0.275037 0.610696
O O14 0.632193 0.739913 0.333056
O O15 0.500000 0.000000 0.000000
#
# Coordination Sequence:
#
# PCOD8035275 Si02
#       7
#     2   2   2   2   2   2   2
#     4  12  24  45  74 100 145 183 236 284 350 411
#     4  11  25  45  69 109 139 183 231 291 349 403
#     4  11  28  49  70 103 143 183 226 291 354 418
#     4  11  26  47  69 107 140 178 238 290 345 412
#     4  11  26  44  75 105 134 186 233 290 348 410
#     4  11  26  45  71 107 140 185 231 286 351 410
#     4  11  25  42  75 105 137 184 237 290 338 412
#
# _framework density 24.995743000000001
#
# number of rings (size 3 to 8) (size 9 to 14) (size 15 to 20)
#    0.000    0.857    4.286    0.857    6.000    1.714 
#    0.000    0.000    0.000    0.000    0.000    0.000 
#    0.000    0.000    0.000    0.000    0.000    0.000 
#
# Total GULP energy -173573.794818 kJ/mol
# GULP energy per Si atom -12398.128201 kJ/mol
# Density = 2.493885 g / cm^3
# Si number density = 24.995743 Si / 1000 Ang^3
#
#
#
# Elastic Constant Matrix: (Units=GPa)
#
#
# Indices 1 2 3 4 5 6 
#
# 1 115.4991 39.8793 6.4004 -8.1662 -0.2307 8.6029
# 2 39.8793 125.8411 21.8765 9.1067 19.2084 4.2915
# 3 6.4004 21.8765 77.6301 -11.3026 19.5567 -4.0959
# 4 -8.1662 9.1067 -11.3026 36.3317 -1.4737 -5.0322
# 5 -0.2307 19.2084 19.5567 -1.4737 29.9710 -2.2352
# 6 8.6029 4.2915 -4.0959 -5.0322 -2.2352 38.7267
#
#
#
# Elastic Compliance Matrix: (Units=1/GPa)
#
#
# Indices 1 2 3 4 5 6 
#
# 1 0.010319 -0.003854 -0.000029 0.003203 0.002629 -0.001300
# 2 -0.003854 0.010816 -0.001970 -0.004642 -0.006016 -0.001501
# 3 -0.000029 -0.001970 0.016685 0.005608 -0.009187 0.002188
# 4 0.003203 -0.004642 0.005608 0.031841 0.001249 0.004606
# 5 0.002629 -0.006016 -0.009187 0.001249 0.043430 0.001780
# 6 -0.001300 -0.001501 0.002188 0.004606 0.001780 0.027210
#
#
# Mechanical properties :
#
#
# Convention : Reuss Voigt Hill
#
# Bulk Modulus (GPa) = 38.29270 50.58696 44.43983
# Shear Modulus (GPa) = 31.11179 37.72681 34.41930
#
# Velocity S-wave (km/s) = 3.53183 3.88922 3.71483
# Velocity P-wave (km/s) = 5.65551 6.36005 6.01810
#
# Compressibility (1/GPa) = 0.02611464
#
# Stress axis : x y z
#
# Youngs Moduli (GPa) = 96.91024 92.45908 59.93294
#
# Poissons Ratio (x) = 0.35630 0.00176
# Poissons Ratio (y) = 0.37346 0.11804
# Poissons Ratio (z) = 0.00285 0.18210
#
# Static dielectric constant tensor:
#      x y z
#    x 4.722810 0.039320 0.010530 
#    y 0.039320 4.618220 0.305920 
#    z 0.010530 0.305920 4.362760 
# 
# 
# High freq. dielectric constant tensor:
#      x y z
#    x 2.003320 -0.006950 -0.001260 
#    y -0.006950 2.007060 0.017560 
#    z -0.001260 0.017560 1.979040 
# 
# From -- ./inp_files/530207.got.cif
#   From: 2010.06.25/outbox.cif.g09.slc.cpg/sg2_266_cif.got.tgz:530207.got - 2010.06.27 13:26:56.
