data_PCOD8035084
_publ_section_title
;
Structure prediction by ZEFSAII (Michael W. Deem and Ramdas Pophale) SiO2 
 PCOD8035084
Probable space group: P -1
;
_chemical_formula_sum "Si O2"
_cell_formula_units_Z 16
_cell_length_a 22.941989
_cell_length_b 8.319350
_cell_length_c 8.798759
_cell_angle_alpha 58.745349
_cell_angle_beta 121.807425
_cell_angle_gamma 150.486840
_cell_volume 695.751133
_symmetry_space_group_name_H-M "P -1"
_symmetry_group_IT_number 2
_symmetry_cell_setting 'triclinic'
loop_
_space_group_symop_operation_xyz
x,y,z
-x,-y,-z
loop_
_atom_site_type_symbol
_atom_site_label
_atom_site_fract_x
_atom_site_fract_y
_atom_site_fract_z
Si Si1 0.035966 0.108162 0.666261
Si Si2 0.133256 0.712818 0.077733
Si Si3 0.896427 0.124142 0.587401
Si Si4 0.434367 0.046303 0.382130
Si Si5 0.155202 0.121905 0.040670
Si Si6 0.729184 0.235154 0.986234
Si Si7 0.335986 0.194847 0.637139
Si Si8 0.756426 0.249158 0.520384
O O1 0.170344 0.499410 0.646546
O O2 0.930798 0.994601 0.647224
O O3 0.044036 0.947244 0.868366
O O4 0.000000 0.000000 0.500000
O O5 0.170528 0.678993 0.994096
O O6 0.149025 0.607268 0.293353
O O7 0.216997 0.093479 0.035483
O O8 0.000000 0.500000 0.000000
O O9 0.000000 0.500000 0.500000
O O10 0.892141 0.108576 0.770897
O O11 0.771150 0.893402 0.444873
O O12 0.531688 0.426150 0.354445
O O13 0.500000 0.000000 0.500000
O O14 0.372194 0.942468 0.187022
O O15 0.336797 0.819755 0.494575
O O16 0.226831 0.464628 0.032489
O O17 0.669927 0.987635 0.162302
O O18 0.320264 0.090534 0.493129
#
# Coordination Sequence:
#
# PCOD8035084 Si02
#       8
#     2   2   2   2   2   2   2   2
#     4  12  27  41  69 112 147 185 241 298 362 445
#     4  11  26  41  70 107 149 190 236 288 365 443
#     4  12  25  44  72 104 147 193 235 292 369 438
#     4  11  27  48  76 101 137 191 250 304 364 429
#     4  12  25  45  72 103 152 196 236 295 367 438
#     4  11  27  47  74 107 143 190 244 307 363 433
#     4  12  24  48  73 101 147 185 245 306 365 427
#     4  11  24  48  68 104 145 186 239 298 367 428
#
# _framework density 22.996728999999998
#
# number of rings (size 3 to 8) (size 9 to 14) (size 15 to 20)
#    0.000    0.500    3.750    2.625   14.000    0.000 
#    0.000    0.625    0.000    0.000    0.000    0.000 
#    0.000    0.000    0.000    0.000    0.000    0.000 
#
# Total GULP energy -198216.084603 kJ/mol
# GULP energy per Si atom -12388.505288 kJ/mol
# Density = 2.294439 g / cm^3
# Si number density = 22.996729 Si / 1000 Ang^3
#
#
#
# Elastic Constant Matrix: (Units=GPa)
#
#
# Indices 1 2 3 4 5 6 
#
# 1 104.9014 17.1595 6.7252 -2.3753 19.6405 6.0825
# 2 17.1595 75.1026 18.0106 9.2351 1.2596 3.0391
# 3 6.7252 18.0106 106.8408 8.5092 8.0904 13.2229
# 4 -2.3753 9.2351 8.5092 41.3409 -3.0427 5.9476
# 5 19.6405 1.2596 8.0904 -3.0427 36.1896 7.5075
# 6 6.0825 3.0391 13.2229 5.9476 7.5075 36.5878
#
#
#
# Elastic Compliance Matrix: (Units=1/GPa)
#
#
# Indices 1 2 3 4 5 6 
#
# 1 0.011073 -0.002554 0.000183 0.000839 -0.005756 -0.000650
# 2 -0.002554 0.014762 -0.002205 -0.002949 0.001064 0.000256
# 3 0.000183 -0.002205 0.010334 -0.001328 -0.001824 -0.002992
# 4 0.000839 -0.002949 -0.001328 0.026004 0.003014 -0.004260
# 5 -0.005756 0.001064 -0.001824 0.003014 0.032551 -0.005641
# 6 -0.000650 0.000256 -0.002992 -0.004260 -0.005641 0.030350
#
#
# Mechanical properties :
#
#
# Convention : Reuss Voigt Hill
#
# Bulk Modulus (GPa) = 37.01424 41.18172 39.09798
# Shear Modulus (GPa) = 34.90843 39.15364 37.03104
#
# Velocity S-wave (km/s) = 3.90034 4.13070 4.01718
# Velocity P-wave (km/s) = 6.03440 6.37940 6.20930
#
# Compressibility (1/GPa) = 0.02701663
#
# Stress axis : x y z
#
# Youngs Moduli (GPa) = 90.30768 67.74170 96.76732
#
# Poissons Ratio (x) = 0.17303 -0.01772
# Poissons Ratio (y) = 0.23067 0.21339
# Poissons Ratio (z) = -0.01653 0.14938
#
# Static dielectric constant tensor:
#      x y z
#    x 4.542890 -0.493950 0.123820 
#    y -0.493950 4.306930 0.016460 
#    z 0.123820 0.016460 4.366280 
# 
# 
# High freq. dielectric constant tensor:
#      x y z
#    x 1.914600 -0.027720 0.002680 
#    y -0.027720 1.905550 0.006210 
#    z 0.002680 0.006210 1.928770 
# 
# From -- ./inp_files/352055.got.cif
#   From: 2010.06.25/outbox.cif.g09.slc.cpg/sg2_177_cif.got.tgz:352055.got - 2010.06.27 13:26:56.
