data_PCOD8035116
_publ_section_title
;
Structure prediction by ZEFSAII (Michael W. Deem and Ramdas Pophale) SiO2 
 PCOD8035116
Probable space group: P -1
;
_chemical_formula_sum "Si O2"
_cell_formula_units_Z 14
_cell_length_a 22.415011
_cell_length_b 8.877512
_cell_length_c 5.015304
_cell_angle_alpha 67.155937
_cell_angle_beta 55.718491
_cell_angle_gamma 39.190778
_cell_volume 518.845370
_symmetry_space_group_name_H-M "P -1"
_symmetry_group_IT_number 2
_symmetry_cell_setting 'triclinic'
loop_
_space_group_symop_operation_xyz
x,y,z
-x,-y,-z
loop_
_atom_site_type_symbol
_atom_site_label
_atom_site_fract_x
_atom_site_fract_y
_atom_site_fract_z
Si Si1 0.108841 0.677717 0.499637
Si Si2 0.481938 0.179551 0.230601
Si Si3 0.943013 0.744862 0.605838
Si Si4 0.667155 0.807911 0.662699
Si Si5 0.651984 0.335971 0.533426
Si Si6 0.709508 0.048634 0.087045
Si Si7 0.864367 0.158833 0.171287
O O1 0.221636 0.409592 0.320991
O O2 0.116051 0.724109 0.754663
O O3 0.018298 0.692541 0.682677
O O4 0.087523 0.866214 0.220362
O O5 0.384065 0.283824 0.217466
O O6 0.456554 0.389788 0.307876
O O7 0.500000 0.000000 0.500000
O O8 0.587776 0.038669 0.895146
O O9 0.000000 0.500000 0.500000
O O10 0.924326 0.901288 0.303409
O O11 0.834351 0.874284 0.936116
O O12 0.684360 0.899165 0.301445
O O13 0.645844 0.271795 0.297791
O O14 0.740695 0.329926 0.332343
O O15 0.675754 0.149287 0.804748
#
# Coordination Sequence:
#
# PCOD8035116 Si02
#       7
#     2   2   2   2   2   2   2
#     4  12  26  47  76 105 152 196 249 301 362 438
#     4  11  26  48  82 108 146 193 257 306 374 443
#     4  11  28  48  76 112 152 201 248 307 369 443
#     4  11  28  47  75 115 146 197 247 314 369 441
#     4  11  25  49  76 107 151 195 241 310 368 448
#     4  11  29  49  72 109 157 191 245 298 384 439
#     4  11  24  48  72 107 147 197 248 299 364 435
#
# _framework density 26.982991999999999
#
# number of rings (size 3 to 8) (size 9 to 14) (size 15 to 20)
#    0.000    0.857    1.429    3.429   12.000    4.000 
#    0.000    0.000    0.000    0.000    0.000    0.000 
#    0.000    0.000    0.000    0.000    0.000    0.000 
#
# Total GULP energy -173703.673619 kJ/mol
# GULP energy per Si atom -12407.405258 kJ/mol
# Density = 2.692158 g / cm^3
# Si number density = 26.982992 Si / 1000 Ang^3
#
#
#
# Elastic Constant Matrix: (Units=GPa)
#
#
# Indices 1 2 3 4 5 6 
#
# 1 70.3591 6.6474 14.8486 6.9184 -2.8315 14.9712
# 2 6.6474 105.5557 7.3888 18.5175 -12.8282 17.5247
# 3 14.8486 7.3888 124.2122 2.0166 -5.6878 6.7016
# 4 6.9184 18.5175 2.0166 40.2762 4.2324 5.3997
# 5 -2.8315 -12.8282 -5.6878 4.2324 40.7417 2.3764
# 6 14.9712 17.5247 6.7016 5.3997 2.3764 39.4466
#
#
#
# Elastic Compliance Matrix: (Units=1/GPa)
#
#
# Indices 1 2 3 4 5 6 
#
# 1 0.016030 0.000707 -0.001522 -0.002390 0.001718 -0.005916
# 2 0.000707 0.011765 -0.000219 -0.005329 0.004569 -0.005004
# 3 -0.001522 -0.000219 0.008337 -0.000058 0.001042 -0.000797
# 4 -0.002390 -0.005329 -0.000058 0.028232 -0.004768 -0.000293
# 5 0.001718 0.004569 0.001042 -0.004768 0.026967 -0.003830
# 6 -0.005916 -0.005004 -0.000797 -0.000293 -0.003830 0.030225
#
#
# Mechanical properties :
#
#
# Convention : Reuss Voigt Hill
#
# Bulk Modulus (GPa) = 29.35464 39.76628 34.56046
# Shear Modulus (GPa) = 37.04281 42.17572 39.60926
#
# Velocity S-wave (km/s) = 3.70918 3.95783 3.83552
# Velocity P-wave (km/s) = 5.40801 5.97122 5.69658
#
# Compressibility (1/GPa) = 0.03406617
#
# Stress axis : x y z
#
# Youngs Moduli (GPa) = 62.38281 84.99584 119.94316
#
# Poissons Ratio (x) = -0.06011 0.18252
# Poissons Ratio (y) = -0.04412 0.02623
# Poissons Ratio (z) = 0.09493 0.01859
#
# Static dielectric constant tensor:
#      x y z
#    x 5.151130 -0.145790 -0.402570 
#    y -0.145790 4.939080 0.137020 
#    z -0.402570 0.137020 5.304230 
# 
# 
# High freq. dielectric constant tensor:
#      x y z
#    x 2.090300 -0.003710 -0.011590 
#    y -0.003710 2.091950 0.011250 
#    z -0.011590 0.011250 2.092830 
# 
# From -- ./inp_files/122798.got.cif
#   From: 2010.06.25/outbox.cif.g09.slc.cpg/sg2_62_cif.got.tgz:122798.got - 2010.06.27 13:26:56.
