data_PCOD8035100
_publ_section_title
;
Structure prediction by ZEFSAII (Michael W. Deem and Ramdas Pophale) SiO2 
 PCOD8035100
Probable space group: P -1
;
_chemical_formula_sum "Si O2"
_cell_formula_units_Z 12
_cell_length_a 12.670438
_cell_length_b 12.772120
_cell_length_c 5.778097
_cell_angle_alpha 64.926517
_cell_angle_beta 88.508791
_cell_angle_gamma 42.319063
_cell_volume 502.953530
_symmetry_space_group_name_H-M "P -1"
_symmetry_group_IT_number 2
_symmetry_cell_setting 'triclinic'
loop_
_space_group_symop_operation_xyz
x,y,z
-x,-y,-z
loop_
_atom_site_type_symbol
_atom_site_label
_atom_site_fract_x
_atom_site_fract_y
_atom_site_fract_z
Si Si1 0.598814 0.427134 0.813249
Si Si2 0.869029 0.026829 0.363561
Si Si3 0.333748 0.375888 0.453896
Si Si4 0.980951 0.718749 0.373923
Si Si5 0.714895 0.993072 0.749397
Si Si6 0.810268 0.700870 0.726007
O O1 0.500000 0.500000 0.500000
O O2 0.685704 0.476879 0.773050
O O3 0.500000 0.500000 0.000000
O O4 0.755123 0.193673 0.017762
O O5 0.993725 0.816666 0.450859
O O6 0.727954 0.090669 0.484337
O O7 0.000000 0.000000 0.500000
O O8 0.302882 0.314785 0.299774
O O9 0.179611 0.492471 0.544165
O O10 0.531186 0.175594 0.731858
O O11 0.848913 0.735886 0.454391
O O12 0.894849 0.838543 0.029669
O O13 0.700432 0.880891 0.733211
O O14 0.000000 0.500000 0.000000
#
# Coordination Sequence:
#
# PCOD8035100 Si02
#       6
#     2   2   2   2   2   2
#     4  12  28  50  76 114 156 197 263 321 379 468
#     4  11  26  47  74 105 154 198 252 315 389 451
#     4  12  25  45  78 105 143 200 247 309 383 448
#     4  11  26  47  71 106 147 194 248 320 376 459
#     4  11  24  48  71 106 147 189 251 309 378 460
#     4  11  25  47  70 106 150 188 248 312 382 455
#
# _framework density 23.859064
#
# number of rings (size 3 to 8) (size 9 to 14) (size 15 to 20)
#    0.000    0.667    3.333    3.000    4.667    2.000 
#    6.000    0.000    0.000    0.000    0.000    0.000 
#    0.000    0.000    0.000    0.000    0.000    0.000 
#
# Total GULP energy -148748.688051 kJ/mol
# GULP energy per Si atom -12395.724004 kJ/mol
# Density = 2.380476 g / cm^3
# Si number density = 23.859064 Si / 1000 Ang^3
#
#
#
# Elastic Constant Matrix: (Units=GPa)
#
#
# Indices 1 2 3 4 5 6 
#
# 1 126.4849 46.7046 32.1622 -4.4124 8.8274 34.9940
# 2 46.7046 132.9449 37.0444 -12.2083 10.8437 -12.7158
# 3 32.1622 37.0444 113.6709 -8.1274 8.1638 8.0017
# 4 -4.4124 -12.2083 -8.1274 41.6451 2.1646 7.2626
# 5 8.8274 10.8437 8.1638 2.1646 33.2424 -11.7330
# 6 34.9940 -12.7158 8.0017 7.2626 -11.7330 43.2255
#
#
#
# Elastic Compliance Matrix: (Units=1/GPa)
#
#
# Indices 1 2 3 4 5 6 
#
# 1 0.015739 -0.006081 -0.000419 0.003254 -0.008404 -0.017281
# 2 -0.006081 0.011162 -0.002660 0.000424 0.001819 0.009122
# 3 -0.000419 -0.002660 0.010379 0.001962 -0.002930 -0.003490
# 4 0.003254 0.000424 0.001962 0.026791 -0.006449 -0.009125
# 5 -0.008404 0.001819 -0.002930 -0.006449 0.039841 0.019779
# 6 -0.017281 0.009122 -0.003490 -0.009125 0.019779 0.047356
#
#
# Mechanical properties :
#
#
# Convention : Reuss Voigt Hill
#
# Bulk Modulus (GPa) = 52.73848 67.21366 59.97607
# Shear Modulus (GPa) = 28.42393 40.76856 34.59625
#
# Velocity S-wave (km/s) = 3.45530 4.13816 3.81205
# Velocity P-wave (km/s) = 6.17017 7.14596 6.67592
#
# Compressibility (1/GPa) = 0.01896149
#
# Stress axis : x y z
#
# Youngs Moduli (GPa) = 63.53527 89.58645 96.34962
#
# Poissons Ratio (x) = 0.54480 0.04034
# Poissons Ratio (y) = 0.38638 0.25625
# Poissons Ratio (z) = 0.02660 0.23826
#
# Static dielectric constant tensor:
#      x y z
#    x 4.502980 0.159430 -0.334920 
#    y 0.159430 4.565840 -0.188210 
#    z -0.334920 -0.188210 4.410450 
# 
# 
# High freq. dielectric constant tensor:
#      x y z
#    x 1.953700 0.014260 -0.007690 
#    y 0.014260 1.958630 -0.019720 
#    z -0.007690 -0.019720 1.937640 
# 
# From -- ./inp_files/22260.got.cif
#   From: 2010.06.25/outbox.cif.g09.slc.cpg/sg2_12_cif.got.tgz:22260.got - 2010.06.27 13:26:56.
