data_PCOD8035012
_publ_section_title
;
Structure prediction by ZEFSAII (Michael W. Deem and Ramdas Pophale) SiO2 
 PCOD8035012
Probable space group: P -1
;
_chemical_formula_sum "Si O2"
_cell_formula_units_Z 14
_cell_length_a 9.054765
_cell_length_b 30.858784
_cell_length_c 5.167853
_cell_angle_alpha 50.690857
_cell_angle_beta 122.949582
_cell_angle_gamma 150.130748
_cell_volume 556.373139
_symmetry_space_group_name_H-M "P -1"
_symmetry_group_IT_number 2
_symmetry_cell_setting 'triclinic'
loop_
_space_group_symop_operation_xyz
x,y,z
-x,-y,-z
loop_
_atom_site_type_symbol
_atom_site_label
_atom_site_fract_x
_atom_site_fract_y
_atom_site_fract_z
Si Si1 0.182313 0.750054 0.801500
Si Si2 0.797008 0.438378 0.287603
Si Si3 0.154445 0.913399 0.934237
Si Si4 0.811003 0.913820 0.331957
Si Si5 0.595326 0.556721 0.124595
Si Si6 0.761962 0.174225 0.911281
Si Si7 0.610977 0.774587 0.271411
O O1 0.045156 0.739834 0.440083
O O2 0.242232 0.813129 0.837705
O O3 0.472935 0.785272 0.896219
O O4 0.948923 0.650036 0.099795
O O5 0.629367 0.336063 0.505083
O O6 0.000000 0.500000 0.500000
O O7 0.530813 0.413564 0.114853
O O8 0.000000 0.500000 0.000000
O O9 0.046556 0.948654 0.629485
O O10 0.133674 0.863440 0.866706
O O11 0.930822 0.835068 0.243724
O O12 0.500000 0.000000 0.000000
O O13 0.560883 0.893673 0.270730
O O14 0.652768 0.818997 0.410319
O O15 0.000000 0.000000 0.000000
O O16 0.500000 0.500000 0.500000
O O17 0.500000 0.500000 0.000000
#
# Coordination Sequence:
#
# PCOD8035012 Si02
#       7
#     2   2   2   2   2   2   2
#     4  11  24  47  72 105 147 199 251 312 379 462
#     4  12  28  48  80 116 156 201 261 324 389 462
#     4  12  28  45  78 110 155 201 268 319 395 463
#     4  11  27  49  75 108 157 206 259 324 389 467
#     4  12  25  45  72 108 148 196 249 318 387 454
#     4  11  26  45  73 105 148 197 253 309 384 453
#     4  11  26  47  77 110 157 206 259 321 394 458
#
# _framework density 25.162966999999998
#
# number of rings (size 3 to 8) (size 9 to 14) (size 15 to 20)
#    0.000    0.571    1.429    5.143   10.000    3.429 
#    0.000    0.000    0.000    0.000    0.000    0.000 
#    0.000    0.000    0.000    0.000    0.000    0.000 
#
# Total GULP energy -173463.280704 kJ/mol
# GULP energy per Si atom -12390.234336 kJ/mol
# Density = 2.510569 g / cm^3
# Si number density = 25.162967 Si / 1000 Ang^3
#
#
#
# Elastic Constant Matrix: (Units=GPa)
#
#
# Indices 1 2 3 4 5 6 
#
# 1 120.3508 7.9293 7.2590 0.2113 -6.4972 13.9131
# 2 7.9293 87.0952 8.7994 -11.2463 -15.8145 9.7975
# 3 7.2590 8.7994 93.3473 -1.7404 -6.2946 5.1948
# 4 0.2113 -11.2463 -1.7404 40.9364 5.6070 -2.6453
# 5 -6.4972 -15.8145 -6.2946 5.6070 40.9758 8.6493
# 6 13.9131 9.7975 5.1948 -2.6453 8.6493 47.7862
#
#
#
# Elastic Compliance Matrix: (Units=1/GPa)
#
#
# Indices 1 2 3 4 5 6 
#
# 1 0.008781 -0.000155 -0.000387 -0.000557 0.001955 -0.002867
# 2 -0.000155 0.013262 -0.000637 0.002662 0.005355 -0.003427
# 3 -0.000387 -0.000637 0.010983 -0.000012 0.001645 -0.001249
# 4 -0.000557 0.002662 -0.000012 0.025661 -0.002904 0.001564
# 5 0.001955 0.005355 0.001645 -0.002904 0.028962 -0.007249
# 6 -0.002867 -0.003427 -0.001249 0.001564 -0.007249 0.023998
#
#
# Mechanical properties :
#
#
# Convention : Reuss Voigt Hill
#
# Bulk Modulus (GPa) = 32.60738 38.75206 35.67972
# Shear Modulus (GPa) = 40.24930 44.39340 42.32135
#
# Velocity S-wave (km/s) = 4.00377 4.20484 4.10553
# Velocity P-wave (km/s) = 5.86176 6.24564 6.05674
#
# Compressibility (1/GPa) = 0.03066791
#
# Stress axis : x y z
#
# Youngs Moduli (GPa) = 113.88798 75.40531 91.04940
#
# Poissons Ratio (x) = 0.01167 0.03526
# Poissons Ratio (y) = 0.01763 0.05797
# Poissons Ratio (z) = 0.04410 0.04801
#
# Static dielectric constant tensor:
#      x y z
#    x 5.348970 0.343870 -0.205480 
#    y 0.343870 5.002130 -0.076980 
#    z -0.205480 -0.076980 5.066330 
# 
# 
# High freq. dielectric constant tensor:
#      x y z
#    x 2.027130 0.012930 0.003410 
#    y 0.012930 2.000630 -0.004540 
#    z 0.003410 -0.004540 2.013780 
# 
# From -- ./inp_files/56798.got.cif
#   From: 2010.06.25/outbox.cif.g09.slc.cpg/sg2_29_cif.got.tgz:56798.got - 2010.06.27 13:26:56.
