data_PCOD8035338
_publ_section_title
;
Structure prediction by ZEFSAII (Michael W. Deem and Ramdas Pophale) SiO2 
 PCOD8035338
Probable space group: P -1
;
_chemical_formula_sum "Si O2"
_cell_formula_units_Z 14
_cell_length_a 4.925647
_cell_length_b 7.633846
_cell_length_c 17.580051
_cell_angle_alpha 96.336001
_cell_angle_beta 80.141076
_cell_angle_gamma 64.683617
_cell_volume 576.085736
_symmetry_space_group_name_H-M "P -1"
_symmetry_group_IT_number 2
_symmetry_cell_setting 'triclinic'
loop_
_space_group_symop_operation_xyz
x,y,z
-x,-y,-z
loop_
_atom_site_type_symbol
_atom_site_label
_atom_site_fract_x
_atom_site_fract_y
_atom_site_fract_z
Si Si1 0.996999 0.545095 0.815221
Si Si2 0.456077 0.459054 0.286196
Si Si3 0.035085 0.164640 0.847488
Si Si4 0.305830 0.037769 0.421029
Si Si5 0.715853 0.329268 0.538266
Si Si6 0.627187 0.975746 0.908589
Si Si7 0.862175 0.048145 0.318268
O O1 0.796614 0.574105 0.750359
O O2 0.891945 0.752465 0.873264
O O3 0.360813 0.451525 0.769956
O O4 0.961552 0.393984 0.869450
O O5 0.283688 0.592525 0.373207
O O6 0.732651 0.251038 0.288634
O O7 0.357556 0.018538 0.863393
O O8 0.047405 0.129552 0.754173
O O9 0.766087 0.129885 0.897883
O O10 0.619674 0.052693 0.392956
O O11 0.063733 0.237850 0.484341
O O12 0.171795 0.015021 0.345240
O O13 0.387051 0.846311 0.461127
O O14 0.500000 0.500000 0.500000
O O15 0.500000 0.000000 0.000000
#
# Coordination Sequence:
#
# PCOD8035338 Si02
#       7
#     2   2   2   2   2   2   2
#     4  12  25  47  71 102 135 178 229 277 333 400
#     4  12  24  43  71  96 134 178 229 281 333 397
#     4  12  25  44  74 101 137 183 223 273 336 397
#     4  11  26  43  63  94 134 171 228 284 331 394
#     4  11  25  44  63  96 130 180 222 280 343 395
#     4  12  26  46  71 106 142 174 219 274 334 408
#     4  12  22  45  69  94 131 178 224 281 331 388
#
# _framework density 24.301939000000001
#
# number of rings (size 3 to 8) (size 9 to 14) (size 15 to 20)
#    0.000    0.286    4.286    4.714    0.000    5.143 
#    0.000    0.000    0.000    0.000    0.000    0.000 
#    0.000    0.000    0.000    0.000    0.000    0.000 
#
# Total GULP energy -173712.426311 kJ/mol
# GULP energy per Si atom -12408.030451 kJ/mol
# Density = 2.424663 g / cm^3
# Si number density = 24.301939 Si / 1000 Ang^3
#
#
#
# Elastic Constant Matrix: (Units=GPa)
#
#
# Indices 1 2 3 4 5 6 
#
# 1 83.3518 -2.0133 23.3582 -2.5782 -15.8528 8.3417
# 2 -2.0133 96.5515 35.8958 -2.9572 -0.4698 12.1934
# 3 23.3582 35.8958 115.1310 9.6643 -19.5508 9.8988
# 4 -2.5782 -2.9572 9.6643 28.2679 4.5385 -4.3334
# 5 -15.8528 -0.4698 -19.5508 4.5385 36.5086 -9.6216
# 6 8.3417 12.1934 9.8988 -4.3334 -9.6216 33.1746
#
#
#
# Elastic Compliance Matrix: (Units=1/GPa)
#
#
# Indices 1 2 3 4 5 6 
#
# 1 0.013733 0.001537 -0.002543 0.001352 0.003942 -0.001939
# 2 0.001537 0.012745 -0.004709 0.002948 -0.003163 -0.004198
# 3 -0.002543 -0.004709 0.012217 -0.005916 0.006034 -0.000298
# 4 0.001352 0.002948 -0.005916 0.039426 -0.006493 0.003608
# 5 0.003942 -0.003163 0.006034 -0.006493 0.035133 0.007712
# 6 -0.001939 -0.004198 -0.000298 0.003608 0.007712 0.034971
#
#
# Mechanical properties :
#
#
# Convention : Reuss Voigt Hill
#
# Bulk Modulus (GPa) = 36.67706 45.50177 41.08941
# Shear Modulus (GPa) = 29.63100 35.44315 32.53708
#
# Velocity S-wave (km/s) = 3.49562 3.82311 3.66302
# Velocity P-wave (km/s) = 5.60513 6.18485 5.90211
#
# Compressibility (1/GPa) = 0.02726500
#
# Stress axis : x y z
#
# Youngs Moduli (GPa) = 72.81888 78.46158 81.85451
#
# Poissons Ratio (x) = -0.12062 0.20814
# Poissons Ratio (y) = -0.11194 0.38547
# Poissons Ratio (z) = 0.18517 0.36949
#
# Static dielectric constant tensor:
#      x y z
#    x 4.311660 0.079780 -0.042540 
#    y 0.079780 4.659990 -0.035290 
#    z -0.042540 -0.035290 4.302980 
# 
# 
# High freq. dielectric constant tensor:
#      x y z
#    x 1.972510 0.001480 -0.000930 
#    y 0.001480 1.978710 -0.006900 
#    z -0.000930 -0.006900 1.960840 
# 
# From -- ./inp_files/547219.got.cif
#   From: 2010.06.25/outbox.cif.g09.slc.cpg/sg2_274_cif.got.tgz:547219.got - 2010.06.27 13:26:56.
