data_PCOD8035802
_publ_section_title
;
Structure prediction by ZEFSAII (Michael W. Deem and Ramdas Pophale) SiO2 
 PCOD8035802
Probable space group: P -1
;
_chemical_formula_sum "Si O2"
_cell_formula_units_Z 16
_cell_length_a 9.246767
_cell_length_b 25.893670
_cell_length_c 9.419239
_cell_angle_alpha 43.954396
_cell_angle_beta 45.228267
_cell_angle_gamma 29.703725
_cell_volume 754.924212
_symmetry_space_group_name_H-M "P -1"
_symmetry_group_IT_number 2
_symmetry_cell_setting 'triclinic'
loop_
_space_group_symop_operation_xyz
x,y,z
-x,-y,-z
loop_
_atom_site_type_symbol
_atom_site_label
_atom_site_fract_x
_atom_site_fract_y
_atom_site_fract_z
Si Si1 0.367683 0.990415 0.477250
Si Si2 0.909859 0.744057 0.549529
Si Si3 0.196515 0.479765 0.275703
Si Si4 0.250385 0.150592 0.031322
Si Si5 0.216361 0.388515 0.159128
Si Si6 0.135349 0.787277 0.082364
Si Si7 0.864538 0.344232 0.125502
Si Si8 0.082813 0.992540 0.118135
O O1 0.585180 0.867639 0.514885
O O2 0.052658 0.037849 0.637114
O O3 0.500000 0.000000 0.500000
O O4 0.307663 0.057646 0.251965
O O5 0.916145 0.658752 0.656204
O O6 0.147132 0.729656 0.324715
O O7 0.983903 0.726983 0.697529
O O8 0.232126 0.407277 0.275541
O O9 0.513231 0.422472 0.231102
O O10 0.000000 0.500000 0.500000
O O11 0.051302 0.591470 0.081106
O O12 0.995802 0.265989 0.056008
O O13 0.135573 0.167622 0.918853
O O14 0.564958 0.109366 0.893533
O O15 0.546511 0.302360 0.036153
O O16 0.000000 0.500000 0.000000
O O17 0.063995 0.889766 0.974625
O O18 0.000000 0.000000 0.000000
#
# Coordination Sequence:
#
# PCOD8035802 Si02
#       8
#     2   2   2   2   2   2   2   2
#     4  12  23  43  69 105 144 188 239 289 346 424
#     4  12  25  44  73 100 145 191 236 291 362 423
#     4  11  27  49  74 104 139 186 242 297 370 424
#     4  12  26  45  70 107 150 190 239 297 358 423
#     4  12  27  48  72 107 142 185 244 302 357 431
#     4  12  28  47  69 108 151 187 240 302 360 419
#     4  11  25  47  71 105 146 184 238 302 352 437
#     4  12  24  43  73 101 143 196 241 283 352 434
#
# _framework density 21.194181
#
# number of rings (size 3 to 8) (size 9 to 14) (size 15 to 20)
#    0.000    0.250    7.500    0.375    3.500    3.000 
#    0.000    0.000    0.000    0.000    0.000    0.000 
#    0.000    0.000    0.000    0.000    0.000    0.000 
#
# Total GULP energy -198480.690298 kJ/mol
# GULP energy per Si atom -12405.043144 kJ/mol
# Density = 2.114594 g / cm^3
# Si number density = 21.194181 Si / 1000 Ang^3
#
#
#
# Elastic Constant Matrix: (Units=GPa)
#
#
# Indices 1 2 3 4 5 6 
#
# 1 95.0212 30.0982 27.5666 10.3210 -8.1791 11.7247
# 2 30.0982 105.5384 31.3144 9.3844 -1.3091 2.3316
# 3 27.5666 31.3144 123.5388 17.4339 -13.8395 -3.2529
# 4 10.3210 9.3844 17.4339 41.7801 0.4257 -4.3571
# 5 -8.1791 -1.3091 -13.8395 0.4257 34.4570 6.3924
# 6 11.7247 2.3316 -3.2529 -4.3571 6.3924 39.3186
#
#
#
# Elastic Compliance Matrix: (Units=1/GPa)
#
#
# Indices 1 2 3 4 5 6 
#
# 1 0.013011 -0.002881 -0.001592 -0.002419 0.003229 -0.004634
# 2 -0.002881 0.010992 -0.002150 -0.000836 -0.001142 0.000122
# 3 -0.001592 -0.002150 0.009848 -0.003216 0.003442 0.000501
# 4 -0.002419 -0.000836 -0.003216 0.026501 -0.002952 0.003922
# 5 0.003229 -0.001142 0.003442 -0.002952 0.032312 -0.006191
# 6 -0.004634 0.000122 0.000501 0.003922 -0.006191 0.028290
#
#
# Mechanical properties :
#
#
# Convention : Reuss Voigt Hill
#
# Bulk Modulus (GPa) = 48.53272 55.78410 52.15841
# Shear Modulus (GPa) = 35.44387 38.78576 37.11481
#
# Velocity S-wave (km/s) = 4.09386 4.28251 4.18925
# Velocity P-wave (km/s) = 6.73016 7.12958 6.93274
#
# Compressibility (1/GPa) = 0.02060466
#
# Stress axis : x y z
#
# Youngs Moduli (GPa) = 76.85994 90.97365 101.54808
#
# Poissons Ratio (x) = 0.26206 0.16166
# Poissons Ratio (y) = 0.22140 0.21836
# Poissons Ratio (z) = 0.12236 0.19562
#
# Static dielectric constant tensor:
#      x y z
#    x 3.951410 -0.107920 0.006770 
#    y -0.107920 4.513700 -0.250040 
#    z 0.006770 -0.250040 4.139640 
# 
# 
# High freq. dielectric constant tensor:
#      x y z
#    x 1.839030 0.007450 -0.002980 
#    y 0.007450 1.843290 0.002130 
#    z -0.002980 0.002130 1.843190 
# 
# From -- ./inp_files/187094.got.cif
#   From: 2010.06.25/outbox.cif.g09.slc.cpg/sg2_94_cif.got.tgz:187094.got - 2010.06.27 13:26:56.
