data_PCOD8035750
_publ_section_title
;
Structure prediction by ZEFSAII (Michael W. Deem and Ramdas Pophale) SiO2 
 PCOD8035750
Probable space group: P -1
;
_chemical_formula_sum "Si O2"
_cell_formula_units_Z 16
_cell_length_a 13.883170
_cell_length_b 9.326710
_cell_length_c 13.696496
_cell_angle_alpha 51.249850
_cell_angle_beta 29.580119
_cell_angle_gamma 65.537697
_cell_volume 642.492828
_symmetry_space_group_name_H-M "P -1"
_symmetry_group_IT_number 2
_symmetry_cell_setting 'triclinic'
loop_
_space_group_symop_operation_xyz
x,y,z
-x,-y,-z
loop_
_atom_site_type_symbol
_atom_site_label
_atom_site_fract_x
_atom_site_fract_y
_atom_site_fract_z
Si Si1 0.750224 0.736945 0.489061
Si Si2 0.993557 0.540008 0.625312
Si Si3 0.922824 0.060407 0.735465
Si Si4 0.869134 0.647058 0.896656
Si Si5 0.474761 0.973957 0.149638
Si Si6 0.264407 0.638937 0.611974
Si Si7 0.444655 0.682490 0.942173
Si Si8 0.536777 0.634453 0.534430
O O1 0.537451 0.727652 0.733103
O O2 0.697004 0.782463 0.405614
O O3 0.808656 0.535290 0.521841
O O4 0.934120 0.907556 0.307507
O O5 0.908860 0.554712 0.800453
O O6 0.035850 0.746164 0.448002
O O7 0.805020 0.369669 0.810008
O O8 0.939029 0.883222 0.729082
O O9 0.687021 0.985246 0.011740
O O10 0.020340 0.595329 0.865339
O O11 0.630644 0.546962 0.182696
O O12 0.423133 0.153539 0.167278
O O13 0.307075 0.770602 0.418140
O O14 0.500000 0.000000 0.000000
O O15 0.409172 0.741097 0.534367
O O16 0.316218 0.442571 0.631095
O O17 0.500000 0.500000 0.000000
#
# Coordination Sequence:
#
# PCOD8035750 Si02
#       8
#     2   2   2   2   2   2   2   2
#     4  12  24  46  67 104 140 189 233 288 352 414
#     4  12  24  41  68 103 145 186 228 286 350 418
#     4  12  25  40  66 104 149 176 232 291 346 420
#     4  12  24  44  71 104 134 186 239 285 355 411
#     4  12  27  45  72 108 143 185 229 289 358 417
#     4  11  25  47  71 102 142 182 239 297 336 415
#     4  12  25  41  70 100 147 188 226 282 354 423
#     4  11  25  46  75  98 137 192 241 283 350 412
#
# _framework density 24.903002999999998
#
# number of rings (size 3 to 8) (size 9 to 14) (size 15 to 20)
#    0.000    0.250    6.250    3.375    3.500    0.000 
#    0.000    3.125    0.000    0.000    0.000    0.000 
#    0.000    0.000    0.000    0.000    0.000    0.000 
#
# Total GULP energy -198248.221584 kJ/mol
# GULP energy per Si atom -12390.513849 kJ/mol
# Density = 2.484632 g / cm^3
# Si number density = 24.903003 Si / 1000 Ang^3
#
#
#
# Elastic Constant Matrix: (Units=GPa)
#
#
# Indices 1 2 3 4 5 6 
#
# 1 114.4224 3.2552 -7.5210 0.8578 -5.5853 14.2437
# 2 3.2552 89.1014 0.2409 8.8339 4.7460 16.4953
# 3 -7.5210 0.2409 45.6611 5.7547 -18.8924 -3.1983
# 4 0.8578 8.8339 5.7547 31.6256 -1.3933 -4.9669
# 5 -5.5853 4.7460 -18.8924 -1.3933 37.9021 8.3751
# 6 14.2437 16.4953 -3.1983 -4.9669 8.3751 30.3111
#
#
#
# Elastic Compliance Matrix: (Units=1/GPa)
#
#
# Indices 1 2 3 4 5 6 
#
# 1 0.009923 0.000733 0.003193 -0.001842 0.004265 -0.006205
# 2 0.000733 0.013246 0.000190 -0.005068 0.000219 -0.008424
# 3 0.003193 0.000190 0.029335 -0.005371 0.015695 -0.003725
# 4 -0.001842 -0.005068 -0.005371 0.035453 -0.003163 0.009740
# 5 0.004265 0.000219 0.015695 -0.003163 0.037179 -0.011259
# 6 -0.006205 -0.008424 -0.003725 0.009740 -0.011259 0.044805
#
#
# Mechanical properties :
#
#
# Convention : Reuss Voigt Hill
#
# Bulk Modulus (GPa) = 16.46455 26.79277 21.62866
# Shear Modulus (GPa) = 27.47926 36.84842 32.16384
#
# Velocity S-wave (km/s) = 3.32543 3.85083 3.59773
# Velocity P-wave (km/s) = 4.62282 5.52757 5.09532
#
# Compressibility (1/GPa) = 0.06073656
#
# Stress axis : x y z
#
# Youngs Moduli (GPa) = 100.77554 75.49352 34.08891
#
# Poissons Ratio (x) = -0.05534 -0.10884
# Poissons Ratio (y) = -0.07387 -0.00649
# Poissons Ratio (z) = -0.32177 -0.01436
#
# Static dielectric constant tensor:
#      x y z
#    x 4.468670 0.203620 -0.134980 
#    y 0.203620 4.450490 0.030740 
#    z -0.134980 0.030740 3.680350 
# 
# 
# High freq. dielectric constant tensor:
#      x y z
#    x 1.996470 0.016790 -0.023680 
#    y 0.016790 1.986540 0.027250 
#    z -0.023680 0.027250 1.984800 
# 
# From -- ./inp_files/529461.got.cif
#   From: 2010.06.25/outbox.cif.g09.slc.cpg/sg2_265_cif.got.tgz:529461.got - 2010.06.27 13:26:56.
