data_PCOD8035490
_publ_section_title
;
Structure prediction by ZEFSAII (Michael W. Deem and Ramdas Pophale) SiO2 
 PCOD8035490
Probable space group: P -1
;
_chemical_formula_sum "Si O2"
_cell_formula_units_Z 16
_cell_length_a 14.708650
_cell_length_b 9.661460
_cell_length_c 13.145086
_cell_angle_alpha 145.443670
_cell_angle_beta 44.650481
_cell_angle_gamma 134.972387
_cell_volume 709.583361
_symmetry_space_group_name_H-M "P -1"
_symmetry_group_IT_number 2
_symmetry_cell_setting 'triclinic'
loop_
_space_group_symop_operation_xyz
x,y,z
-x,-y,-z
loop_
_atom_site_type_symbol
_atom_site_label
_atom_site_fract_x
_atom_site_fract_y
_atom_site_fract_z
Si Si1 0.572800 0.386241 0.014935
Si Si2 0.704415 0.710539 0.925136
Si Si3 0.866181 0.916950 0.622186
Si Si4 0.612200 0.858020 0.669199
Si Si5 0.921089 0.172401 0.116058
Si Si6 0.120115 0.486671 0.471964
Si Si7 0.379338 0.450441 0.709548
Si Si8 0.895912 0.466482 0.973768
O O1 0.675562 0.598227 0.992769
O O2 0.639913 0.161078 0.846516
O O3 0.429299 0.255597 0.998024
O O4 0.554111 0.532507 0.221262
O O5 0.753581 0.504809 0.696092
O O6 0.810887 0.994367 0.019101
O O7 0.730936 0.762248 0.571946
O O8 0.903842 0.775158 0.603855
O O9 0.826540 0.165634 0.836084
O O10 0.000000 0.000000 0.500000
O O11 0.463564 0.708263 0.739934
O O12 0.612545 0.794992 0.510028
O O13 0.848998 0.285164 0.332056
O O14 0.025917 0.403759 0.112085
O O15 0.000000 0.000000 0.000000
O O16 0.000000 0.500000 0.500000
O O17 0.220723 0.414243 0.828737
O O18 0.000000 0.500000 0.000000
#
# Coordination Sequence:
#
# PCOD8035490 Si02
#       8
#     2   2   2   2   2   2   2   2
#     4  11  25  48  72 101 144 193 242 301 353 440
#     4  11  27  46  73 103 142 196 246 287 370 433
#     4  12  25  46  72 111 147 186 244 302 362 428
#     4  11  26  44  74 104 146 187 241 304 364 425
#     4  12  26  47  70 106 147 191 238 298 361 431
#     4  12  27  46  73 104 150 192 237 299 363 430
#     4  11  25  45  71 105 141 188 239 301 365 431
#     4  12  26  43  72 107 147 184 241 302 359 427
#
# _framework density 22.548444
#
# number of rings (size 3 to 8) (size 9 to 14) (size 15 to 20)
#    0.000    0.500    3.750    3.375    5.250    4.000 
#    0.000    2.500    0.000    0.000    0.000    0.000 
#    0.000    0.000    0.000    0.000    0.000    0.000 
#
# Total GULP energy -198368.254464 kJ/mol
# GULP energy per Si atom -12398.015904 kJ/mol
# Density = 2.249712 g / cm^3
# Si number density = 22.548444 Si / 1000 Ang^3
#
#
#
# Elastic Constant Matrix: (Units=GPa)
#
#
# Indices 1 2 3 4 5 6 
#
# 1 107.3208 46.0796 27.8850 -1.3296 6.2802 -10.7757
# 2 46.0796 85.5298 41.9540 -5.5618 5.2162 -9.0454
# 3 27.8850 41.9540 138.4253 -18.4657 17.0543 -7.6065
# 4 -1.3296 -5.5618 -18.4657 38.1364 -4.9093 -0.9362
# 5 6.2802 5.2162 17.0543 -4.9093 36.4354 -4.0118
# 6 -10.7757 -9.0454 -7.6065 -0.9362 -4.0118 41.4237
#
#
#
# Elastic Compliance Matrix: (Units=1/GPa)
#
#
# Indices 1 2 3 4 5 6 
#
# 1 0.012327 -0.006217 -0.000501 -0.000798 -0.000926 0.001649
# 2 -0.006217 0.017083 -0.003855 0.000530 0.000665 0.001482
# 3 -0.000501 -0.003855 0.009395 0.003567 -0.003221 0.000522
# 4 -0.000798 0.000530 0.003567 0.028339 0.002368 0.001433
# 5 -0.000926 0.000665 -0.003221 0.002368 0.029583 0.002231
# 6 0.001649 0.001482 0.000522 0.001433 0.002231 0.025238
#
#
# Mechanical properties :
#
#
# Convention : Reuss Voigt Hill
#
# Bulk Modulus (GPa) = 56.62568 62.56813 59.59690
# Shear Modulus (GPa) = 33.55829 37.55626 35.55727
#
# Velocity S-wave (km/s) = 3.86200 4.08558 3.97536
# Velocity P-wave (km/s) = 6.71224 7.07563 6.89633
#
# Compressibility (1/GPa) = 0.01765983
#
# Stress axis : x y z
#
# Youngs Moduli (GPa) = 81.12214 58.53922 106.44248
#
# Poissons Ratio (x) = 0.36391 0.05331
# Poissons Ratio (y) = 0.50430 0.41032
# Poissons Ratio (z) = 0.04063 0.22566
#
# Static dielectric constant tensor:
#      x y z
#    x 4.131310 -0.216910 0.116700 
#    y -0.216910 3.661520 -0.264380 
#    z 0.116700 -0.264380 4.344410 
# 
# 
# High freq. dielectric constant tensor:
#      x y z
#    x 1.903190 -0.000590 0.008000 
#    y -0.000590 1.882690 -0.014040 
#    z 0.008000 -0.014040 1.898430 
# 
# From -- ./inp_files/448311.got.cif
#   From: 2010.06.25/outbox.cif.g09.slc.cpg/sg2_225_cif.got.tgz:448311.got - 2010.06.27 13:26:56.
