data_PCOD8035177
_publ_section_title
;
Structure prediction by ZEFSAII (Michael W. Deem and Ramdas Pophale) SiO2 
 PCOD8035177
Probable space group: P -1
;
_chemical_formula_sum "Si O2"
_cell_formula_units_Z 12
_cell_length_a 14.676372
_cell_length_b 13.136188
_cell_length_c 5.148019
_cell_angle_alpha 90.095157
_cell_angle_beta 84.446830
_cell_angle_gamma 153.410558
_cell_volume 434.051682
_symmetry_space_group_name_H-M "P -1"
_symmetry_group_IT_number 2
_symmetry_cell_setting 'triclinic'
loop_
_space_group_symop_operation_xyz
x,y,z
-x,-y,-z
loop_
_atom_site_type_symbol
_atom_site_label
_atom_site_fract_x
_atom_site_fract_y
_atom_site_fract_z
Si Si1 0.223842 0.180564 0.492381
Si Si2 0.657971 0.351932 0.598896
Si Si3 0.770400 0.241577 0.483332
Si Si4 0.397852 0.531436 0.772352
Si Si5 0.979849 0.776830 0.838058
Si Si6 0.724211 0.067305 0.989144
O O1 0.345635 0.398876 0.563494
O O2 0.364419 0.268912 0.218583
O O3 0.000000 0.000000 0.500000
O O4 0.178290 0.040689 0.696612
O O5 0.632228 0.206614 0.535700
O O6 0.601101 0.355941 0.354653
O O7 0.890332 0.611918 0.638385
O O8 0.488557 0.206476 0.875296
O O9 0.763047 0.193954 0.192152
O O10 0.000000 0.500000 0.500000
O O11 0.692145 0.079283 0.711081
O O12 0.217773 0.347008 0.038790
O O13 0.070621 0.801009 0.053262
#
# Coordination Sequence:
#
# PCOD8035177 Si02
#       6
#     2   2   2   2   2   2
#     4  11  24  49  71 105 146 189 244 318 377 447
#     4  12  26  45  73 108 147 198 250 304 374 446
#     4  12  26  48  76 106 156 200 251 306 376 438
#     4  11  26  45  73 106 146 188 254 303 381 448
#     4  12  26  45  76 106 148 197 249 309 374 451
#     4  12  28  48  74 112 154 200 250 312 369 446
#
# _framework density 27.646478999999999
#
# number of rings (size 3 to 8) (size 9 to 14) (size 15 to 20)
#    0.000    0.333    5.000    3.000    4.667    2.000 
#    0.000    0.000    0.000    0.000    0.000    0.000 
#    0.000    0.000    0.000    0.000    0.000    0.000 
#
# Total GULP energy -148714.956864 kJ/mol
# GULP energy per Si atom -12392.913072 kJ/mol
# Density = 2.758355 g / cm^3
# Si number density = 27.646479 Si / 1000 Ang^3
#
#
#
# Elastic Constant Matrix: (Units=GPa)
#
#
# Indices 1 2 3 4 5 6 
#
# 1 150.0076 14.9415 0.8397 -5.0749 -28.8370 14.9187
# 2 14.9415 56.5256 -10.5798 -17.7970 0.3199 -8.9965
# 3 0.8397 -10.5798 55.8890 -13.2216 -22.5602 -2.7560
# 4 -5.0749 -17.7970 -13.2216 35.9699 14.3567 -5.2939
# 5 -28.8370 0.3199 -22.5602 14.3567 38.6770 -13.1380
# 6 14.9187 -8.9965 -2.7560 -5.2939 -13.1380 44.1463
#
#
#
# Elastic Compliance Matrix: (Units=1/GPa)
#
#
# Indices 1 2 3 4 5 6 
#
# 1 0.008573 -0.003227 0.001712 -0.003210 0.008129 -0.001414
# 2 -0.003227 0.027737 0.009940 0.018512 -0.000505 0.009433
# 3 0.001712 0.009940 0.030082 0.010393 0.018284 0.010013
# 4 -0.003210 0.018512 0.010393 0.045800 -0.010846 0.007771
# 5 0.008129 -0.000505 0.018284 -0.010846 0.050716 0.012084
# 6 -0.001414 0.009433 0.010013 0.007771 0.012084 0.030205
#
#
# Mechanical properties :
#
#
# Convention : Reuss Voigt Hill
#
# Bulk Modulus (GPa) = 12.01328 30.31389 21.16359
# Shear Modulus (GPa) = 24.50857 40.90671 32.70764
#
# Velocity S-wave (km/s) = 2.98064 3.85078 3.44331
# Velocity P-wave (km/s) = 4.02497 5.54616 4.84563
#
# Compressibility (1/GPa) = 0.08324119
#
# Stress axis : x y z
#
# Youngs Moduli (GPa) = 116.64746 36.05254 33.24302
#
# Poissons Ratio (x) = 0.11636 -0.05692
# Poissons Ratio (y) = 0.37647 -0.33043
# Poissons Ratio (z) = -0.19974 -0.35836
#
# Static dielectric constant tensor:
#      x y z
#    x 5.616990 -0.290970 0.021480 
#    y -0.290970 4.707870 0.036760 
#    z 0.021480 0.036760 4.486680 
# 
# 
# High freq. dielectric constant tensor:
#      x y z
#    x 2.139450 0.005350 -0.016630 
#    y 0.005350 2.143640 -0.015740 
#    z -0.016630 -0.015740 2.086990 
# 
# From -- ./inp_files/56765.got.cif
#   From: 2010.06.25/outbox.cif.g09.slc.cpg/sg2_29_cif.got.tgz:56765.got - 2010.06.27 13:26:56.
