data_PCOD8035700
_publ_section_title
;
Structure prediction by ZEFSAII (Michael W. Deem and Ramdas Pophale) SiO2 
 PCOD8035700
Probable space group: P -1
;
_chemical_formula_sum "Si O2"
_cell_formula_units_Z 12
_cell_length_a 9.328425
_cell_length_b 9.214718
_cell_length_c 15.360000
_cell_angle_alpha 29.335188
_cell_angle_beta 123.504502
_cell_angle_gamma 114.125402
_cell_volume 530.814523
_symmetry_space_group_name_H-M "P -1"
_symmetry_group_IT_number 2
_symmetry_cell_setting 'triclinic'
loop_
_space_group_symop_operation_xyz
x,y,z
-x,-y,-z
loop_
_atom_site_type_symbol
_atom_site_label
_atom_site_fract_x
_atom_site_fract_y
_atom_site_fract_z
Si Si1 0.349401 0.406195 0.889014
Si Si2 0.979898 0.863450 0.316037
Si Si3 0.292384 0.832873 0.792196
Si Si4 0.354596 0.810945 0.519618
Si Si5 0.154995 0.905514 0.036125
Si Si6 0.588153 0.629946 0.541138
O O1 0.237976 0.575601 0.844934
O O2 0.301162 0.603700 0.684854
O O3 0.304260 0.083165 0.024028
O O4 0.557509 0.350096 0.001091
O O5 0.164151 0.978022 0.334229
O O6 0.000000 0.500000 0.500000
O O7 0.859869 0.977062 0.300266
O O8 0.896862 0.034309 0.113018
O O9 0.373541 0.043375 0.641218
O O10 0.440990 0.618612 0.569323
O O11 0.500000 0.000000 0.500000
O O12 0.231859 0.557044 0.262438
O O13 0.000000 0.000000 0.000000
O O14 0.500000 0.500000 0.500000
#
# Coordination Sequence:
#
# PCOD8035700 Si02
#       6
#     2   2   2   2   2   2
#     4  11  25  46  73 101 148 189 236 290 365 419
#     4  12  26  45  73 106 143 184 244 296 352 418
#     4  11  25  46  73 106 141 189 235 297 353 425
#     4  12  26  47  71 104 142 189 235 294 360 425
#     4  12  26  44  71 108 143 188 242 293 353 424
#     4  12  24  43  73 105 145 186 240 289 355 425
#
# _framework density 22.606766
#
# number of rings (size 3 to 8) (size 9 to 14) (size 15 to 20)
#    0.000    0.333    5.000    4.000    0.000    3.333 
#    0.000    2.500    0.000    0.000    0.000    0.000 
#    0.000    0.000    0.000    0.000    0.000    0.000 
#
# Total GULP energy -148736.219092 kJ/mol
# GULP energy per Si atom -12394.684924 kJ/mol
# Density = 2.255531 g / cm^3
# Si number density = 22.606766 Si / 1000 Ang^3
#
#
#
# Elastic Constant Matrix: (Units=GPa)
#
#
# Indices 1 2 3 4 5 6 
#
# 1 119.6259 40.7096 14.7315 11.2646 27.1151 -27.9344
# 2 40.7096 119.6012 28.8693 14.9439 10.1612 -6.4253
# 3 14.7315 28.8693 106.1667 23.2121 13.9609 -9.9302
# 4 11.2646 14.9439 23.2121 35.4590 -3.9222 -0.8402
# 5 27.1151 10.1612 13.9609 -3.9222 37.0283 -3.7617
# 6 -27.9344 -6.4253 -9.9302 -0.8402 -3.7617 47.6857
#
#
#
# Elastic Compliance Matrix: (Units=1/GPa)
#
#
# Indices 1 2 3 4 5 6 
#
# 1 0.013535 -0.003262 0.002067 -0.005176 -0.009626 0.007069
# 2 -0.003262 0.010136 -0.001972 -0.001963 0.000042 -0.000987
# 3 0.002067 -0.001972 0.012703 -0.008779 -0.006394 0.002932
# 4 -0.005176 -0.001963 -0.008779 0.037580 0.011256 -0.003574
# 5 -0.009626 0.000042 -0.006394 0.011256 0.037258 -0.003827
# 6 0.007069 -0.000987 0.002932 -0.003574 -0.003827 0.025224
#
#
# Mechanical properties :
#
#
# Convention : Reuss Voigt Hill
#
# Bulk Modulus (GPa) = 33.28808 57.11275 45.20041
# Shear Modulus (GPa) = 32.72608 41.44016 37.08312
#
# Velocity S-wave (km/s) = 3.80889 4.28610 4.05452
# Velocity P-wave (km/s) = 5.83955 7.05781 6.47738
#
# Compressibility (1/GPa) = 0.03004079
#
# Stress axis : x y z
#
# Youngs Moduli (GPa) = 73.88399 98.65739 78.72105
#
# Poissons Ratio (x) = 0.32179 -0.16275
# Poissons Ratio (y) = 0.24099 0.15526
# Poissons Ratio (z) = -0.15275 0.19458
#
# Static dielectric constant tensor:
#      x y z
#    x 5.147350 0.643170 -0.236410 
#    y 0.643170 4.706190 -0.051760 
#    z -0.236410 -0.051760 4.273880 
# 
# 
# High freq. dielectric constant tensor:
#      x y z
#    x 1.891760 -0.011300 0.002010 
#    y -0.011300 1.907750 0.014110 
#    z 0.002010 0.014110 1.900010 
# 
# From -- ./inp_files/145100.got.cif
#   From: 2010.06.25/outbox.cif.g09.slc.cpg/sg2_73_cif.got.tgz:145100.got - 2010.06.27 13:26:56.
