data_PCOD8035575
_publ_section_title
;
Structure prediction by ZEFSAII (Michael W. Deem and Ramdas Pophale) SiO2 
 PCOD8035575
Probable space group: P -1
;
_chemical_formula_sum "Si O2"
_cell_formula_units_Z 12
_cell_length_a 8.302262
_cell_length_b 10.821373
_cell_length_c 13.272562
_cell_angle_alpha 143.351427
_cell_angle_beta 135.883542
_cell_angle_gamma 61.193464
_cell_volume 482.589992
_symmetry_space_group_name_H-M "P -1"
_symmetry_group_IT_number 2
_symmetry_cell_setting 'triclinic'
loop_
_space_group_symop_operation_xyz
x,y,z
-x,-y,-z
loop_
_atom_site_type_symbol
_atom_site_label
_atom_site_fract_x
_atom_site_fract_y
_atom_site_fract_z
Si Si1 0.926595 0.768968 0.865628
Si Si2 0.381806 0.293155 0.117307
Si Si3 0.406817 0.860037 0.223616
Si Si4 0.868760 0.365233 0.459879
Si Si5 0.207568 0.994420 0.665691
Si Si6 0.628971 0.708829 0.409485
O O1 0.726954 0.749390 0.848445
O O2 0.835773 0.602442 0.625906
O O3 0.157463 0.707489 0.979836
O O4 0.000000 0.000000 0.000000
O O5 0.647948 0.247033 0.212607
O O6 0.418747 0.538953 0.258826
O O7 0.212010 0.145594 0.864128
O O8 0.552738 0.728093 0.271250
O O9 0.542753 0.940340 0.234860
O O10 0.341059 0.059761 0.379707
O O11 0.847151 0.246253 0.478929
O O12 0.121724 0.368182 0.522366
O O13 0.000000 0.000000 0.500000
#
# Coordination Sequence:
#
# PCOD8035575 Si02
#       6
#     2   2   2   2   2   2
#     4  12  27  48  78 108 148 193 247 309 370 434
#     4  12  27  46  75 108 149 193 250 301 370 434
#     4  11  25  46  71 107 154 189 248 299 361 439
#     4  12  25  48  75 108 149 194 248 303 365 437
#     4  12  26  46  74 110 149 191 247 297 365 438
#     4  11  25  45  75 109 146 199 241 301 367 432
#
# _framework density 24.865828
#
# number of rings (size 3 to 8) (size 9 to 14) (size 15 to 20)
#    0.000    0.333    1.667    6.500    4.667    4.667 
#    0.000    0.000    0.000    0.000    0.000    0.000 
#    0.000    0.000    0.000    0.000    0.000    0.000 
#
# Total GULP energy -148843.251312 kJ/mol
# GULP energy per Si atom -12403.604276 kJ/mol
# Density = 2.480923 g / cm^3
# Si number density = 24.865828 Si / 1000 Ang^3
#
#
#
# Elastic Constant Matrix: (Units=GPa)
#
#
# Indices 1 2 3 4 5 6 
#
# 1 162.6898 30.7026 39.6943 5.5880 11.3792 17.9500
# 2 30.7026 85.5854 46.8983 -2.6876 2.2269 4.8868
# 3 39.6943 46.8983 124.8960 -13.3238 -2.4086 0.5621
# 4 5.5880 -2.6876 -13.3238 41.3609 8.3633 11.3762
# 5 11.3792 2.2269 -2.4086 8.3633 41.7677 2.6946
# 6 17.9500 4.8868 0.5621 11.3762 2.6946 48.6041
#
#
#
# Elastic Compliance Matrix: (Units=1/GPa)
#
#
# Indices 1 2 3 4 5 6 
#
# 1 0.007267 -0.001430 -0.001871 -0.000708 -0.001724 -0.002257
# 2 -0.001430 0.015137 -0.005254 -0.000150 -0.000635 -0.000863
# 3 -0.001871 -0.005254 0.010928 0.003195 0.000761 0.000303
# 4 -0.000708 -0.000150 0.003195 0.027925 -0.004817 -0.006029
# 5 -0.001724 -0.000635 0.000761 -0.004817 0.025428 0.000410
# 6 -0.002257 -0.000863 0.000303 -0.006029 0.000410 0.022880
#
#
# Mechanical properties :
#
#
# Convention : Reuss Voigt Hill
#
# Bulk Modulus (GPa) = 61.64373 67.52906 64.58639
# Shear Modulus (GPa) = 37.85509 43.40495 40.63002
#
# Velocity S-wave (km/s) = 3.90599 4.18253 4.04662
# Velocity P-wave (km/s) = 6.72211 7.10922 6.91837
#
# Compressibility (1/GPa) = 0.01622225
#
# Stress axis : x y z
#
# Youngs Moduli (GPa) = 137.60749 66.06197 91.50535
#
# Poissons Ratio (x) = 0.09447 0.17123
# Poissons Ratio (y) = 0.19679 0.48076
# Poissons Ratio (z) = 0.25750 0.34708
#
# Static dielectric constant tensor:
#      x y z
#    x 4.677670 0.344160 0.187100 
#    y 0.344160 4.734250 -0.215510 
#    z 0.187100 -0.215510 4.708980 
# 
# 
# High freq. dielectric constant tensor:
#      x y z
#    x 1.999860 0.024410 0.010190 
#    y 0.024410 2.002330 -0.011820 
#    z 0.010190 -0.011820 1.997950 
# 
# From -- ./inp_files/250188.got.cif
#   From: 2010.06.25/outbox.cif.g09.slc.cpg/sg2_126_cif.got.tgz:250188.got - 2010.06.27 13:26:56.
