data_PCOD8035027
_publ_section_title
;
Structure prediction by ZEFSAII (Michael W. Deem and Ramdas Pophale) SiO2 
 PCOD8035027
Probable space group: P -1
;
_chemical_formula_sum "Si O2"
_cell_formula_units_Z 16
_cell_length_a 21.080497
_cell_length_b 5.314851
_cell_length_c 9.216365
_cell_angle_alpha 54.166645
_cell_angle_beta 62.587440
_cell_angle_gamma 61.409425
_cell_volume 711.119364
_symmetry_space_group_name_H-M "P -1"
_symmetry_group_IT_number 2
_symmetry_cell_setting 'triclinic'
loop_
_space_group_symop_operation_xyz
x,y,z
-x,-y,-z
loop_
_atom_site_type_symbol
_atom_site_label
_atom_site_fract_x
_atom_site_fract_y
_atom_site_fract_z
Si Si1 0.962205 0.820771 0.217928
Si Si2 0.456158 0.763424 0.568791
Si Si3 0.824905 0.006816 0.119659
Si Si4 0.295669 0.121856 0.511765
Si Si5 0.309582 0.815293 0.294686
Si Si6 0.060214 0.149198 0.451170
Si Si7 0.484033 0.665906 0.113066
Si Si8 0.811878 0.761045 0.895940
O O1 0.926069 0.989084 0.350790
O O2 0.025179 0.528452 0.322832
O O3 0.893198 0.762551 0.220519
O O4 0.000000 0.000000 0.000000
O O5 0.500000 0.500000 0.500000
O O6 0.449011 0.560575 0.785647
O O7 0.500000 0.000000 0.500000
O O8 0.381602 0.966914 0.505898
O O9 0.748570 0.013832 0.275397
O O10 0.832476 0.372191 0.985628
O O11 0.827031 0.851378 0.012364
O O12 0.277791 0.508261 0.411254
O O13 0.278130 0.005365 0.411673
O O14 0.399232 0.700894 0.237631
O O15 0.274508 0.068266 0.116016
O O16 0.139991 0.067714 0.315364
O O17 0.000000 0.000000 0.500000
O O18 0.500000 0.500000 0.000000
O O19 0.500000 0.000000 0.000000
#
# Coordination Sequence:
#
# PCOD8035027 Si02
#       8
#     2   2   2   2   2   2   2   2
#     4  11  24  47  73 107 143 184 243 291 352 422
#     4  12  23  45  69  99 131 176 235 284 348 419
#     4  12  28  46  73 104 142 187 233 294 348 421
#     4  12  25  46  71  99 136 187 232 289 353 418
#     4  12  26  47  68  99 143 183 232 289 353 425
#     4  11  26  43  77 105 142 193 233 295 357 419
#     4  12  26  42  69 100 135 180 228 293 355 416
#     4  12  28  47  69 106 145 184 234 287 354 422
#
# _framework density 22.499737
#
# number of rings (size 3 to 8) (size 9 to 14) (size 15 to 20)
#    0.000    0.250    3.750    4.500    8.750    1.000 
#    0.000    0.000    0.000    0.000    0.000    0.000 
#    0.000    0.000    0.000    0.000    0.000    0.000 
#
# Total GULP energy -198226.630358 kJ/mol
# GULP energy per Si atom -12389.164397 kJ/mol
# Density = 2.244853 g / cm^3
# Si number density = 22.499737 Si / 1000 Ang^3
#
#
#
# Elastic Constant Matrix: (Units=GPa)
#
#
# Indices 1 2 3 4 5 6 
#
# 1 104.3876 39.4580 36.1813 5.7480 20.7068 12.0521
# 2 39.4580 111.5343 40.7317 3.9826 7.4056 33.9034
# 3 36.1813 40.7317 140.2242 14.1652 12.4956 21.3689
# 4 5.7480 3.9826 14.1652 45.9737 1.3206 5.8994
# 5 20.7068 7.4056 12.4956 1.3206 58.8582 -1.6359
# 6 12.0521 33.9034 21.3689 5.8994 -1.6359 52.0108
#
#
#
# Elastic Compliance Matrix: (Units=1/GPa)
#
#
# Indices 1 2 3 4 5 6 
#
# 1 0.012213 -0.003447 -0.001799 -0.000589 -0.003465 0.000114
# 2 -0.003447 0.012982 -0.001875 0.000788 -0.000235 -0.006990
# 3 -0.001799 -0.001875 0.008698 -0.002042 -0.000980 -0.001734
# 4 -0.000589 0.000788 -0.002042 0.022657 -0.000025 -0.002109
# 5 -0.003465 -0.000235 -0.000980 -0.000025 0.018501 0.001943
# 6 0.000114 -0.006990 -0.001734 -0.002109 0.001943 0.024770
#
#
# Mechanical properties :
#
#
# Convention : Reuss Voigt Hill
#
# Bulk Modulus (GPa) = 50.88852 65.43202 58.16027
# Shear Modulus (GPa) = 41.45453 47.35356 44.40404
#
# Velocity S-wave (km/s) = 4.29703 4.59260 4.44727
# Velocity P-wave (km/s) = 6.87646 7.56750 7.23024
#
# Compressibility (1/GPa) = 0.01965080
#
# Stress axis : x y z
#
# Youngs Moduli (GPa) = 81.88157 77.02722 114.96748
#
# Poissons Ratio (x) = 0.26553 0.20683
# Poissons Ratio (y) = 0.28226 0.21557
# Poissons Ratio (z) = 0.14731 0.14443
#
# Static dielectric constant tensor:
#      x y z
#    x 4.671240 -0.207800 0.237070 
#    y -0.207800 4.351890 0.011800 
#    z 0.237070 0.011800 4.321120 
# 
# 
# High freq. dielectric constant tensor:
#      x y z
#    x 1.905880 0.001280 0.012430 
#    y 0.001280 1.895170 0.000210 
#    z 0.012430 0.000210 1.897770 
# 
# From -- ./inp_files/340031.got.cif
#   From: 2010.06.25/outbox.cif.g09.slc.cpg/sg2_171_cif.got.tgz:340031.got - 2010.06.27 13:26:56.
