data_PCOD8035889
_publ_section_title
;
Structure prediction by ZEFSAII (Michael W. Deem and Ramdas Pophale) SiO2 
 PCOD8035889
Probable space group: P -1
;
_chemical_formula_sum "Si O2"
_cell_formula_units_Z 16
_cell_length_a 9.080007
_cell_length_b 19.744735
_cell_length_c 12.157970
_cell_angle_alpha 41.554551
_cell_angle_beta 105.067221
_cell_angle_gamma 137.433303
_cell_volume 744.152958
_symmetry_space_group_name_H-M "P -1"
_symmetry_group_IT_number 2
_symmetry_cell_setting 'triclinic'
loop_
_space_group_symop_operation_xyz
x,y,z
-x,-y,-z
loop_
_atom_site_type_symbol
_atom_site_label
_atom_site_fract_x
_atom_site_fract_y
_atom_site_fract_z
Si Si1 0.230334 0.907669 0.597900
Si Si2 0.344760 0.954923 0.177435
Si Si3 0.898274 0.724148 0.548021
Si Si4 0.784793 0.433240 0.954995
Si Si5 0.333419 0.172168 0.361962
Si Si6 0.437725 0.624175 0.613670
Si Si7 0.143584 0.717274 0.986898
Si Si8 0.302782 0.725350 0.316504
O O1 0.062202 0.863645 0.516513
O O2 0.500000 0.000000 0.500000
O O3 0.363082 0.067986 0.508759
O O4 0.026287 0.714859 0.861223
O O5 0.247795 0.799510 0.281334
O O6 0.065114 0.839174 0.326794
O O7 0.583637 0.064480 0.182012
O O8 0.492053 0.128878 0.922857
O O9 0.885560 0.596045 0.723343
O O10 0.596291 0.612728 0.613065
O O11 0.757616 0.340614 0.958889
O O12 0.488585 0.290688 0.133453
O O13 0.000000 0.500000 0.000000
O O14 0.474919 0.308384 0.325708
O O15 0.000000 0.000000 0.500000
O O16 0.493669 0.753896 0.389990
O O17 0.094635 0.415168 0.802978
O O18 0.000000 0.500000 0.500000
#
# Coordination Sequence:
#
# PCOD8035889 Si02
#       8
#     2   2   2   2   2   2   2   2
#     4  12  21  37  64  96 133 180 237 261 334 419
#     4  11  25  47  78 101 129 180 237 286 347 418
#     4  12  25  42  64 103 142 179 225 285 349 407
#     4  12  23  40  63  99 140 192 235 270 329 417
#     4  12  24  39  61  99 144 184 221 281 344 411
#     4  12  26  43  66 102 142 179 228 293 349 397
#     4  12  23  40  71  95 136 187 230 284 332 417
#     4  11  25  50  80 103 126 176 244 292 345 412
#
# _framework density 21.500955999999999
#
# number of rings (size 3 to 8) (size 9 to 14) (size 15 to 20)
#    0.000    0.250    7.500    1.500    1.750    1.500 
#    0.000    0.625    0.000    0.000    0.000    0.000 
#    0.000    0.000    0.000    0.000    0.000    0.000 
#
# Total GULP energy -198277.055372 kJ/mol
# GULP energy per Si atom -12392.315961 kJ/mol
# Density = 2.145202 g / cm^3
# Si number density = 21.500956 Si / 1000 Ang^3
#
#
#
# Elastic Constant Matrix: (Units=GPa)
#
#
# Indices 1 2 3 4 5 6 
#
# 1 119.8880 35.9857 66.1111 -2.4992 -15.1397 -4.9967
# 2 35.9857 62.3938 31.1234 -8.4524 -6.5705 -10.7513
# 3 66.1111 31.1234 155.7195 7.0628 -12.5691 -3.0524
# 4 -2.4992 -8.4524 7.0628 39.1070 -0.2436 5.3196
# 5 -15.1397 -6.5705 -12.5691 -0.2436 43.5070 -5.5537
# 6 -4.9967 -10.7513 -3.0524 5.3196 -5.5537 31.6228
#
#
#
# Elastic Compliance Matrix: (Units=1/GPa)
#
#
# Indices 1 2 3 4 5 6 
#
# 1 0.012357 -0.004691 -0.004128 0.000495 0.002441 0.000304
# 2 -0.004691 0.021619 -0.002248 0.003969 0.001776 0.006036
# 3 -0.004128 -0.002248 0.008788 -0.002326 0.000744 -0.000046
# 4 0.000495 0.003969 -0.002326 0.027346 -0.000185 -0.003430
# 5 0.002441 0.001776 0.000744 -0.000185 0.025016 0.005486
# 6 0.000304 0.006036 -0.000046 -0.003430 0.005486 0.035259
#
#
# Mechanical properties :
#
#
# Convention : Reuss Voigt Hill
#
# Bulk Modulus (GPa) = 48.47238 67.16018 57.81628
# Shear Modulus (GPa) = 31.36861 36.49943 33.93402
#
# Velocity S-wave (km/s) = 3.82375 4.12463 3.97704
# Velocity P-wave (km/s) = 6.48753 7.34759 6.93091
#
# Compressibility (1/GPa) = 0.02063031
#
# Stress axis : x y z
#
# Youngs Moduli (GPa) = 80.92752 46.25613 113.78878
#
# Poissons Ratio (x) = 0.21699 0.46972
# Poissons Ratio (y) = 0.37964 0.25575
# Poissons Ratio (z) = 0.33407 0.10397
#
# Static dielectric constant tensor:
#      x y z
#    x 3.875810 -0.048470 -0.068850 
#    y -0.048470 4.675920 0.472240 
#    z -0.068850 0.472240 4.502170 
# 
# 
# High freq. dielectric constant tensor:
#      x y z
#    x 1.841690 -0.015020 -0.002650 
#    y -0.015020 1.826430 -0.003070 
#    z -0.002650 -0.003070 1.861340 
# 
# From -- ./inp_files/405429.got.cif
#   From: 2010.06.25/outbox.cif.g09.slc.cpg/sg2_203_cif.got.tgz:405429.got - 2010.06.27 13:26:56.
