data_PCOD8035401
_publ_section_title
;
Structure prediction by ZEFSAII (Michael W. Deem and Ramdas Pophale) SiO2 
 PCOD8035401
Probable space group: P -1
;
_chemical_formula_sum "Si O2"
_cell_formula_units_Z 12
_cell_length_a 16.126102
_cell_length_b 14.558279
_cell_length_c 10.364434
_cell_angle_alpha 38.285515
_cell_angle_beta 150.637437
_cell_angle_gamma 153.792124
_cell_volume 526.858068
_symmetry_space_group_name_H-M "P -1"
_symmetry_group_IT_number 2
_symmetry_cell_setting 'triclinic'
loop_
_space_group_symop_operation_xyz
x,y,z
-x,-y,-z
loop_
_atom_site_type_symbol
_atom_site_label
_atom_site_fract_x
_atom_site_fract_y
_atom_site_fract_z
Si Si1 0.688098 0.343558 0.038372
Si Si2 0.172982 0.998856 0.659755
Si Si3 0.893503 0.153100 0.542847
Si Si4 0.368211 0.527037 0.921157
Si Si5 0.546339 0.741450 0.677105
Si Si6 0.104953 0.658345 0.081862
O O1 0.725551 0.190498 0.249767
O O2 0.691186 0.395390 0.133318
O O3 0.898377 0.561445 0.012523
O O4 0.438425 0.230390 0.755702
O O5 0.071333 0.906416 0.481445
O O6 0.204255 0.872393 0.928182
O O7 0.000000 0.000000 0.500000
O O8 0.141390 0.358733 0.708441
O O9 0.777563 0.970076 0.690364
O O10 0.564238 0.723647 0.875895
O O11 0.462951 0.428132 0.215359
O O12 0.313573 0.692319 0.389240
O O13 0.000000 0.500000 0.000000
#
# Coordination Sequence:
#
# PCOD8035401 Si02
#       6
#     2   2   2   2   2   2
#     4  12  26  44  73 104 139 180 235 283 345 412
#     4  12  29  46  72 106 138 180 237 287 344 413
#     4  12  24  49  70 102 142 184 230 286 346 408
#     4  11  27  45  70 106 140 183 234 281 344 413
#     4  11  25  44  72  98 146 182 228 284 347 404
#     4  12  24  46  73 100 143 187 224 286 351 406
#
# _framework density 22.776533000000001
#
# number of rings (size 3 to 8) (size 9 to 14) (size 15 to 20)
#    0.000    0.333    5.000    2.500    9.333    2.667 
#    0.000    0.000    0.000    0.000    0.000    0.000 
#    0.000    0.000    0.000    0.000    0.000    0.000 
#
# Total GULP energy -148832.201783 kJ/mol
# GULP energy per Si atom -12402.683482 kJ/mol
# Density = 2.272469 g / cm^3
# Si number density = 22.776533 Si / 1000 Ang^3
#
#
#
# Elastic Constant Matrix: (Units=GPa)
#
#
# Indices 1 2 3 4 5 6 
#
# 1 161.4762 34.3552 16.4866 4.9581 -3.5867 -7.4100
# 2 34.3552 79.0503 28.0957 -9.8621 -9.1237 12.6781
# 3 16.4866 28.0957 82.5441 6.3168 10.6828 1.6330
# 4 4.9581 -9.8621 6.3168 31.3176 7.6705 -17.0813
# 5 -3.5867 -9.1237 10.6828 7.6705 39.4870 2.3363
# 6 -7.4100 12.6781 1.6330 -17.0813 2.3363 39.1726
#
#
#
# Elastic Compliance Matrix: (Units=1/GPa)
#
#
# Indices 1 2 3 4 5 6 
#
# 1 0.007074 -0.003464 -0.000189 -0.001080 -0.000015 0.001997
# 2 -0.003464 0.018285 -0.006382 0.003539 0.005250 -0.005077
# 3 -0.000189 -0.006382 0.015250 -0.003864 -0.004867 -0.000001
# 4 -0.001080 0.003539 -0.003864 0.046849 -0.008504 0.019748
# 5 -0.000015 0.005250 -0.004867 -0.008504 0.029919 -0.006992
# 6 0.001997 -0.005077 -0.000001 0.019748 -0.006992 0.036577
#
#
# Mechanical properties :
#
#
# Convention : Reuss Voigt Hill
#
# Bulk Modulus (GPa) = 48.68445 53.43842 51.06144
# Shear Modulus (GPa) = 27.64421 38.27097 32.95759
#
# Velocity S-wave (km/s) = 3.48762 4.10357 3.80807
# Velocity P-wave (km/s) = 6.13508 6.77978 6.46547
#
# Compressibility (1/GPa) = 0.02054044
#
# Stress axis : x y z
#
# Youngs Moduli (GPa) = 141.37192 54.68836 65.57295
#
# Poissons Ratio (x) = 0.18943 0.01238
# Poissons Ratio (y) = 0.48969 0.41847
# Poissons Ratio (z) = 0.02668 0.34901
#
# Static dielectric constant tensor:
#      x y z
#    x 4.294220 0.210270 0.172460 
#    y 0.210270 2.544090 0.666430 
#    z 0.172460 0.666430 3.540590 
# 
# 
# High freq. dielectric constant tensor:
#      x y z
#    x 1.908030 0.017980 0.009750 
#    y 0.017980 1.903210 -0.003870 
#    z 0.009750 -0.003870 1.906120 
# 
# From -- ./inp_files/148553.got.cif
#   From: 2010.06.25/outbox.cif.g09.slc.cpg/sg2_75_cif.got.tgz:148553.got - 2010.06.27 13:26:56.
