data_PCOD8035303
_publ_section_title
;
Structure prediction by ZEFSAII (Michael W. Deem and Ramdas Pophale) SiO2 
 PCOD8035303
Probable space group: P -1
;
_chemical_formula_sum "Si O2"
_cell_formula_units_Z 16
_cell_length_a 12.798676
_cell_length_b 9.416298
_cell_length_c 8.245258
_cell_angle_alpha 69.731850
_cell_angle_beta 120.945617
_cell_angle_gamma 120.484605
_cell_volume 729.496129
_symmetry_space_group_name_H-M "P -1"
_symmetry_group_IT_number 2
_symmetry_cell_setting 'triclinic'
loop_
_space_group_symop_operation_xyz
x,y,z
-x,-y,-z
loop_
_atom_site_type_symbol
_atom_site_label
_atom_site_fract_x
_atom_site_fract_y
_atom_site_fract_z
Si Si1 0.812951 0.246304 0.649478
Si Si2 0.440767 0.755890 0.691411
Si Si3 0.931422 0.155252 0.478841
Si Si4 0.661648 0.303915 0.011553
Si Si5 0.464031 0.454937 0.674110
Si Si6 0.953678 0.449625 0.163717
Si Si7 0.311255 0.969413 0.084015
Si Si8 0.204029 0.169102 0.690319
O O1 0.668062 0.254417 0.528021
O O2 0.833676 0.159614 0.540356
O O3 0.811459 0.148165 0.853844
O O4 0.937283 0.424382 0.679185
O O5 0.495915 0.617500 0.745375
O O6 0.565664 0.933321 0.734321
O O7 0.361812 0.728673 0.805854
O O8 0.932760 0.265246 0.277789
O O9 0.081648 0.208149 0.647236
O O10 0.862690 0.964560 0.449560
O O11 0.551700 0.359316 0.835305
O O12 0.649839 0.137606 0.974490
O O13 0.808136 0.453461 0.053556
O O14 0.500000 0.500000 0.500000
O O15 0.309387 0.333708 0.623785
O O16 0.000000 0.500000 0.000000
O O17 0.272300 0.105670 0.910960
#
# Coordination Sequence:
#
# PCOD8035303 Si02
#       8
#     2   2   2   2   2   2   2   2
#     4  12  25  43  73 103 138 180 234 288 348 413
#     4  12  26  46  72 103 141 182 235 289 347 413
#     4  11  25  43  70 104 136 188 226 291 347 415
#     4  12  25  46  75 102 137 190 229 289 346 414
#     4  12  29  46  69 104 142 185 231 292 348 409
#     4  12  24  45  71 100 138 178 234 281 347 416
#     4  12  25  46  72 104 139 183 238 281 350 416
#     4  11  25  46  68  96 147 179 233 284 350 412
#
# _framework density 21.932948
#
# number of rings (size 3 to 8) (size 9 to 14) (size 15 to 20)
#    0.000    0.250    5.000    3.000    7.000    0.500 
#    0.000    0.000    0.000    0.000    0.000    0.000 
#    0.000    0.000    0.000    0.000    0.000    0.000 
#
# Total GULP energy -198414.358491 kJ/mol
# GULP energy per Si atom -12400.897406 kJ/mol
# Density = 2.188303 g / cm^3
# Si number density = 21.932948 Si / 1000 Ang^3
#
#
#
# Elastic Constant Matrix: (Units=GPa)
#
#
# Indices 1 2 3 4 5 6 
#
# 1 102.7973 35.5250 30.6931 -7.4427 -2.7056 1.1101
# 2 35.5250 99.5136 17.4333 14.4393 -8.5740 9.5055
# 3 30.6931 17.4333 66.4543 1.5430 -1.2728 -0.6432
# 4 -7.4427 14.4393 1.5430 36.6726 13.6710 3.3848
# 5 -2.7056 -8.5740 -1.2728 13.6710 47.9063 5.0031
# 6 1.1101 9.5055 -0.6432 3.3848 5.0031 38.0226
#
#
#
# Elastic Compliance Matrix: (Units=1/GPa)
#
#
# Indices 1 2 3 4 5 6 
#
# 1 0.013237 -0.004849 -0.004999 0.005454 -0.001862 0.000501
# 2 -0.004849 0.013843 -0.001150 -0.007858 0.004757 -0.003265
# 3 -0.004999 -0.001150 0.017708 -0.001504 0.000326 0.000824
# 4 0.005454 -0.007858 -0.001504 0.035756 -0.011352 0.000090
# 5 -0.001862 0.004757 0.000326 -0.011352 0.025227 -0.003438
# 6 0.000501 -0.003265 0.000824 0.000090 -0.003438 0.027560
#
#
# Mechanical properties :
#
#
# Convention : Reuss Voigt Hill
#
# Bulk Modulus (GPa) = 43.87602 48.45202 46.16402
# Shear Modulus (GPa) = 30.68911 36.86121 33.77516
#
# Velocity S-wave (km/s) = 3.74468 4.10400 3.92845
# Velocity P-wave (km/s) = 6.22454 6.67802 6.45526
#
# Compressibility (1/GPa) = 0.02279149
#
# Stress axis : x y z
#
# Youngs Moduli (GPa) = 75.54756 72.23697 56.47291
#
# Poissons Ratio (x) = 0.35029 0.28231
# Poissons Ratio (y) = 0.36634 0.06494
# Poissons Ratio (z) = 0.37766 0.08307
#
# Static dielectric constant tensor:
#      x y z
#    x 4.142900 0.185360 0.215440 
#    y 0.185360 4.354140 0.177540 
#    z 0.215440 0.177540 3.658650 
# 
# 
# High freq. dielectric constant tensor:
#      x y z
#    x 1.871300 0.012460 0.004450 
#    y 0.012460 1.867780 0.006800 
#    z 0.004450 0.006800 1.869840 
# 
# From -- ./inp_files/188787.got.cif
#   From: 2010.06.25/outbox.cif.g09.slc.cpg/sg2_95_cif.got.tgz:188787.got - 2010.06.27 13:26:56.
