data_PCOD8035757
_publ_section_title
;
Structure prediction by ZEFSAII (Michael W. Deem and Ramdas Pophale) SiO2 
 PCOD8035757
Probable space group: P -1
;
_chemical_formula_sum "Si O2"
_cell_formula_units_Z 12
_cell_length_a 8.044998
_cell_length_b 8.583162
_cell_length_c 8.962429
_cell_angle_alpha 104.621857
_cell_angle_beta 71.662265
_cell_angle_gamma 125.273930
_cell_volume 477.585121
_symmetry_space_group_name_H-M "P -1"
_symmetry_group_IT_number 2
_symmetry_cell_setting 'triclinic'
loop_
_space_group_symop_operation_xyz
x,y,z
-x,-y,-z
loop_
_atom_site_type_symbol
_atom_site_label
_atom_site_fract_x
_atom_site_fract_y
_atom_site_fract_z
Si Si1 0.581300 0.153396 0.176820
Si Si2 0.154466 0.894540 0.110015
Si Si3 0.045908 0.124724 0.368869
Si Si4 0.694521 0.208870 0.475234
Si Si5 0.747323 0.536477 0.063559
Si Si6 0.648623 0.497013 0.746557
O O1 0.664810 0.270115 0.334482
O O2 0.637784 0.310686 0.070337
O O3 0.333850 0.982536 0.212277
O O4 0.711542 0.056317 0.069209
O O5 0.976143 0.666233 0.108003
O O6 0.031142 0.001159 0.196646
O O7 0.275156 0.321440 0.343117
O O8 0.900024 0.205933 0.420978
O O9 0.000000 0.000000 0.500000
O O10 0.701857 0.350124 0.629682
O O11 0.500000 0.000000 0.500000
O O12 0.598490 0.603821 0.186364
O O13 0.770283 0.570541 0.887519
#
# Coordination Sequence:
#
# PCOD8035757 Si02
#       6
#     2   2   2   2   2   2
#     4  11  26  47  78 110 153 201 253 314 376 453
#     4  11  25  46  76 107 151 198 257 297 386 442
#     4  12  27  47  76 113 154 203 249 316 381 453
#     4  12  28  47  75 111 153 201 251 316 379 450
#     4  11  25  48  80 112 154 202 247 323 373 453
#     4  11  27  49  76 116 154 194 264 307 384 454
#
# _framework density 25.126411000000001
#
# number of rings (size 3 to 8) (size 9 to 14) (size 15 to 20)
#    0.000    0.667    1.667    4.000    9.333    3.333 
#    0.000    0.000    0.000    0.000    0.000    0.000 
#    0.000    0.000    0.000    0.000    0.000    0.000 
#
# Total GULP energy -148700.013212 kJ/mol
# GULP energy per Si atom -12391.667768 kJ/mol
# Density = 2.506922 g / cm^3
# Si number density = 25.126411 Si / 1000 Ang^3
#
#
#
# Elastic Constant Matrix: (Units=GPa)
#
#
# Indices 1 2 3 4 5 6 
#
# 1 113.6668 50.2212 71.0619 6.1207 -6.3385 21.8526
# 2 50.2212 151.2731 57.9933 3.8823 -0.7158 15.4388
# 3 71.0619 57.9933 144.6591 14.1747 -29.1015 -3.1216
# 4 6.1207 3.8823 14.1747 40.8046 -12.3745 0.2883
# 5 -6.3385 -0.7158 -29.1015 -12.3745 41.0520 1.5326
# 6 21.8526 15.4388 -3.1216 0.2883 1.5326 43.9799
#
#
#
# Elastic Compliance Matrix: (Units=1/GPa)
#
#
# Indices 1 2 3 4 5 6 
#
# 1 0.015686 -0.001400 -0.007883 -0.000337 -0.003003 -0.007755
# 2 -0.001400 0.008566 -0.003252 -0.000165 -0.002330 -0.002460
# 3 -0.007883 -0.003252 0.013936 -0.000931 0.008109 0.005771
# 4 -0.000337 -0.000165 -0.000931 0.027169 0.007485 -0.000280
# 5 -0.003003 -0.002330 0.008109 0.007485 0.031795 0.001728
# 6 -0.007755 -0.002460 0.005771 -0.000280 0.001728 0.027806
#
#
# Mechanical properties :
#
#
# Convention : Reuss Voigt Hill
#
# Bulk Modulus (GPa) = 76.22640 85.35021 80.78831
# Shear Modulus (GPa) = 32.38332 40.52216 36.45274
#
# Velocity S-wave (km/s) = 3.59390 4.02024 3.81303
# Velocity P-wave (km/s) = 6.90105 7.45599 7.18388
#
# Compressibility (1/GPa) = 0.01311881
#
# Stress axis : x y z
#
# Youngs Moduli (GPa) = 63.75205 116.73538 71.75635
#
# Poissons Ratio (x) = 0.16339 0.56563
# Poissons Ratio (y) = 0.08923 0.23338
# Poissons Ratio (z) = 0.50254 0.37967
#
# Static dielectric constant tensor:
#      x y z
#    x 10.085250 5.273590 9.388300 
#    y 5.273590 9.222030 9.042380 
#    z 9.388300 9.042380 21.684130 
# 
# 
# High freq. dielectric constant tensor:
#      x y z
#    x 1.999280 0.012180 -0.035480 
#    y 0.012180 2.001930 0.005360 
#    z -0.035480 0.005360 2.009520 
# 
# From -- ./inp_files/151898.got.cif
#   From: 2010.06.25/outbox.cif.g09.slc.cpg/sg2_76_cif.got.tgz:151898.got - 2010.06.27 13:26:56.
