data_PCOD8035996
_publ_section_title
;
Structure prediction by ZEFSAII (Michael W. Deem and Ramdas Pophale) SiO2 
 PCOD8035996
Probable space group: P -1
;
_chemical_formula_sum "Si O2"
_cell_formula_units_Z 16
_cell_length_a 6.728187
_cell_length_b 9.664150
_cell_length_c 17.813268
_cell_angle_alpha 120.354639
_cell_angle_beta 66.654517
_cell_angle_gamma 129.932485
_cell_volume 761.862616
_symmetry_space_group_name_H-M "P -1"
_symmetry_group_IT_number 2
_symmetry_cell_setting 'triclinic'
loop_
_space_group_symop_operation_xyz
x,y,z
-x,-y,-z
loop_
_atom_site_type_symbol
_atom_site_label
_atom_site_fract_x
_atom_site_fract_y
_atom_site_fract_z
Si Si1 0.724071 0.228298 0.035797
Si Si2 0.408677 0.903598 0.679013
Si Si3 0.969248 0.670250 0.571656
Si Si4 0.295871 0.443050 0.949641
Si Si5 0.548108 0.317137 0.764479
Si Si6 0.538189 0.571600 0.346950
Si Si7 0.769945 0.815114 0.521832
Si Si8 0.150169 0.617341 0.774600
O O1 0.654280 0.356800 0.033245
O O2 0.740510 0.278721 0.134281
O O3 0.004477 0.285210 0.979337
O O4 0.500000 0.000000 0.000000
O O5 0.635121 0.869736 0.619411
O O6 0.250065 0.778492 0.740220
O O7 0.233131 0.849407 0.616138
O O8 0.532999 0.126542 0.739239
O O9 0.751765 0.619445 0.653819
O O10 0.899016 0.718033 0.516103
O O11 0.000000 0.500000 0.500000
O O12 0.343933 0.336435 0.847467
O O13 0.500000 0.500000 0.000000
O O14 0.462026 0.303594 0.687313
O O15 0.838851 0.496433 0.787162
O O16 0.572152 0.677638 0.449698
O O17 0.755268 0.524990 0.292336
O O18 0.000000 0.000000 0.500000
#
# Coordination Sequence:
#
# PCOD8035996 Si02
#       8
#     2   2   2   2   2   2   2   2
#     4  11  27  47  77 107 144 186 233 285 362 436
#     4  12  27  43  70 103 136 185 240 286 344 422
#     4  12  24  43  68  96 136 189 237 285 349 408
#     4  11  25  49  73 106 147 185 225 295 361 426
#     4  12  27  45  72 105 140 182 237 290 351 421
#     4  12  24  44  69  95 143 184 227 294 347 403
#     4  12  26  43  64  97 140 185 235 286 346 410
#     4  12  25  47  69 104 141 181 229 295 352 410
#
# _framework density 21.001162999999998
#
# number of rings (size 3 to 8) (size 9 to 14) (size 15 to 20)
#    0.000    0.250    6.250    2.625    3.500    3.500 
#    2.250    0.000    0.000    0.000    0.000    0.000 
#    0.000    0.000    0.000    0.000    0.000    0.000 
#
# Total GULP energy -198452.929726 kJ/mol
# GULP energy per Si atom -12403.308108 kJ/mol
# Density = 2.095336 g / cm^3
# Si number density = 21.001163 Si / 1000 Ang^3
#
#
#
# Elastic Constant Matrix: (Units=GPa)
#
#
# Indices 1 2 3 4 5 6 
#
# 1 123.8329 59.1920 45.6415 -4.1676 2.4639 -8.5194
# 2 59.1920 150.4252 56.0889 1.6359 0.5501 -1.0166
# 3 45.6415 56.0889 104.1646 -4.0330 -7.0222 0.1713
# 4 -4.1676 1.6359 -4.0330 26.4454 1.2709 -6.3774
# 5 2.4639 0.5501 -7.0222 1.2709 41.6531 -3.1607
# 6 -8.5194 -1.0166 0.1713 -6.3774 -3.1607 33.3711
#
#
#
# Elastic Compliance Matrix: (Units=1/GPa)
#
#
# Indices 1 2 3 4 5 6 
#
# 1 0.011053 -0.003191 -0.003108 0.002255 -0.000971 0.003079
# 2 -0.003191 0.009307 -0.003722 -0.001840 -0.000575 -0.000918
# 3 -0.003108 -0.003722 0.013186 0.001527 0.002375 -0.000458
# 4 0.002255 -0.001840 0.001527 0.040518 -0.000465 0.008211
# 5 -0.000971 -0.000575 0.002375 -0.000465 0.024637 0.001967
# 6 0.003079 -0.000918 -0.000458 0.008211 0.001967 0.032482
#
#
# Mechanical properties :
#
#
# Convention : Reuss Voigt Hill
#
# Bulk Modulus (GPa) = 74.04852 77.80752 75.92802
# Shear Modulus (GPa) = 32.10751 34.79395 33.45073
#
# Velocity S-wave (km/s) = 3.91429 4.07475 3.99532
# Velocity P-wave (km/s) = 7.46757 7.69855 7.58394
#
# Compressibility (1/GPa) = 0.01350466
#
# Stress axis : x y z
#
# Youngs Moduli (GPa) = 90.47156 107.44570 75.83622
#
# Poissons Ratio (x) = 0.34281 0.23573
# Poissons Ratio (y) = 0.28865 0.28226
# Poissons Ratio (z) = 0.28122 0.39991
#
# Static dielectric constant tensor:
#      x y z
#    x 3.904680 0.031150 -0.123130 
#    y 0.031150 3.852770 -0.223330 
#    z -0.123130 -0.223330 3.889210 
# 
# 
# High freq. dielectric constant tensor:
#      x y z
#    x 1.842540 -0.001570 -0.001890 
#    y -0.001570 1.829380 -0.013490 
#    z -0.001890 -0.013490 1.827650 
# 
# From -- ./inp_files/47582.got.cif
#   From: 2010.06.25/outbox.cif.g09.slc.cpg/sg2_24_cif.got.tgz:47582.got - 2010.06.27 13:26:56.
