data_PCOD8035982
_publ_section_title
;
Structure prediction by ZEFSAII (Michael W. Deem and Ramdas Pophale) SiO2 
 PCOD8035982
Probable space group: P -1
;
_chemical_formula_sum "Si O2"
_cell_formula_units_Z 16
_cell_length_a 12.114567
_cell_length_b 6.626112
_cell_length_c 14.289290
_cell_angle_alpha 101.592970
_cell_angle_beta 136.108754
_cell_angle_gamma 61.980221
_cell_volume 684.048625
_symmetry_space_group_name_H-M "P -1"
_symmetry_group_IT_number 2
_symmetry_cell_setting 'triclinic'
loop_
_space_group_symop_operation_xyz
x,y,z
-x,-y,-z
loop_
_atom_site_type_symbol
_atom_site_label
_atom_site_fract_x
_atom_site_fract_y
_atom_site_fract_z
Si Si1 0.443327 0.580760 0.204404
Si Si2 0.394189 0.841201 0.628342
Si Si3 0.345659 0.233034 0.377623
Si Si4 0.099786 0.555428 0.982693
Si Si5 0.145788 0.763553 0.344204
Si Si6 0.457018 0.148324 0.844548
Si Si7 0.792073 0.788652 0.134159
Si Si8 0.847961 0.027013 0.824360
O O1 0.614657 0.371397 0.340720
O O2 0.514373 0.638272 0.157392
O O3 0.339028 0.822685 0.220325
O O4 0.317492 0.452657 0.107694
O O5 0.580153 0.738552 0.674457
O O6 0.227305 0.915773 0.459952
O O7 0.377966 0.048553 0.705655
O O8 0.278860 0.481563 0.414159
O O9 0.500000 0.000000 0.500000
O O10 0.174476 0.190581 0.252534
O O11 0.073073 0.452012 0.859512
O O12 0.035296 0.840115 0.977216
O O13 0.000000 0.500000 0.000000
O O14 0.125639 0.819747 0.225267
O O15 0.940087 0.864774 0.267089
O O16 0.306247 0.255558 0.842800
O O17 0.648523 0.964961 0.988308
#
# Coordination Sequence:
#
# PCOD8035982 Si02
#       8
#     2   2   2   2   2   2   2   2
#     4  12  23  41  69  99 135 182 224 272 343 411
#     4  12  24  42  67 102 139 176 230 274 335 419
#     4  12  22  40  66 100 144 178 216 276 351 412
#     4  12  23  42  71 104 138 173 223 290 350 405
#     4  12  25  42  69 104 139 176 224 287 349 399
#     4  11  26  48  70  92 134 190 231 280 334 395
#     4  11  25  49  68  97 137 176 236 286 329 408
#     4  12  22  38  67 101 139 175 216 284 353 403
#
# _framework density 23.390148
#
# number of rings (size 3 to 8) (size 9 to 14) (size 15 to 20)
#    0.000    0.250    6.250    4.500    0.000    1.000 
#    2.250    0.625    0.000    0.000    0.000    0.000 
#    0.000    0.000    0.000    0.000    0.000    0.000 
#
# Total GULP energy -198246.168766 kJ/mol
# GULP energy per Si atom -12390.385548 kJ/mol
# Density = 2.333691 g / cm^3
# Si number density = 23.390148 Si / 1000 Ang^3
#
#
#
# Elastic Constant Matrix: (Units=GPa)
#
#
# Indices 1 2 3 4 5 6 
#
# 1 162.6395 41.0386 40.8184 -2.3725 -6.8860 21.3252
# 2 41.0386 78.8077 17.2804 -3.4904 -5.4657 10.8623
# 3 40.8184 17.2804 44.6749 -5.9346 -6.3157 3.6721
# 4 -2.3725 -3.4904 -5.9346 41.7893 9.3572 -5.8283
# 5 -6.8860 -5.4657 -6.3157 9.3572 33.7817 -3.2230
# 6 21.3252 10.8623 3.6721 -5.8283 -3.2230 35.8528
#
#
#
# Elastic Compliance Matrix: (Units=1/GPa)
#
#
# Indices 1 2 3 4 5 6 
#
# 1 0.009138 -0.002682 -0.007139 -0.001305 0.000065 -0.004098
# 2 -0.002682 0.015188 -0.003050 0.000083 0.001071 -0.002584
# 3 -0.007139 -0.003050 0.030747 0.003404 0.003129 0.002856
# 4 -0.001305 0.000083 0.003404 0.026381 -0.006532 0.004104
# 5 0.000065 0.001071 0.003129 -0.006532 0.032293 0.001158
# 6 -0.004098 -0.002584 0.002856 0.004104 0.001158 0.031591
#
#
# Mechanical properties :
#
#
# Convention : Reuss Voigt Hill
#
# Bulk Modulus (GPa) = 34.09339 53.82188 43.95764
# Shear Modulus (GPa) = 27.64622 34.75043 31.19833
#
# Velocity S-wave (km/s) = 3.44169 3.85864 3.65612
# Velocity P-wave (km/s) = 5.51374 6.55077 6.05450
#
# Compressibility (1/GPa) = 0.02933120
#
# Stress axis : x y z
#
# Youngs Moduli (GPa) = 109.43295 65.83929 32.52401
#
# Poissons Ratio (x) = 0.17655 0.23220
# Poissons Ratio (y) = 0.29345 0.09920
# Poissons Ratio (z) = 0.78128 0.20081
#
# Static dielectric constant tensor:
#      x y z
#    x 4.051350 0.180800 0.183450 
#    y 0.180800 4.170170 0.087990 
#    z 0.183450 0.087990 4.676740 
# 
# 
# High freq. dielectric constant tensor:
#      x y z
#    x 1.906980 0.020510 0.008270 
#    y 0.020510 1.932040 0.006640 
#    z 0.008270 0.006640 1.941150 
# 
# From -- ./inp_files/123625.got.cif
#   From: 2010.06.25/outbox.cif.g09.slc.cpg/sg2_62_cif.got.tgz:123625.got - 2010.06.27 13:26:56.
