data_PCOD8035060
_publ_section_title
;
Structure prediction by ZEFSAII (Michael W. Deem and Ramdas Pophale) SiO2 
 PCOD8035060
Probable space group: P -1
;
_chemical_formula_sum "Si O2"
_cell_formula_units_Z 14
_cell_length_a 8.552925
_cell_length_b 9.049756
_cell_length_c 17.405484
_cell_angle_alpha 61.988166
_cell_angle_beta 32.172381
_cell_angle_gamma 59.864184
_cell_volume 617.463097
_symmetry_space_group_name_H-M "P -1"
_symmetry_group_IT_number 2
_symmetry_cell_setting 'triclinic'
loop_
_space_group_symop_operation_xyz
x,y,z
-x,-y,-z
loop_
_atom_site_type_symbol
_atom_site_label
_atom_site_fract_x
_atom_site_fract_y
_atom_site_fract_z
Si Si1 0.203504 0.547132 0.338218
Si Si2 0.308202 0.997541 0.005532
Si Si3 0.240343 0.394779 0.631466
Si Si4 0.748573 0.112489 0.687230
Si Si5 0.695667 0.234085 0.171156
Si Si6 0.771467 0.342589 0.941797
Si Si7 0.631308 0.061344 0.581340
O O1 0.270958 0.730064 0.284892
O O2 0.527861 0.414259 0.234084
O O3 0.000000 0.500000 0.500000
O O4 0.024311 0.538551 0.335851
O O5 0.224974 0.812901 0.081119
O O6 0.012274 0.151418 0.099827
O O7 0.500000 0.000000 0.000000
O O8 0.499916 0.014087 0.845122
O O9 0.500000 0.500000 0.500000
O O10 0.390284 0.195288 0.598985
O O11 0.078373 0.406348 0.779825
O O12 0.694349 0.163704 0.607389
O O13 0.080830 0.989078 0.581713
O O14 0.473161 0.105928 0.304799
O O15 0.774716 0.266859 0.043112
O O16 0.500000 0.500000 0.000000
#
# Coordination Sequence:
#
# PCOD8035060 Si02
#       7
#     2   2   2   2   2   2   2
#     4  12  26  47  69 108 152 183 238 301 357 425
#     4  12  27  47  70 108 144 185 241 296 363 429
#     4  12  27  45  74 110 142 188 245 292 357 431
#     4  11  25  44  74 104 141 187 240 295 357 421
#     4  12  25  49  74 102 145 198 235 296 362 424
#     4  12  25  48  75 103 146 188 242 299 352 428
#     4  11  24  47  77 101 142 192 244 290 358 429
#
# _framework density 22.673418999999999
#
# number of rings (size 3 to 8) (size 9 to 14) (size 15 to 20)
#    0.000    0.286    5.714    3.000    4.000    2.286 
#    2.571    0.000    0.000    0.000    0.000    0.000 
#    0.000    0.000    0.000    0.000    0.000    0.000 
#
# Total GULP energy -173599.911053 kJ/mol
# GULP energy per Si atom -12399.993647 kJ/mol
# Density = 2.262181 g / cm^3
# Si number density = 22.673419 Si / 1000 Ang^3
#
#
#
# Elastic Constant Matrix: (Units=GPa)
#
#
# Indices 1 2 3 4 5 6 
#
# 1 87.8665 49.7058 22.5622 15.8839 -11.0804 -6.0751
# 2 49.7058 142.3552 57.8526 28.5852 -11.1088 -15.7110
# 3 22.5622 57.8526 164.2624 16.1326 -14.3336 -3.9397
# 4 15.8839 28.5852 16.1326 49.3460 -5.5167 -10.0687
# 5 -11.0804 -11.1088 -14.3336 -5.5167 29.8286 7.5750
# 6 -6.0751 -15.7110 -3.9397 -10.0687 7.5750 40.9194
#
#
#
# Elastic Compliance Matrix: (Units=1/GPa)
#
#
# Indices 1 2 3 4 5 6 
#
# 1 0.014698 -0.004589 0.000077 -0.001835 0.003625 -0.000695
# 2 -0.004589 0.010661 -0.002764 -0.003342 -0.000284 0.002376
# 3 0.000077 -0.002764 0.007329 -0.000731 0.002643 -0.001013
# 4 -0.001835 -0.003342 -0.000731 0.023986 0.001126 0.004068
# 5 0.003625 -0.000284 0.002643 0.001126 0.037776 -0.006032
# 6 -0.000695 0.002376 -0.001013 0.004068 -0.006032 0.027268
#
#
# Mechanical properties :
#
#
# Convention : Reuss Voigt Hill
#
# Bulk Modulus (GPa) = 55.13732 72.74726 63.94229
# Shear Modulus (GPa) = 35.13335 41.64304 38.38820
#
# Velocity S-wave (km/s) = 3.94069 4.29026 4.11918
# Velocity P-wave (km/s) = 6.71388 7.52969 7.13346
#
# Compressibility (1/GPa) = 0.01813654
#
# Stress axis : x y z
#
# Youngs Moduli (GPa) = 68.03813 93.79562 136.44659
#
# Poissons Ratio (x) = 0.43040 -0.01053
# Poissons Ratio (y) = 0.31221 0.37716
# Poissons Ratio (z) = -0.00525 0.25927
#
# Static dielectric constant tensor:
#      x y z
#    x 4.640380 0.354760 -0.436570 
#    y 0.354760 4.148630 -0.005930 
#    z -0.436570 -0.005930 4.629760 
# 
# 
# High freq. dielectric constant tensor:
#      x y z
#    x 1.876010 -0.015280 -0.002250 
#    y -0.015280 1.902410 0.004050 
#    z -0.002250 0.004050 1.921760 
# 
# From -- ./inp_files/158300.got.cif
#   From: 2010.06.25/outbox.cif.g09.slc.cpg/sg2_80_cif.got.tgz:158300.got - 2010.06.27 13:26:56.
