data_PCOD8035650
_publ_section_title
;
Structure prediction by ZEFSAII (Michael W. Deem and Ramdas Pophale) SiO2 
 PCOD8035650
Probable space group: P -1
;
_chemical_formula_sum "Si O2"
_cell_formula_units_Z 16
_cell_length_a 17.620127
_cell_length_b 14.997758
_cell_length_c 5.096381
_cell_angle_alpha 111.587542
_cell_angle_beta 111.692630
_cell_angle_gamma 30.079444
_cell_volume 623.853062
_symmetry_space_group_name_H-M "P -1"
_symmetry_group_IT_number 2
_symmetry_cell_setting 'triclinic'
loop_
_space_group_symop_operation_xyz
x,y,z
-x,-y,-z
loop_
_atom_site_type_symbol
_atom_site_label
_atom_site_fract_x
_atom_site_fract_y
_atom_site_fract_z
Si Si1 0.002384 0.709441 0.485955
Si Si2 0.694020 0.472884 0.855233
Si Si3 0.737690 0.631685 0.212215
Si Si4 0.770730 0.787303 0.159328
Si Si5 0.998642 0.891154 0.309304
Si Si6 0.599306 0.010155 0.697899
Si Si7 0.478592 0.418465 0.753551
Si Si8 0.251449 0.954363 0.131898
O O1 0.915910 0.712849 0.210078
O O2 0.036700 0.775864 0.458395
O O3 0.158213 0.510037 0.573346
O O4 0.888849 0.845383 0.723634
O O5 0.604249 0.501221 0.547714
O O6 0.863402 0.260984 0.885577
O O7 0.704693 0.575843 0.909435
O O8 0.615898 0.548413 0.120590
O O9 0.824066 0.629531 0.158369
O O10 0.581174 0.831900 0.346602
O O11 0.655617 0.945666 0.400534
O O12 0.684811 0.856518 0.848151
O O13 0.000000 0.000000 0.500000
O O14 0.826400 0.045377 0.158899
O O15 0.637258 0.081960 0.918542
O O16 0.646465 0.204962 0.698753
O O17 0.500000 0.500000 0.000000
#
# Coordination Sequence:
#
# PCOD8035650 Si02
#       8
#     2   2   2   2   2   2   2   2
#     4  11  26  48  70 108 153 195 251 303 377 445
#     4  12  28  48  74 113 146 193 251 306 374 441
#     4  12  25  48  75 110 150 195 248 314 371 449
#     4  11  26  48  76 109 147 200 249 305 378 445
#     4  12  27  47  75 106 151 199 247 309 374 451
#     4  11  25  46  73 108 148 195 245 308 371 443
#     4  12  28  49  78 108 148 194 252 311 376 440
#     4  11  25  46  71 103 149 193 241 310 370 443
#
# _framework density 25.647065999999999
#
# number of rings (size 3 to 8) (size 9 to 14) (size 15 to 20)
#    0.000    0.500    3.750    3.000    7.000    2.500 
#    0.000    2.500    0.000    0.000    0.000    0.000 
#    0.000    0.000    0.000    0.000    0.000    0.000 
#
# Total GULP energy -198349.723028 kJ/mol
# GULP energy per Si atom -12396.857689 kJ/mol
# Density = 2.558869 g / cm^3
# Si number density = 25.647066 Si / 1000 Ang^3
#
#
#
# Elastic Constant Matrix: (Units=GPa)
#
#
# Indices 1 2 3 4 5 6 
#
# 1 111.9265 22.4389 6.9257 -13.0744 24.3206 12.0918
# 2 22.4389 118.2701 0.6682 -23.7754 -7.1419 -4.4673
# 3 6.9257 0.6682 60.5910 -17.7665 0.8919 -13.4144
# 4 -13.0744 -23.7754 -17.7665 40.5373 0.1443 8.6438
# 5 24.3206 -7.1419 0.8919 0.1443 42.7014 1.1774
# 6 12.0918 -4.4673 -13.4144 8.6438 1.1774 31.9523
#
#
#
# Elastic Compliance Matrix: (Units=1/GPa)
#
#
# Indices 1 2 3 4 5 6 
#
# 1 0.012075 -0.002311 -0.001702 0.003140 -0.007068 -0.006196
# 2 -0.002311 0.010306 0.002180 0.005920 0.002932 0.001521
# 3 -0.001702 0.002180 0.020715 0.008229 0.000669 0.007395
# 4 0.003140 0.005920 0.008229 0.034061 -0.000917 -0.006086
# 5 -0.007068 0.002932 0.000669 -0.000917 0.027852 0.002588
# 6 -0.006196 0.001521 0.007395 -0.006086 0.002588 0.038510
#
#
# Mechanical properties :
#
#
# Convention : Reuss Voigt Hill
#
# Bulk Modulus (GPa) = 25.36155 38.98369 32.17262
# Shear Modulus (GPa) = 31.18611 40.42185 35.80398
#
# Velocity S-wave (km/s) = 3.49086 3.97430 3.74040
# Velocity P-wave (km/s) = 5.11452 6.02437 5.58800
#
# Compressibility (1/GPa) = 0.03942977
#
# Stress axis : x y z
#
# Youngs Moduli (GPa) = 82.81578 97.03145 48.27452
#
# Poissons Ratio (x) = 0.22424 0.08216
# Poissons Ratio (y) = 0.19139 -0.10523
# Poissons Ratio (z) = 0.14094 -0.21152
#
# Static dielectric constant tensor:
#      x y z
#    x 5.171620 -0.262220 0.404270 
#    y -0.262220 4.770020 -0.026400 
#    z 0.404270 -0.026400 4.403960 
# 
# 
# High freq. dielectric constant tensor:
#      x y z
#    x 2.042840 -0.004390 0.025060 
#    y -0.004390 2.030280 0.001270 
#    z 0.025060 0.001270 2.011650 
# 
# From -- ./inp_files/111002.got.cif
#   From: 2010.06.25/outbox.cif.g09.slc.cpg/sg2_56_cif.got.tgz:111002.got - 2010.06.27 13:26:56.
