data_PCOD8035451
_publ_section_title
;
Structure prediction by ZEFSAII (Michael W. Deem and Ramdas Pophale) SiO2 
 PCOD8035451
Probable space group: P -1
;
_chemical_formula_sum "Si O2"
_cell_formula_units_Z 14
_cell_length_a 9.168585
_cell_length_b 5.370641
_cell_length_c 14.203210
_cell_angle_alpha 54.952326
_cell_angle_beta 94.379688
_cell_angle_gamma 92.209806
_cell_volume 570.882898
_symmetry_space_group_name_H-M "P -1"
_symmetry_group_IT_number 2
_symmetry_cell_setting 'triclinic'
loop_
_space_group_symop_operation_xyz
x,y,z
-x,-y,-z
loop_
_atom_site_type_symbol
_atom_site_label
_atom_site_fract_x
_atom_site_fract_y
_atom_site_fract_z
Si Si1 0.795458 0.699529 0.444634
Si Si2 0.929221 0.712615 0.109137
Si Si3 0.437821 0.602183 0.173038
Si Si4 0.945048 0.296045 0.680629
Si Si5 0.639543 0.723851 0.003560
Si Si6 0.615291 0.226942 0.410456
Si Si7 0.827999 0.679813 0.848368
O O1 0.852146 0.580523 0.574860
O O2 0.704556 0.426340 0.448536
O O3 0.934072 0.801567 0.368518
O O4 0.711848 0.014652 0.392573
O O5 0.970150 0.638202 0.234017
O O6 0.003658 0.430603 0.117498
O O7 0.754781 0.757280 0.088705
O O8 0.000000 0.000000 0.000000
O O9 0.532692 0.474370 0.289774
O O10 0.272677 0.478074 0.202173
O O11 0.434907 0.964875 0.102429
O O12 0.510461 0.517204 0.089839
O O13 0.825781 0.036438 0.750913
O O14 0.746603 0.582512 0.961390
O O15 0.500000 0.000000 0.500000
#
# Coordination Sequence:
#
# PCOD8035451 Si02
#       7
#     2   2   2   2   2   2   2
#     4  11  29  50  75 114 144 199 250 310 371 434
#     4  12  24  43  69 106 141 186 246 303 374 440
#     4  11  26  44  71 103 152 191 248 307 372 447
#     4  11  27  45  76 101 151 185 248 311 371 442
#     4  11  25  45  67 106 148 194 244 305 376 449
#     4  12  28  50  79 108 149 197 254 304 374 442
#     4  12  24  42  72 103 144 197 240 306 368 447
#
# _framework density 24.523420000000002
#
# number of rings (size 3 to 8) (size 9 to 14) (size 15 to 20)
#    0.000    0.571    2.857    3.000   12.000    1.143 
#    0.000    0.000    0.000    0.000    0.000    0.000 
#    0.000    0.000    0.000    0.000    0.000    0.000 
#
# Total GULP energy -173500.242038 kJ/mol
# GULP energy per Si atom -12392.874431 kJ/mol
# Density = 2.446760 g / cm^3
# Si number density = 24.523420 Si / 1000 Ang^3
#
#
#
# Elastic Constant Matrix: (Units=GPa)
#
#
# Indices 1 2 3 4 5 6 
#
# 1 108.6979 14.8484 46.5702 -16.4308 12.3032 -3.4471
# 2 14.8484 83.8036 24.8185 -6.0710 15.9744 -5.4117
# 3 46.5702 24.8185 141.0155 8.5278 27.7214 0.1472
# 4 -16.4308 -6.0710 8.5278 25.3653 -3.2231 -6.2351
# 5 12.3032 15.9744 27.7214 -3.2231 44.6452 -9.1840
# 6 -3.4471 -5.4117 0.1472 -6.2351 -9.1840 39.8469
#
#
#
# Elastic Compliance Matrix: (Units=1/GPa)
#
#
# Indices 1 2 3 4 5 6 
#
# 1 0.013097 0.000032 -0.005220 0.011157 0.001074 0.003150
# 2 0.000032 0.013497 -0.002062 0.004020 -0.002897 0.001805
# 3 -0.005220 -0.002062 0.010919 -0.009193 -0.006007 -0.003595
# 4 0.011157 0.004020 -0.009193 0.054573 0.007568 0.011829
# 5 0.001074 -0.002897 -0.006007 0.007568 0.028975 0.007584
# 6 0.003150 0.001805 -0.003595 0.011829 0.007584 0.029226
#
#
# Mechanical properties :
#
#
# Convention : Reuss Voigt Hill
#
# Bulk Modulus (GPa) = 43.45183 56.22124 49.83653
# Shear Modulus (GPa) = 28.99263 38.45678 33.72471
#
# Velocity S-wave (km/s) = 3.44211 3.96430 3.71240
# Velocity P-wave (km/s) = 5.79262 6.62794 6.22431
#
# Compressibility (1/GPa) = 0.02301399
#
# Stress axis : x y z
#
# Youngs Moduli (GPa) = 76.35525 74.08785 91.58652
#
# Poissons Ratio (x) = -0.00240 0.47808
# Poissons Ratio (y) = -0.00247 0.18883
# Poissons Ratio (z) = 0.39857 0.15275
#
# Static dielectric constant tensor:
#      x y z
#    x 5.182030 0.039150 0.013830 
#    y 0.039150 4.323660 0.114380 
#    z 0.013830 0.114380 4.676030 
# 
# 
# High freq. dielectric constant tensor:
#      x y z
#    x 2.000440 -0.003940 -0.001160 
#    y -0.003940 1.960040 0.005880 
#    z -0.001160 0.005880 1.989820 
# 
# From -- ./inp_files/53487.got.cif
#   From: 2010.06.25/outbox.cif.g09.slc.cpg/sg2_27_cif.got.tgz:53487.got - 2010.06.27 13:26:56.
