data_PCOD8035715
_publ_section_title
;
Structure prediction by ZEFSAII (Michael W. Deem and Ramdas Pophale) SiO2 
 PCOD8035715
Probable space group: P -1
;
_chemical_formula_sum "Si O2"
_cell_formula_units_Z 14
_cell_length_a 6.394865
_cell_length_b 22.285377
_cell_length_c 9.340727
_cell_angle_alpha 143.658204
_cell_angle_beta 80.668369
_cell_angle_gamma 119.768406
_cell_volume 607.207939
_symmetry_space_group_name_H-M "P -1"
_symmetry_group_IT_number 2
_symmetry_cell_setting 'triclinic'
loop_
_space_group_symop_operation_xyz
x,y,z
-x,-y,-z
loop_
_atom_site_type_symbol
_atom_site_label
_atom_site_fract_x
_atom_site_fract_y
_atom_site_fract_z
Si Si1 0.718521 0.156414 0.420980
Si Si2 0.019882 0.421259 0.228677
Si Si3 0.885561 0.756178 0.962416
Si Si4 0.388142 0.869288 0.944015
Si Si5 0.462239 0.245067 0.787976
Si Si6 0.516575 0.681133 0.597359
Si Si7 0.676941 0.649933 0.236127
O O1 0.470774 0.145149 0.500228
O O2 0.004000 0.276674 0.692630
O O3 0.657575 0.019639 0.194866
O O4 0.735412 0.182502 0.299983
O O5 0.250946 0.532304 0.308366
O O6 0.000000 0.500000 0.500000
O O7 0.117787 0.345346 0.137836
O O8 0.731182 0.328110 0.009867
O O9 0.797268 0.822986 0.206204
O O10 0.178221 0.862043 0.061088
O O11 0.670139 0.678431 0.709365
O O12 0.454593 0.779727 0.830161
O O13 0.464154 0.339885 0.862608
O O14 0.690122 0.728339 0.523073
O O15 0.500000 0.500000 0.000000
#
# Coordination Sequence:
#
# PCOD8035715 Si02
#       7
#     2   2   2   2   2   2   2
#     4  11  26  48  69 106 145 183 242 289 346 423
#     4  12  25  42  72 105 148 184 235 293 352 423
#     4  12  24  45  71 105 137 187 232 287 359 410
#     4  11  25  46  74 101 143 193 234 289 347 425
#     4  12  26  45  70 105 144 183 233 299 353 411
#     4  12  24  43  73 106 139 187 237 288 354 423
#     4  12  27  43  73 107 143 182 234 299 360 414
#
# _framework density 23.056350999999999
#
# number of rings (size 3 to 8) (size 9 to 14) (size 15 to 20)
#    0.000    0.286    5.714    3.000    4.000    3.429 
#    0.000    5.000    0.000    0.000    0.000    0.000 
#    0.000    0.000    0.000    0.000    0.000    0.000 
#
# Total GULP energy -173591.271319 kJ/mol
# GULP energy per Si atom -12399.376523 kJ/mol
# Density = 2.300387 g / cm^3
# Si number density = 23.056351 Si / 1000 Ang^3
#
#
#
# Elastic Constant Matrix: (Units=GPa)
#
#
# Indices 1 2 3 4 5 6 
#
# 1 135.1363 64.1101 43.8824 -6.4306 -4.6792 -1.6828
# 2 64.1101 111.6296 43.9937 -9.7574 -5.2687 -3.2346
# 3 43.8824 43.9937 69.2326 5.9642 0.1958 -2.2270
# 4 -6.4306 -9.7574 5.9642 46.9435 11.4731 -8.1605
# 5 -4.6792 -5.2687 0.1958 11.4731 30.9844 -16.6711
# 6 -1.6828 -3.2346 -2.2270 -8.1605 -16.6711 51.3752
#
#
#
# Elastic Compliance Matrix: (Units=1/GPa)
#
#
# Indices 1 2 3 4 5 6 
#
# 1 0.010975 -0.004545 -0.004145 0.000961 0.000703 0.000274
# 2 -0.004545 0.014552 -0.006594 0.003138 0.001448 0.001450
# 3 -0.004145 -0.006594 0.021649 -0.004672 -0.000418 -0.000490
# 4 0.000961 0.003138 -0.004672 0.024815 -0.007687 0.001474
# 5 0.000703 0.001448 -0.000418 -0.007687 0.042246 0.012584
# 6 0.000274 0.001450 -0.000490 0.001474 0.012584 0.023861
#
#
# Mechanical properties :
#
#
# Convention : Reuss Voigt Hill
#
# Bulk Modulus (GPa) = 60.20682 68.88566 64.54624
# Shear Modulus (GPa) = 28.70237 36.79478 32.74858
#
# Velocity S-wave (km/s) = 3.53211 3.99916 3.77287
# Velocity P-wave (km/s) = 6.54248 7.16005 6.85822
#
# Compressibility (1/GPa) = 0.01660941
#
# Stress axis : x y z
#
# Youngs Moduli (GPa) = 91.11310 68.72093 46.19114
#
# Poissons Ratio (x) = 0.31232 0.19145
# Poissons Ratio (y) = 0.41408 0.30458
# Poissons Ratio (z) = 0.37764 0.45314
#
# Static dielectric constant tensor:
#      x y z
#    x 5.765830 2.186770 0.131730 
#    y 2.186770 7.098210 0.082730 
#    z 0.131730 0.082730 3.723730 
# 
# 
# High freq. dielectric constant tensor:
#      x y z
#    x 1.922300 0.008630 -0.013400 
#    y 0.008630 1.923770 -0.023030 
#    z -0.013400 -0.023030 1.899200 
# 
# From -- ./inp_files/68089.got.cif
#   From: 2010.06.25/outbox.cif.g09.slc.cpg/sg2_35_cif.got.tgz:68089.got - 2010.06.27 13:26:56.
