data_PCOD8035447
_publ_section_title
;
Structure prediction by ZEFSAII (Michael W. Deem and Ramdas Pophale) SiO2 
 PCOD8035447
Probable space group: P -1
;
_chemical_formula_sum "Si O2"
_cell_formula_units_Z 14
_cell_length_a 5.078707
_cell_length_b 20.877062
_cell_length_c 22.701707
_cell_angle_alpha 161.493320
_cell_angle_beta 69.589508
_cell_angle_gamma 120.054732
_cell_volume 587.425858
_symmetry_space_group_name_H-M "P -1"
_symmetry_group_IT_number 2
_symmetry_cell_setting 'triclinic'
loop_
_space_group_symop_operation_xyz
x,y,z
-x,-y,-z
loop_
_atom_site_type_symbol
_atom_site_label
_atom_site_fract_x
_atom_site_fract_y
_atom_site_fract_z
Si Si1 0.856561 0.546765 0.868099
Si Si2 0.273149 0.949019 0.101112
Si Si3 0.548427 0.301659 0.491831
Si Si4 0.130150 0.686517 0.085404
Si Si5 0.824555 0.160443 0.453430
Si Si6 0.841500 0.862863 0.953279
Si Si7 0.838771 0.733675 0.254180
O O1 0.847783 0.318161 0.644893
O O2 0.533275 0.452602 0.852680
O O3 0.921161 0.731287 0.971204
O O4 0.162668 0.719493 0.040749
O O5 0.510963 0.188864 0.331738
O O6 0.495838 0.843718 0.976423
O O7 0.137463 0.014259 0.111705
O O8 0.768757 0.255631 0.479193
O O9 0.749980 0.591101 0.719375
O O10 0.173777 0.178438 0.441409
O O11 0.880395 0.748187 0.192034
O O12 0.517472 0.880093 0.246500
O O13 0.968274 0.396056 0.856236
O O14 0.000000 0.000000 0.000000
O O15 0.000000 0.000000 0.500000
#
# Coordination Sequence:
#
# PCOD8035447 Si02
#       7
#     2   2   2   2   2   2   2
#     4  12  24  43  73  97 139 187 243 292 353 418
#     4  12  26  45  78 105 141 194 240 291 353 424
#     4  12  25  46  73 109 142 183 242 292 354 421
#     4  11  26  45  66 102 139 190 239 304 354 421
#     4  12  25  43  75 105 139 190 242 301 349 417
#     4  12  27  48  73 111 151 185 231 293 360 431
#     4  11  25  45  66 100 145 186 239 296 368 418
#
# _framework density 23.832795000000001
#
# number of rings (size 3 to 8) (size 9 to 14) (size 15 to 20)
#    0.000    0.286    5.714    2.571    4.000    1.714 
#    0.000    0.000    0.000    0.000    0.000    0.000 
#    0.000    0.000    0.000    0.000    0.000    0.000 
#
# Total GULP energy -173552.042408 kJ/mol
# GULP energy per Si atom -12396.574458 kJ/mol
# Density = 2.377855 g / cm^3
# Si number density = 23.832795 Si / 1000 Ang^3
#
#
#
# Elastic Constant Matrix: (Units=GPa)
#
#
# Indices 1 2 3 4 5 6 
#
# 1 65.3275 13.7903 10.4795 -13.4175 2.6953 -5.1899
# 2 13.7903 111.7378 47.3255 -10.5365 4.1403 -13.0892
# 3 10.4795 47.3255 136.1247 -25.0633 -1.3390 -2.9052
# 4 -13.4175 -10.5365 -25.0633 39.7450 -5.1752 10.2656
# 5 2.6953 4.1403 -1.3390 -5.1752 31.4290 -1.2553
# 6 -5.1899 -13.0892 -2.9052 10.2656 -1.2553 29.9872
#
#
#
# Elastic Compliance Matrix: (Units=1/GPa)
#
#
# Indices 1 2 3 4 5 6 
#
# 1 0.016728 -0.001613 0.000240 0.005220 -0.000336 0.000413
# 2 -0.001613 0.011312 -0.003998 -0.001490 -0.001579 0.004715
# 3 0.000240 -0.003998 0.009812 0.006166 0.001828 -0.002787
# 4 0.005220 -0.001490 0.006166 0.033801 0.005158 -0.010505
# 5 -0.000336 -0.001579 0.001828 0.005158 0.032944 -0.000957
# 6 0.000413 0.004715 -0.002787 -0.010505 -0.000957 0.038763
#
#
# Mechanical properties :
#
#
# Convention : Reuss Voigt Hill
#
# Bulk Modulus (GPa) = 36.88729 50.70894 43.79811
# Shear Modulus (GPa) = 30.64872 36.33857 33.49365
#
# Velocity S-wave (km/s) = 3.58996 3.90901 3.75288
# Velocity P-wave (km/s) = 5.71794 6.45732 6.09885
#
# Compressibility (1/GPa) = 0.02710961
#
# Stress axis : x y z
#
# Youngs Moduli (GPa) = 59.77848 88.39984 101.92113
#
# Poissons Ratio (x) = 0.14259 -0.02442
# Poissons Ratio (y) = 0.09642 0.40748
# Poissons Ratio (z) = -0.01433 0.35342
#
# Static dielectric constant tensor:
#      x y z
#    x 4.264390 -0.107610 0.056710 
#    y -0.107610 4.407830 -0.286520 
#    z 0.056710 -0.286520 4.558220 
# 
# 
# High freq. dielectric constant tensor:
#      x y z
#    x 1.930580 -0.002080 -0.000790 
#    y -0.002080 1.947170 -0.013440 
#    z -0.000790 -0.013440 1.967710 
# 
# From -- ./inp_files/119685.got.cif
#   From: 2010.06.25/outbox.cif.g09.slc.cpg/sg2_60_cif.got.tgz:119685.got - 2010.06.27 13:26:56.
