data_PCOD8035068
_publ_section_title
;
Structure prediction by ZEFSAII (Michael W. Deem and Ramdas Pophale) SiO2 
 PCOD8035068
Probable space group: P -1
;
_chemical_formula_sum "Si O2"
_cell_formula_units_Z 10
_cell_length_a 12.735226
_cell_length_b 8.783008
_cell_length_c 18.079357
_cell_angle_alpha 31.206772
_cell_angle_beta 19.624506
_cell_angle_gamma 33.013835
_cell_volume 345.548261
_symmetry_space_group_name_H-M "P -1"
_symmetry_group_IT_number 2
_symmetry_cell_setting 'triclinic'
loop_
_space_group_symop_operation_xyz
x,y,z
-x,-y,-z
loop_
_atom_site_type_symbol
_atom_site_label
_atom_site_fract_x
_atom_site_fract_y
_atom_site_fract_z
Si Si1 0.838265 0.046319 0.165852
Si Si2 0.369652 0.804788 0.027974
Si Si3 0.367829 0.413253 0.827447
Si Si4 0.901109 0.725086 0.590758
Si Si5 0.675744 0.269744 0.419036
O O1 0.750812 0.399135 0.098219
O O2 0.528967 0.900052 0.428614
O O3 0.000000 0.000000 0.000000
O O4 0.085541 0.865986 0.132670
O O5 0.708675 0.798346 0.765486
O O6 0.325874 0.066394 0.010098
O O7 0.302490 0.485026 0.235381
O O8 0.180536 0.541814 0.819771
O O9 0.740259 0.423593 0.564566
O O10 0.913391 0.020412 0.411066
O O11 0.500000 0.500000 0.500000
#
# Coordination Sequence:
#
# PCOD8035068 Si02
#       5
#     2   2   2   2   2
#     4  12  25  50  73 109 153 202 253 311 371 446
#     4  11  24  47  77 109 156 194 246 313 375 447
#     4  12  26  49  78 109 152 202 250 307 377 449
#     4  11  25  46  76 113 155 190 254 306 378 447
#     4  12  25  46  78 111 148 197 247 308 381 446
#
# _framework density 28.939516999999999
#
# number of rings (size 3 to 8) (size 9 to 14) (size 15 to 20)
#    0.000    0.400    6.000    1.800    0.000    0.800 
#    3.600    1.000    0.000    0.000    0.000    0.000 
#    0.000    0.000    0.000    0.000    0.000    0.000 
#
# Total GULP energy -123954.424277 kJ/mol
# GULP energy per Si atom -12395.442428 kJ/mol
# Density = 2.887365 g / cm^3
# Si number density = 28.939517 Si / 1000 Ang^3
#
#
#
# Elastic Constant Matrix: (Units=GPa)
#
#
# Indices 1 2 3 4 5 6 
#
# 1 96.9402 55.2216 27.0217 -0.0891 4.7764 24.7235
# 2 55.2216 207.9765 44.6997 -14.5585 10.6457 45.4148
# 3 27.0217 44.6997 100.3877 -11.2316 13.1544 13.9546
# 4 -0.0891 -14.5585 -11.2316 47.9428 -3.9945 -7.5595
# 5 4.7764 10.6457 13.1544 -3.9945 51.3019 -3.9889
# 6 24.7235 45.4148 13.9546 -7.5595 -3.9889 57.9570
#
#
#
# Elastic Compliance Matrix: (Units=1/GPa)
#
#
# Indices 1 2 3 4 5 6 
#
# 1 0.013187 -0.002367 -0.002126 -0.001800 -0.000606 -0.003535
# 2 -0.002367 0.006733 -0.001590 0.000982 -0.000990 -0.003823
# 3 -0.002126 -0.001590 0.011865 0.001996 -0.002406 -0.000610
# 4 -0.001800 0.000982 0.001996 0.022129 0.001369 0.002498
# 5 -0.000606 -0.000990 -0.002406 0.001369 0.020728 0.003219
# 6 -0.003535 -0.003823 -0.000610 0.002498 0.003219 0.022452
#
#
# Mechanical properties :
#
#
# Convention : Reuss Voigt Hill
#
# Bulk Modulus (GPa) = 50.97316 73.24339 62.10828
# Shear Modulus (GPa) = 43.17849 49.99778 46.58814
#
# Velocity S-wave (km/s) = 3.86686 4.16103 4.01664
# Velocity P-wave (km/s) = 6.13097 6.96058 6.55890
#
# Compressibility (1/GPa) = 0.01961817
#
# Stress axis : x y z
#
# Youngs Moduli (GPa) = 75.83483 148.52759 84.28277
#
# Poissons Ratio (x) = 0.35164 0.17918
# Poissons Ratio (y) = 0.17954 0.13397
# Poissons Ratio (z) = 0.16122 0.23610
#
# Static dielectric constant tensor:
#      x y z
#    x 4.899820 -0.111020 -0.215380 
#    y -0.111020 5.828190 -0.193210 
#    z -0.215380 -0.193210 5.956590 
# 
# 
# High freq. dielectric constant tensor:
#      x y z
#    x 2.162000 0.001320 -0.020280 
#    y 0.001320 2.200510 -0.004900 
#    z -0.020280 -0.004900 2.203580 
# 
# From -- ./inp_files/144238.got.cif
#   From: 2010.06.25/outbox.cif.g09.slc.cpg/sg2_73_cif.got.tgz:144238.got - 2010.06.27 13:26:56.
