data_PCOD8035276
_publ_section_title
;
Structure prediction by ZEFSAII (Michael W. Deem and Ramdas Pophale) SiO2 
 PCOD8035276
Probable space group: P -1
;
_chemical_formula_sum "Si O2"
_cell_formula_units_Z 12
_cell_length_a 6.642243
_cell_length_b 13.864627
_cell_length_c 13.618767
_cell_angle_alpha 137.637184
_cell_angle_beta 54.189689
_cell_angle_gamma 138.484367
_cell_volume 558.725740
_symmetry_space_group_name_H-M "P -1"
_symmetry_group_IT_number 2
_symmetry_cell_setting 'triclinic'
loop_
_space_group_symop_operation_xyz
x,y,z
-x,-y,-z
loop_
_atom_site_type_symbol
_atom_site_label
_atom_site_fract_x
_atom_site_fract_y
_atom_site_fract_z
Si Si1 0.390693 0.386638 0.346662
Si Si2 0.298783 0.487016 0.244007
Si Si3 0.259593 0.790642 0.916811
Si Si4 0.175386 0.778939 0.507096
Si Si5 0.063281 0.358646 0.899182
Si Si6 0.155945 0.904099 0.407793
O O1 0.500000 0.500000 0.500000
O O2 0.429120 0.497151 0.322454
O O3 0.555317 0.293135 0.210644
O O4 0.031205 0.244115 0.359004
O O5 0.198455 0.617241 0.365623
O O6 0.575165 0.554134 0.139153
O O7 0.004765 0.291064 0.152911
O O8 0.078259 0.735333 0.028351
O O9 0.500000 0.000000 0.000000
O O10 0.020583 0.788444 0.458544
O O11 0.489496 0.958624 0.574244
O O12 0.884041 0.212385 0.758786
O O13 0.000000 0.500000 0.000000
O O14 0.000000 0.000000 0.500000
#
# Coordination Sequence:
#
# PCOD8035276 Si02
#       6
#     2   2   2   2   2   2
#     4  12  26  45  74 103 142 186 244 292 357 431
#     4  12  25  48  76 102 142 196 242 294 360 432
#     4  12  30  45  71 110 146 190 238 302 368 419
#     4  11  25  42  75 109 136 186 247 296 354 424
#     4  12  25  49  74 100 148 190 240 294 361 437
#     4  11  25  44  73 107 141 186 241 298 356 419
#
# _framework density 21.477442
#
# number of rings (size 3 to 8) (size 9 to 14) (size 15 to 20)
#    0.000    0.333    5.000    3.000    4.667    2.000 
#    0.000    0.000    0.000    0.000    0.000    0.000 
#    0.000    0.000    0.000    0.000    0.000    0.000 
#
# Total GULP energy -148810.941935 kJ/mol
# GULP energy per Si atom -12400.911828 kJ/mol
# Density = 2.142856 g / cm^3
# Si number density = 21.477442 Si / 1000 Ang^3
#
#
#
# Elastic Constant Matrix: (Units=GPa)
#
#
# Indices 1 2 3 4 5 6 
#
# 1 132.9807 61.1438 68.6200 1.6218 -4.1606 -7.4260
# 2 61.1438 129.8669 65.7392 -9.7419 -3.0503 -1.6748
# 3 68.6200 65.7392 143.4721 -0.4458 -3.4674 -3.9661
# 4 1.6218 -9.7419 -0.4458 49.5077 12.6769 -1.5941
# 5 -4.1606 -3.0503 -3.4674 12.6769 39.2576 1.8889
# 6 -7.4260 -1.6748 -3.9661 -1.5941 1.8889 46.9958
#
#
#
# Elastic Compliance Matrix: (Units=1/GPa)
#
#
# Indices 1 2 3 4 5 6 
#
# 1 0.011113 -0.003419 -0.003696 -0.001270 0.000936 0.001242
# 2 -0.003419 0.011268 -0.003543 0.002432 -0.000569 -0.000332
# 3 -0.003696 -0.003543 0.010373 -0.000590 0.000434 0.000128
# 4 -0.001270 0.002432 -0.000590 0.022624 -0.007347 0.000899
# 5 0.000936 -0.000569 0.000434 -0.007347 0.027997 -0.001210
# 6 0.001242 -0.000332 0.000128 0.000899 -0.001210 0.021553
#
#
# Mechanical properties :
#
#
# Convention : Reuss Voigt Hill
#
# Bulk Modulus (GPa) = 87.42025 88.59174 88.00599
# Shear Modulus (GPa) = 38.44491 41.20667 39.82579
#
# Velocity S-wave (km/s) = 4.23544 4.38494 4.31084
# Velocity P-wave (km/s) = 8.04427 8.18384 8.11435
#
# Compressibility (1/GPa) = 0.01143900
#
# Stress axis : x y z
#
# Youngs Moduli (GPa) = 89.98574 88.74465 96.40082
#
# Poissons Ratio (x) = 0.30339 0.35626
# Poissons Ratio (y) = 0.30763 0.34159
# Poissons Ratio (z) = 0.33256 0.31446
#
# Static dielectric constant tensor:
#      x y z
#    x 4.214890 0.205660 0.086240 
#    y 0.205660 4.354710 -0.283600 
#    z 0.086240 -0.283600 4.306580 
# 
# 
# High freq. dielectric constant tensor:
#      x y z
#    x 1.860600 0.010500 0.000760 
#    y 0.010500 1.858610 -0.007000 
#    z 0.000760 -0.007000 1.851860 
# 
# From -- ./inp_files/28966.got.cif
#   From: 2010.06.25/outbox.cif.g09.slc.cpg/sg2_15_cif.got.tgz:28966.got - 2010.06.27 13:26:56.
