data_PCOD8035187
_publ_section_title
;
Structure prediction by ZEFSAII (Michael W. Deem and Ramdas Pophale) SiO2 
 PCOD8035187
Probable space group: P -1
;
_chemical_formula_sum "Si O2"
_cell_formula_units_Z 16
_cell_length_a 6.434596
_cell_length_b 10.429183
_cell_length_c 15.493829
_cell_angle_alpha 126.629932
_cell_angle_beta 63.684882
_cell_angle_gamma 87.007934
_cell_volume 671.552795
_symmetry_space_group_name_H-M "P -1"
_symmetry_group_IT_number 2
_symmetry_cell_setting 'triclinic'
loop_
_space_group_symop_operation_xyz
x,y,z
-x,-y,-z
loop_
_atom_site_type_symbol
_atom_site_label
_atom_site_fract_x
_atom_site_fract_y
_atom_site_fract_z
Si Si1 0.731610 0.546043 0.948620
Si Si2 0.457957 0.531474 0.755752
Si Si3 0.961101 0.688677 0.484186
Si Si4 0.244347 0.336773 0.829381
Si Si5 0.000453 0.089838 0.279775
Si Si6 0.450675 0.837389 0.982727
Si Si7 0.758701 0.430115 0.371729
Si Si8 0.515048 0.037776 0.414149
O O1 0.820654 0.635805 0.046258
O O2 0.684376 0.674730 0.925655
O O3 0.500000 0.500000 0.000000
O O4 0.001692 0.363161 0.820363
O O5 0.365840 0.468862 0.832542
O O6 0.291306 0.524483 0.701631
O O7 0.746645 0.379372 0.626990
O O8 0.410505 0.734816 0.865567
O O9 0.894224 0.813180 0.631067
O O10 0.926629 0.508281 0.425623
O O11 0.751329 0.796887 0.494000
O O12 0.464809 0.136433 0.707425
O O13 0.901662 0.217264 0.266019
O O14 0.223778 0.909516 0.125851
O O15 0.768069 0.064110 0.355512
O O16 0.500000 0.000000 0.000000
O O17 0.500000 0.500000 0.500000
O O18 0.500000 0.000000 0.500000
#
# Coordination Sequence:
#
# PCOD8035187 Si02
#       8
#     2   2   2   2   2   2   2   2
#     4  11  24  49  73 102 150 203 246 302 382 458
#     4  12  28  47  75 113 147 202 254 313 381 463
#     4  12  25  48  75 104 149 195 252 309 387 451
#     4  11  26  45  76 104 145 200 253 307 378 453
#     4  12  27  48  75 109 152 199 249 320 388 450
#     4  12  29  48  77 117 156 200 256 318 387 461
#     4  12  25  46  75 106 147 197 251 306 384 460
#     4  12  27  44  72 114 146 190 258 320 373 451
#
# _framework density 23.825378000000001
#
# number of rings (size 3 to 8) (size 9 to 14) (size 15 to 20)
#    0.000    0.250    3.750    4.125    8.750    4.500 
#    0.000    0.000    0.000    0.000    0.000    0.000 
#    0.000    0.000    0.000    0.000    0.000    0.000 
#
# Total GULP energy -198238.313464 kJ/mol
# GULP energy per Si atom -12389.894591 kJ/mol
# Density = 2.377115 g / cm^3
# Si number density = 23.825378 Si / 1000 Ang^3
#
#
#
# Elastic Constant Matrix: (Units=GPa)
#
#
# Indices 1 2 3 4 5 6 
#
# 1 99.6742 27.0833 33.8139 -4.7787 5.7922 -0.2450
# 2 27.0833 105.9528 7.0243 1.5474 3.8420 5.6752
# 3 33.8139 7.0243 115.4365 5.6306 7.5177 -0.2307
# 4 -4.7787 1.5474 5.6306 37.7690 1.0879 5.1727
# 5 5.7922 3.8420 7.5177 1.0879 46.2095 -1.0585
# 6 -0.2450 5.6752 -0.2307 5.1727 -1.0585 33.9157
#
#
#
# Elastic Compliance Matrix: (Units=1/GPa)
#
#
# Indices 1 2 3 4 5 6 
#
# 1 0.012130 -0.002887 -0.003433 0.002160 -0.000768 0.000194
# 2 -0.002887 0.010276 0.000282 -0.000584 -0.000563 -0.001667
# 3 -0.003433 0.000282 0.009819 -0.001911 -0.001140 0.000251
# 4 0.002160 -0.000584 -0.001911 0.027644 -0.000657 -0.004136
# 5 -0.000768 -0.000563 -0.001140 -0.000657 0.022004 0.000868
# 6 0.000194 -0.001667 0.000251 -0.004136 0.000868 0.030425
#
#
# Mechanical properties :
#
#
# Convention : Reuss Voigt Hill
#
# Bulk Modulus (GPa) = 49.62751 50.76737 50.19744
# Shear Modulus (GPa) = 38.14161 40.45496 39.29828
#
# Velocity S-wave (km/s) = 4.00544 4.12512 4.06572
# Velocity P-wave (km/s) = 6.50126 6.63651 6.56923
#
# Compressibility (1/GPa) = 0.02015012
#
# Stress axis : x y z
#
# Youngs Moduli (GPa) = 82.43773 97.31698 101.84325
#
# Poissons Ratio (x) = 0.28098 0.34958
# Poissons Ratio (y) = 0.23802 -0.02875
# Poissons Ratio (z) = 0.28297 -0.02747
#
# Static dielectric constant tensor:
#      x y z
#    x 5.233210 -0.443520 -0.336910 
#    y -0.443520 4.361600 0.213890 
#    z -0.336910 0.213890 4.394180 
# 
# 
# High freq. dielectric constant tensor:
#      x y z
#    x 1.944110 -0.005140 -0.001180 
#    y -0.005140 1.950540 0.007000 
#    z -0.001180 0.007000 1.959570 
# 
# From -- ./inp_files/549536.got.cif
#   From: 2010.06.25/outbox.cif.g09.slc.cpg/sg2_275_cif.got.tgz:549536.got - 2010.06.27 13:26:56.
