data_PCOD8035278
_publ_section_title
;
Structure prediction by ZEFSAII (Michael W. Deem and Ramdas Pophale) SiO2 
 PCOD8035278
Probable space group: P -1
;
_chemical_formula_sum "Si O2"
_cell_formula_units_Z 14
_cell_length_a 11.444278
_cell_length_b 9.267093
_cell_length_c 9.546675
_cell_angle_alpha 148.406992
_cell_angle_beta 84.560122
_cell_angle_gamma 92.512544
_cell_volume 526.703933
_symmetry_space_group_name_H-M "P -1"
_symmetry_group_IT_number 2
_symmetry_cell_setting 'triclinic'
loop_
_space_group_symop_operation_xyz
x,y,z
-x,-y,-z
loop_
_atom_site_type_symbol
_atom_site_label
_atom_site_fract_x
_atom_site_fract_y
_atom_site_fract_z
Si Si1 0.867192 0.126462 0.070572
Si Si2 0.943080 0.533061 0.186878
Si Si3 0.280528 0.092694 0.548199
Si Si4 0.392781 0.831931 0.828483
Si Si5 0.876137 0.534751 0.663964
Si Si6 0.515694 0.665423 0.420300
Si Si7 0.679832 0.516422 0.878917
O O1 0.900348 0.240547 0.007688
O O2 0.733552 0.030848 0.998580
O O3 0.869479 0.368815 0.385177
O O4 0.935373 0.829470 0.863425
O O5 0.836188 0.765725 0.392368
O O6 0.040849 0.626254 0.363023
O O7 0.000000 0.500000 0.000000
O O8 0.396610 0.111443 0.456386
O O9 0.261987 0.770614 0.302086
O O10 0.306338 0.238242 0.812027
O O11 0.405624 0.809511 0.639355
O O12 0.404808 0.534878 0.654792
O O13 0.500000 0.000000 0.000000
O O14 0.747885 0.595983 0.796116
O O15 0.457191 0.510727 0.168459
#
# Coordination Sequence:
#
# PCOD8035278 Si02
#       7
#     2   2   2   2   2   2   2
#     4  12  27  53  77 114 152 199 255 312 379 449
#     4  12  28  52  79 113 154 200 257 315 375 446
#     4  12  28  47  73 109 151 198 246 310 382 442
#     4  11  25  42  77 106 147 197 245 310 376 451
#     4  12  27  51  81 109 151 204 254 311 376 445
#     4  11  25  45  68 109 146 194 246 308 376 449
#     4  12  26  47  76 107 150 199 245 307 382 451
#
# _framework density 26.580397000000001
#
# number of rings (size 3 to 8) (size 9 to 14) (size 15 to 20)
#    0.000    0.286    4.286    3.429    6.000    2.857 
#    0.000    0.000    0.000    0.000    0.000    0.000 
#    0.000    0.000    0.000    0.000    0.000    0.000 
#
# Total GULP energy -173644.028061 kJ/mol
# GULP energy per Si atom -12403.144862 kJ/mol
# Density = 2.651990 g / cm^3
# Si number density = 26.580397 Si / 1000 Ang^3
#
#
#
# Elastic Constant Matrix: (Units=GPa)
#
#
# Indices 1 2 3 4 5 6 
#
# 1 81.4457 34.5364 -11.5873 -17.1629 -0.7257 12.4255
# 2 34.5364 168.4864 26.5410 -4.2263 -10.4057 17.8807
# 3 -11.5873 26.5410 48.2278 -10.6715 10.4613 10.4134
# 4 -17.1629 -4.2263 -10.6715 37.4622 2.9418 2.8591
# 5 -0.7257 -10.4057 10.4613 2.9418 43.5533 -4.9619
# 6 12.4255 17.8807 10.4134 2.8591 -4.9619 51.2179
#
#
#
# Elastic Compliance Matrix: (Units=1/GPa)
#
#
# Indices 1 2 3 4 5 6 
#
# 1 0.020693 -0.005726 0.014105 0.013892 -0.006177 -0.007263
# 2 -0.005726 0.008455 -0.008071 -0.004357 0.004241 0.000732
# 3 0.014105 -0.008071 0.037719 0.018137 -0.013182 -0.010562
# 4 0.013892 -0.004357 0.018137 0.039076 -0.008782 -0.008569
# 5 -0.006177 0.004241 -0.013182 -0.008782 0.028306 0.005930
# 6 -0.007263 0.000732 -0.010562 -0.008569 0.005930 0.024231
#
#
# Mechanical properties :
#
#
# Convention : Reuss Voigt Hill
#
# Bulk Modulus (GPa) = 14.81860 44.12668 29.47264
# Shear Modulus (GPa) = 27.72253 43.02467 35.37360
#
# Velocity S-wave (km/s) = 3.23301 4.02762 3.65199
# Velocity P-wave (km/s) = 4.41855 6.18597 5.37540
#
# Compressibility (1/GPa) = 0.06748274
#
# Stress axis : x y z
#
# Youngs Moduli (GPa) = 48.32515 118.27054 26.51204
#
# Poissons Ratio (x) = 0.67719 -0.37395
# Poissons Ratio (y) = 0.27670 0.21398
# Poissons Ratio (z) = -0.68161 0.95457
#
# Static dielectric constant tensor:
#      x y z
#    x 5.486230 -0.050830 -0.176310 
#    y -0.050830 5.463270 0.062970 
#    z -0.176310 0.062970 4.646460 
# 
# 
# High freq. dielectric constant tensor:
#      x y z
#    x 2.099010 0.007040 0.003200 
#    y 0.007040 2.086580 -0.001160 
#    z 0.003200 -0.001160 2.047290 
# 
# From -- ./inp_files/131751.got.cif
#   From: 2010.06.25/outbox.cif.g09.slc.cpg/sg2_66_cif.got.tgz:131751.got - 2010.06.27 13:26:56.
