data_PCOD8035416
_publ_section_title
;
Structure prediction by ZEFSAII (Michael W. Deem and Ramdas Pophale) SiO2 
 PCOD8035416
Probable space group: P -1
;
_chemical_formula_sum "Si O2"
_cell_formula_units_Z 14
_cell_length_a 8.455255
_cell_length_b 20.215076
_cell_length_c 11.572954
_cell_angle_alpha 29.868041
_cell_angle_beta 37.995043
_cell_angle_gamma 42.847902
_cell_volume 598.373879
_symmetry_space_group_name_H-M "P -1"
_symmetry_group_IT_number 2
_symmetry_cell_setting 'triclinic'
loop_
_space_group_symop_operation_xyz
x,y,z
-x,-y,-z
loop_
_atom_site_type_symbol
_atom_site_label
_atom_site_fract_x
_atom_site_fract_y
_atom_site_fract_z
Si Si1 0.221636 0.493848 0.720390
Si Si2 0.187456 0.754882 0.476956
Si Si3 0.342469 0.359973 0.468067
Si Si4 0.489805 0.796920 0.602075
Si Si5 0.302796 0.938364 0.938895
Si Si6 0.922840 0.371636 0.875873
Si Si7 0.646820 0.763324 0.823617
O O1 0.500000 0.500000 0.500000
O O2 0.104734 0.641578 0.610407
O O3 0.037127 0.446199 0.802399
O O4 0.264129 0.390219 0.958156
O O5 0.368740 0.685668 0.579577
O O6 0.911980 0.831285 0.571945
O O7 0.329850 0.858211 0.165552
O O8 0.308765 0.287852 0.474735
O O9 0.291443 0.520374 0.231818
O O10 0.143660 0.314352 0.743790
O O11 0.551478 0.763850 0.748114
O O12 0.505310 0.951636 0.330941
O O13 0.205820 0.753025 0.812533
O O14 0.414103 0.839285 0.921062
O O15 0.000000 0.000000 0.000000
#
# Coordination Sequence:
#
# PCOD8035416 Si02
#       7
#     2   2   2   2   2   2   2
#     4  12  23  47  79 110 145 190 245 306 362 427
#     4  12  25  48  77 109 146 194 249 299 360 436
#     4  11  25  45  71 110 147 192 236 306 370 422
#     4  12  27  44  72 106 148 189 242 295 360 437
#     4  12  28  49  75 107 144 198 253 296 356 434
#     4  11  25  44  73 108 151 186 240 302 373 421
#     4  12  26  46  78 108 142 192 249 303 362 432
#
# _framework density 23.396744000000002
#
# number of rings (size 3 to 8) (size 9 to 14) (size 15 to 20)
#    0.000    0.286    4.286    3.857    4.000    0.571 
#    0.000    5.000    0.000    0.000    0.000    0.000 
#    0.000    0.000    0.000    0.000    0.000    0.000 
#
# Total GULP energy -173573.287190 kJ/mol
# GULP energy per Si atom -12398.091942 kJ/mol
# Density = 2.334349 g / cm^3
# Si number density = 23.396744 Si / 1000 Ang^3
#
#
#
# Elastic Constant Matrix: (Units=GPa)
#
#
# Indices 1 2 3 4 5 6 
#
# 1 111.6579 21.8688 40.6894 8.3802 -1.1161 -10.1580
# 2 21.8688 82.0021 16.0474 16.7126 6.1858 -8.0152
# 3 40.6894 16.0474 161.3033 0.3443 -2.5898 3.9692
# 4 8.3802 16.7126 0.3443 32.5133 5.9403 -0.7689
# 5 -1.1161 6.1858 -2.5898 5.9403 34.8572 7.4332
# 6 -10.1580 -8.0152 3.9692 -0.7689 7.4332 23.1752
#
#
#
# Elastic Compliance Matrix: (Units=1/GPa)
#
#
# Indices 1 2 3 4 5 6 
#
# 1 0.010791 -0.001500 -0.002689 -0.001819 -0.000281 0.004701
# 2 -0.001500 0.014937 -0.001272 -0.006636 -0.002816 0.005409
# 3 -0.002689 -0.001272 0.007099 0.000981 0.001178 -0.003180
# 4 -0.001819 -0.006636 0.000981 0.035477 -0.004733 -0.000565
# 5 -0.000281 -0.002816 0.001178 -0.004733 0.032615 -0.011917
# 6 0.004701 0.005409 -0.003180 -0.000565 -0.011917 0.051429
#
#
# Mechanical properties :
#
#
# Convention : Reuss Voigt Hill
#
# Bulk Modulus (GPa) = 45.65017 56.90828 51.27922
# Shear Modulus (GPa) = 29.31297 36.53300 32.92299
#
# Velocity S-wave (km/s) = 3.54342 3.95581 3.75528
# Velocity P-wave (km/s) = 6.02452 6.72611 6.38496
#
# Compressibility (1/GPa) = 0.02190572
#
# Stress axis : x y z
#
# Youngs Moduli (GPa) = 92.66869 66.94650 140.85613
#
# Poissons Ratio (x) = 0.10043 0.37879
# Poissons Ratio (y) = 0.13901 0.17914
# Poissons Ratio (z) = 0.24920 0.08514
#
# Static dielectric constant tensor:
#      x y z
#    x 4.063210 -0.006770 0.026090 
#    y -0.006770 4.317120 0.181530 
#    z 0.026090 0.181530 4.588330 
# 
# 
# High freq. dielectric constant tensor:
#      x y z
#    x 1.921520 0.003190 0.009730 
#    y 0.003190 1.925670 0.024680 
#    z 0.009730 0.024680 1.940710 
# 
# From -- ./inp_files/405218.got.cif
#   From: 2010.06.25/outbox.cif.g09.slc.cpg/sg2_203_cif.got.tgz:405218.got - 2010.06.27 13:26:56.
