data_PCOD8035205
_publ_section_title
;
Structure prediction by ZEFSAII (Michael W. Deem and Ramdas Pophale) SiO2 
 PCOD8035205
Probable space group: P -1
;
_chemical_formula_sum "Si O2"
_cell_formula_units_Z 14
_cell_length_a 19.232932
_cell_length_b 5.350769
_cell_length_c 19.849171
_cell_angle_alpha 58.560242
_cell_angle_beta 21.312265
_cell_angle_gamma 67.331567
_cell_volume 599.211112
_symmetry_space_group_name_H-M "P -1"
_symmetry_group_IT_number 2
_symmetry_cell_setting 'triclinic'
loop_
_space_group_symop_operation_xyz
x,y,z
-x,-y,-z
loop_
_atom_site_type_symbol
_atom_site_label
_atom_site_fract_x
_atom_site_fract_y
_atom_site_fract_z
Si Si1 0.037005 0.070650 0.185260
Si Si2 0.989070 0.745623 0.601166
Si Si3 0.318808 0.613328 0.166666
Si Si4 0.979137 0.244742 0.898494
Si Si5 0.308983 0.191899 0.037475
Si Si6 0.640336 0.824935 0.359703
Si Si7 0.271222 0.414285 0.383925
O O1 0.247245 0.089050 0.030885
O O2 0.022482 0.408040 0.137213
O O3 0.038375 0.871128 0.146019
O O4 0.845329 0.901289 0.429478
O O5 0.844360 0.436731 0.739145
O O6 0.896517 0.781154 0.750923
O O7 0.201249 0.699273 0.435338
O O8 0.000000 0.000000 0.500000
O O9 0.219290 0.419577 0.350115
O O10 0.390919 0.988483 0.046588
O O11 0.500000 0.500000 0.000000
O O12 0.195889 0.231422 0.729241
O O13 0.778148 0.033555 0.147547
O O14 0.492006 0.515173 0.825586
O O15 0.500000 0.500000 0.500000
O O16 0.500000 0.000000 0.500000
#
# Coordination Sequence:
#
# PCOD8035205 Si02
#       7
#     2   2   2   2   2   2   2
#     4  12  27  47  72 106 156 201 231 298 374 440
#     4  12  22  41  66  89 128 175 247 324 383 428
#     4  12  23  41  65  92 126 178 258 325 365 417
#     4  11  27  50  75 117 158 185 239 292 345 440
#     4  12  26  45  64  96 136 188 252 309 372 431
#     4  11  24  49  88 120 147 193 238 283 346 424
#     4  12  25  45  66  98 133 195 250 312 380 434
#
# _framework density 23.364052000000001
#
# number of rings (size 3 to 8) (size 9 to 14) (size 15 to 20)
#    0.000    0.286    4.286    5.143    0.000    6.857 
#    0.000    2.857    0.000    0.000    0.000    0.000 
#    0.000    0.000    0.000    0.000    0.000    0.000 
#
# Total GULP energy -173440.036142 kJ/mol
# GULP energy per Si atom -12388.574010 kJ/mol
# Density = 2.331087 g / cm^3
# Si number density = 23.364052 Si / 1000 Ang^3
#
#
#
# Elastic Constant Matrix: (Units=GPa)
#
#
# Indices 1 2 3 4 5 6 
#
# 1 114.1566 11.3337 30.4338 0.4294 1.7174 7.0779
# 2 11.3337 111.9009 39.3638 7.1796 11.5282 -3.4436
# 3 30.4338 39.3638 122.8778 -4.6644 5.7935 -2.8264
# 4 0.4294 7.1796 -4.6644 47.9886 -1.4777 4.9062
# 5 1.7174 11.5282 5.7935 -1.4777 29.3571 0.3328
# 6 7.0779 -3.4436 -2.8264 4.9062 0.3328 38.7397
#
#
#
# Elastic Compliance Matrix: (Units=1/GPa)
#
#
# Indices 1 2 3 4 5 6 
#
# 1 0.009523 -0.000193 -0.002344 -0.000088 -0.000001 -0.001917
# 2 -0.000193 0.010642 -0.003246 -0.002125 -0.003646 0.001045
# 3 -0.002344 -0.003246 0.009849 0.001379 -0.000470 0.000688
# 4 -0.000088 -0.002125 0.001379 0.021632 0.001688 -0.002826
# 5 -0.000001 -0.003646 -0.000470 0.001688 0.035683 -0.000879
# 6 -0.001917 0.001045 0.000688 -0.002826 -0.000879 0.026672
#
#
# Mechanical properties :
#
#
# Convention : Reuss Voigt Hill
#
# Bulk Modulus (GPa) = 54.20789 56.79977 55.50383
# Shear Modulus (GPa) = 37.96019 41.07069 39.51544
#
# Velocity S-wave (km/s) = 4.03516 4.19723 4.11699
# Velocity P-wave (km/s) = 6.70536 6.91755 6.81228
#
# Compressibility (1/GPa) = 0.01844750
#
# Stress axis : x y z
#
# Youngs Moduli (GPa) = 105.00643 93.96709 101.53338
#
# Poissons Ratio (x) = 0.01815 0.23801
# Poissons Ratio (y) = 0.02028 0.32958
# Poissons Ratio (z) = 0.24615 0.30502
#
# Static dielectric constant tensor:
#      x y z
#    x 7.742470 2.009800 -2.658120 
#    y 2.009800 5.125320 -1.505130 
#    z -2.658120 -1.505130 6.662220 
# 
# 
# High freq. dielectric constant tensor:
#      x y z
#    x 1.925850 0.007200 -0.007220 
#    y 0.007200 1.929870 -0.001340 
#    z -0.007220 -0.001340 1.942280 
# 
# From -- ./inp_files/600452.got.cif
#   From: 2010.06.25/outbox.cif.g09.slc.cpg/sg2_301_cif.got.tgz:600452.got - 2010.06.27 13:26:56.
