data_PCOD8035149
_publ_section_title
;
Structure prediction by ZEFSAII (Michael W. Deem and Ramdas Pophale) SiO2 
 PCOD8035149
Probable space group: P -1
;
_chemical_formula_sum "Si O2"
_cell_formula_units_Z 16
_cell_length_a 24.153912
_cell_length_b 9.138222
_cell_length_c 9.410227
_cell_angle_alpha 137.155043
_cell_angle_beta 36.659090
_cell_angle_gamma 142.371138
_cell_volume 729.347251
_symmetry_space_group_name_H-M "P -1"
_symmetry_group_IT_number 2
_symmetry_cell_setting 'triclinic'
loop_
_space_group_symop_operation_xyz
x,y,z
-x,-y,-z
loop_
_atom_site_type_symbol
_atom_site_label
_atom_site_fract_x
_atom_site_fract_y
_atom_site_fract_z
Si Si1 0.971783 0.761984 0.482074
Si Si2 0.192204 0.778362 0.658635
Si Si3 0.287894 0.610622 0.869936
Si Si4 0.802867 0.132355 0.958769
Si Si5 0.546142 0.290333 0.614349
Si Si6 0.374643 0.804986 0.132519
Si Si7 0.907576 0.895351 0.001188
Si Si8 0.359416 0.414800 0.096582
O O1 0.870199 0.515680 0.454690
O O2 0.946545 0.804113 0.722568
O O3 0.074134 0.723618 0.242366
O O4 0.000000 0.000000 0.500000
O O5 0.309408 0.904524 0.432103
O O6 0.209475 0.810516 0.813139
O O7 0.123311 0.898869 0.831297
O O8 0.383626 0.588081 0.584335
O O9 0.261059 0.777813 0.942772
O O10 0.323667 0.752833 0.045470
O O11 0.192203 0.334169 0.884458
O O12 0.754484 0.836253 0.829013
O O13 0.619090 0.404848 0.685893
O O14 0.500000 0.000000 0.500000
O O15 0.450717 0.345386 0.845356
O O16 0.357568 0.549654 0.052385
O O17 0.500000 0.000000 0.000000
O O18 0.000000 0.000000 0.000000
#
# Coordination Sequence:
#
# PCOD8035149 Si02
#       8
#     2   2   2   2   2   2   2   2
#     4  12  26  50  77 108 145 193 253 296 371 448
#     4  12  27  52  72 108 151 195 249 300 369 447
#     4  12  27  46  72 113 146 192 246 305 377 431
#     4  12  26  45  82 102 144 198 245 308 362 441
#     4  11  24  48  75 104 144 190 250 297 359 438
#     4  12  28  46  73 107 152 196 239 306 373 434
#     4  12  29  48  76 113 151 191 240 313 378 438
#     4  11  26  47  73 106 142 193 249 299 357 445
#
# _framework density 21.937425000000001
#
# number of rings (size 3 to 8) (size 9 to 14) (size 15 to 20)
#    0.000    0.250    3.750    4.125   10.500    1.500 
#    0.000    0.000    0.000    0.000    0.000    0.000 
#    0.000    0.000    0.000    0.000    0.000    0.000 
#
# Total GULP energy -198508.448012 kJ/mol
# GULP energy per Si atom -12406.778001 kJ/mol
# Density = 2.188749 g / cm^3
# Si number density = 21.937425 Si / 1000 Ang^3
#
#
#
# Elastic Constant Matrix: (Units=GPa)
#
#
# Indices 1 2 3 4 5 6 
#
# 1 139.4789 45.2623 46.8322 11.7673 19.5156 -6.7230
# 2 45.2623 134.0292 45.8898 -3.2021 18.9794 7.8949
# 3 46.8322 45.8898 143.1136 -10.5058 20.4150 6.4623
# 4 11.7673 -3.2021 -10.5058 44.8577 4.2692 -2.2132
# 5 19.5156 18.9794 20.4150 4.2692 38.0910 1.6570
# 6 -6.7230 7.8949 6.4623 -2.2132 1.6570 43.7454
#
#
#
# Elastic Compliance Matrix: (Units=1/GPa)
#
#
# Indices 1 2 3 4 5 6 
#
# 1 0.009324 -0.002235 -0.002326 -0.002837 -0.002191 0.002119
# 2 -0.002235 0.009296 -0.001731 0.001012 -0.002603 -0.001616
# 3 -0.002326 -0.001731 0.008994 0.002827 -0.003035 -0.001116
# 4 -0.002837 0.001012 0.002827 0.024099 -0.003280 0.000307
# 5 -0.002191 -0.002603 -0.003035 -0.003280 0.030699 -0.000748
# 6 0.002119 -0.001616 -0.001116 0.000307 -0.000748 0.023686
#
#
# Mechanical properties :
#
#
# Convention : Reuss Voigt Hill
#
# Bulk Modulus (GPa) = 66.52848 76.95445 71.74147
# Shear Modulus (GPa) = 40.42319 43.91462 42.16890
#
# Velocity S-wave (km/s) = 4.29728 4.47902 4.38909
# Velocity P-wave (km/s) = 7.41717 7.86791 7.64586
#
# Compressibility (1/GPa) = 0.01503116
#
# Stress axis : x y z
#
# Youngs Moduli (GPa) = 107.25299 107.56960 111.17938
#
# Poissons Ratio (x) = 0.24038 0.25860
# Poissons Ratio (y) = 0.23967 0.19246
# Poissons Ratio (z) = 0.24946 0.18622
#
# Static dielectric constant tensor:
#      x y z
#    x 4.108680 -0.008990 -0.104650 
#    y -0.008990 3.523700 -0.490910 
#    z -0.104650 -0.490910 3.248710 
# 
# 
# High freq. dielectric constant tensor:
#      x y z
#    x 1.877380 0.004850 -0.002380 
#    y 0.004850 1.876070 -0.007700 
#    z -0.002380 -0.007700 1.879570 
# 
# From -- ./inp_files/188222.got.cif
#   From: 2010.06.25/outbox.cif.g09.slc.cpg/sg2_95_cif.got.tgz:188222.got - 2010.06.27 13:26:56.
