data_PCOD8035947
_publ_section_title
;
Structure prediction by ZEFSAII (Michael W. Deem and Ramdas Pophale) SiO2 
 PCOD8035947
Probable space group: P -1
;
_chemical_formula_sum "Si O2"
_cell_formula_units_Z 12
_cell_length_a 14.901110
_cell_length_b 14.407002
_cell_length_c 9.262907
_cell_angle_alpha 141.446986
_cell_angle_beta 152.609886
_cell_angle_gamma 29.752002
_cell_volume 453.437996
_symmetry_space_group_name_H-M "P -1"
_symmetry_group_IT_number 2
_symmetry_cell_setting 'triclinic'
loop_
_space_group_symop_operation_xyz
x,y,z
-x,-y,-z
loop_
_atom_site_type_symbol
_atom_site_label
_atom_site_fract_x
_atom_site_fract_y
_atom_site_fract_z
Si Si1 0.601099 0.118143 0.270982
Si Si2 0.239025 0.837248 0.723755
Si Si3 0.947624 0.534221 0.638547
Si Si4 0.375363 0.848651 0.240284
Si Si5 0.201914 0.512665 0.236260
Si Si6 0.954754 0.840173 0.646437
O O1 0.560103 0.201849 0.153884
O O2 0.453106 0.308258 0.384496
O O3 0.879220 0.972182 0.554466
O O4 0.500000 0.000000 0.000000
O O5 0.234424 0.661265 0.531624
O O6 0.307223 0.898461 0.036487
O O7 0.000000 0.000000 0.500000
O O8 0.667575 0.699328 0.483733
O O9 0.000000 0.500000 0.500000
O O10 0.014542 0.344836 0.574160
O O11 0.125421 0.565577 0.019268
O O12 0.265019 0.041433 0.404606
O O13 0.220147 0.780517 0.003045
O O14 0.000000 0.500000 0.000000
#
# Coordination Sequence:
#
# PCOD8035947 Si02
#       6
#     2   2   2   2   2   2
#     4  12  24  48  76 108 148 193 256 311 371 446
#     4  12  26  47  74 109 147 193 252 306 375 446
#     4  12  27  47  73 110 153 194 251 309 381 451
#     4  11  26  47  75 105 150 197 247 311 375 451
#     4  12  26  47  76 109 148 197 248 311 373 449
#     4  11  25  48  75 108 149 200 252 308 382 447
#
# _framework density 26.464478
#
# number of rings (size 3 to 8) (size 9 to 14) (size 15 to 20)
#    0.000    0.333    3.333    5.000    2.333    3.333 
#    0.000    0.000    0.000    0.000    0.000    0.000 
#    0.000    0.000    0.000    0.000    0.000    0.000 
#
# Total GULP energy -148667.711252 kJ/mol
# GULP energy per Si atom -12388.975938 kJ/mol
# Density = 2.640424 g / cm^3
# Si number density = 26.464478 Si / 1000 Ang^3
#
#
#
# Elastic Constant Matrix: (Units=GPa)
#
#
# Indices 1 2 3 4 5 6 
#
# 1 117.3712 10.4502 -7.7555 6.6306 -2.7759 8.2043
# 2 10.4502 142.9506 13.3498 -15.3882 12.4072 -3.6550
# 3 -7.7555 13.3498 61.1681 -9.5579 -9.3499 3.5235
# 4 6.6306 -15.3882 -9.5579 41.7447 -1.2473 7.4714
# 5 -2.7759 12.4072 -9.3499 -1.2473 48.1304 -1.9657
# 6 8.2043 -3.6550 3.5235 7.4714 -1.9657 42.8374
#
#
#
# Elastic Compliance Matrix: (Units=1/GPa)
#
#
# Indices 1 2 3 4 5 6 
#
# 1 0.008910 -0.001033 0.001419 -0.001144 0.000958 -0.001668
# 2 -0.001033 0.007716 -0.001816 0.002439 -0.002319 0.000474
# 3 0.001419 -0.001816 0.018292 0.003848 0.004105 -0.002414
# 4 -0.001144 0.002439 0.003848 0.026744 0.000561 -0.004528
# 5 0.000958 -0.002319 0.004105 0.000561 0.022250 0.000204
# 6 -0.001668 0.000474 -0.002414 -0.004528 0.000204 0.024702
#
#
# Mechanical properties :
#
#
# Convention : Reuss Voigt Hill
#
# Bulk Modulus (GPa) = 31.19260 39.28655 35.23957
# Shear Modulus (GPa) = 40.93004 46.90554 43.91779
#
# Velocity S-wave (km/s) = 3.93695 4.21455 4.07812
# Velocity P-wave (km/s) = 5.69898 6.20971 5.95982
#
# Compressibility (1/GPa) = 0.03205889
#
# Stress axis : x y z
#
# Youngs Moduli (GPa) = 112.23939 129.59440 54.66778
#
# Poissons Ratio (x) = 0.13384 -0.07756
# Poissons Ratio (y) = 0.11591 0.09926
# Poissons Ratio (z) = -0.15924 0.23531
#
# Static dielectric constant tensor:
#      x y z
#    x 6.555780 0.052720 -0.620290 
#    y 0.052720 4.935390 -0.311750 
#    z -0.620290 -0.311750 4.968520 
# 
# 
# High freq. dielectric constant tensor:
#      x y z
#    x 2.080180 -0.021900 -0.010620 
#    y -0.021900 2.068440 -0.011850 
#    z -0.010620 -0.011850 2.062360 
# 
# From -- ./inp_files/199101.got.cif
#   From: 2010.06.25/outbox.cif.g09.slc.cpg/sg2_100_cif.got.tgz:199101.got - 2010.06.27 13:26:56.
