data_PCOD8035693
_publ_section_title
;
Structure prediction by ZEFSAII (Michael W. Deem and Ramdas Pophale) SiO2 
 PCOD8035693
Probable space group: P -1
;
_chemical_formula_sum "Si O2"
_cell_formula_units_Z 14
_cell_length_a 5.866812
_cell_length_b 11.219739
_cell_length_c 11.488620
_cell_angle_alpha 55.420585
_cell_angle_beta 77.806403
_cell_angle_gamma 65.574655
_cell_volume 566.630027
_symmetry_space_group_name_H-M "P -1"
_symmetry_group_IT_number 2
_symmetry_cell_setting 'triclinic'
loop_
_space_group_symop_operation_xyz
x,y,z
-x,-y,-z
loop_
_atom_site_type_symbol
_atom_site_label
_atom_site_fract_x
_atom_site_fract_y
_atom_site_fract_z
Si Si1 0.065683 0.450616 0.151510
Si Si2 0.349386 0.001766 0.130074
Si Si3 0.456530 0.799721 0.840691
Si Si4 0.712006 0.302749 0.681684
Si Si5 0.712905 0.081019 0.437236
Si Si6 0.694020 0.373099 0.391182
Si Si7 0.905432 0.248001 0.929803
O O1 0.349941 0.333350 0.186707
O O2 0.012857 0.606410 0.143366
O O3 0.899910 0.365117 0.277051
O O4 0.000000 0.500000 0.000000
O O5 0.414651 0.086020 0.186057
O O6 0.411803 0.824560 0.261648
O O7 0.066427 0.094648 0.068100
O O8 0.500000 0.000000 0.000000
O O9 0.241866 0.889077 0.720556
O O10 0.368394 0.719335 0.002598
O O11 0.815559 0.340527 0.526974
O O12 0.526602 0.459314 0.675579
O O13 0.920092 0.221044 0.803522
O O14 0.589884 0.239444 0.438397
O O15 0.500000 0.000000 0.500000
O O16 0.000000 0.000000 0.500000
#
# Coordination Sequence:
#
# PCOD8035693 Si02
#       7
#     2   2   2   2   2   2   2
#     4  12  23  46  77 113 155 201 262 324 392 470
#     4  12  25  46  72 111 151 197 259 315 392 465
#     4  12  26  45  76 111 149 197 261 325 395 461
#     4  11  25  46  72 110 154 202 255 316 387 475
#     4  12  28  49  79 112 158 205 259 325 399 470
#     4  11  26  48  76 109 160 200 254 320 396 468
#     4  12  25  44  78 109 147 200 262 324 388 461
#
# _framework density 24.707477999999998
#
# number of rings (size 3 to 8) (size 9 to 14) (size 15 to 20)
#    0.000    0.286    2.857    6.000    4.000    0.571 
#    0.000    2.857    0.000    0.000    0.000    0.000 
#    0.000    0.000    0.000    0.000    0.000    0.000 
#
# Total GULP energy -173481.856839 kJ/mol
# GULP energy per Si atom -12391.561203 kJ/mol
# Density = 2.465124 g / cm^3
# Si number density = 24.707478 Si / 1000 Ang^3
#
#
#
# Elastic Constant Matrix: (Units=GPa)
#
#
# Indices 1 2 3 4 5 6 
#
# 1 104.1853 36.7709 52.2070 0.5312 7.9086 11.1194
# 2 36.7709 127.1241 47.2731 -17.5857 -0.2961 14.1082
# 3 52.2070 47.2731 160.7886 23.1987 13.8755 10.7608
# 4 0.5312 -17.5857 23.1987 54.0249 8.1813 -3.3032
# 5 7.9086 -0.2961 13.8755 8.1813 50.2893 6.3411
# 6 11.1194 14.1082 10.7608 -3.3032 6.3411 35.5766
#
#
#
# Elastic Compliance Matrix: (Units=1/GPa)
#
#
# Indices 1 2 3 4 5 6 
#
# 1 0.012207 -0.002031 -0.003261 0.000647 -0.000910 -0.001801
# 2 -0.002031 0.010425 -0.002954 0.004422 0.000770 -0.002332
# 3 -0.003261 -0.002954 0.008966 -0.004655 -0.001126 -0.000753
# 4 0.000647 0.004422 -0.004655 0.022475 -0.002702 0.002020
# 5 -0.000910 0.000770 -0.001126 -0.002702 0.021252 -0.003719
# 6 -0.001801 -0.002332 -0.000753 0.002020 -0.003719 0.030674
#
#
# Mechanical properties :
#
#
# Convention : Reuss Voigt Hill
#
# Bulk Modulus (GPa) = 66.19818 73.84446 70.02132
# Shear Modulus (GPa) = 39.20786 45.03462 42.12124
#
# Velocity S-wave (km/s) = 3.98789 4.27395 4.13340
# Velocity P-wave (km/s) = 6.93219 7.36939 7.15413
#
# Compressibility (1/GPa) = 0.01510616
#
# Stress axis : x y z
#
# Youngs Moduli (GPa) = 81.91971 95.92569 111.53639
#
# Poissons Ratio (x) = 0.19484 0.36367
# Poissons Ratio (y) = 0.16639 0.32947
# Poissons Ratio (z) = 0.26711 0.28336
#
# Static dielectric constant tensor:
#      x y z
#    x -6.590310 5.184750 -1.066860 
#    y 5.184750 5.910130 -0.868560 
#    z -1.066860 -0.868560 5.138160 
# 
# 
# High freq. dielectric constant tensor:
#      x y z
#    x 1.960440 0.014580 0.008530 
#    y 0.014580 2.002340 0.001730 
#    z 0.008530 0.001730 2.006590 
# 
# From -- ./inp_files/362705.got.cif
#   From: 2010.06.25/outbox.cif.g09.slc.cpg/sg2_182_cif.got.tgz:362705.got - 2010.06.27 13:26:56.
