data_PCOD8035350
_publ_section_title
;
Structure prediction by ZEFSAII (Michael W. Deem and Ramdas Pophale) SiO2 
 PCOD8035350
Probable space group: P -1
;
_chemical_formula_sum "Si O2"
_cell_formula_units_Z 14
_cell_length_a 8.516383
_cell_length_b 9.417073
_cell_length_c 12.935269
_cell_angle_alpha 128.388181
_cell_angle_beta 120.734533
_cell_angle_gamma 78.586961
_cell_volume 687.848813
_symmetry_space_group_name_H-M "P -1"
_symmetry_group_IT_number 2
_symmetry_cell_setting 'triclinic'
loop_
_space_group_symop_operation_xyz
x,y,z
-x,-y,-z
loop_
_atom_site_type_symbol
_atom_site_label
_atom_site_fract_x
_atom_site_fract_y
_atom_site_fract_z
Si Si1 0.524714 0.292566 0.893622
Si Si2 0.170638 0.973854 0.616876
Si Si3 0.155923 0.673696 0.148644
Si Si4 0.359956 0.978040 0.038809
Si Si5 0.016154 0.977077 0.788260
Si Si6 0.684332 0.734808 0.673302
Si Si7 0.301952 0.638394 0.408329
O O1 0.330498 0.155760 0.741975
O O2 0.663411 0.303326 0.850241
O O3 0.620746 0.215490 0.989812
O O4 0.500000 0.500000 0.000000
O O5 0.111727 0.929613 0.694372
O O6 0.237504 0.786590 0.527486
O O7 0.000000 0.000000 0.500000
O O8 0.237674 0.681109 0.293177
O O9 0.036410 0.826983 0.155840
O O10 0.000000 0.500000 0.000000
O O11 0.395095 0.140134 0.209907
O O12 0.152799 0.974003 0.928969
O O13 0.500000 0.000000 0.000000
O O14 0.831996 0.838972 0.691118
O O15 0.522600 0.655178 0.502401
O O16 0.777538 0.573535 0.684033
#
# Coordination Sequence:
#
# PCOD8035350 Si02
#       7
#     2   2   2   2   2   2   2
#     4  12  28  47  70 106 139 183 233 287 353 414
#     4  12  25  46  70 102 145 180 230 289 348 416
#     4  12  26  44  72 102 138 184 238 286 345 417
#     4  12  24  45  70  97 141 175 229 287 346 409
#     4  12  24  43  72  98 135 183 231 284 351 403
#     4  11  25  44  69 102 133 184 231 288 345 413
#     4  11  25  45  69  97 142 180 231 287 350 411
#
# _framework density 20.353308999999999
#
# number of rings (size 3 to 8) (size 9 to 14) (size 15 to 20)
#    0.000    0.286    5.714    2.143    6.000    1.714 
#    0.000    0.000    0.000    0.000    0.000    0.000 
#    0.000    0.000    0.000    0.000    0.000    0.000 
#
# Total GULP energy -173559.847611 kJ/mol
# GULP energy per Si atom -12397.131972 kJ/mol
# Density = 2.030698 g / cm^3
# Si number density = 20.353309 Si / 1000 Ang^3
#
#
#
# Elastic Constant Matrix: (Units=GPa)
#
#
# Indices 1 2 3 4 5 6 
#
# 1 126.4639 68.1090 56.5975 -8.0298 -17.1705 26.3167
# 2 68.1090 154.6914 75.7640 56.0484 22.7786 -38.7610
# 3 56.5975 75.7640 109.9731 -13.8290 -7.8088 7.7942
# 4 -8.0298 56.0484 -13.8290 -26.7301 -52.6934 42.1192
# 5 -17.1705 22.7786 -7.8088 -52.6934 15.5763 19.7610
# 6 26.3167 -38.7610 7.7942 42.1192 19.7610 25.4312
#
#
#
# Elastic Compliance Matrix: (Units=1/GPa)
#
#
# Indices 1 2 3 4 5 6 
#
# 1 0.011003 -0.001028 -0.005425 -0.004605 -0.001196 -0.002734
# 2 -0.001028 0.005821 -0.002576 0.004488 0.004553 -0.000244
# 3 -0.005425 -0.002576 0.013128 -0.001345 -0.002939 0.002174
# 4 -0.004605 0.004488 -0.001345 0.005005 -0.007839 0.009820
# 5 -0.001196 0.004553 -0.002939 -0.007839 0.016907 0.008925
# 6 -0.002734 -0.000244 0.002174 0.009820 0.008925 0.017915
#
#
# Mechanical properties :
#
#
# Convention : Reuss Voigt Hill
#
# Bulk Modulus (GPa) = 84.07620 88.00771 86.04195
# Shear Modulus (GPa) = 54.46484 15.56599 35.01542
#
# Velocity S-wave (km/s) = 5.17859 2.76848 4.15225
# Velocity P-wave (km/s) = 8.78380 7.31801 8.08419
#
# Compressibility (1/GPa) = 0.01189397
#
# Stress axis : x y z
#
# Youngs Moduli (GPa) = 90.88409 171.77994 76.17312
#
# Poissons Ratio (x) = 0.17662 0.41321
# Poissons Ratio (y) = 0.09344 0.19626
# Poissons Ratio (z) = 0.49301 0.44259
#
# Static dielectric constant tensor:
#      x y z
#    x 3.607860 0.531580 -0.812620 
#    y 0.531580 2.627590 1.911730 
#    z -0.812620 1.911730 1.342910 
# 
# 
# High freq. dielectric constant tensor:
#      x y z
#    x 1.809680 -0.007680 0.002480 
#    y -0.007680 1.819120 -0.005780 
#    z 0.002480 -0.005780 1.801840 
# 
# From -- ./inp_files/156661.got.cif
#   From: 2010.06.25/outbox.cif.g09.slc.cpg/sg2_79_cif.got.tgz:156661.got - 2010.06.27 13:26:56.
