data_PCOD8035348
_publ_section_title
;
Structure prediction by ZEFSAII (Michael W. Deem and Ramdas Pophale) SiO2 
 PCOD8035348
Probable space group: P -1
;
_chemical_formula_sum "Si O2"
_cell_formula_units_Z 16
_cell_length_a 11.640981
_cell_length_b 11.329406
_cell_length_c 8.585849
_cell_angle_alpha 58.258149
_cell_angle_beta 119.713232
_cell_angle_gamma 100.939632
_cell_volume 832.492317
_symmetry_space_group_name_H-M "P -1"
_symmetry_group_IT_number 2
_symmetry_cell_setting 'triclinic'
loop_
_space_group_symop_operation_xyz
x,y,z
-x,-y,-z
loop_
_atom_site_type_symbol
_atom_site_label
_atom_site_fract_x
_atom_site_fract_y
_atom_site_fract_z
Si Si1 0.380094 0.530348 0.021950
Si Si2 0.797899 0.405862 0.405176
Si Si3 0.368688 0.800402 0.402831
Si Si4 0.160139 0.036406 0.200354
Si Si5 0.977595 0.827069 0.270487
Si Si6 0.276587 0.284763 0.779152
Si Si7 0.508975 0.350946 0.691768
Si Si8 0.370318 0.224968 0.227861
O O1 0.410945 0.636440 0.103421
O O2 0.348605 0.381223 0.175402
O O3 0.500000 0.500000 0.000000
O O4 0.251029 0.604501 0.798748
O O5 0.689633 0.341641 0.485822
O O6 0.802188 0.566063 0.340843
O O7 0.942349 0.324795 0.572438
O O8 0.422664 0.771811 0.284559
O O9 0.484361 0.839575 0.572666
O O10 0.254913 0.928147 0.233715
O O11 0.256354 0.135039 0.286321
O O12 0.057581 0.133389 0.959381
O O13 0.071000 0.944399 0.317272
O O14 0.837781 0.816651 0.273126
O O15 0.367873 0.298201 0.681019
O O16 0.358131 0.227378 0.028447
O O17 0.500000 0.500000 0.500000
#
# Coordination Sequence:
#
# PCOD8035348 Si02
#       8
#     2   2   2   2   2   2   2   2
#     4  11  17  32  54  83 108 128 167 217 273 314
#     4  10  17  31  55  79 104 134 173 217 260 310
#     4  11  19  31  53  83 110 135 166 214 272 312
#     4   9  20  34  52  77 106 139 184 217 242 299
#     4   9  19  34  52  74 100 141 188 217 238 292
#     4  10  18  31  53  79 108 134 171 217 261 313
#     4  12  19  31  53  84 114 130 156 219 282 316
#     4  10  17  32  53  77 107 136 170 216 257 308
#
# _framework density 19.219396
#
# number of rings (size 3 to 8) (size 9 to 14) (size 15 to 20)
#    0.000    1.750    6.250    0.750    0.000    0.000 
#    0.000    2.500    0.000    9.750    0.000    0.000 
#    0.000    0.000    0.000    0.000    0.000    0.000 
#
# Total GULP energy -198243.685021 kJ/mol
# GULP energy per Si atom -12390.230314 kJ/mol
# Density = 1.917565 g / cm^3
# Si number density = 19.219396 Si / 1000 Ang^3
#
#
#
# Elastic Constant Matrix: (Units=GPa)
#
#
# Indices 1 2 3 4 5 6 
#
# 1 112.7014 53.0583 33.1318 11.0663 0.3063 28.5387
# 2 53.0583 80.1209 24.7362 1.2493 -0.0855 19.0563
# 3 33.1318 24.7362 79.5887 -2.9209 17.9989 -7.3588
# 4 11.0663 1.2493 -2.9209 17.0239 1.4228 1.3317
# 5 0.3063 -0.0855 17.9989 1.4228 26.5610 -3.3084
# 6 28.5387 19.0563 -7.3588 1.3317 -3.3084 37.1992
#
#
#
# Elastic Compliance Matrix: (Units=1/GPa)
#
#
# Indices 1 2 3 4 5 6 
#
# 1 0.018661 -0.006883 -0.008183 -0.012505 0.004538 -0.011558
# 2 -0.006883 0.019566 -0.004101 0.002586 0.002103 -0.005460
# 3 -0.008183 -0.004101 0.021744 0.009634 -0.013786 0.011110
# 4 -0.012505 0.002586 0.009634 0.068561 -0.009189 0.006903
# 5 0.004538 0.002103 -0.013786 -0.009189 0.047093 -0.002769
# 6 -0.011558 -0.005460 0.011110 0.006903 -0.002769 0.040251
#
#
# Mechanical properties :
#
#
# Convention : Reuss Voigt Hill
#
# Bulk Modulus (GPa) = 46.21741 54.91818 50.56780
# Shear Modulus (GPa) = 19.12606 26.92247 23.02427
#
# Velocity S-wave (km/s) = 3.15801 3.74678 3.46493
# Velocity P-wave (km/s) = 6.11530 6.88144 6.50965
#
# Compressibility (1/GPa) = 0.02163687
#
# Stress axis : x y z
#
# Youngs Moduli (GPa) = 53.58666 51.10971 45.98892
#
# Poissons Ratio (x) = 0.35177 0.37634
# Poissons Ratio (y) = 0.36882 0.18862
# Poissons Ratio (z) = 0.43851 0.20962
#
# Static dielectric constant tensor:
#      x y z
#    x 3.538850 0.543010 0.068930 
#    y 0.543010 3.621070 -0.103610 
#    z 0.068930 -0.103610 3.551300 
# 
# 
# High freq. dielectric constant tensor:
#      x y z
#    x 1.727330 0.045110 0.016330 
#    y 0.045110 1.731650 -0.019170 
#    z 0.016330 -0.019170 1.743780 
# 
# From -- ./inp_files/252255.got.cif
#   From: 2010.06.25/outbox.cif.g09.slc.cpg/sg2_127_cif.got.tgz:252255.got - 2010.06.27 13:26:56.
