data_PCOD8035766
_publ_section_title
;
Structure prediction by ZEFSAII (Michael W. Deem and Ramdas Pophale) SiO2 
 PCOD8035766
Probable space group: P -1
;
_chemical_formula_sum "Si O2"
_cell_formula_units_Z 16
_cell_length_a 9.081252
_cell_length_b 11.715108
_cell_length_c 8.902997
_cell_angle_alpha 103.811035
_cell_angle_beta 93.812965
_cell_angle_gamma 127.904823
_cell_volume 697.092496
_symmetry_space_group_name_H-M "P -1"
_symmetry_group_IT_number 2
_symmetry_cell_setting 'triclinic'
loop_
_space_group_symop_operation_xyz
x,y,z
-x,-y,-z
loop_
_atom_site_type_symbol
_atom_site_label
_atom_site_fract_x
_atom_site_fract_y
_atom_site_fract_z
Si Si1 0.328175 0.401393 0.838358
Si Si2 0.628961 0.069059 0.678284
Si Si3 0.288148 0.110311 0.192039
Si Si4 0.006006 0.350954 0.319876
Si Si5 0.010690 0.392844 0.685886
Si Si6 0.607065 0.579288 0.680374
Si Si7 0.685226 0.007632 0.159655
Si Si8 0.927532 0.952316 0.308670
O O1 0.206636 0.458216 0.810627
O O2 0.460858 0.426808 0.720655
O O3 0.168154 0.219974 0.799151
O O4 0.500000 0.500000 0.000000
O O5 0.831209 0.237436 0.708740
O O6 0.500000 0.000000 0.500000
O O7 0.652070 0.944685 0.685579
O O8 0.532158 0.081031 0.822252
O O9 0.415151 0.293808 0.241775
O O10 0.081041 0.051849 0.216242
O O11 0.302688 0.052469 0.016304
O O12 0.028315 0.363163 0.504761
O O13 0.175004 0.355412 0.268021
O O14 0.019514 0.482813 0.278618
O O15 0.797977 0.189747 0.209873
O O16 0.500000 0.500000 0.500000
O O17 0.778157 0.980953 0.291948
O O18 0.000000 0.000000 0.500000
#
# Coordination Sequence:
#
# PCOD8035766 Si02
#       8
#     2   2   2   2   2   2   2   2
#     4  12  27  46  72 109 150 192 243 312 381 440
#     4  12  26  46  76 109 146 201 254 305 374 451
#     4  12  27  47  73 104 155 193 249 319 370 445
#     4  11  25  46  77 109 148 193 248 312 380 445
#     4  11  25  50  72 111 152 193 251 314 368 453
#     4  12  26  45  75 107 143 197 250 299 376 449
#     4  12  26  46  72 110 149 195 245 308 387 437
#     4  12  24  48  76 105 144 196 258 313 364 448
#
# _framework density 22.952480000000001
#
# number of rings (size 3 to 8) (size 9 to 14) (size 15 to 20)
#    0.000    0.250    5.000    3.750    7.000    0.000 
#    2.250    1.250    0.000    0.000    0.000    0.000 
#    0.000    0.000    0.000    0.000    0.000    0.000 
#
# Total GULP energy -198235.299646 kJ/mol
# GULP energy per Si atom -12389.706228 kJ/mol
# Density = 2.290024 g / cm^3
# Si number density = 22.952480 Si / 1000 Ang^3
#
#
#
# Elastic Constant Matrix: (Units=GPa)
#
#
# Indices 1 2 3 4 5 6 
#
# 1 132.8754 51.9763 34.3179 -4.2815 9.3285 -4.2318
# 2 51.9763 89.7265 27.6410 4.5005 1.2961 0.4795
# 3 34.3179 27.6410 115.1748 13.6798 7.5084 4.0699
# 4 -4.2815 4.5005 13.6798 35.5600 4.2805 -9.5004
# 5 9.3285 1.2961 7.5084 4.2805 40.0337 -4.1339
# 6 -4.2318 0.4795 4.0699 -9.5004 -4.1339 48.1650
#
#
#
# Elastic Compliance Matrix: (Units=1/GPa)
#
#
# Indices 1 2 3 4 5 6 
#
# 1 0.010597 -0.005632 -0.002147 0.003515 -0.002086 0.001683
# 2 -0.005632 0.015036 -0.001712 -0.002305 0.001306 -0.000842
# 3 -0.002147 -0.001712 0.010407 -0.004451 -0.001129 -0.002026
# 4 0.003515 -0.002305 -0.004451 0.032725 -0.002693 0.006932
# 5 -0.002086 0.001306 -0.001129 -0.002693 0.026089 0.001607
# 6 0.001683 -0.000842 -0.002026 0.006932 0.001607 0.022595
#
#
# Mechanical properties :
#
#
# Convention : Reuss Voigt Hill
#
# Bulk Modulus (GPa) = 58.62419 62.84967 60.73693
# Shear Modulus (GPa) = 35.18263 39.67448 37.42856
#
# Velocity S-wave (km/s) = 3.91941 4.16209 4.04257
# Velocity P-wave (km/s) = 6.78818 7.10910 6.95049
#
# Compressibility (1/GPa) = 0.01705780
#
# Stress axis : x y z
#
# Youngs Moduli (GPa) = 94.36826 66.50586 96.09111
#
# Poissons Ratio (x) = 0.37458 0.20628
# Poissons Ratio (y) = 0.53151 0.16451
# Poissons Ratio (z) = 0.20258 0.11386
#
# Static dielectric constant tensor:
#      x y z
#    x 4.417890 0.053970 0.022120 
#    y 0.053970 4.322740 -0.150250 
#    z 0.022120 -0.150250 4.066640 
# 
# 
# High freq. dielectric constant tensor:
#      x y z
#    x 1.922170 0.001980 0.001720 
#    y 0.001980 1.922100 -0.014270 
#    z 0.001720 -0.014270 1.906020 
# 
# From -- ./inp_files/188591.got.cif
#   From: 2010.06.25/outbox.cif.g09.slc.cpg/sg2_95_cif.got.tgz:188591.got - 2010.06.27 13:26:56.
