data_PCOD8035752
_publ_section_title
;
Structure prediction by ZEFSAII (Michael W. Deem and Ramdas Pophale) SiO2 
 PCOD8035752
Probable space group: P -1
;
_chemical_formula_sum "Si O2"
_cell_formula_units_Z 16
_cell_length_a 11.149650
_cell_length_b 9.709506
_cell_length_c 9.145486
_cell_angle_alpha 127.354872
_cell_angle_beta 103.860563
_cell_angle_gamma 62.227994
_cell_volume 695.030600
_symmetry_space_group_name_H-M "P -1"
_symmetry_group_IT_number 2
_symmetry_cell_setting 'triclinic'
loop_
_space_group_symop_operation_xyz
x,y,z
-x,-y,-z
loop_
_atom_site_type_symbol
_atom_site_label
_atom_site_fract_x
_atom_site_fract_y
_atom_site_fract_z
Si Si1 0.942372 0.862885 0.815247
Si Si2 0.717483 0.815369 0.886621
Si Si3 0.443179 0.510364 0.831517
Si Si4 0.449052 0.794017 0.779880
Si Si5 0.861126 0.427045 0.826308
Si Si6 0.671024 0.240896 0.563009
Si Si7 0.842593 0.480927 0.196750
Si Si8 0.886642 0.837619 0.456785
O O1 0.790228 0.899119 0.844390
O O2 0.940064 0.891802 0.658379
O O3 0.038699 0.647530 0.743656
O O4 0.000000 0.000000 0.000000
O O5 0.600068 0.761959 0.747378
O O6 0.832922 0.632805 0.882699
O O7 0.641498 0.980205 0.087964
O O8 0.459490 0.681766 0.860568
O O9 0.529977 0.303070 0.651040
O O10 0.286289 0.556809 0.824994
O O11 0.500000 0.500000 0.000000
O O12 0.372886 0.716725 0.591073
O O13 0.730584 0.386738 0.731395
O O14 0.988835 0.257648 0.680062
O O15 0.887788 0.432693 0.010123
O O16 0.774116 0.024962 0.474587
O O17 0.814411 0.695859 0.368977
#
# Coordination Sequence:
#
# PCOD8035752 Si02
#       8
#     2   2   2   2   2   2   2   2
#     4  12  28  47  72 105 146 190 241 300 358 421
#     4  11  25  46  76 102 147 185 244 291 361 420
#     4  12  26  48  74 106 148 184 240 296 361 423
#     4  11  26  46  75 107 140 194 238 294 359 433
#     4  12  25  49  74 107 148 186 245 291 362 430
#     4  12  27  45  75 106 144 191 239 295 359 427
#     4  12  26  47  76 105 145 194 235 301 359 423
#     4  12  29  47  72 109 145 191 244 297 357 429
#
# _framework density 23.020569999999999
#
# number of rings (size 3 to 8) (size 9 to 14) (size 15 to 20)
#    0.000    0.250    3.750    3.750    8.750    1.500 
#    0.000    0.000    0.000    0.000    0.000    0.000 
#    0.000    0.000    0.000    0.000    0.000    0.000 
#
# Total GULP energy -198436.851037 kJ/mol
# GULP energy per Si atom -12402.303190 kJ/mol
# Density = 2.296817 g / cm^3
# Si number density = 23.020570 Si / 1000 Ang^3
#
#
#
# Elastic Constant Matrix: (Units=GPa)
#
#
# Indices 1 2 3 4 5 6 
#
# 1 113.3411 34.1350 27.2830 -2.8034 -8.4370 1.5048
# 2 34.1350 126.9963 48.4368 -0.9164 -9.6868 -9.9014
# 3 27.2830 48.4368 114.9080 -12.9614 1.0069 -5.6671
# 4 -2.8034 -0.9164 -12.9614 41.9029 -7.9019 0.1408
# 5 -8.4370 -9.6868 1.0069 -7.9019 47.4533 8.5909
# 6 1.5048 -9.9014 -5.6671 0.1408 8.5909 35.5298
#
#
#
# Elastic Compliance Matrix: (Units=1/GPa)
#
#
# Indices 1 2 3 4 5 6 
#
# 1 0.009988 -0.002093 -0.001533 0.000487 0.001766 -0.001680
# 2 -0.002093 0.010125 -0.003780 -0.000855 0.001270 0.002004
# 3 -0.001533 -0.003780 0.011062 0.003054 -0.000950 0.000994
# 4 0.000487 -0.000855 0.003054 0.025633 0.004280 -0.000908
# 5 0.001766 0.001270 -0.000950 0.004280 0.023383 -0.005543
# 6 -0.001680 0.002004 0.000994 -0.000908 -0.005543 0.030277
#
#
# Mechanical properties :
#
#
# Convention : Reuss Voigt Hill
#
# Bulk Modulus (GPa) = 61.10923 63.88389 62.49656
# Shear Modulus (GPa) = 38.24546 41.33657 39.79102
#
# Velocity S-wave (km/s) = 4.08040 4.24209 4.16203
# Velocity P-wave (km/s) = 6.98589 7.19756 7.09251
#
# Compressibility (1/GPa) = 0.01636414
#
# Stress axis : x y z
#
# Youngs Moduli (GPa) = 100.12025 98.76178 90.40215
#
# Poissons Ratio (x) = 0.20669 0.13856
# Poissons Ratio (y) = 0.20953 0.34172
# Poissons Ratio (z) = 0.15345 0.37332
#
# Static dielectric constant tensor:
#      x y z
#    x 4.275470 -0.064310 0.042460 
#    y -0.064310 4.160530 0.087330 
#    z 0.042460 0.087330 4.209560 
# 
# 
# High freq. dielectric constant tensor:
#      x y z
#    x 1.924280 -0.011640 0.001450 
#    y -0.011640 1.916530 0.006490 
#    z 0.001450 0.006490 1.911810 
# 
# From -- ./inp_files/245565.got.cif
#   From: 2010.06.25/outbox.cif.g09.slc.cpg/sg2_123_cif.got.tgz:245565.got - 2010.06.27 13:26:56.
