data_PCOD8035138
_publ_section_title
;
Structure prediction by ZEFSAII (Michael W. Deem and Ramdas Pophale) SiO2 
 PCOD8035138
Probable space group: P -1
;
_chemical_formula_sum "Si O2"
_cell_formula_units_Z 16
_cell_length_a 7.108612
_cell_length_b 20.282055
_cell_length_c 10.503983
_cell_angle_alpha 138.371162
_cell_angle_beta 44.749974
_cell_angle_gamma 133.668114
_cell_volume 665.727809
_symmetry_space_group_name_H-M "P -1"
_symmetry_group_IT_number 2
_symmetry_cell_setting 'triclinic'
loop_
_space_group_symop_operation_xyz
x,y,z
-x,-y,-z
loop_
_atom_site_type_symbol
_atom_site_label
_atom_site_fract_x
_atom_site_fract_y
_atom_site_fract_z
Si Si1 0.654192 0.727045 0.997880
Si Si2 0.539130 0.677580 0.595941
Si Si3 0.137820 0.795566 0.057241
Si Si4 0.846302 0.543305 0.524780
Si Si5 0.092931 0.153874 0.186908
Si Si6 0.261440 0.585325 0.156319
Si Si7 0.601323 0.991187 0.079589
Si Si8 0.238339 0.366141 0.829348
O O1 0.738398 0.630078 0.763233
O O2 0.681441 0.809210 0.987418
O O3 0.873191 0.794007 0.095609
O O4 0.333902 0.675802 0.140051
O O5 0.333508 0.745443 0.809180
O O6 0.411714 0.560627 0.550170
O O7 0.845575 0.740276 0.604563
O O8 0.583143 0.667606 0.411374
O O9 0.319452 0.917387 0.182422
O O10 0.044337 0.731387 0.140671
O O11 0.000000 0.500000 0.500000
O O12 0.044888 0.594055 0.381411
O O13 0.160733 0.065464 0.111606
O O14 0.761509 0.107428 0.232883
O O15 0.574410 0.603798 0.089625
O O16 0.153543 0.467662 0.975699
O O17 0.500000 0.000000 0.000000
#
# Coordination Sequence:
#
# PCOD8035138 Si02
#       8
#     2   2   2   2   2   2   2   2
#     4  11  20  35  57  90 130 162 206 257 301 368
#     4  11  20  35  56  88 131 164 205 256 299 363
#     4  10  19  33  65  88 115 166 209 250 315 363
#     4  12  18  32  57  90 128 176 212 241 297 371
#     4  10  24  39  62  98 125 155 212 268 318 374
#     4  10  18  30  54  88 125 172 216 240 293 371
#     4  10  20  43  71  92 115 160 213 266 324 379
#     4  10  17  31  54  89 125 165 210 254 292 363
#
# _framework density 24.033844999999999
#
# number of rings (size 3 to 8) (size 9 to 14) (size 15 to 20)
#    0.000    1.500    6.250    0.750    0.000    0.500 
#    0.000    3.750    0.000    6.000    0.000    0.000 
#    0.000    0.000    0.000    0.000    0.000    0.000 
#
# Total GULP energy -198239.211971 kJ/mol
# GULP energy per Si atom -12389.950748 kJ/mol
# Density = 2.397914 g / cm^3
# Si number density = 24.033845 Si / 1000 Ang^3
#
#
#
# Elastic Constant Matrix: (Units=GPa)
#
#
# Indices 1 2 3 4 5 6 
#
# 1 66.5322 48.3143 7.9776 12.7163 11.9911 -2.1798
# 2 48.3143 192.2767 31.3544 -14.0156 18.8951 18.0752
# 3 7.9776 31.3544 71.1544 -28.0133 8.1123 -1.5329
# 4 12.7163 -14.0156 -28.0133 36.7888 0.5465 13.5454
# 5 11.9911 18.8951 8.1123 0.5465 18.5652 4.5951
# 6 -2.1798 18.0752 -1.5329 13.5454 4.5951 48.9020
#
#
#
# Elastic Compliance Matrix: (Units=1/GPa)
#
#
# Indices 1 2 3 4 5 6 
#
# 1 0.027200 -0.007344 -0.006881 -0.021141 -0.009043 0.010417
# 2 -0.007344 0.008340 0.000589 0.008191 -0.002909 -0.005387
# 3 -0.006881 0.000589 0.024297 0.023270 -0.006061 -0.005639
# 4 -0.021141 0.008191 0.023270 0.062906 -0.001625 -0.020512
# 5 -0.009043 -0.002909 -0.006061 -0.001625 0.066682 -0.005334
# 6 0.010417 -0.005387 -0.005639 -0.020512 -0.005334 0.028911
#
#
# Mechanical properties :
#
#
# Convention : Reuss Voigt Hill
#
# Bulk Modulus (GPa) = 30.70863 56.13954 43.42409
# Shear Modulus (GPa) = 19.49592 37.00567 28.25080
#
# Velocity S-wave (km/s) = 2.85122 3.92820 3.43222
# Velocity P-wave (km/s) = 4.86254 6.63201 5.81497
#
# Compressibility (1/GPa) = 0.03256414
#
# Stress axis : x y z
#
# Youngs Moduli (GPa) = 36.76406 119.90985 41.15741
#
# Poissons Ratio (x) = 0.88066 0.28321
# Poissons Ratio (y) = 0.27001 -0.02424
# Poissons Ratio (z) = 0.25297 -0.07062
#
# Static dielectric constant tensor:
#      x y z
#    x 4.399240 0.275880 0.338800 
#    y 0.275880 5.332240 0.042620 
#    z 0.338800 0.042620 3.723700 
# 
# 
# High freq. dielectric constant tensor:
#      x y z
#    x 1.957340 0.008630 0.019840 
#    y 0.008630 1.981460 -0.005610 
#    z 0.019840 -0.005610 1.893730 
# 
# From -- ./inp_files/406673.got.cif
#   From: 2010.06.25/outbox.cif.g09.slc.cpg/sg2_204_cif.got.tgz:406673.got - 2010.06.27 13:26:56.
