data_PCOD8035311
_publ_section_title
;
Structure prediction by ZEFSAII (Michael W. Deem and Ramdas Pophale) SiO2 
 PCOD8035311
Probable space group: P -1
;
_chemical_formula_sum "Si O2"
_cell_formula_units_Z 16
_cell_length_a 6.450810
_cell_length_b 18.001100
_cell_length_c 8.481137
_cell_angle_alpha 133.503335
_cell_angle_beta 87.480464
_cell_angle_gamma 101.664587
_cell_volume 693.274551
_symmetry_space_group_name_H-M "P -1"
_symmetry_group_IT_number 2
_symmetry_cell_setting 'triclinic'
loop_
_space_group_symop_operation_xyz
x,y,z
-x,-y,-z
loop_
_atom_site_type_symbol
_atom_site_label
_atom_site_fract_x
_atom_site_fract_y
_atom_site_fract_z
Si Si1 0.340499 0.552856 0.486654
Si Si2 0.224593 0.006380 0.346689
Si Si3 0.906250 0.803604 0.530745
Si Si4 0.587608 0.907107 0.239594
Si Si5 0.103673 0.179647 0.078930
Si Si6 0.733557 0.245626 0.742139
Si Si7 0.968243 0.359802 0.183626
Si Si8 0.519259 0.616163 0.239329
O O1 0.500000 0.500000 0.500000
O O2 0.257556 0.632825 0.721362
O O3 0.456818 0.613985 0.421635
O O4 0.129464 0.471352 0.311828
O O5 0.211942 0.112659 0.415581
O O6 0.211165 0.022432 0.562312
O O7 0.458987 0.983899 0.273316
O O8 0.061493 0.904134 0.140364
O O9 0.937023 0.834824 0.757383
O O10 0.761853 0.686446 0.330113
O O11 0.144135 0.815054 0.472113
O O12 0.444794 0.833820 0.269014
O O13 0.663581 0.837403 0.000574
O O14 0.089957 0.295870 0.201015
O O15 0.634893 0.330041 0.777612
O O16 0.920893 0.305867 0.938335
O O17 0.500000 0.500000 0.000000
#
# Coordination Sequence:
#
# PCOD8035311 Si02
#       8
#     2   2   2   2   2   2   2   2
#     4  11  25  45  71  99 141 181 236 288 351 409
#     4  11  25  47  71 106 139 183 235 285 348 415
#     4  12  28  45  69 105 145 180 229 294 347 414
#     4  11  26  44  75 101 135 190 233 281 342 423
#     4  12  26  44  73 102 144 181 233 285 351 411
#     4  12  26  46  72 100 142 181 232 288 350 406
#     4  11  25  43  71 103 134 184 235 288 341 419
#     4  12  27  45  71 101 141 187 232 285 350 413
#
# _framework density 23.078880000000002
#
# number of rings (size 3 to 8) (size 9 to 14) (size 15 to 20)
#    0.000    0.500    2.500    4.500    8.750    5.500 
#    0.000    0.000    0.000    0.000    0.000    0.000 
#    0.000    0.000    0.000    0.000    0.000    0.000 
#
# Total GULP energy -198432.708863 kJ/mol
# GULP energy per Si atom -12402.044304 kJ/mol
# Density = 2.302635 g / cm^3
# Si number density = 23.078880 Si / 1000 Ang^3
#
#
#
# Elastic Constant Matrix: (Units=GPa)
#
#
# Indices 1 2 3 4 5 6 
#
# 1 86.3734 31.0955 40.6899 -10.0833 -23.8200 -19.2470
# 2 31.0955 90.0191 31.4254 -4.9321 -11.4640 -11.5130
# 3 40.6899 31.4254 92.8080 -10.8367 -23.3239 -1.6096
# 4 -10.0833 -4.9321 -10.8367 43.7331 6.0645 -2.0021
# 5 -23.8200 -11.4640 -23.3239 6.0645 50.6595 6.3133
# 6 -19.2470 -11.5130 -1.6096 -2.0021 6.3133 46.2153
#
#
#
# Elastic Compliance Matrix: (Units=1/GPa)
#
#
# Indices 1 2 3 4 5 6 
#
# 1 0.017974 -0.002853 -0.005486 0.002151 0.004263 0.006095
# 2 -0.002853 0.013507 -0.003287 0.000157 -0.000077 0.002079
# 3 -0.005486 -0.003287 0.015413 0.001493 0.003974 -0.003045
# 4 0.002151 0.000157 0.001493 0.024048 -0.001422 0.002223
# 5 0.004263 -0.000077 0.003974 -0.001422 0.023905 -0.001432
# 6 0.006095 0.002079 -0.003045 0.002223 -0.001432 0.024880
#
#
# Mechanical properties :
#
#
# Convention : Reuss Voigt Hill
#
# Bulk Modulus (GPa) = 42.29990 52.84688 47.57339
# Shear Modulus (GPa) = 33.14293 39.18756 36.16524
#
# Velocity S-wave (km/s) = 3.79367 4.12513 3.96286
# Velocity P-wave (km/s) = 6.12841 6.75552 6.44959
#
# Compressibility (1/GPa) = 0.02364072
#
# Stress axis : x y z
#
# Youngs Moduli (GPa) = 55.63540 74.03690 64.87819
#
# Poissons Ratio (x) = 0.21126 0.35593
# Poissons Ratio (y) = 0.15876 0.21327
# Poissons Ratio (z) = 0.30522 0.24338
#
# Static dielectric constant tensor:
#      x y z
#    x 4.398300 -0.132830 -0.095060 
#    y -0.132830 4.167580 0.065140 
#    z -0.095060 0.065140 4.379340 
# 
# 
# High freq. dielectric constant tensor:
#      x y z
#    x 1.927890 -0.006140 -0.000830 
#    y -0.006140 1.911530 0.005890 
#    z -0.000830 0.005890 1.927030 
# 
# From -- ./inp_files/139584.got.cif
#   From: 2010.06.25/outbox.cif.g09.slc.cpg/sg2_70_cif.got.tgz:139584.got - 2010.06.27 13:26:56.
