data_PCOD8035141
_publ_section_title
;
Structure prediction by ZEFSAII (Michael W. Deem and Ramdas Pophale) SiO2 
 PCOD8035141
Probable space group: P -1
;
_chemical_formula_sum "Si O2"
_cell_formula_units_Z 14
_cell_length_a 6.122571
_cell_length_b 16.492248
_cell_length_c 5.959151
_cell_angle_alpha 80.904374
_cell_angle_beta 79.875338
_cell_angle_gamma 100.564165
_cell_volume 570.943410
_symmetry_space_group_name_H-M "P -1"
_symmetry_group_IT_number 2
_symmetry_cell_setting 'triclinic'
loop_
_space_group_symop_operation_xyz
x,y,z
-x,-y,-z
loop_
_atom_site_type_symbol
_atom_site_label
_atom_site_fract_x
_atom_site_fract_y
_atom_site_fract_z
Si Si1 0.992674 0.251890 0.734264
Si Si2 0.170562 0.031677 0.159245
Si Si3 0.642576 0.442796 0.618942
Si Si4 0.964350 0.601698 0.639254
Si Si5 0.557882 0.175861 0.121233
Si Si6 0.148432 0.883572 0.525830
Si Si7 0.307429 0.307244 0.024725
O O1 0.999227 0.198992 0.530367
O O2 0.066972 0.350189 0.608855
O O3 0.175631 0.240679 0.893100
O O4 0.743206 0.223792 0.893696
O O5 0.403897 0.099389 0.038709
O O6 0.034933 0.078334 0.329802
O O7 0.253657 0.952333 0.288294
O O8 0.000000 0.000000 0.000000
O O9 0.500000 0.500000 0.500000
O O10 0.829955 0.505198 0.707618
O O11 0.499801 0.377479 0.844761
O O12 0.764866 0.398568 0.417851
O O13 0.882054 0.650773 0.840156
O O14 0.657762 0.139367 0.339906
O O15 0.421919 0.247749 0.190940
#
# Coordination Sequence:
#
# PCOD8035141 Si02
#       7
#     2   2   2   2   2   2   2
#     4  12  25  46  69 108 149 188 256 302 364 453
#     4  11  25  49  72 107 147 191 249 308 367 443
#     4  11  24  48  74 107 148 198 248 309 372 438
#     4  11  25  46  71 110 148 191 255 306 368 447
#     4  12  25  44  72 106 144 198 245 300 378 437
#     4  11  26  45  72 105 146 195 246 306 368 446
#     4  12  26  47  75 109 149 201 247 310 372 435
#
# _framework density 24.520817000000001
#
# number of rings (size 3 to 8) (size 9 to 14) (size 15 to 20)
#    0.000    0.571    2.857    5.143    0.000    9.714 
#    2.571    0.000    0.000    0.000    0.000    0.000 
#    0.000    0.000    0.000    0.000    0.000    0.000 
#
# Total GULP energy -173499.571851 kJ/mol
# GULP energy per Si atom -12392.826561 kJ/mol
# Density = 2.446501 g / cm^3
# Si number density = 24.520817 Si / 1000 Ang^3
#
#
#
# Elastic Constant Matrix: (Units=GPa)
#
#
# Indices 1 2 3 4 5 6 
#
# 1 124.3345 66.0814 66.6818 -5.7758 6.5822 -15.4053
# 2 66.0814 136.6581 59.7151 -8.3311 1.1445 1.6558
# 3 66.6818 59.7151 107.5547 -4.6256 0.8210 2.5672
# 4 -5.7758 -8.3311 -4.6256 51.2851 2.0044 -3.1112
# 5 6.5822 1.1445 0.8210 2.0044 44.8184 -4.2851
# 6 -15.4053 1.6558 2.5672 -3.1112 -4.2851 56.0523
#
#
#
# Elastic Compliance Matrix: (Units=1/GPa)
#
#
# Indices 1 2 3 4 5 6 
#
# 1 0.014482 -0.004027 -0.006805 0.000685 -0.001516 0.004333
# 2 -0.004027 0.010844 -0.003458 0.000915 0.000222 -0.001201
# 3 -0.006805 -0.003458 0.015486 -0.000102 0.000575 -0.002439
# 4 0.000685 0.000915 -0.000102 0.019823 -0.000894 0.001198
# 5 -0.001516 0.000222 0.000575 -0.000894 0.022677 0.001234
# 6 0.004333 -0.001201 -0.002439 0.001198 0.001234 0.019339
#
#
# Mechanical properties :
#
#
# Convention : Reuss Voigt Hill
#
# Bulk Modulus (GPa) = 81.75208 83.72266 82.73737
# Shear Modulus (GPa) = 36.95298 42.16909 39.56103
#
# Velocity S-wave (km/s) = 3.88623 4.15146 4.02103
# Velocity P-wave (km/s) = 7.31774 7.56288 7.44132
#
# Compressibility (1/GPa) = 0.01223210
#
# Stress axis : x y z
#
# Youngs Moduli (GPa) = 69.05333 92.21486 64.57617
#
# Poissons Ratio (x) = 0.37137 0.43942
# Poissons Ratio (y) = 0.27809 0.22329
# Poissons Ratio (z) = 0.46989 0.31885
#
# Static dielectric constant tensor:
#      x y z
#    x 4.642010 0.073150 -0.173590 
#    y 0.073150 5.149620 -0.343700 
#    z -0.173590 -0.343700 4.348890 
# 
# 
# High freq. dielectric constant tensor:
#      x y z
#    x 1.980970 -0.005150 -0.012940 
#    y -0.005150 1.997820 -0.019600 
#    z -0.012940 -0.019600 1.965410 
# 
# From -- ./inp_files/7499.got.cif
#   From: 2010.06.25/outbox.cif.g09.slc.cpg/sg2_4_cif.got.tgz:7499.got - 2010.06.27 13:26:56.
