data_PCOD8035280
_publ_section_title
;
Structure prediction by ZEFSAII (Michael W. Deem and Ramdas Pophale) SiO2 
 PCOD8035280
Probable space group: P -1
;
_chemical_formula_sum "Si O2"
_cell_formula_units_Z 14
_cell_length_a 9.288605
_cell_length_b 9.619301
_cell_length_c 11.093175
_cell_angle_alpha 68.190184
_cell_angle_beta 99.635503
_cell_angle_gamma 138.947961
_cell_volume 593.923676
_symmetry_space_group_name_H-M "P -1"
_symmetry_group_IT_number 2
_symmetry_cell_setting 'triclinic'
loop_
_space_group_symop_operation_xyz
x,y,z
-x,-y,-z
loop_
_atom_site_type_symbol
_atom_site_label
_atom_site_fract_x
_atom_site_fract_y
_atom_site_fract_z
Si Si1 0.612780 0.813887 0.581905
Si Si2 0.290200 0.435159 0.383565
Si Si3 0.155988 0.922053 0.706263
Si Si4 0.061791 0.169589 0.672321
Si Si5 0.324422 0.767421 0.909703
Si Si6 0.177111 0.502449 0.751335
Si Si7 0.721680 0.275598 0.808699
O O1 0.561802 0.599811 0.605044
O O2 0.682456 0.957654 0.426361
O O3 0.386205 0.714946 0.629851
O O4 0.802214 0.963755 0.663275
O O5 0.193341 0.367357 0.526209
O O6 0.410886 0.689463 0.288629
O O7 0.095444 0.279461 0.309207
O O8 0.175297 0.095069 0.723015
O O9 0.193509 0.814270 0.835369
O O10 0.093091 0.272730 0.773922
O O11 0.265757 0.579675 0.876988
O O12 0.586509 0.015226 0.860492
O O13 0.248421 0.664275 0.065392
O O14 0.966318 0.451123 0.724864
#
# Coordination Sequence:
#
# PCOD8035280 Si02
#       7
#     2   2   2   2   2   2   2
#     4   9  21  39  63  96 127 150 199 252 307 357
#     4   9  19  41  66  90 122 167 197 241 302 375
#     4   9  19  41  66  90 122 167 197 241 302 375
#     4   9  21  39  63  96 127 150 199 252 307 357
#     4  11  25  43  63  84 123 167 210 244 296 363
#     4  12  23  39  64  95 122 157 200 259 303 355
#     4  11  25  43  63  84 123 167 210 244 296 363
#
# _framework density 23.572051999999999
#
# number of rings (size 3 to 8) (size 9 to 14) (size 15 to 20)
#    0.000    2.000    1.429    3.000    4.000    2.286 
#    0.000    1.429    0.000    0.000    0.000    0.000 
#    0.000    0.000    0.000    0.000    0.000    0.000 
#
# Total GULP energy -173507.690208 kJ/mol
# GULP energy per Si atom -12393.406443 kJ/mol
# Density = 2.351840 g / cm^3
# Si number density = 23.572052 Si / 1000 Ang^3
#
#
#
# Elastic Constant Matrix: (Units=GPa)
#
#
# Indices 1 2 3 4 5 6 
#
# 1 84.8433 26.9396 30.1315 -8.9595 -13.3063 7.4115
# 2 26.9396 129.2437 22.7173 22.3740 -18.6370 -24.0897
# 3 30.1315 22.7173 48.1234 -13.6946 0.5556 1.8549
# 4 -8.9595 22.3740 -13.6946 32.1254 3.5845 -6.2202
# 5 -13.3063 -18.6370 0.5556 3.5845 22.7603 2.5058
# 6 7.4115 -24.0897 1.8549 -6.2202 2.5058 39.1017
#
#
#
# Elastic Compliance Matrix: (Units=1/GPa)
#
#
# Indices 1 2 3 4 5 6 
#
# 1 0.017934 -0.000811 -0.011151 -0.001210 0.010752 -0.004251
# 2 -0.000811 0.016943 -0.013056 -0.017923 0.015732 0.007352
# 3 -0.011151 -0.013056 0.041585 0.025701 -0.022008 -0.002404
# 4 -0.001210 -0.017923 0.025701 0.056720 -0.024788 -0.001421
# 5 0.010752 0.015732 -0.022008 -0.024788 0.067497 0.000429
# 6 -0.004251 0.007352 -0.002404 -0.001421 0.000429 0.030770
#
#
# Mechanical properties :
#
#
# Convention : Reuss Voigt Hill
#
# Bulk Modulus (GPa) = 37.84001 46.86524 42.35263
# Shear Modulus (GPa) = 17.22397 30.95893 24.09145
#
# Velocity S-wave (km/s) = 2.70607 3.62798 3.20040
# Velocity P-wave (km/s) = 5.08444 6.12164 5.62699
#
# Compressibility (1/GPa) = 0.02642706
#
# Stress axis : x y z
#
# Youngs Moduli (GPa) = 55.76080 59.02225 24.04689
#
# Poissons Ratio (x) = 0.04785 0.26814
# Poissons Ratio (y) = 0.04520 0.31396
# Poissons Ratio (z) = 0.62178 0.77059
#
# Static dielectric constant tensor:
#      x y z
#    x 4.323510 0.082740 0.156120 
#    y 0.082740 4.881150 0.009920 
#    z 0.156120 0.009920 3.993680 
# 
# 
# High freq. dielectric constant tensor:
#      x y z
#    x 1.923680 0.018860 -0.004600 
#    y 0.018860 1.971670 0.005430 
#    z -0.004600 0.005430 1.892260 
# 
# From -- ./inp_files/242247.got.cif
#   From: 2010.06.25/outbox.cif.g09.slc.cpg/sg2_122_cif.got.tgz:242247.got - 2010.06.27 13:26:56.
