data_PCOD8035000
_publ_section_title
;
Structure prediction by ZEFSAII (Michael W. Deem and Ramdas Pophale) SiO2 
 PCOD8035000
Probable space group: P -1
;
_chemical_formula_sum "Si O2"
_cell_formula_units_Z 12
_cell_length_a 10.416513
_cell_length_b 7.988925
_cell_length_c 9.039220
_cell_angle_alpha 38.162504
_cell_angle_beta 98.120295
_cell_angle_gamma 95.942771
_cell_volume 460.093821
_symmetry_space_group_name_H-M "P -1"
_symmetry_group_IT_number 2
_symmetry_cell_setting 'triclinic'
loop_
_space_group_symop_operation_xyz
x,y,z
-x,-y,-z
loop_
_atom_site_type_symbol
_atom_site_label
_atom_site_fract_x
_atom_site_fract_y
_atom_site_fract_z
Si Si1 0.178122 0.171203 0.531539
Si Si2 0.929690 0.227105 0.733884
Si Si3 0.721363 0.084334 0.000319
Si Si4 0.659915 0.636779 0.086335
Si Si5 0.602063 0.573202 0.786622
Si Si6 0.899110 0.276917 0.384999
O O1 0.186167 0.118688 0.746158
O O2 0.318367 0.257498 0.436710
O O3 0.052550 0.366275 0.335969
O O4 0.144334 0.882855 0.654142
O O5 0.885458 0.096255 0.659681
O O6 0.000000 0.500000 0.500000
O O7 0.801908 0.299238 0.762382
O O8 0.000000 0.000000 0.000000
O O9 0.638438 0.904827 0.996743
O O10 0.636653 0.253958 0.987452
O O11 0.553847 0.409995 0.275930
O O12 0.808225 0.542303 0.201470
O O13 0.636172 0.689411 0.872271
#
# Coordination Sequence:
#
# PCOD8035000 Si02
#       6
#     2   2   2   2   2   2
#     4  11  25  46  75 107 151 192 256 317 385 456
#     4  12  25  44  73 111 156 200 253 316 389 464
#     4  12  25  47  73 110 146 198 254 318 381 458
#     4  11  26  48  77 106 152 202 256 313 387 461
#     4  11  26  50  71 109 149 201 257 316 382 460
#     4  11  24  47  71 112 149 201 246 322 384 459
#
# _framework density 26.081636
#
# number of rings (size 3 to 8) (size 9 to 14) (size 15 to 20)
#    0.000    0.667    3.333    3.500    2.333    2.000 
#    3.000    0.000    0.000    0.000    0.000    0.000 
#    0.000    0.000    0.000    0.000    0.000    0.000 
#
# Total GULP energy -148666.832325 kJ/mol
# GULP energy per Si atom -12388.902694 kJ/mol
# Density = 2.602227 g / cm^3
# Si number density = 26.081636 Si / 1000 Ang^3
#
#
#
# Elastic Constant Matrix: (Units=GPa)
#
#
# Indices 1 2 3 4 5 6 
#
# 1 118.1420 34.5867 43.9193 1.2348 -30.4525 14.6428
# 2 34.5867 164.3408 33.7798 31.0958 -1.0622 17.9694
# 3 43.9193 33.7798 109.4412 20.0106 -25.2523 19.6520
# 4 1.2348 31.0958 20.0106 36.2010 -6.9672 -2.3428
# 5 -30.4525 -1.0622 -25.2523 -6.9672 47.6078 -1.7267
# 6 14.6428 17.9694 19.6520 -2.3428 -1.7267 37.0816
#
#
#
# Elastic Compliance Matrix: (Units=1/GPa)
#
#
# Indices 1 2 3 4 5 6 
#
# 1 0.012286 -0.002668 -0.003216 0.004872 0.006761 -0.001231
# 2 -0.002668 0.008566 -0.000116 -0.007995 -0.002881 -0.003675
# 3 -0.003216 -0.000116 0.013798 -0.007052 0.004000 -0.006245
# 4 0.004872 -0.007995 -0.007052 0.039795 0.005328 0.008450
# 5 0.006761 -0.002881 0.004000 0.005328 0.028104 -0.001749
# 6 -0.001231 -0.003675 -0.006245 0.008450 -0.001749 0.032997
#
#
# Mechanical properties :
#
#
# Convention : Reuss Voigt Hill
#
# Bulk Modulus (GPa) = 44.15317 68.49952 56.32635
# Shear Modulus (GPa) = 32.23797 42.82064 37.52930
#
# Velocity S-wave (km/s) = 3.51955 4.05630 3.79742
# Velocity P-wave (km/s) = 5.78636 6.94684 6.39299
#
# Compressibility (1/GPa) = 0.02264843
#
# Stress axis : x y z
#
# Youngs Moduli (GPa) = 81.39548 116.73516 72.47575
#
# Poissons Ratio (x) = 0.31146 0.23312
# Poissons Ratio (y) = 0.21717 0.00842
# Poissons Ratio (z) = 0.26181 0.01356
#
# Static dielectric constant tensor:
#      x y z
#    x 4.997030 -0.273190 -0.228490 
#    y -0.273190 5.762780 0.637730 
#    z -0.228490 0.637730 4.283760 
# 
# 
# High freq. dielectric constant tensor:
#      x y z
#    x 2.053590 -0.005890 -0.012380 
#    y -0.005890 2.083360 0.018040 
#    z -0.012380 0.018040 2.009620 
# 
# From -- ./inp_files/241802.got.cif
#   From: 2010.06.25/outbox.cif.g09.slc.cpg/sg2_121_cif.got.tgz:241802.got - 2010.06.27 13:26:56.
