data_PCOD8035729
_publ_section_title
;
Structure prediction by ZEFSAII (Michael W. Deem and Ramdas Pophale) SiO2 
 PCOD8035729
Probable space group: P -1
;
_chemical_formula_sum "Si O2"
_cell_formula_units_Z 12
_cell_length_a 8.889858
_cell_length_b 9.850148
_cell_length_c 8.407704
_cell_angle_alpha 136.810551
_cell_angle_beta 104.738866
_cell_angle_gamma 73.677229
_cell_volume 482.201788
_symmetry_space_group_name_H-M "P -1"
_symmetry_group_IT_number 2
_symmetry_cell_setting 'triclinic'
loop_
_space_group_symop_operation_xyz
x,y,z
-x,-y,-z
loop_
_atom_site_type_symbol
_atom_site_label
_atom_site_fract_x
_atom_site_fract_y
_atom_site_fract_z
Si Si1 0.063424 0.265251 0.808171
Si Si2 0.780780 0.496331 0.426604
Si Si3 0.039463 0.205211 0.110880
Si Si4 0.229505 0.727610 0.452502
Si Si5 0.603978 0.933003 0.317866
Si Si6 0.480070 0.441798 0.125437
O O1 0.928987 0.171173 0.592470
O O2 0.230532 0.208929 0.712840
O O3 0.000000 0.500000 0.000000
O O4 0.086381 0.166309 0.906185
O O5 0.821840 0.711743 0.679699
O O6 0.807513 0.328178 0.427074
O O7 0.603188 0.530360 0.347216
O O8 0.895010 0.390421 0.229338
O O9 0.000000 0.000000 0.000000
O O10 0.305085 0.524875 0.209356
O O11 0.359676 0.876596 0.608459
O O12 0.500000 0.000000 0.500000
O O13 0.503066 0.800251 0.067681
O O14 0.500000 0.500000 0.000000
#
# Coordination Sequence:
#
# PCOD8035729 Si02
#       6
#     2   2   2   2   2   2
#     4  12  24  48  80 105 151 194 248 304 367 444
#     4  11  26  44  71 108 149 189 243 311 371 434
#     4  11  25  46  74 109 146 194 247 301 370 442
#     4  12  25  47  74 110 146 194 248 304 373 437
#     4  12  27  44  75 112 142 196 252 301 365 442
#     4  12  25  45  70 103 149 192 243 304 370 434
#
# _framework density 24.885846999999998
#
# number of rings (size 3 to 8) (size 9 to 14) (size 15 to 20)
#    0.000    0.333    5.000    3.000    0.000    3.333 
#    0.000    0.000    0.000    0.000    0.000    0.000 
#    0.000    0.000    0.000    0.000    0.000    0.000 
#
# Total GULP energy -148809.053129 kJ/mol
# GULP energy per Si atom -12400.754427 kJ/mol
# Density = 2.482921 g / cm^3
# Si number density = 24.885847 Si / 1000 Ang^3
#
#
#
# Elastic Constant Matrix: (Units=GPa)
#
#
# Indices 1 2 3 4 5 6 
#
# 1 143.0006 40.8907 64.5242 -6.9749 3.7377 -6.6308
# 2 40.8907 99.4627 43.4011 1.8258 18.7121 6.8273
# 3 64.5242 43.4011 124.2588 2.7282 19.7366 -0.5945
# 4 -6.9749 1.8258 2.7282 41.8211 2.9256 11.2847
# 5 3.7377 18.7121 19.7366 2.9256 62.4422 11.0291
# 6 -6.6308 6.8273 -0.5945 11.2847 11.0291 47.1212
#
#
#
# Elastic Compliance Matrix: (Units=1/GPa)
#
#
# Indices 1 2 3 4 5 6 
#
# 1 0.009800 -0.002414 -0.004485 0.001681 0.001306 0.000964
# 2 -0.002414 0.012877 -0.002847 -0.000168 -0.002522 -0.001611
# 3 -0.004485 -0.002847 0.011839 -0.001453 -0.002713 0.000914
# 4 0.001681 -0.000168 -0.001453 0.025900 0.000259 -0.006021
# 5 0.001306 -0.002522 -0.002713 0.000259 0.018211 -0.003810
# 6 0.000964 -0.001611 0.000914 -0.006021 -0.003810 0.023936
#
#
# Mechanical properties :
#
#
# Convention : Reuss Voigt Hill
#
# Bulk Modulus (GPa) = 66.57081 73.81713 70.19397
# Shear Modulus (GPa) = 39.35040 44.80399 42.07720
#
# Velocity S-wave (km/s) = 3.98079 4.24769 4.11640
# Velocity P-wave (km/s) = 6.92369 7.33375 7.13167
#
# Compressibility (1/GPa) = 0.01502160
#
# Stress axis : x y z
#
# Youngs Moduli (GPa) = 102.04443 77.65641 84.47000
#
# Poissons Ratio (x) = 0.18749 0.37885
# Poissons Ratio (y) = 0.24637 0.24053
# Poissons Ratio (z) = 0.45768 0.22113
#
# Static dielectric constant tensor:
#      x y z
#    x 4.903120 0.079860 0.170080 
#    y 0.079860 4.145530 0.170720 
#    z 0.170080 0.170720 4.972820 
# 
# 
# High freq. dielectric constant tensor:
#      x y z
#    x 2.008570 0.011820 -0.000600 
#    y 0.011820 1.968280 0.018450 
#    z -0.000600 0.018450 2.012780 
# 
# From -- ./inp_files/160339.got.cif
#   From: 2010.06.25/outbox.cif.g09.slc.cpg/sg2_81_cif.got.tgz:160339.got - 2010.06.27 13:26:56.
