data_PCOD8035365
_publ_section_title
;
Structure prediction by ZEFSAII (Michael W. Deem and Ramdas Pophale) SiO2 
 PCOD8035365
Probable space group: P -1
;
_chemical_formula_sum "Si O2"
_cell_formula_units_Z 16
_cell_length_a 16.184518
_cell_length_b 26.710875
_cell_length_c 11.263037
_cell_angle_alpha 33.819103
_cell_angle_beta 23.641792
_cell_angle_gamma 21.023111
_cell_volume 690.413709
_symmetry_space_group_name_H-M "P -1"
_symmetry_group_IT_number 2
_symmetry_cell_setting 'triclinic'
loop_
_space_group_symop_operation_xyz
x,y,z
-x,-y,-z
loop_
_atom_site_type_symbol
_atom_site_label
_atom_site_fract_x
_atom_site_fract_y
_atom_site_fract_z
Si Si1 0.201150 0.796339 0.445367
Si Si2 0.417780 0.076360 0.580708
Si Si3 0.302600 0.917964 0.342843
Si Si4 0.147166 0.180916 0.331359
Si Si5 0.717745 0.254957 0.167784
Si Si6 0.592016 0.366164 0.861782
Si Si7 0.428412 0.442128 0.387776
Si Si8 0.319030 0.306572 0.169294
O O1 0.401034 0.697431 0.491928
O O2 0.115563 0.743951 0.574327
O O3 0.431338 0.786061 0.087469
O O4 0.837064 0.955576 0.639405
O O5 0.373398 0.198459 0.387564
O O6 0.500000 0.000000 0.500000
O O7 0.687221 0.965921 0.544722
O O8 0.092789 0.140813 0.932017
O O9 0.411528 0.798783 0.516548
O O10 0.590355 0.839905 0.025651
O O11 0.000000 0.000000 0.500000
O O12 0.928660 0.291192 0.510353
O O13 0.521951 0.399058 0.211297
O O14 0.667797 0.278293 0.047463
O O15 0.424281 0.514362 0.838427
O O16 0.381718 0.375809 0.029430
O O17 0.040287 0.567517 0.659622
#
# Coordination Sequence:
#
# PCOD8035365 Si02
#       8
#     2   2   2   2   2   2   2   2
#     4  11  26  45  70 104 142 183 235 292 353 425
#     4  12  22  43  73 102 143 182 229 294 353 416
#     4  12  24  42  70 107 137 181 234 284 365 414
#     4  11  25  44  70 106 139 182 231 298 351 414
#     4  12  25  44  72 103 143 187 234 295 349 421
#     4  11  27  47  71 106 139 189 242 287 347 424
#     4  12  25  48  69  98 152 185 239 286 352 414
#     4  11  27  44  74 106 137 195 236 288 355 414
#
# _framework density 23.174510000000001
#
# number of rings (size 3 to 8) (size 9 to 14) (size 15 to 20)
#    0.000    0.500    5.000    1.875    3.500    5.500 
#    0.000    0.000    0.000    0.000    0.000    0.000 
#    0.000    0.000    0.000    0.000    0.000    0.000 
#
# Total GULP energy -198294.551711 kJ/mol
# GULP energy per Si atom -12393.409482 kJ/mol
# Density = 2.312176 g / cm^3
# Si number density = 23.174510 Si / 1000 Ang^3
#
#
#
# Elastic Constant Matrix: (Units=GPa)
#
#
# Indices 1 2 3 4 5 6 
#
# 1 98.0958 26.6722 36.6145 1.1415 9.3579 4.6053
# 2 26.6722 84.9671 36.3071 -6.5207 1.7133 14.3204
# 3 36.6145 36.3071 130.1175 -2.6868 15.8344 7.3671
# 4 1.1415 -6.5207 -2.6868 31.0868 -0.0854 -3.2267
# 5 9.3579 1.7133 15.8344 -0.0854 36.8567 2.0225
# 6 4.6053 14.3204 7.3671 -3.2267 2.0225 36.1403
#
#
#
# Elastic Compliance Matrix: (Units=1/GPa)
#
#
# Indices 1 2 3 4 5 6 
#
# 1 0.012051 -0.002826 -0.002401 -0.001241 -0.001904 0.000069
# 2 -0.002826 0.015023 -0.003280 0.002478 0.001697 -0.004798
# 3 -0.002401 -0.003280 0.009703 0.000212 -0.003397 -0.000163
# 4 -0.001241 0.002478 0.000212 0.032967 0.000071 0.002072
# 5 -0.001904 0.001697 -0.003397 0.000071 0.029071 -0.001358
# 6 0.000069 -0.004798 -0.000163 0.002072 -0.001358 0.029856
#
#
# Mechanical properties :
#
#
# Convention : Reuss Voigt Hill
#
# Bulk Modulus (GPa) = 50.59783 56.92975 53.76379
# Shear Modulus (GPa) = 32.83586 35.05587 33.94587
#
# Velocity S-wave (km/s) = 3.76825 3.89355 3.83141
# Velocity P-wave (km/s) = 6.38856 6.69567 6.54392
#
# Compressibility (1/GPa) = 0.01976369
#
# Stress axis : x y z
#
# Youngs Moduli (GPa) = 82.97892 66.56651 103.05820
#
# Poissons Ratio (x) = 0.18810 0.24740
# Poissons Ratio (y) = 0.23448 0.33807
# Poissons Ratio (z) = 0.19919 0.21837
#
# Static dielectric constant tensor:
#      x y z
#    x 3.844470 -0.236770 -0.059580 
#    y -0.236770 3.747990 -0.197110 
#    z -0.059580 -0.197110 4.167760 
# 
# 
# High freq. dielectric constant tensor:
#      x y z
#    x 1.925120 0.004850 0.017040 
#    y 0.004850 1.910560 0.004750 
#    z 0.017040 0.004750 1.920990 
# 
# From -- ./inp_files/467685.got.cif
#   From: 2010.06.25/outbox.cif.g09.slc.cpg/sg2_234_cif.got.tgz:467685.got - 2010.06.27 13:26:56.
