data_PCOD8035370
_publ_section_title
;
Structure prediction by ZEFSAII (Michael W. Deem and Ramdas Pophale) SiO2 
 PCOD8035370
Probable space group: P -1
;
_chemical_formula_sum "Si O2"
_cell_formula_units_Z 14
_cell_length_a 8.919792
_cell_length_b 14.252411
_cell_length_c 12.222578
_cell_angle_alpha 119.803560
_cell_angle_beta 128.970042
_cell_angle_gamma 30.156462
_cell_volume 602.523668
_symmetry_space_group_name_H-M "P -1"
_symmetry_group_IT_number 2
_symmetry_cell_setting 'triclinic'
loop_
_space_group_symop_operation_xyz
x,y,z
-x,-y,-z
loop_
_atom_site_type_symbol
_atom_site_label
_atom_site_fract_x
_atom_site_fract_y
_atom_site_fract_z
Si Si1 0.077756 0.529686 0.443934
Si Si2 0.133657 0.440290 0.854520
Si Si3 0.153022 0.817032 0.925479
Si Si4 0.133051 0.210877 0.816306
Si Si5 0.190604 0.805801 0.500338
Si Si6 0.858862 0.793996 0.934724
Si Si7 0.895576 0.844050 0.599426
O O1 0.417693 0.348930 0.427595
O O2 0.000000 0.500000 0.500000
O O3 0.797339 0.633863 0.281801
O O4 0.093809 0.642643 0.560304
O O5 0.042024 0.379032 0.852346
O O6 0.855708 0.664270 0.850364
O O7 0.453391 0.346717 0.005085
O O8 0.138692 0.724874 0.951389
O O9 0.966420 0.867973 0.759901
O O10 0.000000 0.000000 0.000000
O O11 0.896090 0.253977 0.652149
O O12 0.518365 0.002135 0.849523
O O13 0.064653 0.207178 0.906748
O O14 0.064343 0.842484 0.585888
O O15 0.000000 0.000000 0.500000
O O16 0.500000 0.000000 0.500000
#
# Coordination Sequence:
#
# PCOD8035370 Si02
#       7
#     2   2   2   2   2   2   2
#     4  12  27  48  75 109 151 195 255 312 380 456
#     4  12  25  46  73 105 148 193 249 305 375 445
#     4  12  26  45  74 108 148 198 251 304 381 446
#     4  11  25  46  71 106 148 189 247 312 369 449
#     4  12  27  46  75 108 149 198 254 306 385 449
#     4  11  25  44  70 107 147 192 244 305 374 441
#     4  12  26  48  76 109 152 197 249 313 375 454
#
# _framework density 23.235602
#
# number of rings (size 3 to 8) (size 9 to 14) (size 15 to 20)
#    0.000    0.286    2.857    5.571    6.000    1.143 
#    0.000    0.000    0.000    0.000    0.000    0.000 
#    0.000    0.000    0.000    0.000    0.000    0.000 
#
# Total GULP energy -173544.104313 kJ/mol
# GULP energy per Si atom -12396.007451 kJ/mol
# Density = 2.318272 g / cm^3
# Si number density = 23.235602 Si / 1000 Ang^3
#
#
#
# Elastic Constant Matrix: (Units=GPa)
#
#
# Indices 1 2 3 4 5 6 
#
# 1 168.0138 47.9898 35.9128 -2.0204 -12.6470 6.5161
# 2 47.9898 122.0119 18.9621 12.5582 7.2035 18.5459
# 3 35.9128 18.9621 148.4404 5.8592 -6.6543 -6.4796
# 4 -2.0204 12.5582 5.8592 33.9456 3.6528 7.0615
# 5 -12.6470 7.2035 -6.6543 3.6528 38.6714 5.5455
# 6 6.5161 18.5459 -6.4796 7.0615 5.5455 51.8428
#
#
#
# Elastic Compliance Matrix: (Units=1/GPa)
#
#
# Indices 1 2 3 4 5 6 
#
# 1 0.007309 -0.002896 -0.001367 0.001574 0.002625 -0.000549
# 2 -0.002896 0.010315 -0.000721 -0.003042 -0.002310 -0.002755
# 3 -0.001367 -0.000721 0.007320 -0.001475 0.000878 0.001452
# 4 0.001574 -0.003042 -0.001475 0.031831 -0.001684 -0.003449
# 5 0.002625 -0.002310 0.000878 -0.001684 0.027764 -0.002134
# 6 -0.000549 -0.002755 0.001452 -0.003449 -0.002134 0.021223
#
#
# Mechanical properties :
#
#
# Convention : Reuss Voigt Hill
#
# Bulk Modulus (GPa) = 66.76632 71.57727 69.17180
# Shear Modulus (GPa) = 41.41736 47.26538 44.34137
#
# Velocity S-wave (km/s) = 4.22654 4.51508 4.37319
# Velocity P-wave (km/s) = 7.25362 7.61926 7.43869
#
# Compressibility (1/GPa) = 0.01497761
#
# Stress axis : x y z
#
# Youngs Moduli (GPa) = 136.81823 96.94425 136.60477
#
# Poissons Ratio (x) = 0.28074 0.18671
# Poissons Ratio (y) = 0.39621 0.09846
# Poissons Ratio (z) = 0.18700 0.06988
#
# Static dielectric constant tensor:
#      x y z
#    x 4.198420 0.126060 -0.026110 
#    y 0.126060 4.392530 0.001060 
#    z -0.026110 0.001060 4.323970 
# 
# 
# High freq. dielectric constant tensor:
#      x y z
#    x 1.930150 0.012480 -0.002950 
#    y 0.012480 1.924910 0.005910 
#    z -0.002950 0.005910 1.933210 
# 
# From -- ./inp_files/399388.got.cif
#   From: 2010.06.25/outbox.cif.g09.slc.cpg/sg2_200_cif.got.tgz:399388.got - 2010.06.27 13:26:56.
