data_PCOD8035894
_publ_section_title
;
Structure prediction by ZEFSAII (Michael W. Deem and Ramdas Pophale) SiO2 
 PCOD8035894
Probable space group: P -1
;
_chemical_formula_sum "Si O2"
_cell_formula_units_Z 16
_cell_length_a 12.085301
_cell_length_b 8.105653
_cell_length_c 14.338782
_cell_angle_alpha 53.737688
_cell_angle_beta 85.117940
_cell_angle_gamma 53.384026
_cell_volume 827.654403
_symmetry_space_group_name_H-M "P -1"
_symmetry_group_IT_number 2
_symmetry_cell_setting 'triclinic'
loop_
_space_group_symop_operation_xyz
x,y,z
-x,-y,-z
loop_
_atom_site_type_symbol
_atom_site_label
_atom_site_fract_x
_atom_site_fract_y
_atom_site_fract_z
Si Si1 0.634574 0.721315 0.862854
Si Si2 0.936138 0.013972 0.647863
Si Si3 0.415190 0.567126 0.630950
Si Si4 0.650714 0.900966 0.120933
Si Si5 0.476055 0.543719 0.139287
Si Si6 0.851482 0.397800 0.377840
Si Si7 0.660566 0.090401 0.641692
Si Si8 0.237018 0.576621 0.873583
O O1 0.569113 0.615175 0.845699
O O2 0.507070 0.963919 0.863683
O O3 0.695036 0.810286 0.754147
O O4 0.776119 0.484467 0.998030
O O5 0.992372 0.820030 0.617012
O O6 0.069521 0.864560 0.763244
O O7 0.880164 0.308895 0.515062
O O8 0.794714 0.065719 0.681905
O O9 0.522367 0.477056 0.741668
O O10 0.268798 0.616097 0.653941
O O11 0.505073 0.329817 0.625717
O O12 0.360174 0.845101 0.489757
O O13 0.780709 0.711972 0.256275
O O14 0.692997 0.689307 0.107101
O O15 0.642047 0.137387 0.997323
O O16 0.646004 0.380308 0.147751
#
# Coordination Sequence:
#
# PCOD8035894 Si02
#       8
#     2   2   2   2   2   2   2   2
#     4  11  21  32  50  79 114 136 173 212 262 315
#     4   9  18  30  54  84 104 129 167 230 259 304
#     4  10  18  34  56  80 101 136 181 219 251 301
#     4  10  17  31  56  79 101 129 183 226 248 289
#     4  11  20  32  53  79 106 140 175 217 256 305
#     4   9  16  31  55  82 101 126 176 226 257 289
#     4  10  20  33  54  82 105 134 174 216 265 307
#     4  10  18  33  56  79 103 134 179 221 260 295
#
# _framework density 19.331741999999998
#
# number of rings (size 3 to 8) (size 9 to 14) (size 15 to 20)
#    0.000    2.000    3.750    3.750    0.000    1.000 
#    0.000    0.000    0.000   12.750    0.000    0.000 
#    0.000    0.000    0.000    0.000    0.000    0.000 
#
# Total GULP energy -198215.539068 kJ/mol
# GULP energy per Si atom -12388.471192 kJ/mol
# Density = 1.928774 g / cm^3
# Si number density = 19.331742 Si / 1000 Ang^3
#
#
#
# Elastic Constant Matrix: (Units=GPa)
#
#
# Indices 1 2 3 4 5 6 
#
# 1 61.2783 14.0317 54.9527 -4.7282 -6.9604 4.0252
# 2 14.0317 22.6230 24.0633 3.3710 3.6403 0.6810
# 3 54.9527 24.0633 202.5079 -7.6656 -2.2889 11.8778
# 4 -4.7282 3.3710 -7.6656 17.7232 -8.7384 2.5399
# 5 -6.9604 3.6403 -2.2889 -8.7384 31.7842 -0.0010
# 6 4.0252 0.6810 11.8778 2.5399 -0.0010 18.8223
#
#
#
# Elastic Compliance Matrix: (Units=1/GPa)
#
#
# Indices 1 2 3 4 5 6 
#
# 1 0.026484 -0.015495 -0.004434 0.014202 0.011159 -0.004221
# 2 -0.015495 0.067320 -0.005673 -0.030418 -0.019874 0.008561
# 3 -0.004434 -0.005673 0.007226 0.004269 0.001373 -0.003983
# 4 0.014202 -0.030418 0.004269 0.085089 0.030294 -0.016111
# 5 0.011159 -0.019874 0.001373 0.030294 0.044610 -0.006619
# 6 -0.004221 0.008561 -0.003983 -0.016111 -0.006619 0.058408
#
#
# Mechanical properties :
#
#
# Convention : Reuss Voigt Hill
#
# Bulk Modulus (GPa) = 20.06960 52.50052 36.28506
# Shear Modulus (GPa) = 14.00756 26.55669 20.28212
#
# Velocity S-wave (km/s) = 2.69474 3.71041 3.24259
# Velocity P-wave (km/s) = 4.48178 6.75077 5.72971
#
# Compressibility (1/GPa) = 0.04982660
#
# Stress axis : x y z
#
# Youngs Moduli (GPa) = 37.75843 14.85439 138.38570
#
# Poissons Ratio (x) = 0.23016 0.61365
# Poissons Ratio (y) = 0.58505 0.78506
# Poissons Ratio (z) = 0.16743 0.08427
#
# Static dielectric constant tensor:
#      x y z
#    x 3.200430 -0.191650 -0.083150 
#    y -0.191650 3.076910 -0.069890 
#    z -0.083150 -0.069890 4.457020 
# 
# 
# High freq. dielectric constant tensor:
#      x y z
#    x 1.714990 -0.018800 -0.004290 
#    y -0.018800 1.698400 -0.003680 
#    z -0.004290 -0.003680 1.795070 
# 
# From -- ./inp_files/278487.got.cif
#   From: 2010.06.25/outbox.cif.g09.slc.cpg/sg2_140_cif.got.tgz:278487.got - 2010.06.27 13:26:56.
