data_PCOD8035818
_publ_section_title
;
Structure prediction by ZEFSAII (Michael W. Deem and Ramdas Pophale) SiO2 
 PCOD8035818
Probable space group: P -1
;
_chemical_formula_sum "Si O2"
_cell_formula_units_Z 16
_cell_length_a 12.532221
_cell_length_b 18.088469
_cell_length_c 15.451998
_cell_angle_alpha 151.093333
_cell_angle_beta 27.157099
_cell_angle_gamma 133.705036
_cell_volume 708.761625
_symmetry_space_group_name_H-M "P -1"
_symmetry_group_IT_number 2
_symmetry_cell_setting 'triclinic'
loop_
_space_group_symop_operation_xyz
x,y,z
-x,-y,-z
loop_
_atom_site_type_symbol
_atom_site_label
_atom_site_fract_x
_atom_site_fract_y
_atom_site_fract_z
Si Si1 0.450441 0.493142 0.629894
Si Si2 0.391015 0.699098 0.279078
Si Si3 0.010598 0.265856 0.691164
Si Si4 0.846392 0.823653 0.794944
Si Si5 0.504265 0.837796 0.663451
Si Si6 0.292280 0.212166 0.719861
Si Si7 0.345786 0.856725 0.290169
Si Si8 0.116695 0.431177 0.621134
O O1 0.500000 0.500000 0.500000
O O2 0.562529 0.302360 0.385131
O O3 0.619369 0.592121 0.642135
O O4 0.165836 0.590377 0.969254
O O5 0.567274 0.771502 0.277788
O O6 0.391110 0.739385 0.219071
O O7 0.108403 0.801308 0.631987
O O8 0.500000 0.500000 0.000000
O O9 0.850970 0.172445 0.664843
O O10 0.247578 0.143131 0.452472
O O11 0.138292 0.353308 0.621872
O O12 0.991722 0.665500 0.464513
O O13 0.626134 0.814613 0.004856
O O14 0.734731 0.983939 0.975767
O O15 0.538512 0.794022 0.492434
O O16 0.226142 0.049502 0.603743
O O17 0.034895 0.372780 0.060888
#
# Coordination Sequence:
#
# PCOD8035818 Si02
#       8
#     2   2   2   2   2   2   2   2
#     4  12  24  42  72 105 143 191 235 284 351 422
#     4  12  25  49  76  98 144 187 233 300 356 411
#     4  12  23  47  70 102 151 187 231 287 354 417
#     4  11  26  47  69 109 136 184 237 286 357 418
#     4  11  26  45  71 104 147 184 235 295 345 421
#     4  11  25  47  72 105 142 187 236 294 354 412
#     4  11  26  46  73 107 142 183 239 291 350 422
#     4  12  23  44  70 104 142 183 237 283 352 423
#
# _framework density 22.574584999999999
#
# number of rings (size 3 to 8) (size 9 to 14) (size 15 to 20)
#    0.000    0.500    6.250    1.500    1.750    5.000 
#    4.500    0.000    0.000    0.000    0.000    0.000 
#    0.000    0.000    0.000    0.000    0.000    0.000 
#
# Total GULP energy -198263.185352 kJ/mol
# GULP energy per Si atom -12391.449084 kJ/mol
# Density = 2.252320 g / cm^3
# Si number density = 22.574585 Si / 1000 Ang^3
#
#
#
# Elastic Constant Matrix: (Units=GPa)
#
#
# Indices 1 2 3 4 5 6 
#
# 1 94.9265 27.6651 21.5067 9.1285 -3.1720 6.0640
# 2 27.6651 134.1750 46.9250 7.0858 -5.4274 -5.1717
# 3 21.5067 46.9250 116.4617 21.2100 -13.6310 3.8267
# 4 9.1285 7.0858 21.2100 41.1891 3.8618 -2.6075
# 5 -3.1720 -5.4274 -13.6310 3.8618 38.5714 -1.0094
# 6 6.0640 -5.1717 3.8267 -2.6075 -1.0094 31.8407
#
#
#
# Elastic Compliance Matrix: (Units=1/GPa)
#
#
# Indices 1 2 3 4 5 6 
#
# 1 0.011710 -0.002109 -0.000794 -0.002039 0.000521 -0.002628
# 2 -0.002109 0.009174 -0.003568 0.000894 -0.000171 0.002388
# 3 -0.000794 -0.003568 0.011781 -0.005802 0.004120 -0.002189
# 4 -0.002039 0.000894 -0.005802 0.028231 -0.004830 0.003390
# 5 0.000521 -0.000171 0.004120 -0.004830 0.027881 -0.000134
# 6 -0.002628 0.002388 -0.002189 0.003390 -0.000134 0.032831
#
#
# Mechanical properties :
#
#
# Convention : Reuss Voigt Hill
#
# Bulk Modulus (GPa) = 50.70247 59.75076 55.22661
# Shear Modulus (GPa) = 35.42935 38.95133 37.19034
#
# Velocity S-wave (km/s) = 3.96591 4.15836 4.06327
# Velocity P-wave (km/s) = 6.59393 7.04142 6.82135
#
# Compressibility (1/GPa) = 0.01972291
#
# Stress axis : x y z
#
# Youngs Moduli (GPa) = 85.39386 109.00774 84.87889
#
# Poissons Ratio (x) = 0.22994 0.06739
# Poissons Ratio (y) = 0.18013 0.30284
# Poissons Ratio (z) = 0.06780 0.38893
#
# Static dielectric constant tensor:
#      x y z
#    x 4.368520 0.726040 -0.236260 
#    y 0.726040 5.951220 -0.427100 
#    z -0.236260 -0.427100 4.232800 
# 
# 
# High freq. dielectric constant tensor:
#      x y z
#    x 1.894700 0.010070 -0.000330 
#    y 0.010070 1.905100 -0.001670 
#    z -0.000330 -0.001670 1.892620 
# 
# From -- ./inp_files/523463.got.cif
#   From: 2010.06.25/outbox.cif.g09.slc.cpg/sg2_262_cif.got.tgz:523463.got - 2010.06.27 13:26:56.
