data_PCOD8035184
_publ_section_title
;
Structure prediction by ZEFSAII (Michael W. Deem and Ramdas Pophale) SiO2 
 PCOD8035184
Probable space group: P -1
;
_chemical_formula_sum "Si O2"
_cell_formula_units_Z 16
_cell_length_a 8.725128
_cell_length_b 14.402487
_cell_length_c 9.081802
_cell_angle_alpha 76.405576
_cell_angle_beta 114.940700
_cell_angle_gamma 57.722986
_cell_volume 699.719517
_symmetry_space_group_name_H-M "P -1"
_symmetry_group_IT_number 2
_symmetry_cell_setting 'triclinic'
loop_
_space_group_symop_operation_xyz
x,y,z
-x,-y,-z
loop_
_atom_site_type_symbol
_atom_site_label
_atom_site_fract_x
_atom_site_fract_y
_atom_site_fract_z
Si Si1 0.783025 0.061212 0.282140
Si Si2 0.179828 0.003052 0.000375
Si Si3 0.149946 0.609396 0.685241
Si Si4 0.647749 0.323423 0.059082
Si Si5 0.712954 0.483012 0.550738
Si Si6 0.978748 0.270168 0.970832
Si Si7 0.556941 0.875418 0.638074
Si Si8 0.615966 0.743667 0.437278
O O1 0.661768 0.204960 0.113972
O O2 0.590169 0.077499 0.288388
O O3 0.862871 0.970474 0.202843
O O4 0.000000 0.000000 0.500000
O O5 0.457762 0.859062 0.202926
O O6 0.122912 0.129409 0.995723
O O7 0.000000 0.000000 0.000000
O O8 0.187405 0.701034 0.731237
O O9 0.176431 0.596116 0.527202
O O10 0.884915 0.676675 0.584101
O O11 0.361955 0.462874 0.907593
O O12 0.742633 0.323720 0.939209
O O13 0.500000 0.500000 0.500000
O O14 0.623011 0.628234 0.454364
O O15 0.914018 0.383966 0.794291
O O16 0.155840 0.245439 0.170862
O O17 0.488850 0.819265 0.515029
O O18 0.500000 0.000000 0.500000
#
# Coordination Sequence:
#
# PCOD8035184 Si02
#       8
#     2   2   2   2   2   2   2   2
#     4  12  28  44  76 105 145 194 251 299 379 442
#     4  12  25  47  76 108 144 193 247 309 371 439
#     4  11  26  46  74 102 153 190 247 299 373 438
#     4  11  24  49  72 106 144 200 240 306 365 446
#     4  12  27  45  70 111 145 194 247 302 362 439
#     4  12  25  46  75 105 151 185 244 309 368 432
#     4  12  27  49  71 109 149 189 245 309 369 439
#     4  12  27  47  79 102 154 198 244 304 372 441
#
# _framework density 22.866305000000001
#
# number of rings (size 3 to 8) (size 9 to 14) (size 15 to 20)
#    0.000    0.250    5.000    3.375    7.000    1.000 
#    0.000    0.000    0.000    0.000    0.000    0.000 
#    0.000    0.000    0.000    0.000    0.000    0.000 
#
# Total GULP energy -198437.939701 kJ/mol
# GULP energy per Si atom -12402.371231 kJ/mol
# Density = 2.281426 g / cm^3
# Si number density = 22.866305 Si / 1000 Ang^3
#
#
#
# Elastic Constant Matrix: (Units=GPa)
#
#
# Indices 1 2 3 4 5 6 
#
# 1 84.5977 21.1125 17.9792 5.6416 0.7700 -16.1294
# 2 21.1125 114.4387 29.5276 19.4898 -12.5538 -0.6880
# 3 17.9792 29.5276 120.1966 8.1693 5.8837 -8.9230
# 4 5.6416 19.4898 8.1693 47.2954 -8.6648 -4.0513
# 5 0.7700 -12.5538 5.8837 -8.6648 45.7447 0.8787
# 6 -16.1294 -0.6880 -8.9230 -4.0513 0.8787 34.7384
#
#
#
# Elastic Compliance Matrix: (Units=1/GPa)
#
#
# Indices 1 2 3 4 5 6 
#
# 1 0.013794 -0.002325 -0.000984 -0.000157 -0.000891 0.006110
# 2 -0.002325 0.010616 -0.002303 -0.003379 0.002645 -0.001922
# 3 -0.000984 -0.002303 0.009319 -0.000749 -0.001991 0.001854
# 4 -0.000157 -0.003379 -0.000749 0.023540 0.003586 0.002322
# 5 -0.000891 0.002645 -0.001991 0.003586 0.023557 -0.001050
# 6 0.006110 -0.001922 0.001854 0.002322 -0.001050 0.032359
#
#
# Mechanical properties :
#
#
# Convention : Reuss Voigt Hill
#
# Bulk Modulus (GPa) = 44.43622 50.71905 47.57764
# Shear Modulus (GPa) = 37.90493 42.26328 40.08410
#
# Velocity S-wave (km/s) = 4.07587 4.30382 4.19140
# Velocity P-wave (km/s) = 6.45179 6.85026 6.65401
#
# Compressibility (1/GPa) = 0.02250416
#
# Stress axis : x y z
#
# Youngs Moduli (GPa) = 72.49765 94.20174 107.31210
#
# Poissons Ratio (x) = 0.21902 0.10562
# Poissons Ratio (y) = 0.16856 0.24709
# Poissons Ratio (z) = 0.07135 0.21690
#
# Static dielectric constant tensor:
#      x y z
#    x 0.000000 0.000000 0.000000 
#    y 0.000000 0.000000 0.000000 
#    z 0.000000 0.000000 0.000000 
# 
# 
# High freq. dielectric constant tensor:
#      x y z
#    x 1.890830 -0.004520 0.007470 
#    y -0.004520 1.916410 0.008290 
#    z 0.007470 0.008290 1.922690 
# 
# From -- ./inp_files/207007.got.cif
#   From: 2010.06.25/outbox.cif.g09.slc.cpg/sg2_104_cif.got.tgz:207007.got - 2010.06.27 13:26:56.
