data_PCOD8035537
_publ_section_title
;
Structure prediction by ZEFSAII (Michael W. Deem and Ramdas Pophale) SiO2 
 PCOD8035537
Probable space group: P -1
;
_chemical_formula_sum "Si O2"
_cell_formula_units_Z 14
_cell_length_a 9.382406
_cell_length_b 27.957686
_cell_length_c 8.895377
_cell_angle_alpha 153.486695
_cell_angle_beta 132.048107
_cell_angle_gamma 38.042155
_cell_volume 636.679885
_symmetry_space_group_name_H-M "P -1"
_symmetry_group_IT_number 2
_symmetry_cell_setting 'triclinic'
loop_
_space_group_symop_operation_xyz
x,y,z
-x,-y,-z
loop_
_atom_site_type_symbol
_atom_site_label
_atom_site_fract_x
_atom_site_fract_y
_atom_site_fract_z
Si Si1 0.960739 0.159264 0.292008
Si Si2 0.601294 0.395631 0.905297
Si Si3 0.191624 0.956831 0.389341
Si Si4 0.373900 0.142540 0.384245
Si Si5 0.006316 0.387601 0.280701
Si Si6 0.207927 0.379521 0.718555
Si Si7 0.769084 0.899115 0.416854
O O1 0.762091 0.263294 0.556066
O O2 0.114999 0.198058 0.418665
O O3 0.145436 0.053654 0.248365
O O4 0.834354 0.122623 0.982934
O O5 0.403631 0.404103 0.888609
O O6 0.500000 0.500000 0.000000
O O7 0.745487 0.423128 0.201357
O O8 0.453065 0.868885 0.394594
O O9 0.130864 0.089575 0.640111
O O10 0.000000 0.000000 0.500000
O O11 0.337341 0.244673 0.520838
O O12 0.500000 0.000000 0.000000
O O13 0.098322 0.370510 0.463989
O O14 0.000000 0.500000 0.500000
O O15 0.167102 0.245758 0.915466
O O16 0.000000 0.500000 0.000000
O O17 0.500000 0.000000 0.500000
#
# Coordination Sequence:
#
# PCOD8035537 Si02
#       7
#     2   2   2   2   2   2   2
#     4  11  26  43  74 104 147 186 245 288 359 426
#     4  11  25  47  74 105 139 190 249 291 352 437
#     4  12  26  43  70 107 149 187 233 296 365 420
#     4  12  26  45  70 108 152 184 233 301 359 422
#     4  11  26  47  75 103 144 188 243 295 356 429
#     4  12  29  47  75 105 147 188 240 300 366 423
#     4  11  25  45  73 107 140 189 239 293 356 426
#
# _framework density 21.989072
#
# number of rings (size 3 to 8) (size 9 to 14) (size 15 to 20)
#    0.000    0.571    4.286    2.143    8.000    1.714 
#    0.000    0.000    0.000    0.000    0.000    0.000 
#    0.000    0.000    0.000    0.000    0.000    0.000 
#
# Total GULP energy -173481.737995 kJ/mol
# GULP energy per Si atom -12391.552714 kJ/mol
# Density = 2.193902 g / cm^3
# Si number density = 21.989072 Si / 1000 Ang^3
#
#
#
# Elastic Constant Matrix: (Units=GPa)
#
#
# Indices 1 2 3 4 5 6 
#
# 1 161.0171 54.5220 53.6692 5.5872 14.2864 -1.1208
# 2 54.5220 186.0073 78.3589 -25.1397 23.2978 11.5951
# 3 53.6692 78.3589 116.8173 -16.5080 11.7614 -1.3946
# 4 5.5872 -25.1397 -16.5080 51.6482 5.1142 5.6733
# 5 14.2864 23.2978 11.7614 5.1142 31.1129 2.4231
# 6 -1.1208 11.5951 -1.3946 5.6733 2.4231 54.1063
#
#
#
# Elastic Compliance Matrix: (Units=1/GPa)
#
#
# Indices 1 2 3 4 5 6 
#
# 1 0.007812 -0.001256 -0.002951 -0.002353 -0.001195 0.000655
# 2 -0.001256 0.008831 -0.004354 0.003764 -0.004837 -0.002209
# 3 -0.002951 -0.004354 0.013279 0.002422 -0.000881 0.001000
# 4 -0.002353 0.003764 0.002422 0.023163 -0.006232 -0.002943
# 5 -0.001195 -0.004837 -0.000881 -0.006232 0.037672 -0.000045
# 6 0.000655 -0.002209 0.001000 -0.002943 -0.000045 0.019305
#
#
# Mechanical properties :
#
#
# Convention : Reuss Voigt Hill
#
# Bulk Modulus (GPa) = 78.12214 92.99354 85.55784
# Shear Modulus (GPa) = 38.03720 45.85959 41.94840
#
# Velocity S-wave (km/s) = 4.16363 4.57175 4.37245
# Velocity P-wave (km/s) = 7.66285 8.38156 8.03025
#
# Compressibility (1/GPa) = 0.01280047
#
# Stress axis : x y z
#
# Youngs Moduli (GPa) = 128.01536 113.24228 75.30408
#
# Poissons Ratio (x) = 0.14220 0.22221
# Poissons Ratio (y) = 0.16075 0.32787
# Poissons Ratio (z) = 0.37776 0.49306
#
# Static dielectric constant tensor:
#      x y z
#    x 0.491970 -2.776590 -1.727060 
#    y -2.776590 2.355830 -1.787120 
#    z -1.727060 -1.787120 3.023370 
# 
# 
# High freq. dielectric constant tensor:
#      x y z
#    x 1.878000 0.002530 0.007270 
#    y 0.002530 1.896060 -0.015460 
#    z 0.007270 -0.015460 1.855740 
# 
# From -- ./inp_files/227668.got.cif
#   From: 2010.06.25/outbox.cif.g09.slc.cpg/sg2_114_cif.got.tgz:227668.got - 2010.06.27 13:26:56.
