data_PCOD8035178
_publ_section_title
;
Structure prediction by ZEFSAII (Michael W. Deem and Ramdas Pophale) SiO2 
 PCOD8035178
Probable space group: P -1
;
_chemical_formula_sum "Si O2"
_cell_formula_units_Z 16
_cell_length_a 12.588578
_cell_length_b 9.069004
_cell_length_c 14.393011
_cell_angle_alpha 65.814608
_cell_angle_beta 131.026124
_cell_angle_gamma 144.983383
_cell_volume 679.569800
_symmetry_space_group_name_H-M "P -1"
_symmetry_group_IT_number 2
_symmetry_cell_setting 'triclinic'
loop_
_space_group_symop_operation_xyz
x,y,z
-x,-y,-z
loop_
_atom_site_type_symbol
_atom_site_label
_atom_site_fract_x
_atom_site_fract_y
_atom_site_fract_z
Si Si1 0.044824 0.877620 0.108501
Si Si2 0.504822 0.674660 0.642076
Si Si3 0.869427 0.545068 0.922526
Si Si4 0.074229 0.437881 0.724247
Si Si5 0.344010 0.742620 0.386731
Si Si6 0.400632 0.003305 0.711833
Si Si7 0.996120 0.811391 0.432433
Si Si8 0.192549 0.284870 0.313060
O O1 0.906607 0.715375 0.168677
O O2 0.323046 0.134086 0.222151
O O3 0.941471 0.648170 0.041558
O O4 0.000000 0.000000 0.000000
O O5 0.502448 0.847113 0.541865
O O6 0.248621 0.393886 0.602699
O O7 0.595092 0.616109 0.640660
O O8 0.955927 0.762975 0.842868
O O9 0.589920 0.265737 0.818514
O O10 0.000000 0.500000 0.000000
O O11 0.309175 0.760364 0.775582
O O12 0.005773 0.335198 0.605938
O O13 0.882972 0.365883 0.688812
O O14 0.285044 0.507070 0.377509
O O15 0.484555 0.956787 0.328744
O O16 0.193073 0.941236 0.586960
O O17 0.038794 0.021568 0.353350
#
# Coordination Sequence:
#
# PCOD8035178 Si02
#       8
#     2   2   2   2   2   2   2   2
#     4  12  25  49  73  97 145 197 245 289 345 424
#     4  12  25  44  76 107 145 188 231 299 361 426
#     4  11  26  47  74 100 142 200 241 290 351 423
#     4  12  26  46  73 112 142 188 239 301 361 425
#     4  11  25  43  77 106 149 184 229 304 374 421
#     4  11  25  45  73 109 147 179 237 298 361 431
#     4  12  26  43  78 113 144 180 240 301 371 425
#     4  11  24  49  71 106 149 188 237 297 362 428
#
# _framework density 23.544308000000001
#
# number of rings (size 3 to 8) (size 9 to 14) (size 15 to 20)
#    0.000    0.500    5.000    2.250    5.250    4.000 
#    2.250    1.250    0.000    0.000    0.000    0.000 
#    0.000    0.000    0.000    0.000    0.000    0.000 
#
# Total GULP energy -198307.948202 kJ/mol
# GULP energy per Si atom -12394.246763 kJ/mol
# Density = 2.349072 g / cm^3
# Si number density = 23.544308 Si / 1000 Ang^3
#
#
#
# Elastic Constant Matrix: (Units=GPa)
#
#
# Indices 1 2 3 4 5 6 
#
# 1 106.3257 46.1373 30.0644 -1.0570 7.1139 23.3935
# 2 46.1373 152.1512 43.3330 -12.9443 16.5895 21.0151
# 3 30.0644 43.3330 109.3394 0.4439 1.0366 4.3439
# 4 -1.0570 -12.9443 0.4439 53.2361 -10.9967 0.4576
# 5 7.1139 16.5895 1.0366 -10.9967 25.7300 1.6148
# 6 23.3935 21.0151 4.3439 0.4576 1.6148 33.4182
#
#
#
# Elastic Compliance Matrix: (Units=1/GPa)
#
#
# Indices 1 2 3 4 5 6 
#
# 1 0.012650 -0.002007 -0.002377 -0.000546 -0.001890 -0.007186
# 2 -0.002007 0.009111 -0.002873 0.001322 -0.004403 -0.003756
# 3 -0.002377 -0.002873 0.010845 -0.000494 0.001737 0.001984
# 4 -0.000546 0.001322 -0.000494 0.020819 0.008283 -0.001071
# 5 -0.001890 -0.004403 0.001737 0.008283 0.045599 0.001549
# 6 -0.007186 -0.003756 0.001984 -0.001071 0.001549 0.036998
#
#
# Mechanical properties :
#
#
# Convention : Reuss Voigt Hill
#
# Bulk Modulus (GPa) = 55.27673 67.43173 61.35423
# Shear Modulus (GPa) = 31.93517 39.02898 35.48207
#
# Velocity S-wave (km/s) = 3.68691 4.07588 3.88627
# Velocity P-wave (km/s) = 6.45392 7.13112 6.80096
#
# Compressibility (1/GPa) = 0.01809080
#
# Stress axis : x y z
#
# Youngs Moduli (GPa) = 79.05117 109.76262 92.20853
#
# Poissons Ratio (x) = 0.22026 0.21922
# Poissons Ratio (y) = 0.15863 0.26494
# Poissons Ratio (z) = 0.18794 0.31538
#
# Static dielectric constant tensor:
#      x y z
#    x 4.193220 -0.103520 -0.052090 
#    y -0.103520 4.684270 -0.258140 
#    z -0.052090 -0.258140 4.365910 
# 
# 
# High freq. dielectric constant tensor:
#      x y z
#    x 1.927320 -0.018630 -0.013240 
#    y -0.018630 1.948900 -0.012910 
#    z -0.013240 -0.012910 1.937880 
# 
# From -- ./inp_files/515421.got.cif
#   From: 2010.06.25/outbox.cif.g09.slc.cpg/sg2_258_cif.got.tgz:515421.got - 2010.06.27 13:26:56.
