data_PCOD8035443
_publ_section_title
;
Structure prediction by ZEFSAII (Michael W. Deem and Ramdas Pophale) SiO2 
 PCOD8035443
Probable space group: P -1
;
_chemical_formula_sum "Si O2"
_cell_formula_units_Z 14
_cell_length_a 11.723837
_cell_length_b 13.211489
_cell_length_c 9.130820
_cell_angle_alpha 41.381731
_cell_angle_beta 44.435395
_cell_angle_gamma 34.569872
_cell_volume 512.748397
_symmetry_space_group_name_H-M "P -1"
_symmetry_group_IT_number 2
_symmetry_cell_setting 'triclinic'
loop_
_space_group_symop_operation_xyz
x,y,z
-x,-y,-z
loop_
_atom_site_type_symbol
_atom_site_label
_atom_site_fract_x
_atom_site_fract_y
_atom_site_fract_z
Si Si1 0.472590 0.849242 0.114364
Si Si2 0.142357 0.549054 0.873349
Si Si3 0.958115 0.381478 0.771016
Si Si4 0.087423 0.882015 0.387430
Si Si5 0.422225 0.050214 0.679879
Si Si6 0.677963 0.344098 0.866071
Si Si7 0.641544 0.224219 0.311984
O O1 0.639178 0.615408 0.233677
O O2 0.242675 0.914926 0.284966
O O3 0.500000 0.000000 0.000000
O O4 0.513620 0.853948 0.897850
O O5 0.061058 0.760526 0.659832
O O6 0.000000 0.500000 0.000000
O O7 0.130192 0.539763 0.070820
O O8 0.178355 0.167912 0.804343
O O9 0.000000 0.500000 0.500000
O O10 0.783629 0.386892 0.845722
O O11 0.169886 0.773262 0.277321
O O12 0.867634 0.090788 0.325079
O O13 0.505150 0.159526 0.562116
O O14 0.500000 0.000000 0.500000
O O15 0.471746 0.552846 0.771132
O O16 0.638426 0.216691 0.142647
#
# Coordination Sequence:
#
# PCOD8035443 Si02
#       7
#     2   2   2   2   2   2   2
#     4  12  29  51  79 115 161 213 274 335 409 490
#     4  12  28  51  80 120 164 220 269 335 414 492
#     4  12  24  46  77 117 162 204 266 333 402 480
#     4  12  27  54  81 116 167 214 275 337 415 489
#     4  12  24  45  78 114 155 208 268 329 401 476
#     4  11  25  46  81 119 159 209 274 337 415 475
#     4  11  25  44  79 118 159 205 271 337 407 477
#
# _framework density 27.303837999999999
#
# number of rings (size 3 to 8) (size 9 to 14) (size 15 to 20)
#    0.000    0.286    1.429    6.857    6.000    1.143 
#    0.000    4.286    0.000    0.000    0.000    0.000 
#    0.000    0.000    0.000    0.000    0.000    0.000 
#
# Total GULP energy -173458.391858 kJ/mol
# GULP energy per Si atom -12389.885133 kJ/mol
# Density = 2.724169 g / cm^3
# Si number density = 27.303838 Si / 1000 Ang^3
#
#
#
# Elastic Constant Matrix: (Units=GPa)
#
#
# Indices 1 2 3 4 5 6 
#
# 1 117.0200 57.6957 24.5371 -2.8188 -8.8190 -12.2638
# 2 57.6957 166.7281 36.2147 6.9571 17.4477 -26.3315
# 3 24.5371 36.2147 159.1984 -8.9848 9.0820 -0.0161
# 4 -2.8188 6.9571 -8.9848 44.6413 9.4228 15.9818
# 5 -8.8190 17.4477 9.0820 9.4228 40.7917 13.0656
# 6 -12.2638 -26.3315 -0.0161 15.9818 13.0656 52.3786
#
#
#
# Elastic Compliance Matrix: (Units=1/GPa)
#
#
# Indices 1 2 3 4 5 6 
#
# 1 0.011129 -0.004276 -0.000977 0.000503 0.004608 -0.000847
# 2 -0.004276 0.009487 -0.001325 -0.002959 -0.005978 0.006162
# 3 -0.000977 -0.001325 0.006936 0.002267 -0.001310 -0.001258
# 4 0.000503 -0.002959 0.002267 0.027106 -0.002504 -0.009015
# 5 0.004608 -0.005978 -0.001310 -0.002504 0.031855 -0.009109
# 6 -0.000847 0.006162 -0.001258 -0.009015 -0.009109 0.027014
#
#
# Mechanical properties :
#
#
# Convention : Reuss Voigt Hill
#
# Bulk Modulus (GPa) = 69.45773 75.53793 72.49783
# Shear Modulus (GPa) = 38.02798 49.19559 43.61178
#
# Velocity S-wave (km/s) = 3.73603 4.24935 4.00093
# Velocity P-wave (km/s) = 6.64113 7.19734 6.92482
#
# Compressibility (1/GPa) = 0.01439725
#
# Stress axis : x y z
#
# Youngs Moduli (GPa) = 89.85323 105.40358 144.17606
#
# Poissons Ratio (x) = 0.45070 0.14089
# Poissons Ratio (y) = 0.38421 0.19097
# Poissons Ratio (z) = 0.08780 0.13961
#
# Static dielectric constant tensor:
#      x y z
#    x 5.546230 -0.373730 0.648660 
#    y -0.373730 4.485200 -0.360940 
#    z 0.648660 -0.360940 5.014880 
# 
# 
# High freq. dielectric constant tensor:
#      x y z
#    x 2.110980 -0.004450 0.001500 
#    y -0.004450 2.107280 0.002810 
#    z 0.001500 0.002810 2.136570 
# 
# From -- ./inp_files/314440.got.cif
#   From: 2010.06.25/outbox.cif.g09.slc.cpg/sg2_158_cif.got.tgz:314440.got - 2010.06.27 13:26:56.
