data_PCOD8035268
_publ_section_title
;
Structure prediction by ZEFSAII (Michael W. Deem and Ramdas Pophale) SiO2 
 PCOD8035268
Probable space group: P -1
;
_chemical_formula_sum "Si O2"
_cell_formula_units_Z 14
_cell_length_a 11.334650
_cell_length_b 21.089123
_cell_length_c 14.705994
_cell_angle_alpha 158.401236
_cell_angle_beta 29.253013
_cell_angle_gamma 152.296238
_cell_volume 576.102461
_symmetry_space_group_name_H-M "P -1"
_symmetry_group_IT_number 2
_symmetry_cell_setting 'triclinic'
loop_
_space_group_symop_operation_xyz
x,y,z
-x,-y,-z
loop_
_atom_site_type_symbol
_atom_site_label
_atom_site_fract_x
_atom_site_fract_y
_atom_site_fract_z
Si Si1 0.351613 0.136778 0.976027
Si Si2 0.617024 0.815107 0.191650
Si Si3 0.994216 0.670597 0.832904
Si Si4 0.071762 0.786159 0.533173
Si Si5 0.105274 0.202261 0.746439
Si Si6 0.686395 0.255496 0.455883
Si Si7 0.118442 0.575579 0.924894
O O1 0.585698 0.262901 0.054537
O O2 0.078530 0.155004 0.207722
O O3 0.430826 0.207577 0.914809
O O4 0.310159 0.921183 0.727214
O O5 0.331410 0.756263 0.354484
O O6 0.810787 0.034568 0.376769
O O7 0.741221 0.677661 0.961276
O O8 0.911813 0.445984 0.603052
O O9 0.248528 0.759910 0.715224
O O10 0.061340 0.787368 0.038022
O O11 0.866732 0.598477 0.372687
O O12 0.402004 0.262172 0.661510
O O13 0.000000 0.000000 0.500000
O O14 0.083296 0.349270 0.885134
O O15 0.000000 0.500000 0.000000
#
# Coordination Sequence:
#
# PCOD8035268 Si02
#       7
#     2   2   2   2   2   2   2
#     4  12  25  46  72 108 141 186 241 290 354 418
#     4  11  25  43  75 105 143 183 237 297 344 425
#     4  11  27  48  73 108 144 188 237 294 358 423
#     4  11  25  42  72 105 141 185 234 289 355 411
#     4  12  28  48  73 102 146 192 234 295 358 423
#     4  11  26  47  74 108 144 186 240 292 356 429
#     4  12  27  50  71 102 144 188 241 291 352 428
#
# _framework density 24.301234000000001
#
# number of rings (size 3 to 8) (size 9 to 14) (size 15 to 20)
#    0.000    0.571    4.286    2.143    8.000    1.714 
#    2.571    0.000    0.000    0.000    0.000    0.000 
#    0.000    0.000    0.000    0.000    0.000    0.000 
#
# Total GULP energy -173636.020932 kJ/mol
# GULP energy per Si atom -12402.572924 kJ/mol
# Density = 2.424592 g / cm^3
# Si number density = 24.301234 Si / 1000 Ang^3
#
#
#
# Elastic Constant Matrix: (Units=GPa)
#
#
# Indices 1 2 3 4 5 6 
#
# 1 86.2383 16.4749 49.1280 9.7895 5.2755 -6.0581
# 2 16.4749 76.1651 40.2341 -5.6652 5.7941 4.7729
# 3 49.1280 40.2341 146.2076 2.4253 17.2506 -7.4382
# 4 9.7895 -5.6652 2.4253 47.0885 5.8320 6.0888
# 5 5.2755 5.7941 17.2506 5.8320 54.4888 -4.5321
# 6 -6.0581 4.7729 -7.4382 6.0888 -4.5321 36.6380
#
#
#
# Elastic Compliance Matrix: (Units=1/GPa)
#
#
# Indices 1 2 3 4 5 6 
#
# 1 0.014961 -0.001271 -0.004583 -0.003420 0.000700 0.002364
# 2 -0.001271 0.016123 -0.004143 0.003018 -0.000916 -0.003767
# 3 -0.004583 -0.004143 0.009845 0.000012 -0.002108 0.001518
# 4 -0.003420 0.003018 0.000012 0.023344 -0.002924 -0.005197
# 5 0.000700 -0.000916 -0.002108 -0.002924 0.019588 0.002716
# 6 0.002364 -0.003767 0.001518 -0.005197 0.002716 0.029684
#
#
# Mechanical properties :
#
#
# Convention : Reuss Voigt Hill
#
# Bulk Modulus (GPa) = 47.76720 57.80948 52.78834
# Shear Modulus (GPa) = 35.58257 41.16133 38.37195
#
# Velocity S-wave (km/s) = 3.83068 4.12004 3.97799
# Velocity P-wave (km/s) = 6.26613 6.81713 6.54743
#
# Compressibility (1/GPa) = 0.02093487
#
# Stress axis : x y z
#
# Youngs Moduli (GPa) = 66.84154 62.02233 101.56975
#
# Poissons Ratio (x) = 0.07882 0.46549
# Poissons Ratio (y) = 0.08495 0.42085
# Poissons Ratio (z) = 0.30633 0.25699
#
# Static dielectric constant tensor:
#      x y z
#    x 4.543450 0.107420 -0.003600 
#    y 0.107420 4.494270 0.043940 
#    z -0.003600 0.043940 4.866660 
# 
# 
# High freq. dielectric constant tensor:
#      x y z
#    x 1.957700 -0.008280 0.004010 
#    y -0.008280 1.964820 0.000000 
#    z 0.004010 0.000000 1.992080 
# 
# From -- ./inp_files/524127.got.cif
#   From: 2010.06.25/outbox.cif.g09.slc.cpg/sg2_263_cif.got.tgz:524127.got - 2010.06.27 13:26:56.
