data_PCOD8035473
_publ_section_title
;
Structure prediction by ZEFSAII (Michael W. Deem and Ramdas Pophale) SiO2 
 PCOD8035473
Probable space group: P -1
;
_chemical_formula_sum "Si O2"
_cell_formula_units_Z 14
_cell_length_a 14.742262
_cell_length_b 6.449509
_cell_length_c 14.915289
_cell_angle_alpha 90.111349
_cell_angle_beta 26.898632
_cell_angle_gamma 80.364624
_cell_volume 595.080726
_symmetry_space_group_name_H-M "P -1"
_symmetry_group_IT_number 2
_symmetry_cell_setting 'triclinic'
loop_
_space_group_symop_operation_xyz
x,y,z
-x,-y,-z
loop_
_atom_site_type_symbol
_atom_site_label
_atom_site_fract_x
_atom_site_fract_y
_atom_site_fract_z
Si Si1 0.526677 0.128459 0.733788
Si Si2 0.868471 0.419760 0.691431
Si Si3 0.188728 0.964341 0.981483
Si Si4 0.594928 0.491273 0.292977
Si Si5 0.913583 0.748403 0.319018
Si Si6 0.575969 0.182497 0.887570
Si Si7 0.852203 0.421080 0.227881
O O1 0.432944 0.377646 0.775665
O O2 0.643554 0.120941 0.724686
O O3 0.682402 0.948597 0.527379
O O4 0.324546 0.057767 0.927547
O O5 0.795701 0.210770 0.730110
O O6 0.000000 0.500000 0.500000
O O7 0.024805 0.372252 0.639467
O O8 0.637643 0.599582 0.920062
O O9 0.025208 0.168863 0.068453
O O10 0.082221 0.858104 0.147264
O O11 0.340506 0.773097 0.780703
O O12 0.789816 0.521415 0.181200
O O13 0.368050 0.597212 0.542870
O O14 0.923996 0.576266 0.230454
O O15 0.500000 0.000000 0.000000
#
# Coordination Sequence:
#
# PCOD8035473 Si02
#       7
#     2   2   2   2   2   2   2
#     4  12  26  44  72 101 144 182 234 286 348 419
#     4  11  26  44  71 102 139 182 237 291 355 420
#     4  12  24  45  71 101 139 189 230 289 348 408
#     4  11  25  45  70 104 138 187 235 289 343 419
#     4  12  26  45  70 103 139 184 233 289 350 418
#     4  11  25  46  69 104 140 183 233 293 353 423
#     4  11  25  45  71 101 142 183 238 286 349 411
#
# _framework density 23.526219000000001
#
# number of rings (size 3 to 8) (size 9 to 14) (size 15 to 20)
#    0.000    0.571    2.857    4.714    2.000    9.714 
#    0.000    0.000    0.000    0.000    0.000    0.000 
#    0.000    0.000    0.000    0.000    0.000    0.000 
#
# Total GULP energy -173537.287530 kJ/mol
# GULP energy per Si atom -12395.520538 kJ/mol
# Density = 2.347267 g / cm^3
# Si number density = 23.526219 Si / 1000 Ang^3
#
#
#
# Elastic Constant Matrix: (Units=GPa)
#
#
# Indices 1 2 3 4 5 6 
#
# 1 148.1518 57.8526 10.0239 -3.6312 3.4753 -2.4122
# 2 57.8526 125.2288 22.2700 11.0772 -0.4980 2.4209
# 3 10.0239 22.2700 52.7136 23.3676 -3.1507 5.2396
# 4 -3.6312 11.0772 23.3676 42.3391 4.1491 -2.5793
# 5 3.4753 -0.4980 -3.1507 4.1491 38.5352 -7.8315
# 6 -2.4122 2.4209 5.2396 -2.5793 -7.8315 34.8091
#
#
#
# Elastic Compliance Matrix: (Units=1/GPa)
#
#
# Indices 1 2 3 4 5 6 
#
# 1 0.008482 -0.003948 -0.001267 0.002619 -0.000994 0.001024
# 2 -0.003948 0.010477 -0.002916 -0.001536 0.000294 -0.000611
# 3 -0.001267 -0.002916 0.027858 -0.015299 0.003083 -0.004518
# 4 0.002619 -0.001536 -0.015299 0.033357 -0.004265 0.004103
# 5 -0.000994 0.000294 0.003083 -0.004265 0.027852 0.005397
# 6 0.001024 -0.000611 -0.004518 0.004103 0.005397 0.031040
#
#
# Mechanical properties :
#
#
# Convention : Reuss Voigt Hill
#
# Bulk Modulus (GPa) = 32.72892 56.26526 44.49709
# Shear Modulus (GPa) = 30.20909 38.86654 34.53782
#
# Velocity S-wave (km/s) = 3.58727 4.06895 3.83568
# Velocity P-wave (km/s) = 5.57672 6.78551 6.21059
#
# Compressibility (1/GPa) = 0.03055402
#
# Stress axis : x y z
#
# Youngs Moduli (GPa) = 117.90270 95.44822 35.89571
#
# Poissons Ratio (x) = 0.37687 0.04548
# Poissons Ratio (y) = 0.46553 0.10467
# Poissons Ratio (z) = 0.14939 0.27833
#
# Static dielectric constant tensor:
#      x y z
#    x 4.412190 0.175890 -0.075970 
#    y 0.175890 4.487180 0.120780 
#    z -0.075970 0.120780 4.453020 
# 
# 
# High freq. dielectric constant tensor:
#      x y z
#    x 1.935390 0.003690 -0.008190 
#    y 0.003690 1.934850 0.003430 
#    z -0.008190 0.003430 1.951500 
# 
# From -- ./inp_files/97764.got.cif
#   From: 2010.06.25/outbox.cif.g09.slc.cpg/sg2_49_cif.got.tgz:97764.got - 2010.06.27 13:26:56.
