data_PCOD8035755
_publ_section_title
;
Structure prediction by ZEFSAII (Michael W. Deem and Ramdas Pophale) SiO2 
 PCOD8035755
Probable space group: P -1
;
_chemical_formula_sum "Si O2"
_cell_formula_units_Z 14
_cell_length_a 17.736966
_cell_length_b 12.325873
_cell_length_c 8.899357
_cell_angle_alpha 35.762138
_cell_angle_beta 135.105989
_cell_angle_gamma 146.492590
_cell_volume 624.646508
_symmetry_space_group_name_H-M "P -1"
_symmetry_group_IT_number 2
_symmetry_cell_setting 'triclinic'
loop_
_space_group_symop_operation_xyz
x,y,z
-x,-y,-z
loop_
_atom_site_type_symbol
_atom_site_label
_atom_site_fract_x
_atom_site_fract_y
_atom_site_fract_z
Si Si1 0.089259 0.187107 0.283601
Si Si2 0.314596 0.869270 0.292335
Si Si3 0.748628 0.841675 0.693974
Si Si4 0.846307 0.398875 0.916190
Si Si5 0.368879 0.927408 0.805224
Si Si6 0.402759 0.694905 0.852792
Si Si7 0.920977 0.224942 0.748561
O O1 0.190117 0.147012 0.395869
O O2 0.176484 0.429573 0.228348
O O3 0.000000 0.000000 0.500000
O O4 0.006902 0.200494 0.018028
O O5 0.218309 0.666369 0.264260
O O6 0.382578 0.767739 0.582081
O O7 0.225074 0.890980 0.254512
O O8 0.431329 0.128256 0.089483
O O9 0.623640 0.856632 0.494873
O O10 0.879974 0.054305 0.738754
O O11 0.671719 0.582595 0.949108
O O12 0.761551 0.172398 0.160000
O O13 0.000000 0.500000 0.000000
O O14 0.333831 0.740922 0.836202
O O15 0.500000 0.000000 0.000000
O O16 0.000000 0.500000 0.500000
#
# Coordination Sequence:
#
# PCOD8035755 Si02
#       7
#     2   2   2   2   2   2   2
#     4  12  27  43  70 119 148 187 254 313 375 447
#     4  11  25  46  76 106 150 194 252 310 370 451
#     4  12  27  48  77 106 149 197 255 304 374 462
#     4  12  24  45  74 105 153 190 242 313 380 435
#     4  12  25  50  73 104 148 201 244 312 382 442
#     4  11  25  50  72 109 144 200 255 304 374 452
#     4  12  26  48  77 104 154 206 241 305 389 456
#
# _framework density 22.412676999999999
#
# number of rings (size 3 to 8) (size 9 to 14) (size 15 to 20)
#    0.000    0.286    5.714    3.000    4.000    1.143 
#    2.571    0.000    0.000    0.000    0.000    0.000 
#    0.000    0.000    0.000    0.000    0.000    0.000 
#
# Total GULP energy -173499.037081 kJ/mol
# GULP energy per Si atom -12392.788363 kJ/mol
# Density = 2.236167 g / cm^3
# Si number density = 22.412677 Si / 1000 Ang^3
#
#
#
# Elastic Constant Matrix: (Units=GPa)
#
#
# Indices 1 2 3 4 5 6 
#
# 1 122.4189 49.6846 29.4623 -10.9028 -4.8613 2.9390
# 2 49.6846 149.5240 57.0503 -3.0324 1.5301 -12.6002
# 3 29.4623 57.0503 121.4113 -9.1719 4.9930 -2.2966
# 4 -10.9028 -3.0324 -9.1719 40.3441 -0.7820 -1.1647
# 5 -4.8613 1.5301 4.9930 -0.7820 39.1527 -4.4835
# 6 2.9390 -12.6002 -2.2966 -1.1647 -4.4835 49.5556
#
#
#
# Elastic Compliance Matrix: (Units=1/GPa)
#
#
# Indices 1 2 3 4 5 6 
#
# 1 0.009891 -0.003017 -0.000893 0.002234 0.001365 -0.001219
# 2 -0.003017 0.009259 -0.003640 -0.000880 -0.000022 0.002342
# 3 -0.000893 -0.003640 0.010344 0.001798 -0.001306 -0.000469
# 4 0.002234 -0.000880 0.001798 0.025757 0.000642 0.000391
# 5 0.001365 -0.000022 -0.001306 0.000642 0.026146 0.002234
# 6 -0.001219 0.002342 -0.000469 0.000391 0.002234 0.021037
#
#
# Mechanical properties :
#
#
# Convention : Reuss Voigt Hill
#
# Bulk Modulus (GPa) = 69.47322 73.97209 71.72265
# Shear Modulus (GPa) = 40.87265 42.95425 41.91345
#
# Velocity S-wave (km/s) = 4.27504 4.38255 4.32913
# Velocity P-wave (km/s) = 7.44530 7.66063 7.55373
#
# Compressibility (1/GPa) = 0.01439404
#
# Stress axis : x y z
#
# Youngs Moduli (GPa) = 101.10643 108.00342 96.67390
#
# Poissons Ratio (x) = 0.32588 0.08630
# Poissons Ratio (y) = 0.30507 0.35187
# Poissons Ratio (z) = 0.09026 0.39311
#
# Static dielectric constant tensor:
#      x y z
#    x 0.000000 0.000000 0.000000 
#    y 0.000000 0.000000 0.000000 
#    z 0.000000 0.000000 0.000000 
# 
# 
# High freq. dielectric constant tensor:
#      x y z
#    x 1.899210 -0.005680 -0.010450 
#    y -0.005680 1.889690 -0.000610 
#    z -0.010450 -0.000610 1.883920 
# 
# From -- ./inp_files/285245.got.cif
#   From: 2010.06.25/outbox.cif.g09.slc.cpg/sg2_143_cif.got.tgz:285245.got - 2010.06.27 13:26:56.
