data_PCOD8035879
_publ_section_title
;
Structure prediction by ZEFSAII (Michael W. Deem and Ramdas Pophale) SiO2 
 PCOD8035879
Probable space group: P -1
;
_chemical_formula_sum "Si O2"
_cell_formula_units_Z 14
_cell_length_a 9.490164
_cell_length_b 5.113236
_cell_length_c 17.688109
_cell_angle_alpha 104.100432
_cell_angle_beta 62.634012
_cell_angle_gamma 65.197515
_cell_volume 581.776989
_symmetry_space_group_name_H-M "P -1"
_symmetry_group_IT_number 2
_symmetry_cell_setting 'triclinic'
loop_
_space_group_symop_operation_xyz
x,y,z
-x,-y,-z
loop_
_atom_site_type_symbol
_atom_site_label
_atom_site_fract_x
_atom_site_fract_y
_atom_site_fract_z
Si Si1 0.044221 0.243594 0.036008
Si Si2 0.863978 0.465144 0.254278
Si Si3 0.180998 0.925424 0.241409
Si Si4 0.479966 0.732777 0.953951
Si Si5 0.268709 0.300673 0.341156
Si Si6 0.427142 0.698667 0.372516
Si Si7 0.892732 0.890092 0.402032
O O1 0.906701 0.487883 0.157806
O O2 0.000000 0.500000 0.000000
O O3 0.000000 0.000000 0.000000
O O4 0.276254 0.958670 0.975078
O O5 0.664069 0.492574 0.313094
O O6 0.844940 0.747534 0.332322
O O7 0.060367 0.090211 0.204588
O O8 0.337771 0.516945 0.166573
O O9 0.016839 0.021335 0.352701
O O10 0.306583 0.064680 0.242610
O O11 0.500000 0.500000 0.000000
O O12 0.500000 0.000000 0.000000
O O13 0.393135 0.452484 0.318222
O O14 0.027972 0.612872 0.416010
O O15 0.334072 0.059503 0.380639
O O16 0.316365 0.790322 0.487499
#
# Coordination Sequence:
#
# PCOD8035879 Si02
#       7
#     2   2   2   2   2   2   2
#     4  12  29  51  76 111 152 190 249 320 384 437
#     4  11  28  48  73 111 152 197 249 307 378 451
#     4  11  26  47  78 106 149 201 250 305 370 455
#     4  12  26  50  78 107 142 194 254 309 372 450
#     4  11  26  46  70 110 150 194 250 300 369 437
#     4  12  27  45  75 111 154 195 243 310 371 439
#     4  11  25  47  77 107 151 199 251 297 371 452
#
# _framework density 24.064207
#
# number of rings (size 3 to 8) (size 9 to 14) (size 15 to 20)
#    0.000    0.571    2.857    3.000   12.000    1.714 
#    0.000    0.000    0.000    0.000    0.000    0.000 
#    0.000    0.000    0.000    0.000    0.000    0.000 
#
# Total GULP energy -173523.748991 kJ/mol
# GULP energy per Si atom -12394.553499 kJ/mol
# Density = 2.400944 g / cm^3
# Si number density = 24.064207 Si / 1000 Ang^3
#
#
#
# Elastic Constant Matrix: (Units=GPa)
#
#
# Indices 1 2 3 4 5 6 
#
# 1 201.5238 67.6097 62.9105 14.6402 8.6603 1.9278
# 2 67.6097 147.0820 43.0338 -0.8121 3.9520 5.0830
# 3 62.9105 43.0338 127.6920 5.7088 -1.9128 -9.6507
# 4 14.6402 -0.8121 5.7088 35.1884 1.4549 3.2400
# 5 8.6603 3.9520 -1.9128 1.4549 32.9088 3.9513
# 6 1.9278 5.0830 -9.6507 3.2400 3.9513 43.2989
#
#
#
# Elastic Compliance Matrix: (Units=1/GPa)
#
#
# Indices 1 2 3 4 5 6 
#
# 1 0.006763 -0.002348 -0.002477 -0.002380 -0.001505 -0.000262
# 2 -0.002348 0.008500 -0.001893 0.001626 -0.000417 -0.001399
# 3 -0.002477 -0.001893 0.009937 -0.000906 0.001196 0.002506
# 4 -0.002380 0.001626 -0.000906 0.029846 -0.000646 -0.002461
# 5 -0.001505 -0.000417 0.001196 -0.000646 0.031222 -0.002418
# 6 -0.000262 -0.001399 0.002506 -0.002461 -0.002418 0.024235
#
#
# Mechanical properties :
#
#
# Convention : Reuss Voigt Hill
#
# Bulk Modulus (GPa) = 84.98864 91.48953 88.23909
# Shear Modulus (GPa) = 39.10529 42.46213 40.78371
#
# Velocity S-wave (km/s) = 4.03555 4.20519 4.12125
# Velocity P-wave (km/s) = 7.55701 7.85364 7.70675
#
# Compressibility (1/GPa) = 0.01176628
#
# Stress axis : x y z
#
# Youngs Moduli (GPa) = 147.86093 117.64068 100.63168
#
# Poissons Ratio (x) = 0.27620 0.24924
# Poissons Ratio (y) = 0.34715 0.19047
# Poissons Ratio (z) = 0.36621 0.22266
#
# Static dielectric constant tensor:
#      x y z
#    x 4.521880 -0.061510 0.102900 
#    y -0.061510 4.477280 0.163010 
#    z 0.102900 0.163010 4.357510 
# 
# 
# High freq. dielectric constant tensor:
#      x y z
#    x 1.972840 -0.001410 0.007030 
#    y -0.001410 1.964410 0.003200 
#    z 0.007030 0.003200 1.948600 
# 
# From -- ./inp_files/48342.got.cif
#   From: 2010.06.25/outbox.cif.g09.slc.cpg/sg2_25_cif.got.tgz:48342.got - 2010.06.27 13:26:56.
