data_PCOD8035527
_publ_section_title
;
Structure prediction by ZEFSAII (Michael W. Deem and Ramdas Pophale) SiO2 
 PCOD8035527
Probable space group: P -1
;
_chemical_formula_sum "Si O2"
_cell_formula_units_Z 16
_cell_length_a 9.576018
_cell_length_b 21.286924
_cell_length_c 6.712354
_cell_angle_alpha 55.587962
_cell_angle_beta 43.502850
_cell_angle_gamma 55.769762
_cell_volume 748.489830
_symmetry_space_group_name_H-M "P -1"
_symmetry_group_IT_number 2
_symmetry_cell_setting 'triclinic'
loop_
_space_group_symop_operation_xyz
x,y,z
-x,-y,-z
loop_
_atom_site_type_symbol
_atom_site_label
_atom_site_fract_x
_atom_site_fract_y
_atom_site_fract_z
Si Si1 0.433224 0.544531 0.286504
Si Si2 0.666550 0.917916 0.433208
Si Si3 0.099499 0.712434 0.363440
Si Si4 0.231758 0.446569 0.379539
Si Si5 0.013075 0.917419 0.736125
Si Si6 0.375319 0.819394 0.769075
Si Si7 0.245570 0.275813 0.649541
Si Si8 0.103412 0.183859 0.279814
O O1 0.500000 0.500000 0.500000
O O2 0.246682 0.623983 0.366637
O O3 0.356001 0.481854 0.349301
O O4 0.638316 0.563622 0.943973
O O5 0.542230 0.851294 0.663047
O O6 0.802508 0.890216 0.540049
O O7 0.500000 0.000000 0.500000
O O8 0.813048 0.922301 0.082117
O O9 0.930601 0.726439 0.333248
O O10 0.993783 0.733293 0.651734
O O11 0.221045 0.780642 0.119295
O O12 0.203187 0.362775 0.629837
O O13 0.000000 0.500000 0.500000
O O14 0.044149 0.849467 0.657051
O O15 0.233593 0.894714 0.664071
O O16 0.000000 0.000000 0.500000
O O17 0.515167 0.745486 0.634436
O O18 0.262486 0.209927 0.919397
#
# Coordination Sequence:
#
# PCOD8035527 Si02
#       8
#     2   2   2   2   2   2   2   2
#     4  11  27  44  70 110 140 182 235 279 351 414
#     4  12  28  47  68 106 143 178 232 288 346 420
#     4  12  25  47  69 103 144 174 236 299 330 415
#     4  11  25  45  72  98 148 187 221 290 347 410
#     4  12  28  47  69 104 142 181 229 287 348 421
#     4  12  23  48  71  95 143 179 231 288 340 403
#     4  12  25  47  71 104 136 186 236 287 344 406
#     4  12  25  46  72 101 135 184 235 282 349 410
#
# _framework density 21.376374999999999
#
# number of rings (size 3 to 8) (size 9 to 14) (size 15 to 20)
#    0.000    0.250    7.500    0.750    5.250    5.500 
#    0.000    0.000    0.000    0.000    0.000    0.000 
#    0.000    0.000    0.000    0.000    0.000    0.000 
#
# Total GULP energy -198268.669582 kJ/mol
# GULP energy per Si atom -12391.791849 kJ/mol
# Density = 2.132772 g / cm^3
# Si number density = 21.376375 Si / 1000 Ang^3
#
#
#
# Elastic Constant Matrix: (Units=GPa)
#
#
# Indices 1 2 3 4 5 6 
#
# 1 66.7705 21.5139 53.4708 7.2899 1.3700 -7.1494
# 2 21.5139 129.6915 37.0844 9.7184 5.6418 -8.7643
# 3 53.4708 37.0844 84.2975 -4.9962 9.9416 -5.0820
# 4 7.2899 9.7184 -4.9962 43.2121 0.4154 -4.7761
# 5 1.3700 5.6418 9.9416 0.4154 36.6229 -3.3659
# 6 -7.1494 -8.7643 -5.0820 -4.7761 -3.3659 42.1704
#
#
#
# Elastic Compliance Matrix: (Units=1/GPa)
#
#
# Indices 1 2 3 4 5 6 
#
# 1 0.034395 0.001618 -0.023485 -0.008625 0.005192 0.002775
# 2 0.001618 0.009215 -0.005179 -0.002806 0.000073 0.001253
# 3 -0.023485 -0.005179 0.030282 0.008585 -0.006731 -0.000974
# 4 -0.008625 -0.002806 0.008585 0.026441 -0.001706 0.001848
# 5 0.005192 0.000073 -0.006731 -0.001706 0.029150 0.002218
# 6 0.002775 0.001253 -0.000974 0.001848 0.002218 0.024713
#
#
# Mechanical properties :
#
#
# Convention : Reuss Voigt Hill
#
# Bulk Modulus (GPa) = 50.50873 56.09975 53.30424
# Shear Modulus (GPa) = 23.26792 35.64711 29.45751
#
# Velocity S-wave (km/s) = 3.30280 4.08805 3.71622
# Velocity P-wave (km/s) = 6.18258 6.97020 6.58817
#
# Compressibility (1/GPa) = 0.01979856
#
# Stress axis : x y z
#
# Youngs Moduli (GPa) = 29.07440 108.51764 33.02315
#
# Poissons Ratio (x) = -0.17555 0.77554
# Poissons Ratio (y) = -0.04703 0.17104
# Poissons Ratio (z) = 0.68280 0.56206
#
# Static dielectric constant tensor:
#      x y z
#    x 4.101510 -0.067190 -0.166840 
#    y -0.067190 4.060770 0.150490 
#    z -0.166840 0.150490 4.025970 
# 
# 
# High freq. dielectric constant tensor:
#      x y z
#    x 1.839020 0.001590 -0.006690 
#    y 0.001590 1.860920 -0.000120 
#    z -0.006690 -0.000120 1.844160 
# 
# From -- ./inp_files/47286.got.cif
#   From: 2010.06.25/outbox.cif.g09.slc.cpg/sg2_24_cif.got.tgz:47286.got - 2010.06.27 13:26:56.
