data_PCOD8035341
_publ_section_title
;
Structure prediction by ZEFSAII (Michael W. Deem and Ramdas Pophale) SiO2 
 PCOD8035341
Probable space group: P -1
;
_chemical_formula_sum "Si O2"
_cell_formula_units_Z 16
_cell_length_a 20.358639
_cell_length_b 9.043786
_cell_length_c 5.128860
_cell_angle_alpha 122.261042
_cell_angle_beta 64.842048
_cell_angle_gamma 124.996085
_cell_volume 644.436926
_symmetry_space_group_name_H-M "P -1"
_symmetry_group_IT_number 2
_symmetry_cell_setting 'triclinic'
loop_
_space_group_symop_operation_xyz
x,y,z
-x,-y,-z
loop_
_atom_site_type_symbol
_atom_site_label
_atom_site_fract_x
_atom_site_fract_y
_atom_site_fract_z
Si Si1 0.797668 0.096768 0.784623
Si Si2 0.611223 0.421238 0.252134
Si Si3 0.983935 0.365476 0.654158
Si Si4 0.862370 0.674842 0.577610
Si Si5 0.250022 0.765069 0.497259
Si Si6 0.592115 0.083823 0.353802
Si Si7 0.212610 0.276498 0.772892
Si Si8 0.538943 0.669494 0.884187
O O1 0.893674 0.191468 0.656787
O O2 0.758154 0.197405 0.756812
O O3 0.760376 0.873326 0.546080
O O4 0.774578 0.109952 0.135635
O O5 0.612861 0.262690 0.295697
O O6 0.704533 0.531835 0.100818
O O7 0.587796 0.593098 0.543272
O O8 0.539423 0.303983 0.058889
O O9 0.000000 0.500000 0.500000
O O10 0.042579 0.261035 0.479826
O O11 0.000000 0.500000 0.000000
O O12 0.812225 0.455618 0.553638
O O13 0.841316 0.684018 0.319618
O O14 0.838468 0.802689 0.945106
O O15 0.345293 0.819742 0.421147
O O16 0.500000 0.000000 0.500000
O O17 0.603382 0.892247 0.064033
O O18 0.500000 0.500000 0.000000
#
# Coordination Sequence:
#
# PCOD8035341 Si02
#       8
#     2   2   2   2   2   2   2   2
#     4  12  26  48  74 108 141 192 234 301 358 432
#     4  11  26  46  68  99 141 189 237 304 366 427
#     4  12  23  44  75 105 144 185 239 292 357 426
#     4  12  25  46  72 108 140 190 234 298 353 442
#     4  12  26  46  75 104 141 188 250 283 358 440
#     4  12  26  44  72 102 138 191 239 301 364 429
#     4  12  28  44  73 105 148 186 235 301 367 422
#     4  11  25  44  67  99 135 180 245 298 356 429
#
# _framework density 24.827877000000001
#
# number of rings (size 3 to 8) (size 9 to 14) (size 15 to 20)
#    0.000    0.250    5.000    3.375    5.250    2.000 
#    0.000    0.000    0.000    0.000    0.000    0.000 
#    0.000    0.000    0.000    0.000    0.000    0.000 
#
# Total GULP energy -198291.917764 kJ/mol
# GULP energy per Si atom -12393.244860 kJ/mol
# Density = 2.477137 g / cm^3
# Si number density = 24.827877 Si / 1000 Ang^3
#
#
#
# Elastic Constant Matrix: (Units=GPa)
#
#
# Indices 1 2 3 4 5 6 
#
# 1 148.8296 15.9459 -1.5882 -9.0207 2.8357 15.9755
# 2 15.9459 50.8761 -15.2741 11.1196 -0.6154 10.5353
# 3 -1.5882 -15.2741 67.6746 -9.5412 2.4892 -7.2679
# 4 -9.0207 11.1196 -9.5412 39.6661 3.4553 -9.8322
# 5 2.8357 -0.6154 2.4892 3.4553 42.9990 -4.2920
# 6 15.9755 10.5353 -7.2679 -9.8322 -4.2920 25.2325
#
#
#
# Elastic Compliance Matrix: (Units=1/GPa)
#
#
# Indices 1 2 3 4 5 6 
#
# 1 0.007418 -0.002008 -0.000447 0.001325 -0.000961 -0.003634
# 2 -0.002008 0.026051 0.003038 -0.010170 -0.000122 -0.012714
# 3 -0.000447 0.003038 0.016693 0.004474 -0.000709 0.005446
# 4 0.001325 -0.010170 0.004474 0.033947 -0.001456 0.017676
# 5 -0.000961 -0.000122 -0.000709 -0.001456 0.023870 0.003949
# 6 -0.003634 -0.012714 0.005446 0.017676 0.003949 0.056369
#
#
# Mechanical properties :
#
#
# Convention : Reuss Voigt Hill
#
# Bulk Modulus (GPa) = 19.48260 29.50527 24.49393
# Shear Modulus (GPa) = 27.73261 39.46596 33.59928
#
# Velocity S-wave (km/s) = 3.34577 3.99128 3.68270
# Velocity P-wave (km/s) = 4.77386 5.75762 5.28866
#
# Compressibility (1/GPa) = 0.05132786
#
# Stress axis : x y z
#
# Youngs Moduli (GPa) = 134.80340 38.38609 59.90390
#
# Poissons Ratio (x) = 0.07708 0.02679
# Poissons Ratio (y) = 0.27069 -0.18198
# Poissons Ratio (z) = 0.06029 -0.11661
#
# Static dielectric constant tensor:
#      x y z
#    x 4.968370 0.179270 0.063560 
#    y 0.179270 4.508900 -0.455400 
#    z 0.063560 -0.455400 5.683900 
# 
# 
# High freq. dielectric constant tensor:
#      x y z
#    x 2.009690 0.008200 -0.007110 
#    y 0.008200 1.984530 0.009550 
#    z -0.007110 0.009550 2.002400 
# 
# From -- ./inp_files/107547.got.cif
#   From: 2010.06.25/outbox.cif.g09.slc.cpg/sg2_54_cif.got.tgz:107547.got - 2010.06.27 13:26:56.
