data_PCOD8035491
_publ_section_title
;
Structure prediction by ZEFSAII (Michael W. Deem and Ramdas Pophale) SiO2 
 PCOD8035491
Probable space group: P -1
;
_chemical_formula_sum "Si O2"
_cell_formula_units_Z 16
_cell_length_a 10.231620
_cell_length_b 12.604467
_cell_length_c 12.136163
_cell_angle_alpha 95.008543
_cell_angle_beta 93.295854
_cell_angle_gamma 23.545075
_cell_volume 621.835380
_symmetry_space_group_name_H-M "P -1"
_symmetry_group_IT_number 2
_symmetry_cell_setting 'triclinic'
loop_
_space_group_symop_operation_xyz
x,y,z
-x,-y,-z
loop_
_atom_site_type_symbol
_atom_site_label
_atom_site_fract_x
_atom_site_fract_y
_atom_site_fract_z
Si Si1 0.677978 0.389591 0.610737
Si Si2 0.329734 0.457417 0.989242
Si Si3 0.241638 0.809641 0.207233
Si Si4 0.432844 0.894903 0.294310
Si Si5 0.388628 0.985614 0.067477
Si Si6 0.479531 0.713123 0.782790
Si Si7 0.105945 0.452268 0.342023
Si Si8 0.273180 0.059853 0.542834
O O1 0.500000 0.500000 0.500000
O O2 0.582327 0.372476 0.694307
O O3 0.540446 0.603839 0.664221
O O4 0.070886 0.108212 0.582778
O O5 0.576422 0.340265 0.913614
O O6 0.391700 0.283603 0.968353
O O7 0.366937 0.460857 0.119514
O O8 0.982348 0.758411 0.960341
O O9 0.227688 0.945016 0.248424
O O10 0.907393 0.993330 0.190417
O O11 0.410863 0.996360 0.200788
O O12 0.824130 0.577405 0.303378
O O13 0.262231 0.069225 0.410416
O O14 0.500000 0.000000 0.000000
O O15 0.662301 0.689583 0.765329
O O16 0.888036 0.713464 0.398484
O O17 0.345230 0.230472 0.429049
#
# Coordination Sequence:
#
# PCOD8035491 Si02
#       8
#     2   2   2   2   2   2   2   2
#     4  11  26  44  76 105 150 196 241 298 368 436
#     4  11  27  44  77 108 143 190 252 298 361 428
#     4  11  26  46  72 107 146 192 243 300 366 426
#     4  11  26  45  74 104 147 187 242 307 361 429
#     4  11  26  49  73 110 146 194 239 302 370 435
#     4  11  25  47  71 105 146 194 244 300 360 433
#     4  11  25  46  70 106 141 196 238 298 359 435
#     4  11  25  45  71 105 144 192 246 291 361 436
#
# _framework density 25.730281999999999
#
# number of rings (size 3 to 8) (size 9 to 14) (size 15 to 20)
#    0.000    1.000    1.250    3.000   10.500    6.500 
#    0.000    0.000    0.000    0.000    0.000    0.000 
#    0.000    0.000    0.000    0.000    0.000    0.000 
#
# Total GULP energy -198334.124752 kJ/mol
# GULP energy per Si atom -12395.882797 kJ/mol
# Density = 2.567172 g / cm^3
# Si number density = 25.730282 Si / 1000 Ang^3
#
#
#
# Elastic Constant Matrix: (Units=GPa)
#
#
# Indices 1 2 3 4 5 6 
#
# 1 67.6793 7.8807 8.7037 10.9908 -24.3792 -17.4032
# 2 7.8807 93.1912 6.5922 -6.2387 14.9591 -8.1717
# 3 8.7037 6.5922 153.6654 -9.3886 -12.6394 -4.6506
# 4 10.9908 -6.2387 -9.3886 32.7882 -7.4178 -9.4384
# 5 -24.3792 14.9591 -12.6394 -7.4178 39.2078 -4.2920
# 6 -17.4032 -8.1717 -4.6506 -9.4384 -4.2920 36.8386
#
#
#
# Elastic Compliance Matrix: (Units=1/GPa)
#
#
# Indices 1 2 3 4 5 6 
#
# 1 0.025549 -0.004161 0.000615 -0.001122 0.018898 0.013139
# 2 -0.004161 0.012455 -0.000750 0.002045 -0.007151 0.000393
# 3 0.000615 -0.000750 0.007082 0.003197 0.003806 0.002281
# 4 -0.001122 0.002045 0.003197 0.037010 0.007727 0.010710
# 5 0.018898 -0.007151 0.003806 0.007727 0.044311 0.014964
# 6 0.013139 0.000393 0.002281 0.010710 0.014964 0.038215
#
#
# Mechanical properties :
#
#
# Convention : Reuss Voigt Hill
#
# Bulk Modulus (GPa) = 27.40114 40.09879 33.74997
# Shear Modulus (GPa) = 26.97180 41.19088 34.08134
#
# Velocity S-wave (km/s) = 3.24118 4.00543 3.64340
# Velocity P-wave (km/s) = 4.96785 6.08354 5.55378
#
# Compressibility (1/GPa) = 0.03649483
#
# Stress axis : x y z
#
# Youngs Moduli (GPa) = 39.14037 80.29045 141.19527
#
# Poissons Ratio (x) = 0.33406 -0.08681
# Poissons Ratio (y) = 0.16285 0.10589
# Poissons Ratio (z) = -0.02407 0.06021
#
# Static dielectric constant tensor:
#      x y z
#    x 4.973650 -0.558960 -0.486040 
#    y -0.558960 4.706750 0.174830 
#    z -0.486040 0.174830 5.223960 
# 
# 
# High freq. dielectric constant tensor:
#      x y z
#    x 2.027040 -0.017500 -0.018920 
#    y -0.017500 2.023200 -0.000370 
#    z -0.018920 -0.000370 2.051540 
# 
# From -- ./inp_files/434041.got.cif
#   From: 2010.06.25/outbox.cif.g09.slc.cpg/sg2_218_cif.got.tgz:434041.got - 2010.06.27 13:26:56.
