data_PCOD8035776
_publ_section_title
;
Structure prediction by ZEFSAII (Michael W. Deem and Ramdas Pophale) SiO2 
 PCOD8035776
Probable space group: P -1
;
_chemical_formula_sum "Si O2"
_cell_formula_units_Z 12
_cell_length_a 14.405493
_cell_length_b 11.953828
_cell_length_c 5.504804
_cell_angle_alpha 73.588438
_cell_angle_beta 72.908648
_cell_angle_gamma 30.566539
_cell_volume 459.922686
_symmetry_space_group_name_H-M "P -1"
_symmetry_group_IT_number 2
_symmetry_cell_setting 'triclinic'
loop_
_space_group_symop_operation_xyz
x,y,z
-x,-y,-z
loop_
_atom_site_type_symbol
_atom_site_label
_atom_site_fract_x
_atom_site_fract_y
_atom_site_fract_z
Si Si1 0.111561 0.902792 0.224123
Si Si2 0.248148 0.987267 0.863492
Si Si3 0.359841 0.289216 0.723148
Si Si4 0.723805 0.853432 0.893938
Si Si5 0.972116 0.396902 0.509643
Si Si6 0.442129 0.443061 0.440781
O O1 0.278362 0.640519 0.259641
O O2 0.195189 0.947703 0.135200
O O3 0.000000 0.000000 0.500000
O O4 0.000000 0.000000 0.000000
O O5 0.389256 0.784507 0.693991
O O6 0.057592 0.215599 0.736672
O O7 0.338840 0.010849 0.899858
O O8 0.372927 0.413884 0.705885
O O9 0.243503 0.407321 0.488756
O O10 0.567682 0.027631 0.697838
O O11 0.254525 0.308512 0.978121
O O12 0.912799 0.723298 0.756668
O O13 0.000000 0.500000 0.500000
O O14 0.500000 0.500000 0.500000
#
# Coordination Sequence:
#
# PCOD8035776 Si02
#       6
#     2   2   2   2   2   2
#     4  12  29  50  80 117 159 219 284 333 411 497
#     4  12  27  51  78 111 167 207 269 350 401 493
#     4  11  25  46  79 111 159 208 264 333 411 489
#     4  11  26  47  75 118 160 205 270 340 417 484
#     4  12  26  48  77 119 160 208 268 337 417 492
#     4  12  27  52  82 115 167 222 278 338 413 497
#
# _framework density 26.091342000000001
#
# number of rings (size 3 to 8) (size 9 to 14) (size 15 to 20)
#    0.000    0.333    3.333    4.000    4.667    5.333 
#    0.000    0.000    0.000    0.000    0.000    0.000 
#    0.000    0.000    0.000    0.000    0.000    0.000 
#
# Total GULP energy -148674.664993 kJ/mol
# GULP energy per Si atom -12389.555416 kJ/mol
# Density = 2.603196 g / cm^3
# Si number density = 26.091342 Si / 1000 Ang^3
#
#
#
# Elastic Constant Matrix: (Units=GPa)
#
#
# Indices 1 2 3 4 5 6 
#
# 1 151.5641 52.4275 57.1677 -13.1202 -15.3292 15.9012
# 2 52.4275 159.7732 60.4006 -43.0732 14.3412 -4.8731
# 3 57.1677 60.4006 131.1813 -24.8559 -18.4569 11.3088
# 4 -13.1202 -43.0732 -24.8559 54.2568 10.3600 3.5347
# 5 -15.3292 14.3412 -18.4569 10.3600 52.6534 -19.9307
# 6 15.9012 -4.8731 11.3088 3.5347 -19.9307 50.6991
#
#
#
# Elastic Compliance Matrix: (Units=1/GPa)
#
#
# Indices 1 2 3 4 5 6 
#
# 1 0.008631 -0.002480 -0.002450 -0.001288 0.002007 -0.001520
# 2 -0.002480 0.011100 -0.003416 0.007973 -0.006738 -0.000598
# 3 -0.002450 -0.003416 0.011040 0.001108 0.003612 -0.000680
# 4 -0.001288 0.007973 0.001108 0.027013 -0.009207 -0.004579
# 5 0.002007 -0.006738 0.003612 -0.009207 0.028130 0.009617
# 6 -0.001520 -0.000598 -0.000680 -0.004579 0.009617 0.024395
#
#
# Mechanical properties :
#
#
# Convention : Reuss Voigt Hill
#
# Bulk Modulus (GPa) = 71.02499 86.94559 78.98529
# Shear Modulus (GPa) = 37.96716 49.69005 43.82860
#
# Velocity S-wave (km/s) = 3.81880 4.36875 4.10300
# Velocity P-wave (km/s) = 6.83557 7.67098 7.26529
#
# Compressibility (1/GPa) = 0.01407955
#
# Stress axis : x y z
#
# Youngs Moduli (GPa) = 115.86531 90.09168 90.57713
#
# Poissons Ratio (x) = 0.22340 0.22192
# Poissons Ratio (y) = 0.28730 0.30940
# Poissons Ratio (z) = 0.28388 0.30774
#
# Static dielectric constant tensor:
#      x y z
#    x 5.297980 -0.742020 -1.161440 
#    y -0.742020 7.083480 1.323080 
#    z -1.161440 1.323080 6.717290 
# 
# 
# High freq. dielectric constant tensor:
#      x y z
#    x 2.057280 -0.003300 -0.018480 
#    y -0.003300 2.059170 -0.035510 
#    z -0.018480 -0.035510 2.032440 
# 
# From -- ./inp_files/94555.got.cif
#   From: 2010.06.25/outbox.cif.g09.slc.cpg/sg2_48_cif.got.tgz:94555.got - 2010.06.27 13:26:56.
