data_PCOD8035344
_publ_section_title
;
Structure prediction by ZEFSAII (Michael W. Deem and Ramdas Pophale) SiO2 
 PCOD8035344
Probable space group: P -1
;
_chemical_formula_sum "Si O2"
_cell_formula_units_Z 16
_cell_length_a 14.160118
_cell_length_b 9.250893
_cell_length_c 9.100030
_cell_angle_alpha 62.840232
_cell_angle_beta 138.503346
_cell_angle_gamma 109.229366
_cell_volume 702.574862
_symmetry_space_group_name_H-M "P -1"
_symmetry_group_IT_number 2
_symmetry_cell_setting 'triclinic'
loop_
_space_group_symop_operation_xyz
x,y,z
-x,-y,-z
loop_
_atom_site_type_symbol
_atom_site_label
_atom_site_fract_x
_atom_site_fract_y
_atom_site_fract_z
Si Si1 0.595984 0.123463 0.968748
Si Si2 0.362347 0.569822 0.981885
Si Si3 0.166825 0.365183 0.367224
Si Si4 0.882218 0.006654 0.479415
Si Si5 0.064792 0.114329 0.905240
Si Si6 0.360343 0.931113 0.295366
Si Si7 0.888550 0.545387 0.060841
Si Si8 0.637874 0.386043 0.370296
O O1 0.592935 0.103909 0.800159
O O2 0.545986 0.304300 0.872494
O O3 0.500000 0.000000 0.000000
O O4 0.755345 0.116913 0.219025
O O5 0.217673 0.530724 0.912832
O O6 0.322598 0.642456 0.741041
O O7 0.465860 0.410612 0.165288
O O8 0.180040 0.170324 0.475119
O O9 0.286379 0.451047 0.562867
O O10 0.014126 0.416485 0.232336
O O11 0.189568 0.415298 0.201606
O O12 0.000000 0.000000 0.500000
O O13 0.955817 0.101808 0.651478
O O14 0.051310 0.294969 0.867797
O O15 0.228023 0.059994 0.082233
O O16 0.000000 0.000000 0.000000
O O17 0.313993 0.768089 0.402516
O O18 0.500000 0.000000 0.500000
#
# Coordination Sequence:
#
# PCOD8035344 Si02
#       8
#     2   2   2   2   2   2   2   2
#     4  12  27  46  73 103 140 186 236 286 349 416
#     4  11  26  45  69 104 137 180 232 286 348 415
#     4  11  25  44  68 101 140 182 224 286 341 411
#     4  12  26  46  71 103 146 183 233 290 346 409
#     4  12  26  45  73 106 140 187 234 286 347 417
#     4  12  27  47  72 102 141 185 234 290 347 416
#     4  11  25  44  70 101 139 178 233 278 347 409
#     4  11  26  45  70 100 141 179 230 288 346 413
#
# _framework density 22.773372999999999
#
# number of rings (size 3 to 8) (size 9 to 14) (size 15 to 20)
#    0.000    0.500    2.500    4.500    8.750    6.500 
#    0.000    0.000    0.000    0.000    0.000    0.000 
#    0.000    0.000    0.000    0.000    0.000    0.000 
#
# Total GULP energy -198415.405253 kJ/mol
# GULP energy per Si atom -12400.962828 kJ/mol
# Density = 2.272154 g / cm^3
# Si number density = 22.773373 Si / 1000 Ang^3
#
#
#
# Elastic Constant Matrix: (Units=GPa)
#
#
# Indices 1 2 3 4 5 6 
#
# 1 145.9014 19.7847 37.1471 9.9192 -30.4290 6.6732
# 2 19.7847 95.1918 11.9553 20.8482 -11.8052 -3.9603
# 3 37.1471 11.9553 112.6592 21.5947 -17.9507 -8.1110
# 4 9.9192 20.8482 21.5947 47.6549 -5.0484 -4.0159
# 5 -30.4290 -11.8052 -17.9507 -5.0484 42.2780 7.6787
# 6 6.6732 -3.9603 -8.1110 -4.0159 7.6787 38.5590
#
#
#
# Elastic Compliance Matrix: (Units=1/GPa)
#
#
# Indices 1 2 3 4 5 6 
#
# 1 0.008892 -0.000970 -0.002113 -0.000128 0.005807 -0.003253
# 2 -0.000970 0.012033 0.000372 -0.004960 0.002129 0.000541
# 3 -0.002113 0.000372 0.010850 -0.004240 0.002361 0.001775
# 4 -0.000128 -0.004960 -0.004240 0.025160 -0.000517 0.001344
# 5 0.005807 0.002129 0.002361 -0.000517 0.030535 -0.006424
# 6 -0.003253 0.000541 0.001775 0.001344 -0.006424 0.028346
#
#
# Mechanical properties :
#
#
# Convention : Reuss Voigt Hill
#
# Bulk Modulus (GPa) = 37.94741 54.61406 46.28073
# Shear Modulus (GPa) = 38.45462 44.68939 41.57201
#
# Velocity S-wave (km/s) = 4.11369 4.43465 4.27718
# Velocity P-wave (km/s) = 6.26598 7.08908 6.69020
#
# Compressibility (1/GPa) = 0.02635226
#
# Stress axis : x y z
#
# Youngs Moduli (GPa) = 112.45793 83.10643 92.16224
#
# Poissons Ratio (x) = 0.08060 0.19478
# Poissons Ratio (y) = 0.10907 -0.03426
# Poissons Ratio (z) = 0.23768 -0.03090
#
# Static dielectric constant tensor:
#      x y z
#    x 4.288520 -0.174460 0.025780 
#    y -0.174460 4.276060 -0.119680 
#    z 0.025780 -0.119680 4.233200 
# 
# 
# High freq. dielectric constant tensor:
#      x y z
#    x 1.918330 -0.005790 -0.001840 
#    y -0.005790 1.910260 0.006330 
#    z -0.001840 0.006330 1.906330 
# 
# From -- ./inp_files/298060.got.cif
#   From: 2010.06.25/outbox.cif.g09.slc.cpg/sg2_150_cif.got.tgz:298060.got - 2010.06.27 13:26:56.
