data_PCOD8035949
_publ_section_title
;
Structure prediction by ZEFSAII (Michael W. Deem and Ramdas Pophale) SiO2 
 PCOD8035949
Probable space group: P -1
;
_chemical_formula_sum "Si O2"
_cell_formula_units_Z 14
_cell_length_a 14.716196
_cell_length_b 9.432439
_cell_length_c 11.969919
_cell_angle_alpha 131.183978
_cell_angle_beta 151.668976
_cell_angle_gamma 57.378298
_cell_volume 589.599899
_symmetry_space_group_name_H-M "P -1"
_symmetry_group_IT_number 2
_symmetry_cell_setting 'triclinic'
loop_
_space_group_symop_operation_xyz
x,y,z
-x,-y,-z
loop_
_atom_site_type_symbol
_atom_site_label
_atom_site_fract_x
_atom_site_fract_y
_atom_site_fract_z
Si Si1 0.160528 0.253698 0.515944
Si Si2 0.807748 0.984154 0.353583
Si Si3 0.598644 0.826364 0.465853
Si Si4 0.834698 0.706313 0.861441
Si Si5 0.732920 0.320610 0.102853
Si Si6 0.630837 0.947146 0.918007
Si Si7 0.246474 0.711197 0.378204
O O1 0.198289 0.174450 0.638997
O O2 0.264862 0.130312 0.474167
O O3 0.246154 0.473435 0.712185
O O4 0.933192 0.248869 0.242576
O O5 0.791828 0.190258 0.494310
O O6 0.637354 0.926753 0.048837
O O7 0.000000 0.000000 0.500000
O O8 0.738982 0.743337 0.660690
O O9 0.500000 0.000000 0.500000
O O10 0.414271 0.675586 0.158253
O O11 0.811305 0.868311 0.012085
O O12 0.731121 0.507303 0.690369
O O13 0.065515 0.715647 0.100103
O O14 0.630466 0.168327 0.001827
O O15 0.441936 0.822334 0.597032
#
# Coordination Sequence:
#
# PCOD8035949 Si02
#       7
#     2   2   2   2   2   2   2
#     4  11  27  49  75 110 148 197 245 312 369 433
#     4  12  24  46  78 105 146 186 248 305 360 437
#     4  12  27  47  75 105 153 197 246 300 370 451
#     4  11  26  48  70 111 147 190 248 300 366 449
#     4  11  25  48  75 110 149 190 254 302 372 443
#     4  12  24  48  74 111 142 191 248 303 370 438
#     4  11  26  45  75 106 147 194 242 308 369 424
#
# _framework density 23.744917000000001
#
# number of rings (size 3 to 8) (size 9 to 14) (size 15 to 20)
#    0.000    0.571    4.286    2.143    4.000    1.714 
#    0.000    0.000    0.000    0.000    0.000    0.000 
#    0.000    0.000    0.000    0.000    0.000    0.000 
#
# Total GULP energy -173552.277932 kJ/mol
# GULP energy per Si atom -12396.591281 kJ/mol
# Density = 2.369087 g / cm^3
# Si number density = 23.744917 Si / 1000 Ang^3
#
#
#
# Elastic Constant Matrix: (Units=GPa)
#
#
# Indices 1 2 3 4 5 6 
#
# 1 116.9968 48.7907 29.8846 -10.7328 0.4539 -0.0309
# 2 48.7907 137.0841 53.0013 -2.1122 -7.2822 19.7563
# 3 29.8846 53.0013 147.6115 -20.2804 0.2130 25.8259
# 4 -10.7328 -2.1122 -20.2804 42.9114 12.0581 -6.9987
# 5 0.4539 -7.2822 0.2130 12.0581 36.2822 1.2478
# 6 -0.0309 19.7563 25.8259 -6.9987 1.2478 36.0365
#
#
#
# Elastic Compliance Matrix: (Units=1/GPa)
#
#
# Indices 1 2 3 4 5 6 
#
# 1 0.010784 -0.004073 -0.000898 0.003264 -0.002156 0.003595
# 2 -0.004073 0.010575 -0.002633 -0.003499 0.003514 -0.004715
# 3 -0.000898 -0.002633 0.009180 0.003742 -0.001665 -0.004351
# 4 0.003264 -0.003499 0.003742 0.029626 -0.010796 0.005367
# 5 -0.002156 0.003514 -0.001665 -0.010796 0.032027 -0.003940
# 6 0.003595 -0.004715 -0.004351 0.005367 -0.003940 0.034635
#
#
# Mechanical properties :
#
#
# Convention : Reuss Voigt Hill
#
# Bulk Modulus (GPa) = 65.23326 73.89397 69.56361
# Shear Modulus (GPa) = 33.97999 41.04706 37.51352
#
# Velocity S-wave (km/s) = 3.78702 4.16223 3.97905
# Velocity P-wave (km/s) = 6.83038 7.36793 7.10424
#
# Compressibility (1/GPa) = 0.01532960
#
# Stress axis : x y z
#
# Youngs Moduli (GPa) = 92.72942 94.56305 108.93554
#
# Poissons Ratio (x) = 0.38518 0.09783
# Poissons Ratio (y) = 0.37771 0.28686
# Poissons Ratio (z) = 0.08327 0.24901
#
# Static dielectric constant tensor:
#      x y z
#    x 4.998820 0.540060 -0.570890 
#    y 0.540060 5.018500 -0.780480 
#    z -0.570890 -0.780480 5.279080 
# 
# 
# High freq. dielectric constant tensor:
#      x y z
#    x 1.928920 -0.014620 0.010190 
#    y -0.014620 1.947660 -0.013040 
#    z 0.010190 -0.013040 1.964350 
# 
# From -- ./inp_files/448269.got.cif
#   From: 2010.06.25/outbox.cif.g09.slc.cpg/sg2_225_cif.got.tgz:448269.got - 2010.06.27 13:26:56.
