data_PCOD8035763
_publ_section_title
;
Structure prediction by ZEFSAII (Michael W. Deem and Ramdas Pophale) SiO2 
 PCOD8035763
Probable space group: P -1
;
_chemical_formula_sum "Si O2"
_cell_formula_units_Z 12
_cell_length_a 7.890593
_cell_length_b 9.179225
_cell_length_c 9.652282
_cell_angle_alpha 83.376582
_cell_angle_beta 69.996142
_cell_angle_gamma 52.145941
_cell_volume 514.466991
_symmetry_space_group_name_H-M "P -1"
_symmetry_group_IT_number 2
_symmetry_cell_setting 'triclinic'
loop_
_space_group_symop_operation_xyz
x,y,z
-x,-y,-z
loop_
_atom_site_type_symbol
_atom_site_label
_atom_site_fract_x
_atom_site_fract_y
_atom_site_fract_z
Si Si1 0.246514 0.555355 0.559667
Si Si2 0.213762 0.079830 0.412202
Si Si3 0.190573 0.504388 0.882912
Si Si4 0.477007 0.813721 0.607602
Si Si5 0.425422 0.886822 0.108276
Si Si6 0.763692 0.201684 0.066651
O O1 0.500000 0.500000 0.500000
O O2 0.131823 0.593301 0.737544
O O3 0.292410 0.377405 0.493438
O O4 0.048949 0.738256 0.506482
O O5 0.422979 0.091688 0.359183
O O6 0.282114 0.931780 0.530225
O O7 0.218344 0.016621 0.259701
O O8 0.391417 0.286898 0.828806
O O9 0.218390 0.630694 0.963523
O O10 0.000000 0.500000 0.000000
O O11 0.350295 0.777013 0.757694
O O12 0.389668 0.779023 0.016804
O O13 0.500000 0.000000 0.000000
O O14 0.000000 0.000000 0.000000
#
# Coordination Sequence:
#
# PCOD8035763 Si02
#       6
#     2   2   2   2   2   2
#     4  12  25  47  74 109 146 192 253 313 375 445
#     4  11  25  46  77 107 147 200 244 313 377 454
#     4  12  27  47  74 109 152 198 252 312 374 450
#     4  11  25  47  73 109 149 194 255 305 379 452
#     4  12  24  47  73 108 149 196 249 308 379 449
#     4  12  26  46  72 110 148 197 251 307 377 450
#
# _framework density 23.325109999999999
#
# number of rings (size 3 to 8) (size 9 to 14) (size 15 to 20)
#    0.000    0.333    5.000    4.000    0.000    2.000 
#    3.000    0.000    0.000    0.000    0.000    0.000 
#    0.000    0.000    0.000    0.000    0.000    0.000 
#
# Total GULP energy -148705.006143 kJ/mol
# GULP energy per Si atom -12392.083845 kJ/mol
# Density = 2.327202 g / cm^3
# Si number density = 23.325110 Si / 1000 Ang^3
#
#
#
# Elastic Constant Matrix: (Units=GPa)
#
#
# Indices 1 2 3 4 5 6 
#
# 1 93.1546 38.8895 56.0347 -2.8815 -10.3749 10.5351
# 2 38.8895 157.5254 40.2850 12.2122 5.5529 -15.8623
# 3 56.0347 40.2850 133.4765 2.7572 7.1149 3.1517
# 4 -2.8815 12.2122 2.7572 32.0482 1.9244 1.5278
# 5 -10.3749 5.5529 7.1149 1.9244 32.0304 3.3339
# 6 10.5351 -15.8623 3.1517 1.5278 3.3339 57.8996
#
#
#
# Elastic Compliance Matrix: (Units=1/GPa)
#
#
# Indices 1 2 3 4 5 6 
#
# 1 0.017872 -0.003667 -0.006797 0.003309 0.008199 -0.004446
# 2 -0.003667 0.008123 -0.000782 -0.003356 -0.002551 0.003171
# 3 -0.006797 -0.000782 0.010824 -0.001009 -0.004484 0.000718
# 4 0.003309 -0.003356 -0.001009 0.032969 0.000141 -0.002345
# 5 0.008199 -0.002551 -0.004484 0.000141 0.035723 -0.004007
# 6 -0.004446 0.003171 0.000718 -0.002345 -0.004007 0.019202
#
#
# Mechanical properties :
#
#
# Convention : Reuss Voigt Hill
#
# Bulk Modulus (GPa) = 69.79193 72.73054 71.26124
# Shear Modulus (GPa) = 32.89889 40.99214 36.94551
#
# Velocity S-wave (km/s) = 3.75967 4.19671 3.98419
# Velocity P-wave (km/s) = 6.98807 7.39812 7.19602
#
# Compressibility (1/GPa) = 0.01432830
#
# Stress axis : x y z
#
# Youngs Moduli (GPa) = 55.95217 123.11032 92.38719
#
# Poissons Ratio (x) = 0.45150 0.62791
# Poissons Ratio (y) = 0.20520 0.07220
# Poissons Ratio (z) = 0.38028 0.09621
#
# Static dielectric constant tensor:
#      x y z
#    x 4.161230 0.280960 0.294020 
#    y 0.280960 4.415240 0.103650 
#    z 0.294020 0.103650 4.254350 
# 
# 
# High freq. dielectric constant tensor:
#      x y z
#    x 1.919340 0.004440 0.005600 
#    y 0.004440 1.945460 0.007210 
#    z 0.005600 0.007210 1.926410 
# 
# From -- ./inp_files/157933.got.cif
#   From: 2010.06.25/outbox.cif.g09.slc.cpg/sg2_79_cif.got.tgz:157933.got - 2010.06.27 13:26:56.
