data_PCOD8035023
_publ_section_title
;
Structure prediction by ZEFSAII (Michael W. Deem and Ramdas Pophale) SiO2 
 PCOD8035023
Probable space group: P -1
;
_chemical_formula_sum "Si O2"
_cell_formula_units_Z 16
_cell_length_a 8.588017
_cell_length_b 14.208363
_cell_length_c 9.976308
_cell_angle_alpha 80.949257
_cell_angle_beta 107.710839
_cell_angle_gamma 139.717375
_cell_volume 744.223721
_symmetry_space_group_name_H-M "P -1"
_symmetry_group_IT_number 2
_symmetry_cell_setting 'triclinic'
loop_
_space_group_symop_operation_xyz
x,y,z
-x,-y,-z
loop_
_atom_site_type_symbol
_atom_site_label
_atom_site_fract_x
_atom_site_fract_y
_atom_site_fract_z
Si Si1 0.324460 0.413883 0.602711
Si Si2 0.409961 0.373901 0.910568
Si Si3 0.926336 0.053089 0.872857
Si Si4 0.772699 0.421842 0.363946
Si Si5 0.410865 0.904817 0.869268
Si Si6 0.261324 0.113614 0.394241
Si Si7 0.076219 0.877087 0.584761
Si Si8 0.790863 0.384956 0.078108
O O1 0.500000 0.500000 0.500000
O O2 0.453183 0.407416 0.754657
O O3 0.300923 0.502394 0.653190
O O4 0.049049 0.252907 0.523585
O O5 0.115869 0.225985 0.897355
O O6 0.500000 0.500000 0.000000
O O7 0.541663 0.333548 0.991377
O O8 0.649240 0.971972 0.836507
O O9 0.937865 0.013332 0.737214
O O10 0.000000 0.000000 0.000000
O O11 0.538180 0.248954 0.374557
O O12 0.874272 0.449246 0.235208
O O13 0.000000 0.500000 0.500000
O O14 0.234985 0.892501 0.734154
O O15 0.249770 0.745182 0.915068
O O16 0.500000 0.000000 0.000000
O O17 0.160766 0.171050 0.404874
O O18 0.267502 0.037093 0.530455
O O19 0.000000 0.500000 0.000000
#
# Coordination Sequence:
#
# PCOD8035023 Si02
#       8
#     2   2   2   2   2   2   2   2
#     4  12  26  44  73 109 143 191 235 299 364 440
#     4  12  27  49  76 105 144 193 246 298 369 440
#     4  12  24  47  74 101 143 189 240 296 366 431
#     4  12  26  47  72 105 149 193 240 302 365 433
#     4  12  28  45  73 106 141 192 239 302 361 434
#     4  11  24  47  73 105 143 191 240 300 367 434
#     4  11  26  46  73 108 144 187 245 298 367 442
#     4  12  29  48  69 107 148 192 247 306 361 432
#
# _framework density 21.498911
#
# number of rings (size 3 to 8) (size 9 to 14) (size 15 to 20)
#    0.000    0.250    6.250    1.500    5.250    2.500 
#    0.000    0.000    0.000    0.000    0.000    0.000 
#    0.000    0.000    0.000    0.000    0.000    0.000 
#
# Total GULP energy -198444.514709 kJ/mol
# GULP energy per Si atom -12402.782169 kJ/mol
# Density = 2.144998 g / cm^3
# Si number density = 21.498911 Si / 1000 Ang^3
#
#
#
# Elastic Constant Matrix: (Units=GPa)
#
#
# Indices 1 2 3 4 5 6 
#
# 1 75.8842 55.2146 51.9323 -9.8227 0.4679 -10.2571
# 2 55.2146 153.6498 68.0763 -1.3948 -5.8444 -4.9630
# 3 51.9323 68.0763 184.9335 -2.1136 6.5689 -10.2773
# 4 -9.8227 -1.3948 -2.1136 41.5032 -3.6870 -6.1436
# 5 0.4679 -5.8444 6.5689 -3.6870 50.0813 -1.6583
# 6 -10.2571 -4.9630 -10.2773 -6.1436 -1.6583 42.2753
#
#
#
# Elastic Compliance Matrix: (Units=1/GPa)
#
#
# Indices 1 2 3 4 5 6 
#
# 1 0.021073 -0.005843 -0.003468 0.005268 0.000108 0.004354
# 2 -0.005843 0.009487 -0.001961 -0.001182 0.001302 -0.000901
# 3 -0.003468 -0.001961 0.007169 -0.000544 -0.001159 0.000547
# 4 0.005268 -0.001182 -0.000544 0.026173 0.001973 0.004888
# 5 0.000108 0.001302 -0.001159 0.001973 0.020448 0.000986
# 6 0.004354 -0.000901 0.000547 0.004888 0.000986 0.025487
#
#
# Mechanical properties :
#
#
# Convention : Reuss Voigt Hill
#
# Bulk Modulus (GPa) = 65.86470 84.99043 75.42756
# Shear Modulus (GPa) = 36.37869 42.72157 39.55013
#
# Velocity S-wave (km/s) = 4.11800 4.46258 4.29375
# Velocity P-wave (km/s) = 7.30160 8.13456 7.72931
#
# Compressibility (1/GPa) = 0.01518264
#
# Stress axis : x y z
#
# Youngs Moduli (GPa) = 47.45383 105.41017 139.49876
#
# Poissons Ratio (x) = 0.61596 0.48382
# Poissons Ratio (y) = 0.27729 0.27357
# Poissons Ratio (z) = 0.16458 0.20672
#
# Static dielectric constant tensor:
#      x y z
#    x 3.987490 -0.019780 -0.106540 
#    y -0.019780 3.694750 -0.088610 
#    z -0.106540 -0.088610 4.040660 
# 
# 
# High freq. dielectric constant tensor:
#      x y z
#    x 1.840840 -0.012450 -0.001810 
#    y -0.012450 1.859530 -0.000240 
#    z -0.001810 -0.000240 1.863720 
# 
# From -- ./inp_files/207088.got.cif
#   From: 2010.06.25/outbox.cif.g09.slc.cpg/sg2_104_cif.got.tgz:207088.got - 2010.06.27 13:26:56.
