data_PCOD8035087
_publ_section_title
;
Structure prediction by ZEFSAII (Michael W. Deem and Ramdas Pophale) SiO2 
 PCOD8035087
Probable space group: P -1
;
_chemical_formula_sum "Si O2"
_cell_formula_units_Z 14
_cell_length_a 11.661417
_cell_length_b 8.379274
_cell_length_c 15.259471
_cell_angle_alpha 119.840168
_cell_angle_beta 131.088923
_cell_angle_gamma 35.184881
_cell_volume 644.860588
_symmetry_space_group_name_H-M "P -1"
_symmetry_group_IT_number 2
_symmetry_cell_setting 'triclinic'
loop_
_space_group_symop_operation_xyz
x,y,z
-x,-y,-z
loop_
_atom_site_type_symbol
_atom_site_label
_atom_site_fract_x
_atom_site_fract_y
_atom_site_fract_z
Si Si1 0.724650 0.175487 0.505766
Si Si2 0.091725 0.500999 0.797478
Si Si3 0.011285 0.679754 0.004385
Si Si4 0.320297 0.999581 0.397968
Si Si5 0.457407 0.719340 0.091594
Si Si6 0.415145 0.582730 0.215362
Si Si7 0.826146 0.989200 0.316648
O O1 0.500000 0.500000 0.500000
O O2 0.768584 0.973376 0.542807
O O3 0.941109 0.110521 0.595412
O O4 0.707807 0.088436 0.380053
O O5 0.322306 0.350829 0.823027
O O6 0.105249 0.271754 0.755518
O O7 0.070583 0.610640 0.912399
O O8 0.880628 0.750811 0.698525
O O9 0.193117 0.653232 0.132876
O O10 0.000000 0.500000 0.000000
O O11 0.759842 0.985364 0.978910
O O12 0.434662 0.706529 0.340122
O O13 0.500000 0.000000 0.500000
O O14 0.396774 0.730055 0.163297
O O15 0.500000 0.500000 0.000000
O O16 0.641346 0.250982 0.230858
#
# Coordination Sequence:
#
# PCOD8035087 Si02
#       7
#     2   2   2   2   2   2   2
#     4  11  24  48  69 100 139 187 234 284 345 408
#     4  12  27  47  70 107 140 183 236 288 350 417
#     4  12  28  46  73 105 145 182 231 293 353 415
#     4  12  27  45  75 101 144 187 231 291 352 408
#     4  12  25  46  73 100 140 187 234 283 346 420
#     4  12  25  48  71 106 141 187 232 286 353 416
#     4  11  27  43  74 102 139 185 235 285 346 419
#
# _framework density 21.710118000000001
#
# number of rings (size 3 to 8) (size 9 to 14) (size 15 to 20)
#    0.000    0.286    4.286    3.857    8.000    4.000 
#    0.000    0.000    0.000    0.000    0.000    0.000 
#    0.000    0.000    0.000    0.000    0.000    0.000 
#
# Total GULP energy -173665.679396 kJ/mol
# GULP energy per Si atom -12404.691385 kJ/mol
# Density = 2.166070 g / cm^3
# Si number density = 21.710118 Si / 1000 Ang^3
#
#
#
# Elastic Constant Matrix: (Units=GPa)
#
#
# Indices 1 2 3 4 5 6 
#
# 1 124.2361 31.8380 40.0128 -0.6165 10.2484 3.0290
# 2 31.8380 138.7002 38.8616 -16.3801 5.8972 9.0111
# 3 40.0128 38.8616 102.5655 -2.0064 15.5375 1.0007
# 4 -0.6165 -16.3801 -2.0064 44.9689 2.8339 1.4340
# 5 10.2484 5.8972 15.5375 2.8339 36.0649 -3.4691
# 6 3.0290 9.0111 1.0007 1.4340 -3.4691 38.7112
#
#
#
# Elastic Compliance Matrix: (Units=1/GPa)
#
#
# Indices 1 2 3 4 5 6 
#
# 1 0.009461 -0.001290 -0.003026 -0.000386 -0.001188 -0.000454
# 2 -0.001290 0.008777 -0.002688 0.003146 -0.000352 -0.002021
# 3 -0.003026 -0.002688 0.012561 -0.000209 -0.004078 0.000180
# 4 -0.000386 0.003146 -0.000209 0.023573 -0.002338 -0.001780
# 5 -0.001188 -0.000352 -0.004078 -0.002338 0.030361 0.003088
# 6 -0.000454 -0.002021 0.000180 -0.001780 0.003088 0.026676
#
#
# Mechanical properties :
#
#
# Convention : Reuss Voigt Hill
#
# Bulk Modulus (GPa) = 59.54995 65.21408 62.38202
# Shear Modulus (GPa) = 38.16450 40.93496 39.54973
#
# Velocity S-wave (km/s) = 4.19730 4.34697 4.27279
# Velocity P-wave (km/s) = 7.13995 7.43631 7.28963
#
# Compressibility (1/GPa) = 0.01679262
#
# Stress axis : x y z
#
# Youngs Moduli (GPa) = 105.69412 113.93846 79.61429
#
# Poissons Ratio (x) = 0.14694 0.24088
# Poissons Ratio (y) = 0.13631 0.21398
# Poissons Ratio (z) = 0.31979 0.30623
#
# Static dielectric constant tensor:
#      x y z
#    x 4.015460 -0.082170 -0.031820 
#    y -0.082170 4.067740 -0.000560 
#    z -0.031820 -0.000560 4.067040 
# 
# 
# High freq. dielectric constant tensor:
#      x y z
#    x 1.868240 0.003650 -0.001060 
#    y 0.003650 1.867620 -0.004750 
#    z -0.001060 -0.004750 1.862820 
# 
# From -- ./inp_files/27213.got.cif
#   From: 2010.06.25/outbox.cif.g09.slc.cpg/sg2_14_cif.got.tgz:27213.got - 2010.06.27 13:26:56.
