data_PCOD8035663
_publ_section_title
;
Structure prediction by ZEFSAII (Michael W. Deem and Ramdas Pophale) SiO2 
 PCOD8035663
Probable space group: P -1
;
_chemical_formula_sum "Si O2"
_cell_formula_units_Z 14
_cell_length_a 13.699880
_cell_length_b 6.960543
_cell_length_c 13.578638
_cell_angle_alpha 104.842639
_cell_angle_beta 146.302888
_cell_angle_gamma 63.710062
_cell_volume 627.435763
_symmetry_space_group_name_H-M "P -1"
_symmetry_group_IT_number 2
_symmetry_cell_setting 'triclinic'
loop_
_space_group_symop_operation_xyz
x,y,z
-x,-y,-z
loop_
_atom_site_type_symbol
_atom_site_label
_atom_site_fract_x
_atom_site_fract_y
_atom_site_fract_z
Si Si1 0.617117 0.278299 0.628833
Si Si2 0.912243 0.003566 0.272208
Si Si3 0.418873 0.272087 0.659435
Si Si4 0.890180 0.430023 0.979633
Si Si5 0.711152 0.248274 0.321776
Si Si6 0.123403 0.147125 0.316101
Si Si7 0.378198 0.132316 0.089021
O O1 0.500000 0.500000 0.500000
O O2 0.480696 0.251986 0.594527
O O3 0.809450 0.270738 0.841276
O O4 0.691820 0.077376 0.588848
O O5 0.804262 0.198260 0.284903
O O6 0.951150 0.106907 0.218308
O O7 0.121094 0.833482 0.465858
O O8 0.780330 0.873562 0.122691
O O9 0.408768 0.490967 0.731851
O O10 0.208400 0.265674 0.481287
O O11 0.573382 0.072259 0.825049
O O12 0.708909 0.643041 0.894380
O O13 0.000000 0.500000 0.000000
O O14 0.039188 0.302269 0.172833
O O15 0.571052 0.123914 0.196913
#
# Coordination Sequence:
#
# PCOD8035663 Si02
#       7
#     2   2   2   2   2   2   2
#     4  12  23  41  68  99 138 178 228 284 344 412
#     4  11  25  46  72 100 140 181 230 288 338 408
#     4  12  24  44  71 100 137 180 229 284 341 413
#     4  12  24  42  66 100 140 179 228 285 340 412
#     4  11  25  49  69 102 139 182 232 282 345 405
#     4  12  24  43  67 104 137 182 230 279 349 406
#     4  12  24  47  70 103 138 180 234 280 346 406
#
# _framework density 22.313040999999998
#
# number of rings (size 3 to 8) (size 9 to 14) (size 15 to 20)
#    0.000    0.286    2.857    7.286    0.000    1.143 
#    2.571    0.000    0.000    0.000    0.000    0.000 
#    0.000    0.000    0.000    0.000    0.000    0.000 
#
# Total GULP energy -173708.528432 kJ/mol
# GULP energy per Si atom -12407.752031 kJ/mol
# Density = 2.226226 g / cm^3
# Si number density = 22.313041 Si / 1000 Ang^3
#
#
#
# Elastic Constant Matrix: (Units=GPa)
#
#
# Indices 1 2 3 4 5 6 
#
# 1 116.3010 44.9342 14.4081 -13.2717 7.7790 -5.7657
# 2 44.9342 109.2181 33.3110 -8.2158 0.6407 7.1298
# 3 14.4081 33.3110 117.9538 9.7901 12.5126 11.5546
# 4 -13.2717 -8.2158 9.7901 52.2713 7.0600 -0.5295
# 5 7.7790 0.6407 12.5126 7.0600 28.7444 3.5502
# 6 -5.7657 7.1298 11.5546 -0.5295 3.5502 23.6917
#
#
#
# Elastic Compliance Matrix: (Units=1/GPa)
#
#
# Indices 1 2 3 4 5 6 
#
# 1 0.011268 -0.004616 -0.000359 0.002806 -0.004095 0.004983
# 2 -0.004616 0.012226 -0.002858 0.000915 0.002460 -0.003757
# 3 -0.000359 -0.002858 0.010219 -0.002044 -0.003321 -0.003759
# 4 0.002806 0.000915 -0.002044 0.021128 -0.005411 0.002688
# 5 -0.004095 0.002460 -0.003321 -0.005411 0.039376 -0.006139
# 6 0.004983 -0.003757 -0.003759 0.002688 -0.006139 0.047366
#
#
# Mechanical properties :
#
#
# Convention : Reuss Voigt Hill
#
# Bulk Modulus (GPa) = 55.41293 58.75328 57.08310
# Shear Modulus (GPa) = 30.62512 37.66278 34.14395
#
# Velocity S-wave (km/s) = 3.70877 4.11290 3.91605
# Velocity P-wave (km/s) = 6.57482 6.99593 6.78864
#
# Compressibility (1/GPa) = 0.01804633
#
# Stress axis : x y z
#
# Youngs Moduli (GPa) = 88.75032 81.78982 97.85636
#
# Poissons Ratio (x) = 0.37756 0.03516
# Poissons Ratio (y) = 0.40969 0.27965
# Poissons Ratio (z) = 0.03189 0.23374
#
# Static dielectric constant tensor:
#      x y z
#    x 4.096090 0.054630 0.107470 
#    y 0.054630 4.038730 0.137840 
#    z 0.107470 0.137840 4.080110 
# 
# 
# High freq. dielectric constant tensor:
#      x y z
#    x 1.881750 0.005230 0.005400 
#    y 0.005230 1.883220 0.007200 
#    z 0.005400 0.007200 1.892680 
# 
# From -- ./inp_files/36052.got.cif
#   From: 2010.06.25/outbox.cif.g09.slc.cpg/sg2_19_cif.got.tgz:36052.got - 2010.06.27 13:26:56.
