data_PCOD8035369
_publ_section_title
;
Structure prediction by ZEFSAII (Michael W. Deem and Ramdas Pophale) SiO2 
 PCOD8035369
Probable space group: P -1
;
_chemical_formula_sum "Si O2"
_cell_formula_units_Z 16
_cell_length_a 8.386982
_cell_length_b 8.629505
_cell_length_c 11.078543
_cell_angle_alpha 57.480071
_cell_angle_beta 85.406879
_cell_angle_gamma 85.302622
_cell_volume 673.202800
_symmetry_space_group_name_H-M "P -1"
_symmetry_group_IT_number 2
_symmetry_cell_setting 'triclinic'
loop_
_space_group_symop_operation_xyz
x,y,z
-x,-y,-z
loop_
_atom_site_type_symbol
_atom_site_label
_atom_site_fract_x
_atom_site_fract_y
_atom_site_fract_z
Si Si1 0.443574 0.683783 0.488493
Si Si2 0.928473 0.304338 0.548537
Si Si3 0.349695 0.073710 0.786286
Si Si4 0.945365 0.664795 0.721758
Si Si5 0.853041 0.715199 0.091288
Si Si6 0.031226 0.938168 0.811422
Si Si7 0.538187 0.741960 0.971533
Si Si8 0.424356 0.399766 0.229133
O O1 0.500000 0.500000 0.500000
O O2 0.259351 0.702528 0.457142
O O3 0.549336 0.842759 0.362362
O O4 0.472047 0.679894 0.631685
O O5 0.008332 0.239193 0.445707
O O6 0.000000 0.500000 0.500000
O O7 0.969923 0.151635 0.711674
O O8 0.223638 0.934959 0.796057
O O9 0.475437 0.952170 0.911292
O O10 0.249715 0.225323 0.808936
O O11 0.762043 0.622673 0.733946
O O12 0.967130 0.806954 0.767698
O O13 0.055737 0.480009 0.811679
O O14 0.727661 0.703956 0.993766
O O15 0.976778 0.865433 0.976706
O O16 0.500954 0.698400 0.852511
O O17 0.445121 0.617750 0.123796
#
# Coordination Sequence:
#
# PCOD8035369 Si02
#       8
#     2   2   2   2   2   2   2   2
#     4  12  26  47  72 104 142 189 235 291 360 424
#     4  12  27  48  74 103 145 189 238 293 358 430
#     4  12  27  45  73 105 146 186 241 295 355 424
#     4  12  25  46  74 104 147 191 240 294 354 425
#     4  12  25  47  73 106 145 192 239 297 356 421
#     4  12  26  45  70 109 142 188 243 293 359 422
#     4  11  25  44  70 107 143 189 239 293 359 418
#     4  11  25  44  72 104 147 187 236 293 356 423
#
# _framework density 23.766983
#
# number of rings (size 3 to 8) (size 9 to 14) (size 15 to 20)
#    0.000    0.250    1.250    8.250    5.250    2.500 
#    0.000    0.000    0.000    0.000    0.000    0.000 
#    0.000    0.000    0.000    0.000    0.000    0.000 
#
# Total GULP energy -198385.276738 kJ/mol
# GULP energy per Si atom -12399.079796 kJ/mol
# Density = 2.371289 g / cm^3
# Si number density = 23.766983 Si / 1000 Ang^3
#
#
#
# Elastic Constant Matrix: (Units=GPa)
#
#
# Indices 1 2 3 4 5 6 
#
# 1 136.2550 16.5466 39.2925 -7.4797 -12.9240 7.1382
# 2 16.5466 65.8754 23.4308 -5.1230 4.1998 1.8733
# 3 39.2925 23.4308 139.7193 -6.4473 -15.3469 4.6563
# 4 -7.4797 -5.1230 -6.4473 42.4376 -2.2506 5.9988
# 5 -12.9240 4.1998 -15.3469 -2.2506 49.8216 -4.7997
# 6 7.1382 1.8733 4.6563 5.9988 -4.7997 36.6681
#
#
#
# Elastic Compliance Matrix: (Units=1/GPa)
#
#
# Indices 1 2 3 4 5 6 
#
# 1 0.008333 -0.001412 -0.001822 0.001295 0.001651 -0.001314
# 2 -0.001412 0.016757 -0.002609 0.001354 -0.002600 -0.000812
# 3 -0.001822 -0.002609 0.008415 0.000824 0.002337 -0.000410
# 4 0.001295 0.001354 0.000824 0.024754 0.001178 -0.004322
# 5 0.001651 -0.002600 0.002337 0.001178 0.021701 0.002162
# 6 -0.001314 -0.000812 -0.000410 -0.004322 0.002162 0.028611
#
#
# Mechanical properties :
#
#
# Convention : Reuss Voigt Hill
#
# Bulk Modulus (GPa) = 45.83076 55.59883 50.71479
# Shear Modulus (GPa) = 39.20656 43.29078 41.24867
#
# Velocity S-wave (km/s) = 4.06596 4.27250 4.17051
# Velocity P-wave (km/s) = 6.43179 6.91253 6.67649
#
# Compressibility (1/GPa) = 0.02181941
#
# Stress axis : x y z
#
# Youngs Moduli (GPa) = 120.01151 59.67649 118.82928
#
# Poissons Ratio (x) = 0.08428 0.21645
# Poissons Ratio (y) = 0.16949 0.31002
# Poissons Ratio (z) = 0.21861 0.15569
#
# Static dielectric constant tensor:
#      x y z
#    x 4.518320 0.202190 -0.163380 
#    y 0.202190 4.180490 0.007830 
#    z -0.163380 0.007830 5.492860 
# 
# 
# High freq. dielectric constant tensor:
#      x y z
#    x 1.963120 0.009140 -0.003910 
#    y 0.009140 1.938710 0.000610 
#    z -0.003910 0.000610 1.959470 
# 
# From -- ./inp_files/381018.got.cif
#   From: 2010.06.25/outbox.cif.g09.slc.cpg/sg2_191_cif.got.tgz:381018.got - 2010.06.27 13:26:56.
