data_PCOD8035720
_publ_section_title
;
Structure prediction by ZEFSAII (Michael W. Deem and Ramdas Pophale) SiO2 
 PCOD8035720
Probable space group: P -1
;
_chemical_formula_sum "Si O2"
_cell_formula_units_Z 14
_cell_length_a 4.699416
_cell_length_b 7.991082
_cell_length_c 17.117751
_cell_angle_alpha 63.879914
_cell_angle_beta 75.014712
_cell_angle_gamma 85.916233
_cell_volume 556.877750
_symmetry_space_group_name_H-M "P -1"
_symmetry_group_IT_number 2
_symmetry_cell_setting 'triclinic'
loop_
_space_group_symop_operation_xyz
x,y,z
-x,-y,-z
loop_
_atom_site_type_symbol
_atom_site_label
_atom_site_fract_x
_atom_site_fract_y
_atom_site_fract_z
Si Si1 0.919200 0.996560 0.222455
Si Si2 0.230779 0.671504 0.937690
Si Si3 0.301297 0.330457 0.379463
Si Si4 0.685990 0.334491 0.487803
Si Si5 0.676409 0.996006 0.667450
Si Si6 0.743411 0.637383 0.209918
Si Si7 0.642773 0.406812 0.890213
O O1 0.932019 0.158102 0.123467
O O2 0.675815 0.029372 0.298878
O O3 0.853158 0.801893 0.224552
O O4 0.220158 0.995087 0.250912
O O5 0.501330 0.606154 0.878251
O O6 0.345625 0.722370 0.006575
O O7 0.000000 0.500000 0.000000
O O8 0.479355 0.234048 0.456681
O O9 0.518863 0.495782 0.299006
O O10 0.034426 0.537577 0.179540
O O11 0.205633 0.178241 0.352374
O O12 0.500000 0.500000 0.500000
O O13 0.769127 0.188054 0.578111
O O14 0.997820 0.416297 0.413479
O O15 0.563927 0.710184 0.132642
#
# Coordination Sequence:
#
# PCOD8035720 Si02
#       7
#     2   2   2   2   2   2   2
#     4  12  29  47  73 108 151 192 244 307 367 436
#     4  11  26  47  76 108 145 194 250 301 369 438
#     4  12  26  46  79 108 150 195 248 298 362 442
#     4  12  26  48  76 113 150 192 241 309 367 430
#     4  12  27  49  75 107 149 195 249 297 365 438
#     4  12  26  47  71 112 150 194 241 304 377 430
#     4  11  25  46  74 104 150 188 250 297 371 435
#
# _framework density 25.140166000000001
#
# number of rings (size 3 to 8) (size 9 to 14) (size 15 to 20)
#    0.000    0.286    1.429    6.429    6.000    3.429 
#    0.000    0.000    0.000    0.000    0.000    0.000 
#    0.000    0.000    0.000    0.000    0.000    0.000 
#
# Total GULP energy -173639.801348 kJ/mol
# GULP energy per Si atom -12402.842953 kJ/mol
# Density = 2.508295 g / cm^3
# Si number density = 25.140166 Si / 1000 Ang^3
#
#
#
# Elastic Constant Matrix: (Units=GPa)
#
#
# Indices 1 2 3 4 5 6 
#
# 1 146.2991 43.8411 46.5929 6.0800 -8.1710 -7.8573
# 2 43.8411 123.5585 78.6352 -10.8505 1.3390 4.7861
# 3 46.5929 78.6352 124.4182 3.2510 21.9710 1.6026
# 4 6.0800 -10.8505 3.2510 37.0008 5.3480 3.8268
# 5 -8.1710 1.3390 21.9710 5.3480 66.7692 19.0619
# 6 -7.8573 4.7861 1.6026 3.8268 19.0619 41.2667
#
#
#
# Elastic Compliance Matrix: (Units=1/GPa)
#
#
# Indices 1 2 3 4 5 6 
#
# 1 0.008326 -0.001785 -0.002231 -0.002062 0.001570 0.001345
# 2 -0.001785 0.015647 -0.009916 0.005664 0.003378 -0.003855
# 3 -0.002231 -0.009916 0.016259 -0.003425 -0.006068 0.003214
# 4 -0.002062 0.005664 -0.003425 0.029771 -0.000661 -0.003372
# 5 0.001570 0.003378 -0.006068 -0.000661 0.019689 -0.008891
# 6 0.001345 -0.003855 0.003214 -0.003372 -0.008891 0.029230
#
#
# Mechanical properties :
#
#
# Convention : Reuss Voigt Hill
#
# Bulk Modulus (GPa) = 80.83930 81.37937 81.10934
# Shear Modulus (GPa) = 33.13235 44.02112 38.57673
#
# Velocity S-wave (km/s) = 3.63423 4.18907 3.92148
# Velocity P-wave (km/s) = 7.05942 7.47250 7.26890
#
# Compressibility (1/GPa) = 0.01237022
#
# Stress axis : x y z
#
# Youngs Moduli (GPa) = 120.10323 63.90845 61.50266
#
# Poissons Ratio (x) = 0.11406 0.13719
# Poissons Ratio (y) = 0.21436 0.60985
# Poissons Ratio (z) = 0.26791 0.63371
#
# Static dielectric constant tensor:
#      x y z
#    x 4.981740 -0.034680 0.242720 
#    y -0.034680 4.281400 0.410400 
#    z 0.242720 0.410400 5.048030 
# 
# 
# High freq. dielectric constant tensor:
#      x y z
#    x 2.026640 -0.001300 0.007140 
#    y -0.001300 1.979870 0.022400 
#    z 0.007140 0.022400 2.016880 
# 
# From -- ./inp_files/112704.got.cif
#   From: 2010.06.25/outbox.cif.g09.slc.cpg/sg2_57_cif.got.tgz:112704.got - 2010.06.27 13:26:56.
