data_PCOD8035463
_publ_section_title
;
Structure prediction by ZEFSAII (Michael W. Deem and Ramdas Pophale) SiO2 
 PCOD8035463
Probable space group: P -1
;
_chemical_formula_sum "Si O2"
_cell_formula_units_Z 16
_cell_length_a 5.264791
_cell_length_b 23.526975
_cell_length_c 11.290153
_cell_angle_alpha 140.805604
_cell_angle_beta 109.103477
_cell_angle_gamma 96.360739
_cell_volume 661.544752
_symmetry_space_group_name_H-M "P -1"
_symmetry_group_IT_number 2
_symmetry_cell_setting 'triclinic'
loop_
_space_group_symop_operation_xyz
x,y,z
-x,-y,-z
loop_
_atom_site_type_symbol
_atom_site_label
_atom_site_fract_x
_atom_site_fract_y
_atom_site_fract_z
Si Si1 0.653194 0.006623 0.296974
Si Si2 0.315000 0.576795 0.916101
Si Si3 0.379064 0.763089 0.894327
Si Si4 0.141579 0.049886 0.230122
Si Si5 0.968556 0.661046 0.443872
Si Si6 0.140514 0.241698 0.870328
Si Si7 0.423225 0.696245 0.354745
Si Si8 0.111815 0.399303 0.265919
O O1 0.306680 0.990525 0.201444
O O2 0.847018 0.023296 0.231047
O O3 0.883733 0.109368 0.589455
O O4 0.539247 0.892181 0.159906
O O5 0.300151 0.466572 0.753007
O O6 0.055052 0.542562 0.712518
O O7 0.674094 0.690951 0.113924
O O8 0.227359 0.602429 0.070653
O O9 0.303657 0.743114 0.710190
O O10 0.009006 0.668008 0.738419
O O11 0.621318 0.738279 0.950311
O O12 0.440912 0.183182 0.483731
O O13 0.000000 0.000000 0.000000
O O14 0.131453 0.659087 0.344206
O O15 0.750750 0.707706 0.472041
O O16 0.978658 0.300988 0.987598
O O17 0.500000 0.500000 0.500000
#
# Coordination Sequence:
#
# PCOD8035463 Si02
#       8
#     2   2   2   2   2   2   2   2
#     4  12  26  46  76 105 144 185 242 298 353 429
#     4  11  25  45  69 107 141 188 240 290 365 422
#     4  11  27  46  69 111 140 187 243 292 362 419
#     4  12  25  47  73 102 146 193 238 291 359 424
#     4  12  27  44  73 103 145 185 237 298 350 428
#     4  11  25  45  74 102 147 190 237 300 353 434
#     4  12  26  46  71 105 141 187 237 295 357 422
#     4  11  25  45  77 101 147 190 237 299 356 433
#
# _framework density 24.185817
#
# number of rings (size 3 to 8) (size 9 to 14) (size 15 to 20)
#    0.000    0.500    1.250    6.000   10.500    2.500 
#    0.000    0.000    0.000    0.000    0.000    0.000 
#    0.000    0.000    0.000    0.000    0.000    0.000 
#
# Total GULP energy -198358.294719 kJ/mol
# GULP energy per Si atom -12397.393420 kJ/mol
# Density = 2.413077 g / cm^3
# Si number density = 24.185817 Si / 1000 Ang^3
#
#
#
# Elastic Constant Matrix: (Units=GPa)
#
#
# Indices 1 2 3 4 5 6 
#
# 1 67.6667 9.2247 -16.8280 5.9876 -4.6750 -1.4761
# 2 9.2247 86.9567 5.8161 11.0545 1.1205 -3.7564
# 3 -16.8280 5.8161 84.9919 8.4771 -1.7076 6.1816
# 4 5.9876 11.0545 8.4771 49.8076 -0.5025 -6.1107
# 5 -4.6750 1.1205 -1.7076 -0.5025 33.7371 -0.9714
# 6 -1.4761 -3.7564 6.1816 -6.1107 -0.9714 23.2763
#
#
#
# Elastic Compliance Matrix: (Units=1/GPa)
#
#
# Indices 1 2 3 4 5 6 
#
# 1 0.016282 -0.001748 0.003670 -0.002257 0.002446 -0.000715
# 2 -0.001748 0.012102 -0.001091 -0.002107 -0.000686 0.001550
# 3 0.003670 -0.001091 0.013185 -0.002945 0.001048 -0.004174
# 4 -0.002257 -0.002107 -0.002945 0.022067 0.000112 0.006097
# 5 0.002446 -0.000686 0.001048 0.000112 0.030088 0.001051
# 6 -0.000715 0.001550 -0.004174 0.006097 0.001051 0.045920
#
#
# Mechanical properties :
#
#
# Convention : Reuss Voigt Hill
#
# Bulk Modulus (GPa) = 23.13133 26.22676 24.67904
# Shear Modulus (GPa) = 32.80994 37.45770 35.13382
#
# Velocity S-wave (km/s) = 3.68717 3.93968 3.81552
# Velocity P-wave (km/s) = 5.26419 5.61802 5.44398
#
# Compressibility (1/GPa) = 0.04323141
#
# Stress axis : x y z
#
# Youngs Moduli (GPa) = 61.41613 82.63070 75.84139
#
# Poissons Ratio (x) = 0.14446 -0.27831
# Poissons Ratio (y) = 0.10737 0.08272
# Poissons Ratio (z) = -0.22538 0.09012
#
# Static dielectric constant tensor:
#      x y z
#    x 4.424980 -0.103010 -0.203290 
#    y -0.103010 4.518840 0.109990 
#    z -0.203290 0.109990 4.371420 
# 
# 
# High freq. dielectric constant tensor:
#      x y z
#    x 1.954180 -0.005150 -0.010140 
#    y -0.005150 1.974950 0.003640 
#    z -0.010140 0.003640 1.975030 
# 
# From -- ./inp_files/69011.got.cif
#   From: 2010.06.25/outbox.cif.g09.slc.cpg/sg2_35_cif.got.tgz:69011.got - 2010.06.27 13:26:56.
