data_PCOD8035680
_publ_section_title
;
Structure prediction by ZEFSAII (Michael W. Deem and Ramdas Pophale) SiO2 
 PCOD8035680
Probable space group: P -1
;
_chemical_formula_sum "Si O2"
_cell_formula_units_Z 16
_cell_length_a 18.189838
_cell_length_b 11.700788
_cell_length_c 20.644644
_cell_angle_alpha 141.719010
_cell_angle_beta 18.277641
_cell_angle_gamma 149.919385
_cell_volume 671.623004
_symmetry_space_group_name_H-M "P -1"
_symmetry_group_IT_number 2
_symmetry_cell_setting 'triclinic'
loop_
_space_group_symop_operation_xyz
x,y,z
-x,-y,-z
loop_
_atom_site_type_symbol
_atom_site_label
_atom_site_fract_x
_atom_site_fract_y
_atom_site_fract_z
Si Si1 0.036253 0.532332 0.643290
Si Si2 0.921552 0.780366 0.440305
Si Si3 0.123994 0.348090 0.042543
Si Si4 0.429424 0.138239 0.735719
Si Si5 0.466175 0.695907 0.133082
Si Si6 0.786442 0.169556 0.020745
Si Si7 0.552195 0.160778 0.078397
Si Si8 0.553062 0.423786 0.356276
O O1 0.136463 0.390649 0.529896
O O2 0.293496 0.780648 0.505568
O O3 0.882591 0.586969 0.849089
O O4 0.822269 0.366894 0.690271
O O5 0.770702 0.913291 0.647134
O O6 0.703703 0.618376 0.493123
O O7 0.271915 0.900669 0.161234
O O8 0.288856 0.234923 0.854761
O O9 0.299402 0.579376 0.955061
O O10 0.792939 0.145871 0.199984
O O11 0.549046 0.268905 0.762541
O O12 0.741754 0.940903 0.981142
O O13 0.500000 0.500000 0.000000
O O14 0.741237 0.156791 0.975163
O O15 0.553652 0.200617 0.263231
O O16 0.121481 0.374233 0.854594
O O17 0.500000 0.500000 0.500000
#
# Coordination Sequence:
#
# PCOD8035680 Si02
#       8
#     2   2   2   2   2   2   2   2
#     4  12  24  48  70 105 141 188 245 295 356 429
#     4  12  23  43  72 106 144 182 237 298 356 433
#     4  11  25  46  72 106 140 188 240 291 368 429
#     4  11  27  44  74 101 145 189 243 297 354 425
#     4  12  25  50  71 102 145 198 245 296 362 430
#     4  11  26  47  73 103 154 186 237 304 363 432
#     4  12  22  43  76 103 143 187 233 298 363 430
#     4  11  26  46  71 113 144 188 234 293 375 436
#
# _framework density 23.822887999999999
#
# number of rings (size 3 to 8) (size 9 to 14) (size 15 to 20)
#    0.000    0.500    5.000    2.250    3.500    1.000 
#    9.000    0.000    0.000    0.000    0.000    0.000 
#    0.000    0.000    0.000    0.000    0.000    0.000 
#
# Total GULP energy -198262.377310 kJ/mol
# GULP energy per Si atom -12391.398582 kJ/mol
# Density = 2.376867 g / cm^3
# Si number density = 23.822888 Si / 1000 Ang^3
#
#
#
# Elastic Constant Matrix: (Units=GPa)
#
#
# Indices 1 2 3 4 5 6 
#
# 1 127.8735 46.9082 43.0143 -11.0681 -4.7740 7.7285
# 2 46.9082 144.9843 37.8395 -12.9378 2.8650 -9.8003
# 3 43.0143 37.8395 87.3852 -25.3005 -3.0927 0.0272
# 4 -11.0681 -12.9378 -25.3005 45.9477 4.1581 4.1489
# 5 -4.7740 2.8650 -3.0927 4.1581 39.2325 -4.6001
# 6 7.7285 -9.8003 0.0272 4.1489 -4.6001 47.2739
#
#
#
# Elastic Compliance Matrix: (Units=1/GPa)
#
#
# Indices 1 2 3 4 5 6 
#
# 1 0.010197 -0.002434 -0.004033 -0.000346 0.000897 -0.002052
# 2 -0.002434 0.008503 -0.002406 0.000381 -0.000908 0.002040
# 3 -0.004033 -0.002406 0.016665 0.007560 0.000139 -0.000499
# 4 -0.000346 0.000381 0.007560 0.026402 -0.002558 -0.002435
# 5 0.000897 -0.000908 0.000139 -0.002558 0.026233 0.002442
# 6 -0.002052 0.002040 -0.000499 -0.002435 0.002442 0.022363
#
#
# Mechanical properties :
#
#
# Convention : Reuss Voigt Hill
#
# Bulk Modulus (GPa) = 56.76105 68.41856 62.58981
# Shear Modulus (GPa) = 37.31846 41.98956 39.65401
#
# Velocity S-wave (km/s) = 3.96219 4.20285 4.08430
# Velocity P-wave (km/s) = 6.69402 7.23422 6.96936
#
# Compressibility (1/GPa) = 0.01761771
#
# Stress axis : x y z
#
# Youngs Moduli (GPa) = 98.06472 117.61127 60.00715
#
# Poissons Ratio (x) = 0.28625 0.24203
# Poissons Ratio (y) = 0.23867 0.14439
# Poissons Ratio (z) = 0.39553 0.28300
#
# Static dielectric constant tensor:
#      x y z
#    x 4.740460 0.559000 0.395080 
#    y 0.559000 4.771920 0.317070 
#    z 0.395080 0.317070 6.469070 
# 
# 
# High freq. dielectric constant tensor:
#      x y z
#    x 1.949850 0.023250 0.004000 
#    y 0.023250 1.965030 -0.000710 
#    z 0.004000 -0.000710 1.977390 
# 
# From -- ./inp_files/600087.got.cif
#   From: 2010.06.25/outbox.cif.g09.slc.cpg/sg2_301_cif.got.tgz:600087.got - 2010.06.27 13:26:56.
