data_PCOD8035878
_publ_section_title
;
Structure prediction by ZEFSAII (Michael W. Deem and Ramdas Pophale) SiO2 
 PCOD8035878
Probable space group: P -1
;
_chemical_formula_sum "Si O2"
_cell_formula_units_Z 16
_cell_length_a 12.572442
_cell_length_b 14.255983
_cell_length_c 5.383027
_cell_angle_alpha 113.986166
_cell_angle_beta 89.484250
_cell_angle_gamma 53.954121
_cell_volume 671.293911
_symmetry_space_group_name_H-M "P -1"
_symmetry_group_IT_number 2
_symmetry_cell_setting 'triclinic'
loop_
_space_group_symop_operation_xyz
x,y,z
-x,-y,-z
loop_
_atom_site_type_symbol
_atom_site_label
_atom_site_fract_x
_atom_site_fract_y
_atom_site_fract_z
Si Si1 0.188414 0.643757 0.760995
Si Si2 0.692991 0.083400 0.344862
Si Si3 0.767478 0.595440 0.633026
Si Si4 0.045360 0.388404 0.681403
Si Si5 0.474737 0.797188 0.034092
Si Si6 0.908855 0.123898 0.331793
Si Si7 0.557743 0.416825 0.156666
Si Si8 0.937877 0.822878 0.276272
O O1 0.285589 0.479649 0.563748
O O2 0.143095 0.732685 0.609910
O O3 0.275786 0.671624 0.949027
O O4 0.054759 0.694333 0.973669
O O5 0.613813 0.118233 0.120793
O O6 0.768968 0.147637 0.435204
O O7 0.813306 0.923101 0.193969
O O8 0.591099 0.119867 0.619082
O O9 0.823638 0.649128 0.512919
O O10 0.638481 0.728196 0.928983
O O11 0.900803 0.461285 0.621588
O O12 0.105374 0.240223 0.602395
O O13 0.000000 0.500000 0.000000
O O14 0.482224 0.673955 0.942229
O O15 0.012419 0.096948 0.524325
O O16 0.000000 0.000000 0.000000
O O17 0.500000 0.500000 0.500000
O O18 0.500000 0.500000 0.000000
#
# Coordination Sequence:
#
# PCOD8035878 Si02
#       8
#     2   2   2   2   2   2   2   2
#     4  12  24  41  71 106 145 188 238 305 363 430
#     4  12  27  46  69 107 149 198 237 286 354 450
#     4  11  26  46  72 107 138 187 245 311 377 424
#     4  11  25  47  77 105 135 180 250 320 371 421
#     4  12  27  46  70 101 155 194 235 291 365 444
#     4  12  24  44  67 108 150 192 235 289 359 438
#     4  12  26  40  63 105 148 189 232 280 357 448
#     4  12  26  43  74 104 144 187 250 300 358 424
#
# _framework density 23.834568000000001
#
# number of rings (size 3 to 8) (size 9 to 14) (size 15 to 20)
#    0.000    0.250    6.250    2.625    5.250    0.000 
#    0.000    1.250    0.000    0.000    0.000    0.000 
#    0.000    0.000    0.000    0.000    0.000    0.000 
#
# Total GULP energy -198218.660728 kJ/mol
# GULP energy per Si atom -12388.666295 kJ/mol
# Density = 2.378032 g / cm^3
# Si number density = 23.834568 Si / 1000 Ang^3
#
#
#
# Elastic Constant Matrix: (Units=GPa)
#
#
# Indices 1 2 3 4 5 6 
#
# 1 98.8514 28.0944 17.9452 2.3689 -34.7187 6.9830
# 2 28.0944 106.1852 24.2829 -18.2870 -20.5419 10.4588
# 3 17.9452 24.2829 98.6782 -9.6622 -23.6645 -9.6855
# 4 2.3689 -18.2870 -9.6622 37.5006 -0.8611 -0.5492
# 5 -34.7187 -20.5419 -23.6645 -0.8611 41.1316 5.1356
# 6 6.9830 10.4588 -9.6855 -0.5492 5.1356 33.1137
#
#
#
# Elastic Compliance Matrix: (Units=1/GPa)
#
#
# Indices 1 2 3 4 5 6 
#
# 1 0.015409 -0.001344 0.000014 -0.001400 0.012919 -0.004848
# 2 -0.001344 0.012575 -0.001556 0.005860 0.004974 -0.004818
# 3 0.000014 -0.001556 0.012560 0.002664 0.006110 0.003259
# 4 -0.001400 0.005860 0.002664 0.030378 0.004026 -0.000897
# 5 0.012919 0.004974 0.006110 0.004026 0.042428 -0.009022
# 6 -0.004848 -0.004818 0.003259 -0.000897 -0.009022 0.035080
#
#
# Mechanical properties :
#
#
# Convention : Reuss Voigt Hill
#
# Bulk Modulus (GPa) = 28.75926 49.37331 39.06628
# Shear Modulus (GPa) = 30.15778 37.90868 34.03323
#
# Velocity S-wave (km/s) = 3.56096 3.99242 3.78285
# Velocity P-wave (km/s) = 5.38513 6.48171 5.95870
#
# Compressibility (1/GPa) = 0.03477141
#
# Stress axis : x y z
#
# Youngs Moduli (GPa) = 64.89567 79.52228 79.61551
#
# Poissons Ratio (x) = 0.10691 -0.00111
# Poissons Ratio (y) = 0.08725 0.12390
# Poissons Ratio (z) = -0.00091 0.12375
#
# Static dielectric constant tensor:
#      x y z
#    x 4.102730 0.096470 0.224560 
#    y 0.096470 4.165220 -0.608650 
#    z 0.224560 -0.608650 2.570090 
# 
# 
# High freq. dielectric constant tensor:
#      x y z
#    x 1.947620 0.000780 -0.016860 
#    y 0.000780 1.951700 -0.004380 
#    z -0.016860 -0.004380 1.939080 
# 
# From -- ./inp_files/70824.got.cif
#   From: 2010.06.25/outbox.cif.g09.slc.cpg/sg2_36_cif.got.tgz:70824.got - 2010.06.27 13:26:56.
