data_PCOD8035735
_publ_section_title
;
Structure prediction by ZEFSAII (Michael W. Deem and Ramdas Pophale) SiO2 
 PCOD8035735
Probable space group: P -1
;
_chemical_formula_sum "Si O2"
_cell_formula_units_Z 16
_cell_length_a 13.706485
_cell_length_b 8.157320
_cell_length_c 15.030812
_cell_angle_alpha 94.465981
_cell_angle_beta 140.726093
_cell_angle_gamma 114.112174
_cell_volume 710.064079
_symmetry_space_group_name_H-M "P -1"
_symmetry_group_IT_number 2
_symmetry_cell_setting 'triclinic'
loop_
_space_group_symop_operation_xyz
x,y,z
-x,-y,-z
loop_
_atom_site_type_symbol
_atom_site_label
_atom_site_fract_x
_atom_site_fract_y
_atom_site_fract_z
Si Si1 0.392793 0.305948 0.030792
Si Si2 0.645115 0.490371 0.823011
Si Si3 0.124420 0.218017 0.667929
Si Si4 0.246065 0.942570 0.483722
Si Si5 0.960876 0.403295 0.825330
Si Si6 0.904198 0.156562 0.092467
Si Si7 0.659875 0.060517 0.742240
Si Si8 0.711734 0.741806 0.708456
O O1 0.232396 0.201686 0.826309
O O2 0.307954 0.067508 0.005244
O O3 0.376489 0.442183 0.093869
O O4 0.664931 0.506531 0.210280
O O5 0.747331 0.699145 0.832084
O O6 0.396933 0.229426 0.602113
O O7 0.806614 0.458278 0.949362
O O8 0.927076 0.187624 0.560170
O O9 0.000000 0.000000 0.500000
O O10 0.091832 0.799728 0.280606
O O11 0.412215 0.914333 0.600870
O O12 0.978047 0.578794 0.779712
O O13 0.753941 0.267807 0.744941
O O14 0.069280 0.130745 0.193368
O O15 0.836411 0.174317 0.950204
O O16 0.657376 0.889687 0.678560
O O17 0.500000 0.500000 0.500000
#
# Coordination Sequence:
#
# PCOD8035735 Si02
#       8
#     2   2   2   2   2   2   2   2
#     4  11  25  46  75 100 131 179 234 297 350 403
#     4  12  22  42  73 100 141 180 233 281 344 413
#     4  11  25  48  77 101 129 174 241 298 352 411
#     4  12  25  42  71 102 133 186 234 280 347 411
#     4  12  24  44  67 103 150 187 216 275 344 423
#     4  12  24  44  67 100 146 186 227 280 341 412
#     4  12  23  42  66 101 148 184 224 275 339 418
#     4  12  25  39  66 106 143 189 232 277 335 420
#
# _framework density 22.533177999999999
#
# number of rings (size 3 to 8) (size 9 to 14) (size 15 to 20)
#    0.000    0.250    6.250    4.125    1.750    0.000 
#    2.250    1.250    0.000    0.000    0.000    0.000 
#    0.000    0.000    0.000    0.000    0.000    0.000 
#
# Total GULP energy -198307.848189 kJ/mol
# GULP energy per Si atom -12394.240512 kJ/mol
# Density = 2.248189 g / cm^3
# Si number density = 22.533178 Si / 1000 Ang^3
#
#
#
# Elastic Constant Matrix: (Units=GPa)
#
#
# Indices 1 2 3 4 5 6 
#
# 1 139.9758 54.2915 51.1036 13.7412 19.8442 12.2461
# 2 54.2915 135.5720 35.4572 23.2198 13.8385 8.2139
# 3 51.1036 35.4572 103.2402 23.4689 -1.7308 7.4639
# 4 13.7412 23.2198 23.4689 24.5822 1.7963 5.8790
# 5 19.8442 13.8385 -1.7308 1.7963 53.2770 2.2620
# 6 12.2461 8.2139 7.4639 5.8790 2.2620 32.6103
#
#
#
# Elastic Compliance Matrix: (Units=1/GPa)
#
#
# Indices 1 2 3 4 5 6 
#
# 1 0.010346 -0.002839 -0.004481 0.001956 -0.003231 -0.002273
# 2 -0.002839 0.010013 -0.000369 -0.007438 -0.001307 0.000060
# 3 -0.004481 -0.000369 0.014642 -0.011387 0.002612 0.000296
# 4 0.001956 -0.007438 -0.011387 0.059189 -0.000871 -0.006865
# 5 -0.003231 -0.001307 0.002612 -0.000871 0.020441 -0.000316
# 6 -0.002273 0.000060 0.000296 -0.006865 -0.000316 0.032695
#
#
# Mechanical properties :
#
#
# Convention : Reuss Voigt Hill
#
# Bulk Modulus (GPa) = 50.95903 73.38807 62.17355
# Shear Modulus (GPa) = 29.54313 37.95630 33.74971
#
# Velocity S-wave (km/s) = 3.62483 4.10867 3.87431
# Velocity P-wave (km/s) = 6.33904 7.42616 6.90403
#
# Compressibility (1/GPa) = 0.01962361
#
# Stress axis : x y z
#
# Youngs Moduli (GPa) = 96.65647 99.86789 68.29771
#
# Poissons Ratio (x) = 0.28349 0.30602
# Poissons Ratio (y) = 0.27438 0.02522
# Poissons Ratio (z) = 0.43308 0.03688
#
# Static dielectric constant tensor:
#      x y z
#    x 3.999780 0.365840 -0.122460 
#    y 0.365840 3.366450 0.408100 
#    z -0.122460 0.408100 4.283900 
# 
# 
# High freq. dielectric constant tensor:
#      x y z
#    x 1.887360 -0.006390 -0.008810 
#    y -0.006390 1.869400 0.021420 
#    z -0.008810 0.021420 1.910360 
# 
# From -- ./inp_files/528663.got.cif
#   From: 2010.06.25/outbox.cif.g09.slc.cpg/sg2_265_cif.got.tgz:528663.got - 2010.06.27 13:26:56.
