data_PCOD8035845
_publ_section_title
;
Structure prediction by ZEFSAII (Michael W. Deem and Ramdas Pophale) SiO2 
 PCOD8035845
Probable space group: P -1
;
_chemical_formula_sum "Si O2"
_cell_formula_units_Z 16
_cell_length_a 9.005501
_cell_length_b 19.151138
_cell_length_c 6.776994
_cell_angle_alpha 120.807110
_cell_angle_beta 56.127137
_cell_angle_gamma 131.556800
_cell_volume 706.830706
_symmetry_space_group_name_H-M "P -1"
_symmetry_group_IT_number 2
_symmetry_cell_setting 'triclinic'
loop_
_space_group_symop_operation_xyz
x,y,z
-x,-y,-z
loop_
_atom_site_type_symbol
_atom_site_label
_atom_site_fract_x
_atom_site_fract_y
_atom_site_fract_z
Si Si1 0.779647 0.993112 0.689382
Si Si2 0.525192 0.142616 0.611206
Si Si3 0.809241 0.732035 0.531469
Si Si4 0.803935 0.905925 0.920607
Si Si5 0.560333 0.397111 0.653238
Si Si6 0.199445 0.703656 0.675384
Si Si7 0.275376 0.389482 0.195918
Si Si8 0.776952 0.170656 0.831770
O O1 0.605196 0.939290 0.571585
O O2 0.694180 0.938006 0.882326
O O3 0.812344 0.097940 0.831738
O O4 0.000000 0.000000 0.500000
O O5 0.706518 0.239144 0.515737
O O6 0.632442 0.115330 0.667066
O O7 0.357342 0.157312 0.876948
O O8 0.887091 0.842262 0.677239
O O9 0.603214 0.687307 0.487610
O O10 0.753226 0.666907 0.667604
O O11 0.001275 0.739495 0.280102
O O12 0.000000 0.000000 0.000000
O O13 0.755470 0.381618 0.491741
O O14 0.640785 0.500812 0.652614
O O15 0.449539 0.385633 0.929242
O O16 0.949629 0.657534 0.812880
O O17 0.307980 0.777658 0.886476
#
# Coordination Sequence:
#
# PCOD8035845 Si02
#       8
#     2   2   2   2   2   2   2   2
#     4  12  25  44  68 100 141 190 240 293 348 417
#     4  12  25  45  66  99 139 188 236 291 355 406
#     4  12  23  45  71 102 144 184 235 290 356 418
#     4  12  26  43  72 104 139 186 242 291 348 419
#     4  11  25  47  74 106 140 185 233 291 364 419
#     4  12  26  45  73 104 144 182 235 291 358 426
#     4  11  25  47  76 105 141 183 232 297 355 429
#     4  12  26  43  69 101 143 187 235 294 351 418
#
# _framework density 22.636254000000001
#
# number of rings (size 3 to 8) (size 9 to 14) (size 15 to 20)
#    0.000    0.250    5.000    4.125    1.750    3.000 
#    0.000    0.625    0.000    0.000    0.000    0.000 
#    0.000    0.000    0.000    0.000    0.000    0.000 
#
# Total GULP energy -198375.909843 kJ/mol
# GULP energy per Si atom -12398.494365 kJ/mol
# Density = 2.258473 g / cm^3
# Si number density = 22.636254 Si / 1000 Ang^3
#
#
#
# Elastic Constant Matrix: (Units=GPa)
#
#
# Indices 1 2 3 4 5 6 
#
# 1 -211.0873 -94.8243 8.0669 -90.4306 -75.8781 -40.1488
# 2 -94.8243 57.5824 37.7600 -36.4863 -29.7225 -28.9629
# 3 8.0669 37.7600 110.0453 -5.7152 -4.4146 -22.2863
# 4 -90.4306 -36.4863 -5.7152 5.0698 -30.4748 -9.3717
# 5 -75.8781 -29.7225 -4.4146 -30.4748 15.0529 -5.8576
# 6 -40.1488 -28.9629 -22.2863 -9.3717 -5.8576 44.7119
#
#
#
# Elastic Compliance Matrix: (Units=1/GPa)
#
#
# Indices 1 2 3 4 5 6 
#
# 1 0.003787 -0.004008 -0.000051 -0.008717 -0.007264 -0.002000
# 2 -0.004008 0.011516 -0.003556 -0.001991 -0.001992 0.001410
# 3 -0.000051 -0.003556 0.011249 0.001936 0.001437 0.003852
# 4 -0.008717 -0.001991 0.001936 0.023976 0.000022 -0.003124
# 5 -0.007264 -0.001992 0.001437 0.000022 0.024855 -0.003836
# 6 -0.002000 0.001410 0.003852 -0.003124 -0.003836 0.022245
#
#
# Mechanical properties :
#
#
# Convention : Reuss Voigt Hill
#
# Bulk Modulus (GPa) = 88.32301 -15.71718 36.30292
# Shear Modulus (GPa) = 42.86932 13.33612 28.10272
#
# Velocity S-wave (km/s) = 4.35654 2.42987 3.52730
# Velocity P-wave (km/s) = 8.02552 0.95600 5.71502
#
# Compressibility (1/GPa) = 0.01132208
#
# Stress axis : x y z
#
# Youngs Moduli (GPa) = 264.04479 86.83227 88.89521
#
# Poissons Ratio (x) = 0.34807 0.00457
# Poissons Ratio (y) = 1.05842 0.31607
# Poissons Ratio (z) = 0.01356 0.30874
#
# Static dielectric constant tensor:
#      x y z
#    x 4.073200 0.088970 0.036140 
#    y 0.088970 4.084160 -0.242540 
#    z 0.036140 -0.242540 4.308870 
# 
# 
# High freq. dielectric constant tensor:
#      x y z
#    x 1.892370 0.008410 0.000260 
#    y 0.008410 1.896650 -0.014270 
#    z 0.000260 -0.014270 1.903930 
# 
# From -- ./inp_files/53649.got.cif
#   From: 2010.06.25/outbox.cif.g09.slc.cpg/sg2_27_cif.got.tgz:53649.got - 2010.06.27 13:26:56.
