data_PCOD8035733
_publ_section_title
;
Structure prediction by ZEFSAII (Michael W. Deem and Ramdas Pophale) SiO2 
 PCOD8035733
Probable space group: P -1
;
_chemical_formula_sum "Si O2"
_cell_formula_units_Z 16
_cell_length_a 10.632043
_cell_length_b 8.830191
_cell_length_c 7.767544
_cell_angle_alpha 88.900181
_cell_angle_beta 78.988358
_cell_angle_gamma 119.764951
_cell_volume 615.787664
_symmetry_space_group_name_H-M "P -1"
_symmetry_group_IT_number 2
_symmetry_cell_setting 'triclinic'
loop_
_space_group_symop_operation_xyz
x,y,z
-x,-y,-z
loop_
_atom_site_type_symbol
_atom_site_label
_atom_site_fract_x
_atom_site_fract_y
_atom_site_fract_z
Si Si1 0.727477 0.315211 0.363743
Si Si2 0.952980 0.062781 0.798479
Si Si3 0.726063 0.789072 0.651176
Si Si4 0.713365 0.444373 0.708329
Si Si5 0.967890 0.412722 0.823249
Si Si6 0.743777 0.800775 0.137690
Si Si7 0.424968 0.607765 0.893925
Si Si8 0.625802 0.954027 0.399877
O O1 0.639438 0.310502 0.565705
O O2 0.636732 0.295164 0.212339
O O3 0.880140 0.499082 0.326623
O O4 0.763636 0.156503 0.357900
O O5 0.875886 0.976955 0.638320
O O6 0.911577 0.207927 0.862732
O O7 0.858390 0.890926 0.948208
O O8 0.131238 0.141328 0.740241
O O9 0.763442 0.636020 0.612652
O O10 0.604959 0.713262 0.842308
O O11 0.635107 0.814458 0.522824
O O12 0.856029 0.443845 0.741526
O O13 0.600040 0.382836 0.897686
O O14 0.000000 0.500000 0.000000
O O15 0.648839 0.590962 0.152001
O O16 0.633650 0.876482 0.210606
O O17 0.500000 0.000000 0.500000
#
# Coordination Sequence:
#
# PCOD8035733 Si02
#       8
#     2   2   2   2   2   2   2   2
#     4  12  26  48  77 110 153 202 258 317 384 455
#     4  11  25  46  74 115 147 199 252 319 378 452
#     4  12  28  47  75 111 153 193 258 316 383 456
#     4  12  27  46  78 113 151 201 259 316 380 467
#     4  12  24  48  78 111 155 206 256 315 386 458
#     4  11  25  47  77 108 155 197 256 313 385 460
#     4  12  25  52  77 112 151 210 251 315 392 457
#     4  12  28  48  73 112 153 201 256 320 383 455
#
# _framework density 25.982982
#
# number of rings (size 3 to 8) (size 9 to 14) (size 15 to 20)
#    0.000    0.250    5.000    3.000    5.250    1.500 
#    0.000    1.875    0.000    0.000    0.000    0.000 
#    0.000    0.000    0.000    0.000    0.000    0.000 
#
# Total GULP energy -198238.523446 kJ/mol
# GULP energy per Si atom -12389.907715 kJ/mol
# Density = 2.592384 g / cm^3
# Si number density = 25.982982 Si / 1000 Ang^3
#
#
#
# Elastic Constant Matrix: (Units=GPa)
#
#
# Indices 1 2 3 4 5 6 
#
# 1 105.2927 21.7213 6.8066 -7.7118 4.0719 -18.7251
# 2 21.7213 139.8555 25.1169 7.8269 -2.2193 -24.2379
# 3 6.8066 25.1169 87.1276 10.6723 2.3911 -15.7709
# 4 -7.7118 7.8269 10.6723 40.6976 -3.9664 -2.1307
# 5 4.0719 -2.2193 2.3911 -3.9664 50.0904 -8.4824
# 6 -18.7251 -24.2379 -15.7709 -2.1307 -8.4824 49.9624
#
#
#
# Elastic Compliance Matrix: (Units=1/GPa)
#
#
# Indices 1 2 3 4 5 6 
#
# 1 0.010537 -0.001152 -0.000166 0.002428 -0.000128 0.003419
# 2 -0.001152 0.008247 -0.001601 -0.001122 0.000986 0.003183
# 3 -0.000166 -0.001601 0.012876 -0.002980 -0.000395 0.003032
# 4 0.002428 -0.001122 -0.002980 0.026284 0.002130 0.000908
# 5 -0.000128 0.000986 -0.000395 0.002130 0.020873 0.003940
# 6 0.003419 0.003183 0.003032 0.000908 0.003940 0.024505
#
#
# Mechanical properties :
#
#
# Convention : Reuss Voigt Hill
#
# Bulk Modulus (GPa) = 38.72629 48.84060 43.78345
# Shear Modulus (GPa) = 42.45674 46.72547 44.59111
#
# Velocity S-wave (km/s) = 4.04669 4.24525 4.14716
# Velocity P-wave (km/s) = 6.06392 6.54733 6.31025
#
# Compressibility (1/GPa) = 0.02582225
#
# Stress axis : x y z
#
# Youngs Moduli (GPa) = 94.90704 121.26024 77.66100
#
# Poissons Ratio (x) = 0.13969 0.01289
# Poissons Ratio (y) = 0.10933 0.12432
# Poissons Ratio (z) = 0.01576 0.19412
#
# Static dielectric constant tensor:
#      x y z
#    x 5.146720 -0.027640 0.041850 
#    y -0.027640 5.558750 -0.096450 
#    z 0.041850 -0.096450 4.975860 
# 
# 
# High freq. dielectric constant tensor:
#      x y z
#    x 2.044350 0.003910 -0.003550 
#    y 0.003910 2.057840 -0.006370 
#    z -0.003550 -0.006370 2.050200 
# 
# From -- ./inp_files/239039.got.cif
#   From: 2010.06.25/outbox.cif.g09.slc.cpg/sg2_120_cif.got.tgz:239039.got - 2010.06.27 13:26:56.
