data_PCOD8035638
_publ_section_title
;
Structure prediction by ZEFSAII (Michael W. Deem and Ramdas Pophale) SiO2 
 PCOD8035638
Probable space group: P -1
;
_chemical_formula_sum "Si O2"
_cell_formula_units_Z 14
_cell_length_a 20.718660
_cell_length_b 8.708962
_cell_length_c 12.252345
_cell_angle_alpha 56.512466
_cell_angle_beta 28.936524
_cell_angle_gamma 38.870281
_cell_volume 607.048232
_symmetry_space_group_name_H-M "P -1"
_symmetry_group_IT_number 2
_symmetry_cell_setting 'triclinic'
loop_
_space_group_symop_operation_xyz
x,y,z
-x,-y,-z
loop_
_atom_site_type_symbol
_atom_site_label
_atom_site_fract_x
_atom_site_fract_y
_atom_site_fract_z
Si Si1 0.531949 0.834461 0.917836
Si Si2 0.106871 0.710368 0.498121
Si Si3 0.261017 0.988235 0.960812
Si Si4 0.509379 0.047225 0.643295
Si Si5 0.853231 0.926244 0.144682
Si Si6 0.605599 0.403344 0.716929
Si Si7 0.267785 0.622397 0.697786
O O1 0.760381 0.536856 0.688272
O O2 0.457456 0.017056 0.849777
O O3 0.386740 0.809446 0.162655
O O4 0.500000 0.000000 0.000000
O O5 0.247265 0.614116 0.429654
O O6 0.000000 0.000000 0.500000
O O7 0.927631 0.763928 0.785067
O O8 0.413340 0.005266 0.713270
O O9 0.188262 0.985558 0.954053
O O10 0.384108 0.699807 0.949448
O O11 0.429571 0.333312 0.629878
O O12 0.745328 0.840061 0.366924
O O13 0.779934 0.169404 0.229712
O O14 0.084644 0.673211 0.922237
O O15 0.653519 0.360722 0.534712
#
# Coordination Sequence:
#
# PCOD8035638 Si02
#       7
#     2   2   2   2   2   2   2
#     4  12  28  48  74 107 148 190 241 307 364 427
#     4  12  25  47  75 105 145 200 244 290 364 448
#     4  12  25  43  76 107 142 190 244 299 362 433
#     4  12  26  44  72 108 145 184 241 307 359 426
#     4  11  25  46  70 109 145 190 244 296 367 435
#     4  12  24  50  73 104 146 196 241 295 368 437
#     4  11  26  44  76 104 145 193 242 298 367 433
#
# _framework density 23.062418000000001
#
# number of rings (size 3 to 8) (size 9 to 14) (size 15 to 20)
#    0.000    0.286    5.714    3.000    4.000    0.571 
#    0.000    1.429    0.000    0.000    0.000    0.000 
#    0.000    0.000    0.000    0.000    0.000    0.000 
#
# Total GULP energy -173588.939031 kJ/mol
# GULP energy per Si atom -12399.209931 kJ/mol
# Density = 2.300993 g / cm^3
# Si number density = 23.062418 Si / 1000 Ang^3
#
#
#
# Elastic Constant Matrix: (Units=GPa)
#
#
# Indices 1 2 3 4 5 6 
#
# 1 104.1068 28.3801 51.1702 7.2863 -6.9275 0.6345
# 2 28.3801 75.3145 42.2310 -6.1151 12.0980 -9.0559
# 3 51.1702 42.2310 157.2531 -5.0947 -10.4738 4.9379
# 4 7.2863 -6.1151 -5.0947 44.7649 5.7488 3.4046
# 5 -6.9275 12.0980 -10.4738 5.7488 43.5447 -4.0264
# 6 0.6345 -9.0559 4.9379 3.4046 -4.0264 38.0318
#
#
#
# Elastic Compliance Matrix: (Units=1/GPa)
#
#
# Indices 1 2 3 4 5 6 
#
# 1 0.012502 -0.003759 -0.002977 -0.003227 0.002730 -0.000139
# 2 -0.003759 0.019036 -0.004378 0.003298 -0.006994 0.004128
# 3 -0.002977 -0.004378 0.008758 0.000698 0.002580 -0.001919
# 4 -0.003227 0.003298 0.000698 0.024133 -0.004624 -0.001901
# 5 0.002730 -0.006994 0.002580 -0.004624 0.026684 0.001193
# 6 -0.000139 0.004128 -0.001919 -0.001901 0.001193 0.027825
#
#
# Mechanical properties :
#
#
# Convention : Reuss Voigt Hill
#
# Bulk Modulus (GPa) = 55.34303 64.47078 59.90690
# Shear Modulus (GPa) = 33.97015 39.59448 36.78231
#
# Velocity S-wave (km/s) = 3.84209 4.14797 3.99796
# Velocity P-wave (km/s) = 6.61297 7.13838 6.88069
#
# Compressibility (1/GPa) = 0.01806912
#
# Stress axis : x y z
#
# Youngs Moduli (GPa) = 79.98783 52.53079 114.17861
#
# Poissons Ratio (x) = 0.19747 0.33990
# Poissons Ratio (y) = 0.30068 0.49984
# Poissons Ratio (z) = 0.23812 0.22996
#
# Static dielectric constant tensor:
#      x y z
#    x 4.220960 -0.131240 -0.265680 
#    y -0.131240 4.116990 0.155910 
#    z -0.265680 0.155910 4.748570 
# 
# 
# High freq. dielectric constant tensor:
#      x y z
#    x 1.913130 -0.008020 -0.006230 
#    y -0.008020 1.906430 -0.004260 
#    z -0.006230 -0.004260 1.929600 
# 
# From -- ./inp_files/416181.got.cif
#   From: 2010.06.25/outbox.cif.g09.slc.cpg/sg2_209_cif.got.tgz:416181.got - 2010.06.27 13:26:56.
