data_PCOD8035310
_publ_section_title
;
Structure prediction by ZEFSAII (Michael W. Deem and Ramdas Pophale) SiO2 
 PCOD8035310
Probable space group: P -1
;
_chemical_formula_sum "Si O2"
_cell_formula_units_Z 16
_cell_length_a 6.829010
_cell_length_b 23.958197
_cell_length_c 11.935211
_cell_angle_alpha 28.028580
_cell_angle_beta 50.930126
_cell_angle_gamma 49.336169
_cell_volume 687.691271
_symmetry_space_group_name_H-M "P -1"
_symmetry_group_IT_number 2
_symmetry_cell_setting 'triclinic'
loop_
_space_group_symop_operation_xyz
x,y,z
-x,-y,-z
loop_
_atom_site_type_symbol
_atom_site_label
_atom_site_fract_x
_atom_site_fract_y
_atom_site_fract_z
Si Si1 0.854902 0.385474 0.262695
Si Si2 0.453824 0.296239 0.127984
Si Si3 0.377624 0.131365 0.259770
Si Si4 0.497141 0.771281 0.397251
Si Si5 0.895831 0.408395 0.778274
Si Si6 0.872815 0.533856 0.792713
Si Si7 0.248893 0.150392 0.040375
Si Si8 0.807714 0.109977 0.499276
O O1 0.159022 0.332584 0.214031
O O2 0.864212 0.449075 0.268737
O O3 0.697409 0.283797 0.511075
O O4 0.720364 0.477435 0.045384
O O5 0.464005 0.239722 0.100010
O O6 0.612578 0.188295 0.341189
O O7 0.585203 0.413875 0.871024
O O8 0.063481 0.159188 0.326922
O O9 0.500000 0.000000 0.500000
O O10 0.462684 0.133102 0.094886
O O11 0.702382 0.663746 0.579100
O O12 0.634321 0.843592 0.134318
O O13 0.334480 0.871577 0.362262
O O14 0.962014 0.436747 0.831827
O O15 0.000000 0.500000 0.500000
O O16 0.026318 0.272012 0.931901
O O17 0.119501 0.035489 0.296692
#
# Coordination Sequence:
#
# PCOD8035310 Si02
#       8
#     2   2   2   2   2   2   2   2
#     4  11  25  43  73 107 136 195 244 291 350 424
#     4  12  24  45  76 105 140 189 248 293 349 436
#     4  12  24  46  75 106 141 188 247 293 351 437
#     4  12  25  47  70 107 150 183 237 306 359 420
#     4  12  26  45  71 102 146 193 231 292 364 422
#     4  11  25  43  71 101 143 193 244 287 348 428
#     4  12  26  47  72 107 148 190 234 299 371 417
#     4  12  24  48  77 105 141 192 242 293 364 427
#
# _framework density 23.266257
#
# number of rings (size 3 to 8) (size 9 to 14) (size 15 to 20)
#    0.000    0.250    6.250    3.375    3.500    1.000 
#    2.250    3.125    0.000    0.000    0.000    0.000 
#    0.000    0.000    0.000    0.000    0.000    0.000 
#
# Total GULP energy -198323.603400 kJ/mol
# GULP energy per Si atom -12395.225212 kJ/mol
# Density = 2.321330 g / cm^3
# Si number density = 23.266257 Si / 1000 Ang^3
#
#
#
# Elastic Constant Matrix: (Units=GPa)
#
#
# Indices 1 2 3 4 5 6 
#
# 1 122.2337 32.5420 46.6816 7.2242 -0.3289 26.3188
# 2 32.5420 78.4172 24.5666 3.6972 4.6317 31.9780
# 3 46.6816 24.5666 124.2972 6.6901 -3.3421 8.6959
# 4 7.2242 3.6972 6.6901 35.8813 6.6361 -1.0774
# 5 -0.3289 4.6317 -3.3421 6.6361 38.8819 -8.4369
# 6 26.3188 31.9780 8.6959 -1.0774 -8.4369 49.3819
#
#
#
# Elastic Compliance Matrix: (Units=1/GPa)
#
#
# Indices 1 2 3 4 5 6 
#
# 1 0.010930 -0.001577 -0.003433 -0.001395 -0.000721 -0.004353
# 2 -0.001577 0.019517 -0.002511 -0.000650 -0.005099 -0.012242
# 3 -0.003433 -0.002511 0.009799 -0.001139 0.001741 0.002003
# 4 -0.001395 -0.000650 -0.001139 0.029350 -0.004784 0.001188
# 5 -0.000721 -0.005099 0.001741 -0.004784 0.029075 0.008243
# 6 -0.004353 -0.012242 0.002003 0.001188 0.008243 0.031579
#
#
# Mechanical properties :
#
#
# Convention : Reuss Voigt Hill
#
# Bulk Modulus (GPa) = 39.67537 59.16984 49.42260
# Shear Modulus (GPa) = 32.53241 39.57288 36.05264
#
# Velocity S-wave (km/s) = 3.74340 4.12863 3.94073
# Velocity P-wave (km/s) = 5.98112 6.94365 6.48028
#
# Compressibility (1/GPa) = 0.02520455
#
# Stress axis : x y z
#
# Youngs Moduli (GPa) = 91.49379 51.23723 102.05304
#
# Poissons Ratio (x) = 0.08078 0.35034
# Poissons Ratio (y) = 0.14424 0.25626
# Poissons Ratio (z) = 0.31409 0.12866
#
# Static dielectric constant tensor:
#      x y z
#    x 4.866020 0.392530 0.263570 
#    y 0.392530 4.477720 0.039780 
#    z 0.263570 0.039780 4.440760 
# 
# 
# High freq. dielectric constant tensor:
#      x y z
#    x 1.931750 0.016720 0.006320 
#    y 0.016720 1.933360 -0.014100 
#    z 0.006320 -0.014100 1.912370 
# 
# From -- ./inp_files/370946.got.cif
#   From: 2010.06.25/outbox.cif.g09.slc.cpg/sg2_186_cif.got.tgz:370946.got - 2010.06.27 13:26:56.
