data_PCOD8035172
_publ_section_title
;
Structure prediction by ZEFSAII (Michael W. Deem and Ramdas Pophale) SiO2 
 PCOD8035172
Probable space group: P -1
;
_chemical_formula_sum "Si O2"
_cell_formula_units_Z 16
_cell_length_a 19.396307
_cell_length_b 5.576773
_cell_length_c 8.074864
_cell_angle_alpha 116.047096
_cell_angle_beta 124.337463
_cell_angle_gamma 62.949401
_cell_volume 622.220543
_symmetry_space_group_name_H-M "P -1"
_symmetry_group_IT_number 2
_symmetry_cell_setting 'triclinic'
loop_
_space_group_symop_operation_xyz
x,y,z
-x,-y,-z
loop_
_atom_site_type_symbol
_atom_site_label
_atom_site_fract_x
_atom_site_fract_y
_atom_site_fract_z
Si Si1 0.578465 0.274111 0.869248
Si Si2 0.733364 0.868680 0.055963
Si Si3 0.398157 0.276935 0.743275
Si Si4 0.408505 0.719842 0.475751
Si Si5 0.819776 0.338150 0.218232
Si Si6 0.738365 0.515347 0.647765
Si Si7 0.936520 0.922311 0.017615
Si Si8 0.905343 0.401577 0.675056
O O1 0.474053 0.346983 0.755285
O O2 0.616785 0.161141 0.707242
O O3 0.606748 0.552943 0.041202
O O4 0.628686 0.014744 0.976675
O O5 0.760463 0.647314 0.176312
O O6 0.772514 0.135747 0.188884
O O7 0.759889 0.727200 0.871665
O O8 0.306979 0.350693 0.544452
O O9 0.423945 0.943534 0.697403
O O10 0.500000 0.500000 0.500000
O O11 0.326823 0.626965 0.395701
O O12 0.892189 0.385313 0.456087
O O13 0.865812 0.195502 0.069961
O O14 0.831079 0.306369 0.651726
O O15 0.995960 0.770573 0.206189
O O16 0.888458 0.722917 0.801600
O O17 0.000000 0.000000 0.000000
#
# Coordination Sequence:
#
# PCOD8035172 Si02
#       8
#     2   2   2   2   2   2   2   2
#     4  11  24  49  69 109 149 201 265 328 386 463
#     4  12  26  49  77 112 156 205 260 320 384 462
#     4  11  25  46  70 104 151 197 267 319 398 451
#     4  12  24  45  75 107 150 210 257 327 390 456
#     4  12  28  52  79 115 160 206 256 319 394 465
#     4  12  24  47  74 106 156 202 260 319 390 462
#     4  11  26  50  84 115 154 204 253 323 390 474
#     4  11  27  50  76 117 155 198 259 318 391 467
#
# _framework density 25.714354
#
# number of rings (size 3 to 8) (size 9 to 14) (size 15 to 20)
#    0.000    0.500    3.750    3.750    3.500    2.000 
#   13.500    0.000    0.000    0.000    0.000    0.000 
#    0.000    0.000    0.000    0.000    0.000    0.000 
#
# Total GULP energy -198293.329056 kJ/mol
# GULP energy per Si atom -12393.333066 kJ/mol
# Density = 2.565583 g / cm^3
# Si number density = 25.714354 Si / 1000 Ang^3
#
#
#
# Elastic Constant Matrix: (Units=GPa)
#
#
# Indices 1 2 3 4 5 6 
#
# 1 69.1120 3.0392 -14.1754 11.0460 12.9744 10.0396
# 2 3.0392 119.7326 27.6158 12.0280 8.5115 3.8846
# 3 -14.1754 27.6158 112.5535 13.0743 2.4578 5.6780
# 4 11.0460 12.0280 13.0743 33.1510 -4.9122 -3.9213
# 5 12.9744 8.5115 2.4578 -4.9122 29.0566 1.8485
# 6 10.0396 3.8846 5.6780 -3.9213 1.8485 37.5989
#
#
#
# Elastic Compliance Matrix: (Units=1/GPa)
#
#
# Indices 1 2 3 4 5 6 
#
# 1 0.020093 0.000613 0.004234 -0.010999 -0.010944 -0.006677
# 2 0.000613 0.009359 -0.001675 -0.003572 -0.003409 -0.001083
# 3 0.004234 -0.001675 0.010730 -0.005854 -0.003104 -0.003036
# 4 -0.010999 -0.003572 -0.005854 0.040243 0.012763 0.007759
# 5 -0.010944 -0.003409 -0.003104 0.012763 0.042531 0.002983
# 6 -0.006677 -0.001083 -0.003036 0.007759 0.002983 0.029612
#
#
# Mechanical properties :
#
#
# Convention : Reuss Voigt Hill
#
# Bulk Modulus (GPa) = 21.49384 37.15080 29.32232
# Shear Modulus (GPa) = 30.91496 38.95586 34.93541
#
# Velocity S-wave (km/s) = 3.47110 3.89645 3.68991
# Velocity P-wave (km/s) = 4.94384 5.89254 5.43891
#
# Compressibility (1/GPa) = 0.04652496
#
# Stress axis : x y z
#
# Youngs Moduli (GPa) = 49.76845 106.84844 93.19909
#
# Poissons Ratio (x) = -0.06550 -0.39457
# Poissons Ratio (y) = -0.03051 0.15612
# Poissons Ratio (z) = -0.21070 0.17898
#
# Static dielectric constant tensor:
#      x y z
#    x 4.534650 -0.156410 0.100560 
#    y -0.156410 4.863300 -0.069280 
#    z 0.100560 -0.069280 5.230740 
# 
# 
# High freq. dielectric constant tensor:
#      x y z
#    x 2.023160 -0.016000 0.004610 
#    y -0.016000 2.022730 0.002750 
#    z 0.004610 0.002750 2.043970 
# 
# From -- ./inp_files/340700.got.cif
#   From: 2010.06.25/outbox.cif.g09.slc.cpg/sg2_171_cif.got.tgz:340700.got - 2010.06.27 13:26:56.
