data_PCOD8035844
_publ_section_title
;
Structure prediction by ZEFSAII (Michael W. Deem and Ramdas Pophale) SiO2 
 PCOD8035844
Probable space group: P -1
;
_chemical_formula_sum "Si O2"
_cell_formula_units_Z 14
_cell_length_a 8.721560
_cell_length_b 20.523711
_cell_length_c 9.333249
_cell_angle_alpha 28.300268
_cell_angle_beta 121.010870
_cell_angle_gamma 130.450221
_cell_volume 595.400969
_symmetry_space_group_name_H-M "P -1"
_symmetry_group_IT_number 2
_symmetry_cell_setting 'triclinic'
loop_
_space_group_symop_operation_xyz
x,y,z
-x,-y,-z
loop_
_atom_site_type_symbol
_atom_site_label
_atom_site_fract_x
_atom_site_fract_y
_atom_site_fract_z
Si Si1 0.919197 0.606349 0.694313
Si Si2 0.938053 0.635652 0.173192
Si Si3 0.197861 0.800416 0.216716
Si Si4 0.627060 0.910355 0.775413
Si Si5 0.040484 0.195524 0.423810
Si Si6 0.468819 0.405385 0.808901
Si Si7 0.384609 0.133208 0.805757
O O1 0.015696 0.765736 0.523112
O O2 0.678042 0.507409 0.795599
O O3 0.004535 0.654577 0.481500
O O4 0.000000 0.500000 0.000000
O O5 0.709141 0.591536 0.190827
O O6 0.000000 0.500000 0.500000
O O7 0.097684 0.796368 0.021513
O O8 0.958597 0.679089 0.931785
O O9 0.389382 0.770589 0.338180
O O10 0.274150 0.953844 0.050494
O O11 0.500000 0.000000 0.500000
O O12 0.561116 0.765671 0.915241
O O13 0.601388 0.855385 0.036149
O O14 0.865874 0.020365 0.644007
O O15 0.261490 0.208344 0.522989
O O16 0.500000 0.500000 0.500000
#
# Coordination Sequence:
#
# PCOD8035844 Si02
#       7
#     2   2   2   2   2   2   2
#     4  12  26  47  72 108 149 198 249 307 382 457
#     4  12  29  50  74 111 155 200 259 319 383 455
#     4  11  25  47  74 105 151 196 249 314 375 448
#     4  12  26  48  81 117 153 201 255 318 386 462
#     4  12  27  47  79 107 149 199 257 315 379 449
#     4  12  28  47  77 109 158 204 250 312 388 453
#     4  11  26  45  77 109 150 192 256 319 373 449
#
# _framework density 23.513566999999998
#
# number of rings (size 3 to 8) (size 9 to 14) (size 15 to 20)
#    0.000    0.286    2.857    4.714    8.000    4.000 
#    0.000    0.000    0.000    0.000    0.000    0.000 
#    0.000    0.000    0.000    0.000    0.000    0.000 
#
# Total GULP energy -173508.033281 kJ/mol
# GULP energy per Si atom -12393.430949 kJ/mol
# Density = 2.346005 g / cm^3
# Si number density = 23.513567 Si / 1000 Ang^3
#
#
#
# Elastic Constant Matrix: (Units=GPa)
#
#
# Indices 1 2 3 4 5 6 
#
# 1 144.8115 42.8872 49.6634 0.1672 -3.3650 18.6380
# 2 42.8872 101.4638 31.6050 7.5206 -13.8111 13.9746
# 3 49.6634 31.6050 103.5039 12.3052 6.8512 3.2815
# 4 0.1672 7.5206 12.3052 41.3336 7.9463 1.4214
# 5 -3.3650 -13.8111 6.8512 7.9463 33.4504 1.2926
# 6 18.6380 13.9746 3.2815 1.4214 1.2926 45.0414
#
#
#
# Elastic Compliance Matrix: (Units=1/GPa)
#
#
# Indices 1 2 3 4 5 6 
#
# 1 0.009321 -0.002384 -0.003870 0.001554 0.000489 -0.002899
# 2 -0.002384 0.013295 -0.002936 -0.002702 0.006610 -0.003029
# 3 -0.003870 -0.002936 0.012918 -0.002648 -0.003686 0.001760
# 4 0.001554 -0.002702 -0.002648 0.026777 -0.006768 -0.000263
# 5 0.000489 0.006610 -0.003686 -0.006768 0.035143 -0.002779
# 6 -0.002899 -0.003029 0.001760 -0.000263 -0.002779 0.024301
#
#
# Mechanical properties :
#
#
# Convention : Reuss Voigt Hill
#
# Bulk Modulus (GPa) = 58.29363 66.45450 62.37406
# Shear Modulus (GPa) = 34.28099 39.00667 36.64383
#
# Velocity S-wave (km/s) = 3.82242 4.07738 3.95196
# Velocity P-wave (km/s) = 6.65781 7.10565 6.88537
#
# Compressibility (1/GPa) = 0.01715453
#
# Stress axis : x y z
#
# Youngs Moduli (GPa) = 107.28041 75.21550 77.41264
#
# Poissons Ratio (x) = 0.17931 0.29957
# Poissons Ratio (y) = 0.25576 0.22729
# Poissons Ratio (z) = 0.41516 0.22084
#
# Static dielectric constant tensor:
#      x y z
#    x 3.899030 0.215020 0.241900 
#    y 0.215020 4.079830 -0.084830 
#    z 0.241900 -0.084830 3.972520 
# 
# 
# High freq. dielectric constant tensor:
#      x y z
#    x 1.946800 0.006310 0.002570 
#    y 0.006310 1.954870 0.001390 
#    z 0.002570 0.001390 1.919760 
# 
# From -- ./inp_files/222905.got.cif
#   From: 2010.06.25/outbox.cif.g09.slc.cpg/sg2_112_cif.got.tgz:222905.got - 2010.06.27 13:26:56.
