data_PCOD8035103
_publ_section_title
;
Structure prediction by ZEFSAII (Michael W. Deem and Ramdas Pophale) SiO2 
 PCOD8035103
Probable space group: P -1
;
_chemical_formula_sum "Si O2"
_cell_formula_units_Z 16
_cell_length_a 13.176609
_cell_length_b 9.507897
_cell_length_c 19.119465
_cell_angle_alpha 39.462114
_cell_angle_beta 151.699258
_cell_angle_gamma 129.744839
_cell_volume 715.249600
_symmetry_space_group_name_H-M "P -1"
_symmetry_group_IT_number 2
_symmetry_cell_setting 'triclinic'
loop_
_space_group_symop_operation_xyz
x,y,z
-x,-y,-z
loop_
_atom_site_type_symbol
_atom_site_label
_atom_site_fract_x
_atom_site_fract_y
_atom_site_fract_z
Si Si1 0.421681 0.040819 0.358961
Si Si2 0.118830 0.445729 0.664934
Si Si3 0.045144 0.094636 0.866793
Si Si4 0.425168 0.536184 0.118385
Si Si5 0.563747 0.252386 0.810446
Si Si6 0.977677 0.523719 0.185909
Si Si7 0.898828 0.788486 0.497455
Si Si8 0.381320 0.414676 0.395691
O O1 0.467875 0.280373 0.267698
O O2 0.500000 0.000000 0.500000
O O3 0.562297 0.853635 0.468765
O O4 0.165986 0.026831 0.205062
O O5 0.024370 0.248042 0.725578
O O6 0.372340 0.386244 0.828589
O O7 0.000000 0.500000 0.500000
O O8 0.076782 0.667836 0.599521
O O9 0.075974 0.233867 0.903166
O O10 0.254678 0.914063 0.054529
O O11 0.372454 0.703904 0.087534
O O12 0.238808 0.568310 0.934834
O O13 0.334249 0.157045 0.702536
O O14 0.536501 0.491013 0.663165
O O15 0.120209 0.361306 0.388389
O O16 0.127808 0.512210 0.212361
O O17 0.000000 0.000000 0.500000
O O18 0.500000 0.500000 0.500000
#
# Coordination Sequence:
#
# PCOD8035103 Si02
#       8
#     2   2   2   2   2   2   2   2
#     4  12  25  45  72 103 138 185 231 284 346 407
#     4  11  24  48  71  98 142 184 225 283 347 411
#     4  11  27  45  70 101 144 180 229 288 341 406
#     4  12  28  44  71 106 140 178 235 286 343 407
#     4  12  26  47  69 103 142 179 227 292 339 408
#     4  11  27  45  68 104 139 178 229 286 344 409
#     4  11  26  45  70  99 138 183 232 277 344 414
#     4  12  23  44  73  98 139 182 229 280 346 408
#
# _framework density 22.369813000000001
#
# number of rings (size 3 to 8) (size 9 to 14) (size 15 to 20)
#    0.000    0.500    5.000    2.250    8.750    4.500 
#    0.000    0.000    0.000    0.000    0.000    0.000 
#    0.000    0.000    0.000    0.000    0.000    0.000 
#
# Total GULP energy -198427.704969 kJ/mol
# GULP energy per Si atom -12401.731561 kJ/mol
# Density = 2.231890 g / cm^3
# Si number density = 22.369813 Si / 1000 Ang^3
#
#
#
# Elastic Constant Matrix: (Units=GPa)
#
#
# Indices 1 2 3 4 5 6 
#
# 1 85.8150 18.4267 14.7510 1.2697 18.2208 -10.5144
# 2 18.4267 100.8666 23.4755 -0.1389 12.1972 -19.3752
# 3 14.7510 23.4755 92.7829 13.6890 19.5184 -17.0712
# 4 1.2697 -0.1389 13.6890 48.9904 -5.0996 1.7011
# 5 18.2208 12.1972 19.5184 -5.0996 46.0312 -1.2361
# 6 -10.5144 -19.3752 -17.0712 1.7011 -1.2361 38.5571
#
#
#
# Elastic Compliance Matrix: (Units=1/GPa)
#
#
# Indices 1 2 3 4 5 6 
#
# 1 0.013353 -0.001275 -0.000103 -0.000933 -0.004931 0.002838
# 2 -0.001275 0.011630 -0.001505 0.000134 -0.001796 0.004767
# 3 -0.000103 -0.001505 0.014137 -0.004760 -0.005935 0.005495
# 4 -0.000933 0.000134 -0.004760 0.022370 0.004746 -0.003129
# 5 -0.004931 -0.001796 -0.005935 0.004746 0.027081 -0.004216
# 6 0.002838 0.004767 0.005495 -0.003129 -0.004216 0.031540
#
#
# Mechanical properties :
#
#
# Convention : Reuss Voigt Hill
#
# Bulk Modulus (GPa) = 29.98176 43.64121 36.81148
# Shear Modulus (GPa) = 36.49753 41.56982 39.03367
#
# Velocity S-wave (km/s) = 4.04363 4.31548 4.18176
# Velocity P-wave (km/s) = 5.93575 6.66201 6.30934
#
# Compressibility (1/GPa) = 0.03335362
#
# Stress axis : x y z
#
# Youngs Moduli (GPa) = 74.88920 85.98239 70.73795
#
# Poissons Ratio (x) = 0.10965 0.00730
# Poissons Ratio (y) = 0.09550 0.10645
# Poissons Ratio (z) = 0.00773 0.12939
#
# Static dielectric constant tensor:
#      x y z
#    x 3.215210 -0.842950 -0.396330 
#    y -0.842950 3.312900 -0.205340 
#    z -0.396330 -0.205340 3.765070 
# 
# 
# High freq. dielectric constant tensor:
#      x y z
#    x 1.893050 -0.009500 0.006270 
#    y -0.009500 1.884880 0.003180 
#    z 0.006270 0.003180 1.884980 
# 
# From -- ./inp_files/208555.got.cif
#   From: 2010.06.25/outbox.cif.g09.slc.cpg/sg2_105_cif.got.tgz:208555.got - 2010.06.27 13:26:56.
