data_PCOD8035674
_publ_section_title
;
Structure prediction by ZEFSAII (Michael W. Deem and Ramdas Pophale) SiO2 
 PCOD8035674
Probable space group: P -1
;
_chemical_formula_sum "Si O2"
_cell_formula_units_Z 12
_cell_length_a 15.467888
_cell_length_b 9.279350
_cell_length_c 19.157673
_cell_angle_alpha 135.216693
_cell_angle_beta 160.241570
_cell_angle_gamma 36.579277
_cell_volume 539.337888
_symmetry_space_group_name_H-M "P -1"
_symmetry_group_IT_number 2
_symmetry_cell_setting 'triclinic'
loop_
_space_group_symop_operation_xyz
x,y,z
-x,-y,-z
loop_
_atom_site_type_symbol
_atom_site_label
_atom_site_fract_x
_atom_site_fract_y
_atom_site_fract_z
Si Si1 0.645423 0.136642 0.622911
Si Si2 0.698291 0.012106 0.466350
Si Si3 0.781368 0.133284 0.947774
Si Si4 0.414053 0.631654 0.906479
Si Si5 0.625038 0.967028 0.160694
Si Si6 0.344064 0.700144 0.602855
O O1 0.501575 0.411227 0.635508
O O2 0.500000 0.000000 0.500000
O O3 0.597264 0.163252 0.513126
O O4 0.007632 0.977887 0.861373
O O5 0.490738 0.906063 0.263795
O O6 0.056646 0.779709 0.661247
O O7 0.625723 0.210253 0.419410
O O8 0.615066 0.432225 0.928215
O O9 0.000000 0.000000 0.000000
O O10 0.500000 0.500000 0.000000
O O11 0.513074 0.816438 0.061973
O O12 0.990417 0.817848 0.390885
O O13 0.494853 0.223516 0.191339
O O14 0.500000 0.000000 0.000000
#
# Coordination Sequence:
#
# PCOD8035674 Si02
#       6
#     2   2   2   2   2   2
#     4  12  26  48  73 107 146 190 241 303 369 433
#     4  12  26  47  73 110 144 194 243 301 365 427
#     4  12  27  44  74 110 145 191 240 302 368 426
#     4  12  25  48  76 104 147 189 249 300 358 436
#     4  11  25  46  72 104 146 195 236 300 365 421
#     4  11  27  45  72 109 145 187 248 296 363 437
#
# _framework density 22.249504000000002
#
# number of rings (size 3 to 8) (size 9 to 14) (size 15 to 20)
#    0.000    0.333    5.000    3.000    2.333    0.667 
#    0.000    0.000    0.000    0.000    0.000    0.000 
#    0.000    0.000    0.000    0.000    0.000    0.000 
#
# Total GULP energy -148747.154941 kJ/mol
# GULP energy per Si atom -12395.596245 kJ/mol
# Density = 2.219886 g / cm^3
# Si number density = 22.249504 Si / 1000 Ang^3
#
#
#
# Elastic Constant Matrix: (Units=GPa)
#
#
# Indices 1 2 3 4 5 6 
#
# 1 110.1175 59.9616 52.4555 8.3104 -3.9087 6.9555
# 2 59.9616 195.0314 75.4939 18.3494 7.1085 -3.4389
# 3 52.4555 75.4939 137.4653 32.3669 -1.5873 3.0284
# 4 8.3104 18.3494 32.3669 33.3241 0.7366 0.6520
# 5 -3.9087 7.1085 -1.5873 0.7366 42.5834 0.3210
# 6 6.9555 -3.4389 3.0284 0.6520 0.3210 42.6647
#
#
#
# Elastic Compliance Matrix: (Units=1/GPa)
#
#
# Indices 1 2 3 4 5 6 
#
# 1 0.012277 -0.002638 -0.003629 0.001923 0.001414 -0.001997
# 2 -0.002638 0.007170 -0.002857 -0.000505 -0.001546 0.001230
# 3 -0.003629 -0.002857 0.012530 -0.009702 0.000782 -0.000386
# 4 0.001923 -0.000505 -0.009702 0.039252 -0.000778 -0.000260
# 5 0.001414 -0.001546 0.000782 -0.000778 0.023918 -0.000579
# 6 -0.001997 0.001230 -0.000386 -0.000260 -0.000579 0.023899
#
#
# Mechanical properties :
#
#
# Convention : Reuss Voigt Hill
#
# Bulk Modulus (GPa) = 72.83200 90.93735 81.88468
# Shear Modulus (GPa) = 35.24344 40.69466 37.96905
#
# Velocity S-wave (km/s) = 3.98428 4.28134 4.13548
# Velocity P-wave (km/s) = 7.34651 8.08704 7.72565
#
# Compressibility (1/GPa) = 0.01373023
#
# Stress axis : x y z
#
# Youngs Moduli (GPa) = 81.45163 139.47418 79.80682
#
# Poissons Ratio (x) = 0.36787 0.28961
# Poissons Ratio (y) = 0.21483 0.22802
# Poissons Ratio (z) = 0.29558 0.39849
#
# Static dielectric constant tensor:
#      x y z
#    x 4.237380 -0.160990 -0.126660 
#    y -0.160990 4.676230 0.253930 
#    z -0.126660 0.253930 4.295060 
# 
# 
# High freq. dielectric constant tensor:
#      x y z
#    x 1.884440 -0.003080 -0.004890 
#    y -0.003080 1.887750 0.012390 
#    z -0.004890 0.012390 1.893560 
# 
# From -- ./inp_files/38921.got.cif
#   From: 2010.06.25/outbox.cif.g09.slc.cpg/sg2_20_cif.got.tgz:38921.got - 2010.06.27 13:26:56.
