data_PCOD8035380
_publ_section_title
;
Structure prediction by ZEFSAII (Michael W. Deem and Ramdas Pophale) SiO2 
 PCOD8035380
Probable space group: P -1
;
_chemical_formula_sum "Si O2"
_cell_formula_units_Z 16
_cell_length_a 9.104964
_cell_length_b 21.407506
_cell_length_c 8.461036
_cell_angle_alpha 66.918205
_cell_angle_beta 112.408267
_cell_angle_gamma 152.643525
_cell_volume 695.043566
_symmetry_space_group_name_H-M "P -1"
_symmetry_group_IT_number 2
_symmetry_cell_setting 'triclinic'
loop_
_space_group_symop_operation_xyz
x,y,z
-x,-y,-z
loop_
_atom_site_type_symbol
_atom_site_label
_atom_site_fract_x
_atom_site_fract_y
_atom_site_fract_z
Si Si1 0.286103 0.154278 0.119618
Si Si2 0.348901 0.819541 0.935840
Si Si3 0.730138 0.719397 0.216266
Si Si4 0.548425 0.032690 0.670980
Si Si5 0.629746 0.436329 0.465189
Si Si6 0.362635 0.093202 0.710570
Si Si7 0.336287 0.684027 0.588113
Si Si8 0.632078 0.533522 0.849638
O O1 0.360589 0.113333 0.094350
O O2 0.583330 0.281860 0.228369
O O3 0.233484 0.194351 0.934179
O O4 0.977715 0.028635 0.224669
O O5 0.014240 0.667749 0.882438
O O6 0.390372 0.914266 0.825314
O O7 0.361395 0.814270 0.135417
O O8 0.565426 0.669378 0.366975
O O9 0.516127 0.591534 0.146568
O O10 0.080261 0.817853 0.285484
O O11 0.363798 0.032360 0.645233
O O12 0.500000 0.000000 0.500000
O O13 0.650395 0.390171 0.377671
O O14 0.455225 0.439581 0.335072
O O15 0.986533 0.587104 0.519021
O O16 0.413992 0.181805 0.549706
O O17 0.500000 0.500000 0.000000
#
# Coordination Sequence:
#
# PCOD8035380 Si02
#       8
#     2   2   2   2   2   2   2   2
#     4  12  27  45  73 105 146 189 242 291 363 424
#     4  12  26  46  72 106 145 188 239 294 357 428
#     4  12  26  45  73 103 146 186 240 296 358 425
#     4  12  27  45  73 105 143 189 241 294 360 424
#     4  11  25  45  70 103 143 186 239 297 356 430
#     4  12  26  47  73 103 149 187 241 296 357 430
#     4  11  25  44  71 102 143 189 238 292 361 422
#     4  12  26  45  75 104 144 189 242 295 365 423
#
# _framework density 23.020140000000001
#
# number of rings (size 3 to 8) (size 9 to 14) (size 15 to 20)
#    0.000    0.250    1.250    7.500    7.000    4.000 
#    0.000    0.000    0.000    0.000    0.000    0.000 
#    0.000    0.000    0.000    0.000    0.000    0.000 
#
# Total GULP energy -198562.711210 kJ/mol
# GULP energy per Si atom -12410.169451 kJ/mol
# Density = 2.296775 g / cm^3
# Si number density = 23.020140 Si / 1000 Ang^3
#
#
#
# Elastic Constant Matrix: (Units=GPa)
#
#
# Indices 1 2 3 4 5 6 
#
# 1 91.8394 26.4674 8.5864 4.3669 -2.2363 10.3033
# 2 26.4674 109.1308 7.7426 3.5780 1.2616 7.7216
# 3 8.5864 7.7426 90.4516 3.0606 -4.0750 9.0267
# 4 4.3669 3.5780 3.0606 43.8173 -3.7089 -9.1839
# 5 -2.2363 1.2616 -4.0750 -3.7089 38.1130 -1.5965
# 6 10.3033 7.7216 9.0267 -9.1839 -1.5965 35.9452
#
#
#
# Elastic Compliance Matrix: (Units=1/GPa)
#
#
# Indices 1 2 3 4 5 6 
#
# 1 0.012139 -0.002636 -0.000537 -0.001581 0.000456 -0.003162
# 2 -0.002636 0.009981 -0.000451 -0.000901 -0.000685 -0.001536
# 3 -0.000537 -0.000451 0.011522 -0.001244 0.000972 -0.002917
# 4 -0.001581 -0.000901 -0.001244 0.024914 0.002540 0.007437
# 5 0.000456 -0.000685 0.000972 0.002540 0.026706 0.001608
# 6 -0.003162 -0.001536 -0.002917 0.007437 0.001608 0.031761
#
#
# Mechanical properties :
#
#
# Convention : Reuss Voigt Hill
#
# Bulk Modulus (GPa) = 37.88721 41.89051 39.88886
# Shear Modulus (GPa) = 37.57453 40.15013 38.86233
#
# Velocity S-wave (km/s) = 4.04449 4.18081 4.11321
# Velocity P-wave (km/s) = 6.18907 6.44534 6.31850
#
# Compressibility (1/GPa) = 0.02639413
#
# Stress axis : x y z
#
# Youngs Moduli (GPa) = 82.37603 100.19349 86.78859
#
# Poissons Ratio (x) = 0.26408 0.04662
# Poissons Ratio (y) = 0.21712 0.03917
# Poissons Ratio (z) = 0.04425 0.04521
#
# Static dielectric constant tensor:
#      x y z
#    x 4.151120 0.049280 -0.062530 
#    y 0.049280 4.336480 0.230080 
#    z -0.062530 0.230080 4.366030 
# 
# 
# High freq. dielectric constant tensor:
#      x y z
#    x 1.915200 -0.000680 -0.004080 
#    y -0.000680 1.924950 0.007150 
#    z -0.004080 0.007150 1.922850 
# 
# From -- ./inp_files/223495.got.cif
#   From: 2010.06.25/outbox.cif.g09.slc.cpg/sg2_112_cif.got.tgz:223495.got - 2010.06.27 13:26:56.
