data_PCOD8035777
_publ_section_title
;
Structure prediction by ZEFSAII (Michael W. Deem and Ramdas Pophale) SiO2 
 PCOD8035777
Probable space group: P -1
;
_chemical_formula_sum "Si O2"
_cell_formula_units_Z 14
_cell_length_a 8.646426
_cell_length_b 6.178487
_cell_length_c 15.328164
_cell_angle_alpha 132.077801
_cell_angle_beta 109.763499
_cell_angle_gamma 79.772716
_cell_volume 570.573409
_symmetry_space_group_name_H-M "P -1"
_symmetry_group_IT_number 2
_symmetry_cell_setting 'triclinic'
loop_
_space_group_symop_operation_xyz
x,y,z
-x,-y,-z
loop_
_atom_site_type_symbol
_atom_site_label
_atom_site_fract_x
_atom_site_fract_y
_atom_site_fract_z
Si Si1 0.716206 0.194528 0.277550
Si Si2 0.401389 0.414109 0.196690
Si Si3 0.071125 0.261684 0.329058
Si Si4 0.673562 0.971491 0.579808
Si Si5 0.673304 0.597039 0.018378
Si Si6 0.133305 0.965813 0.090503
Si Si7 0.358216 0.727956 0.518346
O O1 0.589986 0.365394 0.242479
O O2 0.661492 0.155152 0.356742
O O3 0.894727 0.375750 0.353262
O O4 0.745228 0.877854 0.160092
O O5 0.365349 0.747713 0.295208
O O6 0.289938 0.195981 0.176613
O O7 0.359620 0.322741 0.065734
O O8 0.205269 0.521717 0.397338
O O9 0.140756 0.102548 0.384965
O O10 0.047367 0.029487 0.183052
O O11 0.643567 0.996434 0.477459
O O12 0.557023 0.679770 0.519197
O O13 0.500000 0.500000 0.000000
O O14 0.807279 0.359275 0.988440
O O15 0.000000 0.000000 0.000000
#
# Coordination Sequence:
#
# PCOD8035777 Si02
#       7
#     2   2   2   2   2   2   2
#     4  12  28  45  74 108 153 190 233 300 365 431
#     4  12  25  49  71 108 142 193 241 293 361 427
#     4  12  26  49  70 109 145 187 243 301 356 427
#     4  11  25  46  80 101 140 195 245 296 356 424
#     4  12  26  48  73 106 147 187 240 293 363 426
#     4  12  27  46  77 106 142 191 243 299 352 427
#     4  11  26  49  72 108 144 190 243 295 362 430
#
# _framework density 24.536722000000001
#
# number of rings (size 3 to 8) (size 9 to 14) (size 15 to 20)
#    0.000    0.286    4.286    3.857    8.000    1.714 
#    2.571    0.000    0.000    0.000    0.000    0.000 
#    0.000    0.000    0.000    0.000    0.000    0.000 
#
# Total GULP energy -173592.823114 kJ/mol
# GULP energy per Si atom -12399.487365 kJ/mol
# Density = 2.448088 g / cm^3
# Si number density = 24.536722 Si / 1000 Ang^3
#
#
#
# Elastic Constant Matrix: (Units=GPa)
#
#
# Indices 1 2 3 4 5 6 
#
# 1 153.5194 59.4299 43.2435 -15.1191 22.3302 -10.3625
# 2 59.4299 79.6265 50.7133 -7.4540 -6.4393 -2.3972
# 3 43.2435 50.7133 139.0605 -17.9611 -10.8276 -6.0232
# 4 -15.1191 -7.4540 -17.9611 55.9784 2.5301 2.3982
# 5 22.3302 -6.4393 -10.8276 2.5301 48.9724 -7.2023
# 6 -10.3625 -2.3972 -6.0232 2.3982 -7.2023 38.7490
#
#
#
# Elastic Compliance Matrix: (Units=1/GPa)
#
#
# Indices 1 2 3 4 5 6 
#
# 1 0.010973 -0.008056 -0.000660 0.001911 -0.006150 0.001072
# 2 -0.008056 0.022312 -0.005384 -0.001153 0.005397 -0.000536
# 3 -0.000660 -0.005384 0.009830 0.002123 0.001838 0.001229
# 4 0.001911 -0.001153 0.002123 0.019013 -0.001641 -0.000712
# 5 -0.006150 0.005397 0.001838 -0.001641 0.024971 0.003718
# 6 0.001072 -0.000536 0.001229 -0.000712 0.003718 0.026987
#
#
# Mechanical properties :
#
#
# Convention : Reuss Voigt Hill
#
# Bulk Modulus (GPa) = 67.03881 75.44220 71.24051
# Shear Modulus (GPa) = 33.95383 43.32794 38.64089
#
# Velocity S-wave (km/s) = 3.72398 4.20675 3.97270
# Velocity P-wave (km/s) = 6.77287 7.37625 7.08099
#
# Compressibility (1/GPa) = 0.01491673
#
# Stress axis : x y z
#
# Youngs Moduli (GPa) = 91.12884 44.81800 101.72632
#
# Poissons Ratio (x) = 0.36105 0.06715
# Poissons Ratio (y) = 0.73412 0.54767
# Poissons Ratio (z) = 0.06015 0.24129
#
# Static dielectric constant tensor:
#      x y z
#    x 4.586720 0.150890 0.241330 
#    y 0.150890 4.865760 0.556260 
#    z 0.241330 0.556260 7.043080 
# 
# 
# High freq. dielectric constant tensor:
#      x y z
#    x 1.987180 -0.000070 0.010290 
#    y -0.000070 1.988730 -0.005810 
#    z 0.010290 -0.005810 1.994410 
# 
# From -- ./inp_files/488774.got.cif
#   From: 2010.06.25/outbox.cif.g09.slc.cpg/sg2_245_cif.got.tgz:488774.got - 2010.06.27 13:26:56.
