data_PCOD8035161
_publ_section_title
;
Structure prediction by ZEFSAII (Michael W. Deem and Ramdas Pophale) SiO2 
 PCOD8035161
Probable space group: P -1
;
_chemical_formula_sum "Si O2"
_cell_formula_units_Z 14
_cell_length_a 6.144966
_cell_length_b 13.213443
_cell_length_c 14.904642
_cell_angle_alpha 140.634750
_cell_angle_beta 131.417366
_cell_angle_gamma 46.951546
_cell_volume 537.053793
_symmetry_space_group_name_H-M "P -1"
_symmetry_group_IT_number 2
_symmetry_cell_setting 'triclinic'
loop_
_space_group_symop_operation_xyz
x,y,z
-x,-y,-z
loop_
_atom_site_type_symbol
_atom_site_label
_atom_site_fract_x
_atom_site_fract_y
_atom_site_fract_z
Si Si1 0.293502 0.974812 0.218012
Si Si2 0.050105 0.285504 0.796148
Si Si3 0.757560 0.422983 0.342811
Si Si4 0.730214 0.150136 0.286421
Si Si5 0.058233 0.168251 0.091204
Si Si6 0.665802 0.214194 0.510149
Si Si7 0.862018 0.393618 0.013810
O O1 0.573792 0.795945 0.166590
O O2 0.397798 0.133951 0.376856
O O3 0.036418 0.987307 0.232517
O O4 0.093402 0.984964 0.076637
O O5 0.956926 0.473345 0.855265
O O6 0.938232 0.148735 0.615213
O O7 0.930269 0.287778 0.866026
O O8 0.666204 0.310860 0.314672
O O9 0.464512 0.590915 0.355630
O O10 0.000000 0.500000 0.500000
O O11 0.874093 0.311856 0.209987
O O12 0.428613 0.093230 0.163747
O O13 0.803112 0.204658 0.442004
O O14 0.002371 0.264041 0.045043
O O15 0.500000 0.500000 0.000000
#
# Coordination Sequence:
#
# PCOD8035161 Si02
#       7
#     2   2   2   2   2   2   2
#     4  12  28  48  70 113 149 190 243 300 363 432
#     4  11  27  47  74 108 145 192 246 297 355 438
#     4  12  25  49  73 110 144 186 249 299 357 436
#     4  12  27  46  76 106 147 196 240 295 371 426
#     4  12  27  47  79 105 148 189 248 301 360 433
#     4  12  27  48  76 106 150 191 240 304 364 429
#     4  11  24  48  77 108 141 193 246 297 361 424
#
# _framework density 26.068152000000001
#
# number of rings (size 3 to 8) (size 9 to 14) (size 15 to 20)
#    0.000    0.286    4.286    3.000    8.000    4.000 
#    0.000    0.000    0.000    0.000    0.000    0.000 
#    0.000    0.000    0.000    0.000    0.000    0.000 
#
# Total GULP energy -173490.347294 kJ/mol
# GULP energy per Si atom -12392.167664 kJ/mol
# Density = 2.600882 g / cm^3
# Si number density = 26.068152 Si / 1000 Ang^3
#
#
#
# Elastic Constant Matrix: (Units=GPa)
#
#
# Indices 1 2 3 4 5 6 
#
# 1 153.4966 37.9335 94.8616 2.7828 -18.9656 -16.4162
# 2 37.9335 41.3668 51.5749 -2.3142 -8.2795 -10.0576
# 3 94.8616 51.5749 240.3155 -10.1478 -16.2681 -4.4585
# 4 2.7828 -2.3142 -10.1478 49.0039 -1.9968 1.4332
# 5 -18.9656 -8.2795 -16.2681 -1.9968 54.7365 13.1700
# 6 -16.4162 -10.0576 -4.4585 1.4332 13.1700 54.2159
#
#
#
# Elastic Compliance Matrix: (Units=1/GPa)
#
#
# Indices 1 2 3 4 5 6 
#
# 1 0.009798 -0.005014 -0.002725 -0.001344 0.001416 0.001504
# 2 -0.005014 0.037492 -0.005875 0.000747 0.001092 0.004669
# 3 -0.002725 -0.005875 0.006560 0.001303 0.000535 -0.001540
# 4 -0.001344 0.000747 0.001303 0.020858 0.001027 -0.000962
# 5 0.001416 0.001092 0.000535 0.001027 0.020143 -0.004245
# 6 0.001504 0.004669 -0.001540 -0.000962 -0.004245 0.020696
#
#
# Mechanical properties :
#
#
# Convention : Reuss Voigt Hill
#
# Bulk Modulus (GPa) = 37.56137 89.32431 63.44284
# Shear Modulus (GPa) = 32.97101 48.31185 40.64143
#
# Velocity S-wave (km/s) = 3.56026 4.30966 3.95276
# Velocity P-wave (km/s) = 5.59829 7.68793 6.72477
#
# Compressibility (1/GPa) = 0.02662309
#
# Stress axis : x y z
#
# Youngs Moduli (GPa) = 102.06384 26.67233 152.43466
#
# Poissons Ratio (x) = 0.13373 0.41531
# Poissons Ratio (y) = 0.51174 0.89557
# Poissons Ratio (z) = 0.27807 0.15670
#
# Static dielectric constant tensor:
#      x y z
#    x 5.034070 -0.019850 0.048030 
#    y -0.019850 5.283010 0.108770 
#    z 0.048030 0.108770 5.145600 
# 
# 
# High freq. dielectric constant tensor:
#      x y z
#    x 2.060060 0.003690 0.004500 
#    y 0.003690 2.061710 0.002740 
#    z 0.004500 0.002740 2.079320 
# 
# From -- ./inp_files/71425.got.cif
#   From: 2010.06.25/outbox.cif.g09.slc.cpg/sg2_36_cif.got.tgz:71425.got - 2010.06.27 13:26:56.
