data_PCOD8035398
_publ_section_title
;
Structure prediction by ZEFSAII (Michael W. Deem and Ramdas Pophale) SiO2 
 PCOD8035398
Probable space group: P -1
;
_chemical_formula_sum "Si O2"
_cell_formula_units_Z 16
_cell_length_a 12.218101
_cell_length_b 8.436004
_cell_length_c 9.353455
_cell_angle_alpha 100.182522
_cell_angle_beta 133.400433
_cell_angle_gamma 90.823863
_cell_volume 676.884023
_symmetry_space_group_name_H-M "P -1"
_symmetry_group_IT_number 2
_symmetry_cell_setting 'triclinic'
loop_
_space_group_symop_operation_xyz
x,y,z
-x,-y,-z
loop_
_atom_site_type_symbol
_atom_site_label
_atom_site_fract_x
_atom_site_fract_y
_atom_site_fract_z
Si Si1 0.864083 0.388532 0.952837
Si Si2 0.129695 0.038859 0.437118
Si Si3 0.669126 0.580822 0.979766
Si Si4 0.331967 0.541359 0.729229
Si Si5 0.801970 0.922655 0.036173
Si Si6 0.962721 0.626094 0.609024
Si Si7 0.686020 0.028810 0.664349
Si Si8 0.673874 0.089291 0.170342
O O1 0.924394 0.337762 0.151024
O O2 0.742716 0.501840 0.900563
O O3 0.771438 0.221685 0.769191
O O4 0.000000 0.500000 0.000000
O O5 0.065867 0.200950 0.451100
O O6 0.268808 0.057958 0.451995
O O7 0.201766 0.977843 0.632676
O O8 0.981819 0.915401 0.217387
O O9 0.489228 0.503119 0.805856
O O10 0.723620 0.542661 0.180886
O O11 0.700303 0.774110 0.009661
O O12 0.201834 0.462159 0.487571
O O13 0.330744 0.729812 0.763059
O O14 0.747475 0.084004 0.078306
O O15 0.755382 0.924557 0.830032
O O16 0.000000 0.500000 0.500000
O O17 0.500000 0.000000 0.500000
O O18 0.500000 0.000000 0.000000
#
# Coordination Sequence:
#
# PCOD8035398 Si02
#       8
#     2   2   2   2   2   2   2   2
#     4  12  28  50  77 111 154 207 256 317 385 464
#     4  12  28  48  76 112 152 201 253 314 380 455
#     4  11  25  44  76 107 154 191 250 318 386 452
#     4  11  25  44  72 112 150 193 248 318 389 449
#     4  12  24  48  75 110 148 199 256 313 378 458
#     4  12  26  48  76 110 150 196 252 316 384 452
#     4  12  29  52  78 108 160 206 260 313 383 464
#     4  12  25  44  74 110 149 197 255 314 379 453
#
# _framework density 23.637726000000001
#
# number of rings (size 3 to 8) (size 9 to 14) (size 15 to 20)
#    0.000    0.250    3.750    4.500    8.750    0.000 
#    0.000    1.250    0.000    0.000    0.000    0.000 
#    0.000    0.000    0.000    0.000    0.000    0.000 
#
# Total GULP energy -198239.131441 kJ/mol
# GULP energy per Si atom -12389.945715 kJ/mol
# Density = 2.358393 g / cm^3
# Si number density = 23.637726 Si / 1000 Ang^3
#
#
#
# Elastic Constant Matrix: (Units=GPa)
#
#
# Indices 1 2 3 4 5 6 
#
# 1 138.3046 32.4772 21.8195 5.9928 9.9002 -4.6136
# 2 32.4772 109.7408 32.7807 -3.0791 5.3175 9.9701
# 3 21.8195 32.7807 93.2273 5.6303 27.9225 8.1394
# 4 5.9928 -3.0791 5.6303 31.0891 2.8499 5.7425
# 5 9.9002 5.3175 27.9225 2.8499 42.6030 7.9293
# 6 -4.6136 9.9701 8.1394 5.7425 7.9293 41.3173
#
#
#
# Elastic Compliance Matrix: (Units=1/GPa)
#
#
# Indices 1 2 3 4 5 6 
#
# 1 0.008161 -0.002383 -0.000726 -0.001950 -0.001397 0.002168
# 2 -0.002383 0.011231 -0.003919 0.002638 0.002098 -0.002973
# 3 -0.000726 -0.003919 0.015138 -0.002142 -0.009107 -0.000072
# 4 -0.001950 0.002638 -0.002142 0.034135 0.000215 -0.005218
# 5 -0.001397 0.002098 -0.009107 0.000215 0.030369 -0.004726
# 6 0.002168 -0.002973 -0.000072 -0.005218 -0.004726 0.026809
#
#
# Mechanical properties :
#
#
# Convention : Reuss Voigt Hill
#
# Bulk Modulus (GPa) = 48.84072 57.26971 53.05521
# Shear Modulus (GPa) = 34.07796 39.94824 37.01310
#
# Velocity S-wave (km/s) = 3.80106 4.11545 3.96137
# Velocity P-wave (km/s) = 6.32227 6.84567 6.58917
#
# Compressibility (1/GPa) = 0.02047472
#
# Stress axis : x y z
#
# Youngs Moduli (GPa) = 122.53143 89.04136 66.06048
#
# Poissons Ratio (x) = 0.21215 0.04793
# Poissons Ratio (y) = 0.29194 0.25891
# Poissons Ratio (z) = 0.08890 0.34898
#
# Static dielectric constant tensor:
#      x y z
#    x 4.388630 -0.093090 0.275490 
#    y -0.093090 4.297690 0.023960 
#    z 0.275490 0.023960 4.395310 
# 
# 
# High freq. dielectric constant tensor:
#      x y z
#    x 1.954470 -0.002110 0.022870 
#    y -0.002110 1.943260 0.003300 
#    z 0.022870 0.003300 1.938940 
# 
# From -- ./inp_files/244804.got.cif
#   From: 2010.06.25/outbox.cif.g09.slc.cpg/sg2_123_cif.got.tgz:244804.got - 2010.06.27 13:26:56.
