data_PCOD8035461
_publ_section_title
;
Structure prediction by ZEFSAII (Michael W. Deem and Ramdas Pophale) SiO2 
 PCOD8035461
Probable space group: P -1
;
_chemical_formula_sum "Si O2"
_cell_formula_units_Z 16
_cell_length_a 18.103242
_cell_length_b 14.749481
_cell_length_c 11.537696
_cell_angle_alpha 29.793407
_cell_angle_beta 45.515873
_cell_angle_gamma 28.100568
_cell_volume 692.805251
_symmetry_space_group_name_H-M "P -1"
_symmetry_group_IT_number 2
_symmetry_cell_setting 'triclinic'
loop_
_space_group_symop_operation_xyz
x,y,z
-x,-y,-z
loop_
_atom_site_type_symbol
_atom_site_label
_atom_site_fract_x
_atom_site_fract_y
_atom_site_fract_z
Si Si1 0.081759 0.700353 0.215781
Si Si2 0.430453 0.298709 0.246765
Si Si3 0.870019 0.244457 0.281130
Si Si4 0.905314 0.494620 0.335764
Si Si5 0.896094 0.896307 0.988901
Si Si6 0.443776 0.522789 0.209997
Si Si7 0.307397 0.233301 0.948387
Si Si8 0.252138 0.951390 0.445341
O O1 0.245073 0.523535 0.160507
O O2 0.128648 0.535137 0.465950
O O3 0.957930 0.756012 0.206624
O O4 0.000000 0.000000 0.000000
O O5 0.431709 0.394228 0.263450
O O6 0.500000 0.000000 0.500000
O O7 0.523135 0.310677 0.045712
O O8 0.769244 0.551626 0.099400
O O9 0.742615 0.255819 0.386055
O O10 0.965501 0.160455 0.151590
O O11 0.000000 0.000000 0.500000
O O12 0.773647 0.596708 0.274037
O O13 0.878465 0.747410 0.090731
O O14 0.089247 0.197753 0.427015
O O15 0.727244 0.239045 0.798085
O O16 0.587096 0.244172 0.438116
O O17 0.500000 0.000000 0.000000
O O18 0.259442 0.088372 0.182490
#
# Coordination Sequence:
#
# PCOD8035461 Si02
#       8
#     2   2   2   2   2   2   2   2
#     4  12  25  45  74 105 146 199 242 301 375 444
#     4  11  25  45  69 103 153 195 249 299 368 430
#     4  12  26  49  79 104 148 198 247 306 375 438
#     4  12  26  49  74 109 149 193 251 306 371 450
#     4  12  26  47  74 109 152 195 248 301 375 441
#     4  11  27  44  70 110 150 192 248 308 361 443
#     4  12  30  51  77 111 147 194 251 312 372 439
#     4  12  27  47  76 107 149 191 247 306 371 441
#
# _framework density 23.094512999999999
#
# number of rings (size 3 to 8) (size 9 to 14) (size 15 to 20)
#    0.000    0.250    3.750    4.500    8.750    1.500 
#    0.000    0.000    0.000    0.000    0.000    0.000 
#    0.000    0.000    0.000    0.000    0.000    0.000 
#
# Total GULP energy -198429.437605 kJ/mol
# GULP energy per Si atom -12401.839850 kJ/mol
# Density = 2.304195 g / cm^3
# Si number density = 23.094513 Si / 1000 Ang^3
#
#
#
# Elastic Constant Matrix: (Units=GPa)
#
#
# Indices 1 2 3 4 5 6 
#
# 1 112.3563 48.3308 37.4192 -14.9826 5.7228 -4.4813
# 2 48.3308 134.1991 44.8340 -18.9273 5.0848 -10.8829
# 3 37.4192 44.8340 105.8984 -11.1957 -6.8899 1.3526
# 4 -14.9826 -18.9273 -11.1957 43.9555 -6.7317 4.0598
# 5 5.7228 5.0848 -6.8899 -6.7317 54.0425 -5.6635
# 6 -4.4813 -10.8829 1.3526 4.0598 -5.6635 32.8426
#
#
#
# Elastic Compliance Matrix: (Units=1/GPa)
#
#
# Indices 1 2 3 4 5 6 
#
# 1 0.011324 -0.002875 -0.002668 0.001758 -0.001017 0.000310
# 2 -0.002875 0.010069 -0.003074 0.002250 -0.000470 0.002712
# 3 -0.002668 -0.003074 0.011981 0.001292 0.002085 -0.001677
# 4 0.001758 0.002250 0.001292 0.025224 0.002729 -0.001715
# 5 -0.001017 -0.000470 0.002085 0.002729 0.019540 0.002652
# 6 0.000310 0.002712 -0.001677 -0.001715 0.002652 0.032127
#
#
# Mechanical properties :
#
#
# Convention : Reuss Voigt Hill
#
# Bulk Modulus (GPa) = 61.96338 68.18020 65.07179
# Shear Modulus (GPa) = 37.62749 40.95944 39.29346
#
# Velocity S-wave (km/s) = 4.04082 4.21593 4.12930
# Velocity P-wave (km/s) = 6.97564 7.29966 7.13949
#
# Compressibility (1/GPa) = 0.01613856
#
# Stress axis : x y z
#
# Youngs Moduli (GPa) = 88.30513 99.31130 83.46424
#
# Poissons Ratio (x) = 0.28555 0.22272
# Poissons Ratio (y) = 0.25391 0.25660
# Poissons Ratio (z) = 0.23564 0.30532
#
# Static dielectric constant tensor:
#      x y z
#    x 3.490990 0.193080 0.878890 
#    y 0.193080 4.422630 0.224760 
#    z 0.878890 0.224760 4.104190 
# 
# 
# High freq. dielectric constant tensor:
#      x y z
#    x 1.926640 -0.004130 -0.003920 
#    y -0.004130 1.916020 -0.005670 
#    z -0.003920 -0.005670 1.920250 
# 
# From -- ./inp_files/314654.got.cif
#   From: 2010.06.25/outbox.cif.g09.slc.cpg/sg2_158_cif.got.tgz:314654.got - 2010.06.27 13:26:56.
