data_PCOD8035664
_publ_section_title
;
Structure prediction by ZEFSAII (Michael W. Deem and Ramdas Pophale) SiO2 
 PCOD8035664
Probable space group: P -1
;
_chemical_formula_sum "Si O2"
_cell_formula_units_Z 16
_cell_length_a 11.177344
_cell_length_b 9.250986
_cell_length_c 9.594036
_cell_angle_alpha 123.896105
_cell_angle_beta 121.401054
_cell_angle_gamma 76.408977
_cell_volume 700.674500
_symmetry_space_group_name_H-M "P -1"
_symmetry_group_IT_number 2
_symmetry_cell_setting 'triclinic'
loop_
_space_group_symop_operation_xyz
x,y,z
-x,-y,-z
loop_
_atom_site_type_symbol
_atom_site_label
_atom_site_fract_x
_atom_site_fract_y
_atom_site_fract_z
Si Si1 0.091581 0.131338 0.357644
Si Si2 0.106728 0.386105 0.272020
Si Si3 0.627439 0.713113 0.255202
Si Si4 0.103882 0.743611 0.146691
Si Si5 0.571077 0.031388 0.207849
Si Si6 0.600935 0.661805 0.692670
Si Si7 0.640439 0.473862 0.888091
Si Si8 0.878629 0.221457 0.500674
O O1 0.031419 0.258978 0.274206
O O2 0.246806 0.201772 0.532695
O O3 0.991770 0.123655 0.428498
O O4 0.101051 0.940619 0.192692
O O5 0.257382 0.317561 0.297749
O O6 0.128170 0.581026 0.452461
O O7 0.015957 0.379717 0.070802
O O8 0.512403 0.629314 0.248016
O O9 0.557917 0.855945 0.195325
O O10 0.684056 0.561359 0.109979
O O11 0.252599 0.665477 0.169909
O O12 0.072993 0.759396 0.299950
O O13 0.479265 0.169131 0.301541
O O14 0.731634 0.108694 0.332832
O O15 0.500000 0.000000 0.000000
O O16 0.500000 0.500000 0.500000
O O17 0.637235 0.632957 0.861926
#
# Coordination Sequence:
#
# PCOD8035664 Si02
#       8
#     2   2   2   2   2   2   2   2
#     4  12  28  45  71 106 144 181 238 290 351 408
#     4  12  27  46  74 103 141 189 233 292 348 418
#     4  11  26  46  71 104 140 187 228 296 349 416
#     4  12  26  47  73 106 139 189 235 288 353 414
#     4  12  26  43  72 104 138 185 231 291 346 416
#     4  12  24  45  69 100 140 180 237 282 350 414
#     4  11  25  46  72 100 141 183 235 284 355 420
#     4  12  26  48  72 102 144 190 234 285 352 420
#
# _framework density 22.835137
#
# number of rings (size 3 to 8) (size 9 to 14) (size 15 to 20)
#    0.000    0.250    5.000    3.000    5.250    1.500 
#    0.000    0.000    0.000    0.000    0.000    0.000 
#    0.000    0.000    0.000    0.000    0.000    0.000 
#
# Total GULP energy -198481.096579 kJ/mol
# GULP energy per Si atom -12405.068536 kJ/mol
# Density = 2.278316 g / cm^3
# Si number density = 22.835137 Si / 1000 Ang^3
#
#
#
# Elastic Constant Matrix: (Units=GPa)
#
#
# Indices 1 2 3 4 5 6 
#
# 1 109.6988 16.3244 20.5645 5.8940 -8.8957 -11.7541
# 2 16.3244 105.9378 -2.2013 6.3101 -13.3422 -2.4984
# 3 20.5645 -2.2013 86.8996 -0.6881 6.8676 -1.7788
# 4 5.8940 6.3101 -0.6881 40.9285 0.2128 -3.0917
# 5 -8.8957 -13.3422 6.8676 0.2128 33.6968 2.8876
# 6 -11.7541 -2.4984 -1.7788 -3.0917 2.8876 34.3346
#
#
#
# Elastic Compliance Matrix: (Units=1/GPa)
#
#
# Indices 1 2 3 4 5 6 
#
# 1 0.010379 -0.001193 -0.002635 -0.001141 0.002554 0.003012
# 2 -0.001193 0.010174 0.000236 -0.001419 0.003682 -0.000093
# 3 -0.002635 0.000236 0.012391 0.000573 -0.003138 0.000072
# 4 -0.001141 -0.001419 0.000573 0.024975 -0.001300 0.001894
# 5 0.002554 0.003682 -0.003138 -0.001300 0.032617 -0.001881
# 6 0.003012 -0.000093 0.000072 0.001894 -0.001881 0.030482
#
#
# Mechanical properties :
#
#
# Convention : Reuss Voigt Hill
#
# Bulk Modulus (GPa) = 38.82244 41.32349 40.07297
# Shear Modulus (GPa) = 36.55214 39.64855 38.10034
#
# Velocity S-wave (km/s) = 4.00521 4.17141 4.08915
# Velocity P-wave (km/s) = 6.19896 6.42935 6.31521
#
# Compressibility (1/GPa) = 0.02575830
#
# Stress axis : x y z
#
# Youngs Moduli (GPa) = 96.35186 98.28597 80.70266
#
# Poissons Ratio (x) = 0.11730 0.21269
# Poissons Ratio (y) = 0.11499 -0.01905
# Poissons Ratio (z) = 0.25393 -0.02320
#
# Static dielectric constant tensor:
#      x y z
#    x 4.053360 0.094040 -0.093620 
#    y 0.094040 4.560360 0.088860 
#    z -0.093620 0.088860 4.238460 
# 
# 
# High freq. dielectric constant tensor:
#      x y z
#    x 1.901220 -0.001850 -0.002120 
#    y -0.001850 1.915870 0.006840 
#    z -0.002120 0.006840 1.909640 
# 
# From -- ./inp_files/190353.got.cif
#   From: 2010.06.25/outbox.cif.g09.slc.cpg/sg2_96_cif.got.tgz:190353.got - 2010.06.27 13:26:56.
