data_PCOD8035746
_publ_section_title
;
Structure prediction by ZEFSAII (Michael W. Deem and Ramdas Pophale) SiO2 
 PCOD8035746
Probable space group: P -1
;
_chemical_formula_sum "Si O2"
_cell_formula_units_Z 16
_cell_length_a 18.226432
_cell_length_b 14.879195
_cell_length_c 9.706153
_cell_angle_alpha 38.330024
_cell_angle_beta 36.917843
_cell_angle_gamma 28.284007
_cell_volume 718.682493
_symmetry_space_group_name_H-M "P -1"
_symmetry_group_IT_number 2
_symmetry_cell_setting 'triclinic'
loop_
_space_group_symop_operation_xyz
x,y,z
-x,-y,-z
loop_
_atom_site_type_symbol
_atom_site_label
_atom_site_fract_x
_atom_site_fract_y
_atom_site_fract_z
Si Si1 0.934080 0.550320 0.885890
Si Si2 0.956857 0.903159 0.088264
Si Si3 0.394215 0.755646 0.727819
Si Si4 0.562958 0.607135 0.929249
Si Si5 0.639312 0.007349 0.762727
Si Si6 0.105773 0.509573 0.432669
Si Si7 0.917760 0.245461 0.221184
Si Si8 0.266456 0.879333 0.256664
O O1 0.810320 0.781508 0.759461
O O2 0.098296 0.437912 0.678656
O O3 0.848790 0.464230 0.081501
O O4 0.000000 0.500000 0.000000
O O5 0.001916 0.739577 0.320833
O O6 0.760614 0.070851 0.152603
O O7 0.060036 0.813332 0.900721
O O8 0.000000 0.000000 0.000000
O O9 0.544819 0.639008 0.751998
O O10 0.412069 0.854854 0.457674
O O11 0.377147 0.605901 0.872931
O O12 0.705060 0.609084 0.756510
O O13 0.397164 0.776957 0.058774
O O14 0.652297 0.104423 0.756083
O O15 0.500000 0.000000 0.000000
O O16 0.000000 0.500000 0.500000
O O17 0.777826 0.252022 0.484791
O O18 0.094427 0.095985 0.213790
#
# Coordination Sequence:
#
# PCOD8035746 Si02
#       8
#     2   2   2   2   2   2   2   2
#     4  12  27  47  74 108 148 194 242 299 372 439
#     4  12  22  44  73 103 143 187 243 295 359 433
#     4  11  25  47  71 108 146 189 244 303 360 436
#     4  11  27  46  74 108 145 192 245 302 365 428
#     4  12  29  47  72 109 149 193 242 304 370 437
#     4  12  27  45  73 107 142 191 245 301 364 435
#     4  11  25  46  75 109 144 191 247 301 368 440
#     4  11  26  47  75 105 146 192 244 305 360 435
#
# _framework density 22.26296
#
# number of rings (size 3 to 8) (size 9 to 14) (size 15 to 20)
#    0.000    0.500    6.250    0.750    5.250    1.500 
#    0.000    1.875    0.000    0.000    0.000    0.000 
#    0.000    0.000    0.000    0.000    0.000    0.000 
#
# Total GULP energy -198337.026454 kJ/mol
# GULP energy per Si atom -12396.064153 kJ/mol
# Density = 2.221229 g / cm^3
# Si number density = 22.262960 Si / 1000 Ang^3
#
#
#
# Elastic Constant Matrix: (Units=GPa)
#
#
# Indices 1 2 3 4 5 6 
#
# 1 147.6757 31.5125 84.2536 5.7145 -4.1088 8.3927
# 2 31.5125 65.3051 47.7942 1.9253 -2.7804 2.9940
# 3 84.2536 47.7942 167.5401 -1.4100 -2.0143 -0.6557
# 4 5.7145 1.9253 -1.4100 43.3344 -3.9470 -3.9661
# 5 -4.1088 -2.7804 -2.0143 -3.9470 46.0601 1.5016
# 6 8.3927 2.9940 -0.6557 -3.9661 1.5016 37.0336
#
#
#
# Elastic Compliance Matrix: (Units=1/GPa)
#
#
# Indices 1 2 3 4 5 6 
#
# 1 0.009893 -0.001188 -0.004652 -0.001574 0.000551 -0.002419
# 2 -0.001188 0.019699 -0.005026 -0.000948 0.000833 -0.001548
# 3 -0.004652 -0.005026 0.009757 0.001296 -0.000239 0.001782
# 4 -0.001574 -0.000948 0.001296 0.023801 0.001803 0.002932
# 5 0.000551 0.000833 -0.000239 0.001803 0.021983 -0.000895
# 6 -0.002419 -0.001548 0.001782 0.002932 -0.000895 0.028058
#
#
# Mechanical properties :
#
#
# Convention : Reuss Voigt Hill
#
# Bulk Modulus (GPa) = 56.76643 78.62682 67.69663
# Shear Modulus (GPa) = 35.51241 39.74966 37.63103
#
# Velocity S-wave (km/s) = 3.99825 4.23006 4.11578
# Velocity P-wave (km/s) = 6.84603 7.69752 7.28423
#
# Compressibility (1/GPa) = 0.01761604
#
# Stress axis : x y z
#
# Youngs Moduli (GPa) = 101.07986 50.76467 102.49032
#
# Poissons Ratio (x) = 0.06032 0.47681
# Poissons Ratio (y) = 0.12011 0.51511
# Poissons Ratio (z) = 0.47025 0.25514
#
# Static dielectric constant tensor:
#      x y z
#    x 3.953370 -0.021900 -0.017490 
#    y -0.021900 3.681580 -0.393230 
#    z -0.017490 -0.393230 3.964010 
# 
# 
# High freq. dielectric constant tensor:
#      x y z
#    x 1.884810 0.003010 0.001540 
#    y 0.003010 1.874170 -0.008350 
#    z 0.001540 -0.008350 1.891200 
# 
# From -- ./inp_files/335618.got.cif
#   From: 2010.06.25/outbox.cif.g09.slc.cpg/sg2_168_cif.got.tgz:335618.got - 2010.06.27 13:26:56.
