data_PCOD8035264
_publ_section_title
;
Structure prediction by ZEFSAII (Michael W. Deem and Ramdas Pophale) SiO2 
 PCOD8035264
Probable space group: P -1
;
_chemical_formula_sum "Si O2"
_cell_formula_units_Z 12
_cell_length_a 11.219138
_cell_length_b 9.346842
_cell_length_c 6.479742
_cell_angle_alpha 98.979740
_cell_angle_beta 97.240853
_cell_angle_gamma 119.164489
_cell_volume 569.757364
_symmetry_space_group_name_H-M "P -1"
_symmetry_group_IT_number 2
_symmetry_cell_setting 'triclinic'
loop_
_space_group_symop_operation_xyz
x,y,z
-x,-y,-z
loop_
_atom_site_type_symbol
_atom_site_label
_atom_site_fract_x
_atom_site_fract_y
_atom_site_fract_z
Si Si1 0.906741 0.801552 0.932518
Si Si2 0.211812 0.415283 0.538080
Si Si3 0.307693 0.750363 0.428796
Si Si4 0.360114 0.324096 0.883822
Si Si5 0.993307 0.372857 0.801855
Si Si6 0.526324 0.922384 0.188738
O O1 0.891215 0.722241 0.683948
O O2 0.749634 0.721570 0.965863
O O3 0.002386 0.769789 0.099753
O O4 0.000000 0.000000 0.000000
O O5 0.318746 0.597057 0.498066
O O6 0.297824 0.342320 0.656500
O O7 0.121059 0.454464 0.686402
O O8 0.148244 0.701467 0.373572
O O9 0.377196 0.783968 0.224846
O O10 0.386012 0.921934 0.608462
O O11 0.387365 0.169971 0.851622
O O12 0.500000 0.500000 0.000000
O O13 0.000000 0.500000 0.000000
O O14 0.500000 0.000000 0.000000
#
# Coordination Sequence:
#
# PCOD8035264 Si02
#       6
#     2   2   2   2   2   2
#     4  11  27  42  68 103 137 180 224 276 342 401
#     4  11  25  45  70  99 137 177 225 279 338 403
#     4  11  25  43  69 101 131 177 229 273 342 392
#     4  11  26  45  69  97 139 181 226 278 339 404
#     4  11  25  42  71 100 133 177 223 276 338 402
#     4  11  27  43  69  99 135 176 226 283 330 402
#
# _framework density 21.061596000000002
#
# number of rings (size 3 to 8) (size 9 to 14) (size 15 to 20)
#    0.000    1.000    1.667    2.500   11.667    5.333 
#    0.000    0.000    0.000    0.000    0.000    0.000 
#    0.000    0.000    0.000    0.000    0.000    0.000 
#
# Total GULP energy -148795.753887 kJ/mol
# GULP energy per Si atom -12399.646157 kJ/mol
# Density = 2.101366 g / cm^3
# Si number density = 21.061596 Si / 1000 Ang^3
#
#
#
# Elastic Constant Matrix: (Units=GPa)
#
#
# Indices 1 2 3 4 5 6 
#
# 1 107.0938 54.5645 37.5203 -16.8816 2.4304 -15.2965
# 2 54.5645 157.2972 52.1591 -10.6677 -8.9017 -7.5901
# 3 37.5203 52.1591 104.6223 -14.1237 -8.2563 -1.3980
# 4 -16.8816 -10.6677 -14.1237 45.5675 -5.8945 6.0263
# 5 2.4304 -8.9017 -8.2563 -5.8945 36.9183 0.0999
# 6 -15.2965 -7.5901 -1.3980 6.0263 0.0999 40.0904
#
#
#
# Elastic Compliance Matrix: (Units=1/GPa)
#
#
# Indices 1 2 3 4 5 6 
#
# 1 0.012986 -0.003347 -0.002762 0.002414 -0.001904 0.003867
# 2 -0.003347 0.008604 -0.002951 0.000040 0.001641 0.000239
# 3 -0.002762 -0.002951 0.012585 0.002750 0.002728 -0.001594
# 4 0.002414 0.000040 0.002750 0.024627 0.004405 -0.002688
# 5 -0.001904 0.001641 0.002728 0.004405 0.028924 -0.001055
# 6 0.003867 0.000239 -0.001594 -0.002688 -0.001055 0.026815
#
#
# Mechanical properties :
#
#
# Convention : Reuss Voigt Hill
#
# Bulk Modulus (GPa) = 62.27888 73.05566 67.66727
# Shear Modulus (GPa) = 36.22849 39.49988 37.86419
#
# Velocity S-wave (km/s) = 4.15193 4.33534 4.24463
# Velocity P-wave (km/s) = 7.25388 7.73448 7.49803
#
# Compressibility (1/GPa) = 0.01605681
#
# Stress axis : x y z
#
# Youngs Moduli (GPa) = 77.00464 116.22507 79.45854
#
# Poissons Ratio (x) = 0.38895 0.21943
# Poissons Ratio (y) = 0.25770 0.23450
# Poissons Ratio (z) = 0.21265 0.34301
#
# Static dielectric constant tensor:
#      x y z
#    x 3.838420 -0.082260 -0.220920 
#    y -0.082260 3.956760 -0.254540 
#    z -0.220920 -0.254540 3.990510 
# 
# 
# High freq. dielectric constant tensor:
#      x y z
#    x 1.833160 -0.005080 -0.000810 
#    y -0.005080 1.841910 -0.007130 
#    z -0.000810 -0.007130 1.837120 
# 
# From -- ./inp_files/17276.got.cif
#   From: 2010.06.25/outbox.cif.g09.slc.cpg/sg2_9_cif.got.tgz:17276.got - 2010.06.27 13:26:56.
