data_PCOD8035891
_publ_section_title
;
Structure prediction by ZEFSAII (Michael W. Deem and Ramdas Pophale) SiO2 
 PCOD8035891
Probable space group: P -1
;
_chemical_formula_sum "Si O2"
_cell_formula_units_Z 12
_cell_length_a 15.737255
_cell_length_b 5.331955
_cell_length_c 9.444071
_cell_angle_alpha 84.724448
_cell_angle_beta 38.226509
_cell_angle_gamma 87.371842
_cell_volume 487.824316
_symmetry_space_group_name_H-M "P -1"
_symmetry_group_IT_number 2
_symmetry_cell_setting 'triclinic'
loop_
_space_group_symop_operation_xyz
x,y,z
-x,-y,-z
loop_
_atom_site_type_symbol
_atom_site_label
_atom_site_fract_x
_atom_site_fract_y
_atom_site_fract_z
Si Si1 0.905323 0.295501 0.705060
Si Si2 0.445184 0.216553 0.464256
Si Si3 0.911343 0.235483 0.144784
Si Si4 0.151793 0.992232 0.473537
Si Si5 0.570271 0.769069 0.846755
Si Si6 0.282216 0.551543 0.819452
O O1 0.000000 0.500000 0.500000
O O2 0.999597 0.099765 0.672112
O O3 0.815266 0.148183 0.710500
O O4 0.819282 0.463549 0.914771
O O5 0.433352 0.165829 0.317194
O O6 0.297157 0.301152 0.715583
O O7 0.567712 0.425612 0.309201
O O8 0.500000 0.000000 0.500000
O O9 0.775733 0.234819 0.220778
O O10 0.849764 0.207592 0.385042
O O11 0.000000 0.500000 0.000000
O O12 0.000000 0.000000 0.000000
O O13 0.268316 0.217053 0.323520
O O14 0.500000 0.500000 0.000000
O O15 0.500000 0.000000 0.000000
#
# Coordination Sequence:
#
# PCOD8035891 Si02
#       6
#     2   2   2   2   2   2
#     4  11  25  47  78 115 159 208 265 334 413 484
#     4  11  28  49  79 112 155 216 269 334 405 483
#     4  12  27  47  77 117 154 205 258 334 406 480
#     4  11  27  47  76 116 159 208 271 329 412 485
#     4  12  31  52  81 115 162 217 274 339 406 488
#     4  11  26  47  77 109 157 202 270 326 404 475
#
# _framework density 24.599018999999998
#
# number of rings (size 3 to 8) (size 9 to 14) (size 15 to 20)
#    0.000    0.667    1.667    3.000   16.333    2.667 
#    0.000    0.000    0.000    0.000    0.000    0.000 
#    0.000    0.000    0.000    0.000    0.000    0.000 
#
# Total GULP energy -148685.819959 kJ/mol
# GULP energy per Si atom -12390.484997 kJ/mol
# Density = 2.454303 g / cm^3
# Si number density = 24.599019 Si / 1000 Ang^3
#
#
#
# Elastic Constant Matrix: (Units=GPa)
#
#
# Indices 1 2 3 4 5 6 
#
# 1 159.3840 44.0877 72.2325 8.4903 19.0440 9.7992
# 2 44.0877 143.2679 75.5889 10.4778 13.7532 0.5856
# 3 72.2325 75.5889 192.5572 29.2209 32.3724 2.8755
# 4 8.4903 10.4778 29.2209 61.9400 2.5083 -5.4062
# 5 19.0440 13.7532 32.3724 2.5083 42.7833 -3.2110
# 6 9.7992 0.5856 2.8755 -5.4062 -3.2110 34.3197
#
#
#
# Elastic Compliance Matrix: (Units=1/GPa)
#
#
# Indices 1 2 3 4 5 6 
#
# 1 0.007921 -0.001092 -0.002237 0.000028 -0.001650 -0.002205
# 2 -0.001092 0.008958 -0.003138 0.000153 0.000005 0.000446
# 3 -0.002237 -0.003138 0.008462 -0.003060 -0.004287 -0.000900
# 4 0.000028 0.000153 -0.003060 0.017777 0.001450 0.003182
# 5 -0.001650 0.000005 -0.004287 0.001450 0.027538 0.003635
# 6 -0.002205 0.000446 -0.000900 0.003182 0.003635 0.030677
#
#
# Mechanical properties :
#
#
# Convention : Reuss Voigt Hill
#
# Bulk Modulus (GPa) = 80.58904 97.66971 89.12937
# Shear Modulus (GPa) = 42.22889 48.02862 45.12876
#
# Velocity S-wave (km/s) = 4.14779 4.42346 4.28784
# Velocity P-wave (km/s) = 7.46800 8.11666 7.79908
#
# Compressibility (1/GPa) = 0.01240864
#
# Stress axis : x y z
#
# Youngs Moduli (GPa) = 126.24472 111.63368 118.16864
#
# Poissons Ratio (x) = 0.12192 0.26431
# Poissons Ratio (y) = 0.13788 0.37076
# Poissons Ratio (z) = 0.28237 0.35025
#
# Static dielectric constant tensor:
#      x y z
#    x 3.380540 -0.239150 0.140910 
#    y -0.239150 3.581140 -0.485690 
#    z 0.140910 -0.485690 4.995810 
# 
# 
# High freq. dielectric constant tensor:
#      x y z
#    x 2.003870 0.002480 0.005170 
#    y 0.002480 1.972380 0.010850 
#    z 0.005170 0.010850 1.989080 
# 
# From -- ./inp_files/90766.got.cif
#   From: 2010.06.25/outbox.cif.g09.slc.cpg/sg2_46_cif.got.tgz:90766.got - 2010.06.27 13:26:56.
