data_PCOD8035227
_publ_section_title
;
Structure prediction by ZEFSAII (Michael W. Deem and Ramdas Pophale) SiO2 
 PCOD8035227
Probable space group: P -1
;
_chemical_formula_sum "Si O2"
_cell_formula_units_Z 14
_cell_length_a 8.708227
_cell_length_b 7.642943
_cell_length_c 9.395408
_cell_angle_alpha 81.504797
_cell_angle_beta 108.771237
_cell_angle_gamma 107.302876
_cell_volume 564.334743
_symmetry_space_group_name_H-M "P -1"
_symmetry_group_IT_number 2
_symmetry_cell_setting 'triclinic'
loop_
_space_group_symop_operation_xyz
x,y,z
-x,-y,-z
loop_
_atom_site_type_symbol
_atom_site_label
_atom_site_fract_x
_atom_site_fract_y
_atom_site_fract_z
Si Si1 0.375324 0.836115 0.570396
Si Si2 0.586335 0.427216 0.905397
Si Si3 0.658460 0.108181 0.117452
Si Si4 0.969435 0.360634 0.653550
Si Si5 0.973536 0.982330 0.158125
Si Si6 0.671074 0.561864 0.387931
Si Si7 0.805630 0.651622 0.705860
O O1 0.373780 0.896324 0.724801
O O2 0.439377 0.651015 0.614256
O O3 0.188978 0.776828 0.455703
O O4 0.500000 0.000000 0.500000
O O5 0.428998 0.333553 0.760923
O O6 0.717655 0.580340 0.836887
O O7 0.500000 0.500000 0.000000
O O8 0.697051 0.305243 0.026137
O O9 0.794470 0.001236 0.144448
O O10 0.500000 0.000000 0.000000
O O11 0.132900 0.439825 0.590437
O O12 0.929234 0.525487 0.712707
O O13 0.027686 0.226103 0.792934
O O14 0.104613 0.135037 0.271256
O O15 0.000000 0.000000 0.000000
O O16 0.676153 0.646918 0.536739
#
# Coordination Sequence:
#
# PCOD8035227 Si02
#       7
#     2   2   2   2   2   2   2
#     4  11  26  46  79 111 154 196 257 316 372 454
#     4  12  27  46  74 108 153 200 243 313 380 443
#     4  12  28  47  72 110 153 196 250 311 382 447
#     4  11  26  51  80 109 151 202 253 315 377 448
#     4  12  29  47  77 114 152 198 256 316 378 450
#     4  11  24  50  79 110 150 204 254 309 381 454
#     4  11  27  48  78 110 150 199 261 306 381 453
#
# _framework density 24.807969
#
# number of rings (size 3 to 8) (size 9 to 14) (size 15 to 20)
#    0.000    0.571    1.429    5.571   12.000    4.571 
#    0.000    0.000    0.000    0.000    0.000    0.000 
#    0.000    0.000    0.000    0.000    0.000    0.000 
#
# Total GULP energy -173473.879143 kJ/mol
# GULP energy per Si atom -12390.991367 kJ/mol
# Density = 2.475151 g / cm^3
# Si number density = 24.807969 Si / 1000 Ang^3
#
#
#
# Elastic Constant Matrix: (Units=GPa)
#
#
# Indices 1 2 3 4 5 6 
#
# 1 86.7988 21.8371 41.1168 -10.5668 -19.5492 8.5329
# 2 21.8371 104.7324 31.2421 -0.9022 -20.7307 4.9748
# 3 41.1168 31.2421 144.9283 -6.1633 -30.2432 -8.1869
# 4 -10.5668 -0.9022 -6.1633 43.6014 -3.1115 -5.7200
# 5 -19.5492 -20.7307 -30.2432 -3.1115 42.3383 -6.7110
# 6 8.5329 4.9748 -8.1869 -5.7200 -6.7110 41.1129
#
#
#
# Elastic Compliance Matrix: (Units=1/GPa)
#
#
# Indices 1 2 3 4 5 6 
#
# 1 0.014801 -0.001249 -0.003147 0.003059 0.003803 -0.002501
# 2 -0.001249 0.010966 -0.001267 -0.000080 0.003768 -0.000716
# 3 -0.003147 -0.001267 0.009464 0.001428 0.005389 0.003770
# 4 0.003059 -0.000080 0.001428 0.024731 0.004827 0.003888
# 5 0.003803 0.003768 0.005389 0.004827 0.032341 0.005779
# 6 -0.002501 -0.000716 0.003770 0.003888 0.005779 0.027164
#
#
# Mechanical properties :
#
#
# Convention : Reuss Voigt Hill
#
# Bulk Modulus (GPa) = 41.83489 58.31682 50.07586
# Shear Modulus (GPa) = 36.03291 41.56140 38.79715
#
# Velocity S-wave (km/s) = 3.81527 4.09751 3.95891
# Velocity P-wave (km/s) = 6.02565 6.77824 6.41299
#
# Compressibility (1/GPa) = 0.02390349
#
# Stress axis : x y z
#
# Youngs Moduli (GPa) = 67.56335 91.19308 105.65973
#
# Poissons Ratio (x) = 0.11393 0.33256
# Poissons Ratio (y) = 0.08441 0.13387
# Poissons Ratio (z) = 0.21265 0.11554
#
# Static dielectric constant tensor:
#      x y z
#    x 4.381570 0.284890 -0.066150 
#    y 0.284890 4.575910 -0.010480 
#    z -0.066150 -0.010480 4.570390 
# 
# 
# High freq. dielectric constant tensor:
#      x y z
#    x 2.001290 0.000290 0.001740 
#    y 0.000290 1.989450 -0.010280 
#    z 0.001740 -0.010280 2.012830 
# 
# From -- ./inp_files/158198.got.cif
#   From: 2010.06.25/outbox.cif.g09.slc.cpg/sg2_80_cif.got.tgz:158198.got - 2010.06.27 13:26:56.
