data_PCOD8035619
_publ_section_title
;
Structure prediction by ZEFSAII (Michael W. Deem and Ramdas Pophale) SiO2 
 PCOD8035619
Probable space group: P -1
;
_chemical_formula_sum "Si O2"
_cell_formula_units_Z 16
_cell_length_a 8.658390
_cell_length_b 9.804033
_cell_length_c 11.833403
_cell_angle_alpha 48.870479
_cell_angle_beta 78.708390
_cell_angle_gamma 75.759180
_cell_volume 732.570925
_symmetry_space_group_name_H-M "P -1"
_symmetry_group_IT_number 2
_symmetry_cell_setting 'triclinic'
loop_
_space_group_symop_operation_xyz
x,y,z
-x,-y,-z
loop_
_atom_site_type_symbol
_atom_site_label
_atom_site_fract_x
_atom_site_fract_y
_atom_site_fract_z
Si Si1 0.555649 0.280679 0.869584
Si Si2 0.362659 0.145135 0.296790
Si Si3 0.123099 0.573278 0.286515
Si Si4 0.865530 0.516102 0.916138
Si Si5 0.151960 0.959140 0.580032
Si Si6 0.357584 0.624907 0.816937
Si Si7 0.873303 0.778401 0.368090
Si Si8 0.561715 0.932021 0.202260
O O1 0.698650 0.386736 0.761148
O O2 0.411662 0.428196 0.858639
O O3 0.499149 0.199147 0.807750
O O4 0.608409 0.116575 0.040067
O O5 0.207291 0.270570 0.199763
O O6 0.497656 0.264118 0.246255
O O7 0.302618 0.051339 0.467326
O O8 0.423460 0.988399 0.283126
O O9 0.063489 0.560649 0.172664
O O10 0.120764 0.382504 0.453782
O O11 0.011626 0.736184 0.278125
O O12 0.720906 0.408470 0.032291
O O13 0.000000 0.500000 0.000000
O O14 0.217400 0.741858 0.697568
O O15 0.102727 0.037722 0.668854
O O16 0.000000 0.000000 0.500000
O O17 0.708529 0.810067 0.308302
#
# Coordination Sequence:
#
# PCOD8035619 Si02
#       8
#     2   2   2   2   2   2   2   2
#     4  11  25  46  69 105 137 181 235 292 346 421
#     4  12  23  46  70 100 139 182 242 287 341 417
#     4  11  26  46  69 100 145 184 231 284 355 423
#     4  12  25  43  73 104 139 186 235 290 349 412
#     4  12  27  44  69 106 143 185 236 290 350 419
#     4  12  24  44  76  99 136 187 238 289 345 412
#     4  11  26  46  68 101 145 185 228 288 354 419
#     4  11  26  44  71 103 139 179 236 291 351 411
#
# _framework density 21.840890000000002
#
# number of rings (size 3 to 8) (size 9 to 14) (size 15 to 20)
#    0.000    0.500    5.000    2.250    5.250    2.000 
#    0.000    0.000    0.000    0.000    0.000    0.000 
#    0.000    0.000    0.000    0.000    0.000    0.000 
#
# Total GULP energy -198458.500726 kJ/mol
# GULP energy per Si atom -12403.656295 kJ/mol
# Density = 2.179118 g / cm^3
# Si number density = 21.840890 Si / 1000 Ang^3
#
#
#
# Elastic Constant Matrix: (Units=GPa)
#
#
# Indices 1 2 3 4 5 6 
#
# 1 73.6433 51.9616 24.8599 16.4081 13.0457 -7.0712
# 2 51.9616 147.2952 44.8194 20.9639 7.6724 -11.4043
# 3 24.8599 44.8194 84.8159 11.0673 6.3112 -10.9576
# 4 16.4081 20.9639 11.0673 32.4536 -2.2481 -3.0447
# 5 13.0457 7.6724 6.3112 -2.2481 42.9910 0.9755
# 6 -7.0712 -11.4043 -10.9576 -3.0447 0.9755 35.8835
#
#
#
# Elastic Compliance Matrix: (Units=1/GPa)
#
#
# Indices 1 2 3 4 5 6 
#
# 1 0.020510 -0.005390 -0.001730 -0.006540 -0.005382 0.001392
# 2 -0.005390 0.010136 -0.003332 -0.002589 0.000160 0.000918
# 3 -0.001730 -0.003332 0.014771 -0.001814 -0.001212 0.002990
# 4 -0.006540 -0.002589 -0.001814 0.036762 0.004628 0.000328
# 5 -0.005382 0.000160 -0.001212 0.004628 0.025323 -0.001675
# 6 0.001392 0.000918 0.002990 0.000328 -0.001675 0.029420
#
#
# Mechanical properties :
#
#
# Convention : Reuss Voigt Hill
#
# Bulk Modulus (GPa) = 40.79330 61.00400 50.89865
# Shear Modulus (GPa) = 30.12116 34.53984 32.33050
#
# Velocity S-wave (km/s) = 3.71768 3.98103 3.85161
# Velocity P-wave (km/s) = 6.09477 7.00880 6.56770
#
# Compressibility (1/GPa) = 0.02451383
#
# Stress axis : x y z
#
# Youngs Moduli (GPa) = 48.75603 98.66297 67.70090
#
# Poissons Ratio (x) = 0.53182 0.11710
# Poissons Ratio (y) = 0.26281 0.22555
# Poissons Ratio (z) = 0.08433 0.32870
#
# Static dielectric constant tensor:
#      x y z
#    x 3.891820 -0.244140 0.040000 
#    y -0.244140 4.470740 0.125300 
#    z 0.040000 0.125300 4.298930 
# 
# 
# High freq. dielectric constant tensor:
#      x y z
#    x 1.857970 -0.011900 0.004920 
#    y -0.011900 1.868420 0.003460 
#    z 0.004920 0.003460 1.872670 
# 
# From -- ./inp_files/184309.got.cif
#   From: 2010.06.25/outbox.cif.g09.slc.cpg/sg2_93_cif.got.tgz:184309.got - 2010.06.27 13:26:56.
