data_PCOD8035174
_publ_section_title
;
Structure prediction by ZEFSAII (Michael W. Deem and Ramdas Pophale) SiO2 
 PCOD8035174
Probable space group: P -1
;
_chemical_formula_sum "Si O2"
_cell_formula_units_Z 14
_cell_length_a 8.769823
_cell_length_b 20.149301
_cell_length_c 6.488444
_cell_angle_alpha 133.045913
_cell_angle_beta 129.130603
_cell_angle_gamma 50.341994
_cell_volume 604.894753
_symmetry_space_group_name_H-M "P -1"
_symmetry_group_IT_number 2
_symmetry_cell_setting 'triclinic'
loop_
_space_group_symop_operation_xyz
x,y,z
-x,-y,-z
loop_
_atom_site_type_symbol
_atom_site_label
_atom_site_fract_x
_atom_site_fract_y
_atom_site_fract_z
Si Si1 0.415444 0.104112 0.880933
Si Si2 0.495210 0.701244 0.656917
Si Si3 0.213586 0.464263 0.730948
Si Si4 0.884849 0.330574 0.878567
Si Si5 0.786793 0.649340 0.132467
Si Si6 0.145155 0.201923 0.202594
Si Si7 0.154603 0.057497 0.215514
O O1 0.217656 0.100924 0.568539
O O2 0.625198 0.010958 0.840974
O O3 0.461265 0.200250 0.072239
O O4 0.333357 0.115403 0.068234
O O5 0.617128 0.634236 0.427139
O O6 0.245313 0.727040 0.468447
O O7 0.575040 0.649679 0.835890
O O8 0.149702 0.445939 0.870978
O O9 0.000000 0.500000 0.500000
O O10 0.283097 0.559088 0.983344
O O11 0.052628 0.347439 0.903427
O O12 0.985436 0.274539 0.056125
O O13 0.745272 0.740976 0.441847
O O14 0.036642 0.145611 0.141445
O O15 0.000000 0.000000 0.000000
#
# Coordination Sequence:
#
# PCOD8035174 Si02
#       7
#     2   2   2   2   2   2   2
#     4  11  24  49  70 106 140 182 230 291 356 417
#     4  12  26  45  72 104 145 186 237 287 349 415
#     4  12  23  47  72 102 145 190 235 291 343 406
#     4  12  27  44  71 108 143 188 241 284 343 415
#     4  12  23  46  72  98 147 186 233 286 348 405
#     4  12  23  49  73 102 143 185 231 288 353 417
#     4  11  27  48  77 104 136 179 236 292 354 423
#
# _framework density 23.144523
#
# number of rings (size 3 to 8) (size 9 to 14) (size 15 to 20)
#    0.000    0.286    7.143    1.286    4.000    2.286 
#    5.143    0.000    0.000    0.000    0.000    0.000 
#    0.000    0.000    0.000    0.000    0.000    0.000 
#
# Total GULP energy -173485.719531 kJ/mol
# GULP energy per Si atom -12391.837109 kJ/mol
# Density = 2.309185 g / cm^3
# Si number density = 23.144523 Si / 1000 Ang^3
#
#
#
# Elastic Constant Matrix: (Units=GPa)
#
#
# Indices 1 2 3 4 5 6 
#
# 1 68.5248 46.7770 51.6486 -17.6167 1.3207 28.0135
# 2 46.7770 94.6120 44.3973 -14.9349 -8.9126 33.3316
# 3 51.6486 44.3973 153.9613 -10.4350 8.8746 15.1297
# 4 -17.6167 -14.9349 -10.4350 47.2164 0.6649 -4.0181
# 5 1.3207 -8.9126 8.8746 0.6649 41.4085 2.9749
# 6 28.0135 33.3316 15.1297 -4.0181 2.9749 41.3999
#
#
#
# Elastic Compliance Matrix: (Units=1/GPa)
#
#
# Indices 1 2 3 4 5 6 
#
# 1 0.031268 -0.006764 -0.006825 0.006955 -0.000202 -0.012528
# 2 -0.006764 0.019721 -0.002563 0.002168 0.005734 -0.010566
# 3 -0.006825 -0.002563 0.009272 -0.000984 -0.002548 0.003381
# 4 0.006955 0.002168 -0.000984 0.023914 0.000344 -0.003796
# 5 -0.000202 0.005734 -0.002548 0.000344 0.026319 -0.005406
# 6 -0.012528 -0.010566 0.003381 -0.003796 -0.005406 0.039923
#
#
# Mechanical properties :
#
#
# Convention : Reuss Voigt Hill
#
# Bulk Modulus (GPa) = 35.76913 66.97153 51.37033
# Shear Modulus (GPa) = 26.03619 37.62330 31.82974
#
# Velocity S-wave (km/s) = 3.35765 4.03622 3.71247
# Velocity P-wave (km/s) = 5.52449 7.12183 6.37340
#
# Compressibility (1/GPa) = 0.02795707
#
# Stress axis : x y z
#
# Youngs Moduli (GPa) = 31.98143 50.70708 107.85626
#
# Poissons Ratio (x) = 0.34299 0.73608
# Poissons Ratio (y) = 0.21633 0.27644
# Poissons Ratio (z) = 0.21826 0.12997
#
# Static dielectric constant tensor:
#      x y z
#    x 4.116530 0.128610 -0.169110 
#    y 0.128610 4.601800 0.375630 
#    z -0.169110 0.375630 5.027500 
# 
# 
# High freq. dielectric constant tensor:
#      x y z
#    x 1.898040 0.010480 -0.012930 
#    y 0.010480 1.927760 0.010990 
#    z -0.012930 0.010990 1.933090 
# 
# From -- ./inp_files/54021.got.cif
#   From: 2010.06.25/outbox.cif.g09.slc.cpg/sg2_28_cif.got.tgz:54021.got - 2010.06.27 13:26:56.
