data_PCOD8035382
_publ_section_title
;
Structure prediction by ZEFSAII (Michael W. Deem and Ramdas Pophale) SiO2 
 PCOD8035382
Probable space group: P -1
;
_chemical_formula_sum "Si O2"
_cell_formula_units_Z 12
_cell_length_a 10.353150
_cell_length_b 18.570687
_cell_length_c 16.820502
_cell_angle_alpha 22.126150
_cell_angle_beta 36.120836
_cell_angle_gamma 25.217870
_cell_volume 509.643598
_symmetry_space_group_name_H-M "P -1"
_symmetry_group_IT_number 2
_symmetry_cell_setting 'triclinic'
loop_
_space_group_symop_operation_xyz
x,y,z
-x,-y,-z
loop_
_atom_site_type_symbol
_atom_site_label
_atom_site_fract_x
_atom_site_fract_y
_atom_site_fract_z
Si Si1 0.213188 0.128820 0.791804
Si Si2 0.751053 0.260867 0.561639
Si Si3 0.224812 0.289204 0.304142
Si Si4 0.699269 0.585401 0.027620
Si Si5 0.157530 0.171801 0.963332
Si Si6 0.548200 0.620658 0.574910
O O1 0.143967 0.172230 0.875137
O O2 0.421724 0.183528 0.605557
O O3 0.893213 0.321487 0.706281
O O4 0.405825 0.826748 0.979387
O O5 0.500000 0.500000 0.500000
O O6 0.576610 0.282517 0.550812
O O7 0.975362 0.293205 0.390447
O O8 0.943003 0.972624 0.803718
O O9 0.077367 0.519968 0.206808
O O10 0.500000 0.000000 0.500000
O O11 0.345946 0.340439 0.118045
O O12 0.689682 0.360014 0.273176
O O13 0.000000 0.500000 0.000000
O O14 0.500000 0.000000 0.000000
#
# Coordination Sequence:
#
# PCOD8035382 Si02
#       6
#     2   2   2   2   2   2
#     4  11  26  45  74 101 142 187 245 286 346 434
#     4  12  24  45  78 102 141 193 241 289 353 435
#     4  12  30  47  69 110 148 181 236 306 363 412
#     4  12  26  46  69 104 145 183 232 298 364 414
#     4  12  24  47  76 103 138 191 244 282 350 436
#     4  11  25  44  71 104 138 187 241 286 351 426
#
# _framework density 23.545866
#
# number of rings (size 3 to 8) (size 9 to 14) (size 15 to 20)
#    0.000    0.333    5.000    2.500    9.333    2.667 
#    0.000    0.000    0.000    0.000    0.000    0.000 
#    0.000    0.000    0.000    0.000    0.000    0.000 
#
# Total GULP energy -148845.617762 kJ/mol
# GULP energy per Si atom -12403.801480 kJ/mol
# Density = 2.349227 g / cm^3
# Si number density = 23.545866 Si / 1000 Ang^3
#
#
#
# Elastic Constant Matrix: (Units=GPa)
#
#
# Indices 1 2 3 4 5 6 
#
# 1 71.3934 33.6341 33.1827 10.4983 8.8608 2.8483
# 2 33.6341 82.1125 41.1415 0.9442 4.4591 15.4177
# 3 33.1827 41.1415 147.9351 21.0955 3.0488 5.0835
# 4 10.4983 0.9442 21.0955 54.8278 -6.5738 -6.4675
# 5 8.8608 4.4591 3.0488 -6.5738 43.7829 6.0617
# 6 2.8483 15.4177 5.0835 -6.4675 6.0617 41.0489
#
#
#
# Elastic Compliance Matrix: (Units=1/GPa)
#
#
# Indices 1 2 3 4 5 6 
#
# 1 0.018968 -0.006885 -0.001884 -0.003045 -0.003681 0.001567
# 2 -0.006885 0.017716 -0.003464 0.001791 0.000874 -0.005594
# 3 -0.001884 -0.003464 0.008569 -0.002917 -0.000294 -0.000046
# 4 -0.003045 0.001791 -0.002917 0.020630 0.003367 0.002653
# 5 -0.003681 0.000874 -0.000294 0.003367 0.024453 -0.003117
# 6 0.001567 -0.005594 -0.000046 0.002653 -0.003117 0.027238
#
#
# Mechanical properties :
#
#
# Convention : Reuss Voigt Hill
#
# Bulk Modulus (GPa) = 48.10294 57.48418 52.79356
# Shear Modulus (GPa) = 33.56383 40.83075 37.19729
#
# Velocity S-wave (km/s) = 3.77963 4.16876 3.97896
# Velocity P-wave (km/s) = 6.28660 6.90204 6.60149
#
# Compressibility (1/GPa) = 0.02078875
#
# Stress axis : x y z
#
# Youngs Moduli (GPa) = 52.72017 56.44457 116.69692
#
# Poissons Ratio (x) = 0.38862 0.21981
# Poissons Ratio (y) = 0.36298 0.40422
# Poissons Ratio (z) = 0.09931 0.19551
#
# Static dielectric constant tensor:
#      x y z
#    x 4.388730 -0.689830 -0.367300 
#    y -0.689830 4.375440 0.344280 
#    z -0.367300 0.344280 4.905100 
# 
# 
# High freq. dielectric constant tensor:
#      x y z
#    x 1.934380 -0.010900 -0.003340 
#    y -0.010900 1.921510 0.009970 
#    z -0.003340 0.009970 1.960350 
# 
# From -- ./inp_files/159480.got.cif
#   From: 2010.06.25/outbox.cif.g09.slc.cpg/sg2_80_cif.got.tgz:159480.got - 2010.06.27 13:26:56.
