data_PCOD8035761
_publ_section_title
;
Structure prediction by ZEFSAII (Michael W. Deem and Ramdas Pophale) SiO2 
 PCOD8035761
Probable space group: P -1
;
_chemical_formula_sum "Si O2"
_cell_formula_units_Z 16
_cell_length_a 9.119694
_cell_length_b 13.543791
_cell_length_c 15.002951
_cell_angle_alpha 148.841001
_cell_angle_beta 73.655556
_cell_angle_gamma 86.038483
_cell_volume 718.844869
_symmetry_space_group_name_H-M "P -1"
_symmetry_group_IT_number 2
_symmetry_cell_setting 'triclinic'
loop_
_space_group_symop_operation_xyz
x,y,z
-x,-y,-z
loop_
_atom_site_type_symbol
_atom_site_label
_atom_site_fract_x
_atom_site_fract_y
_atom_site_fract_z
Si Si1 0.220511 0.902734 0.483555
Si Si2 0.875701 0.954740 0.045726
Si Si3 0.272059 0.642240 0.497717
Si Si4 0.132184 0.106720 0.319126
Si Si5 0.997145 0.703908 0.017689
Si Si6 0.404014 0.540613 0.840147
Si Si7 0.040207 0.257378 0.636499
Si Si8 0.274880 0.206440 0.198713
O O1 0.445251 0.661696 0.269802
O O2 0.110128 0.796234 0.393732
O O3 0.206376 0.061124 0.526167
O O4 0.133423 0.076678 0.720218
O O5 0.704966 0.225139 0.322816
O O6 0.804699 0.831762 0.905836
O O7 0.000000 0.000000 0.000000
O O8 0.985518 0.790481 0.986080
O O9 0.474062 0.510646 0.309696
O O10 0.232643 0.462413 0.402604
O O11 0.078078 0.834776 0.618033
O O12 0.127964 0.241443 0.511832
O O13 0.180619 0.197184 0.296314
O O14 0.296869 0.823459 0.097701
O O15 0.231060 0.520801 0.852278
O O16 0.931981 0.532576 0.902897
O O17 0.500000 0.000000 0.000000
#
# Coordination Sequence:
#
# PCOD8035761 Si02
#       8
#     2   2   2   2   2   2   2   2
#     4  11  25  50  70 104 140 180 235 297 347 413
#     4  12  25  43  70 100 139 187 223 280 352 400
#     4  12  24  46  68  99 146 183 229 290 338 410
#     4  12  23  48  66 103 143 183 230 292 341 410
#     4  12  25  47  71 104 143 180 234 292 344 417
#     4  12  22  45  74  97 145 178 227 299 340 406
#     4  11  25  46  76  99 139 192 227 285 369 404
#     4  12  27  43  71 104 139 183 236 279 338 421
#
# _framework density 22.257932
#
# number of rings (size 3 to 8) (size 9 to 14) (size 15 to 20)
#    0.000    0.250    7.500    1.500    1.750    2.500 
#    2.250    0.000    0.000    0.000    0.000    0.000 
#    0.000    0.000    0.000    0.000    0.000    0.000 
#
# Total GULP energy -198240.648572 kJ/mol
# GULP energy per Si atom -12390.040536 kJ/mol
# Density = 2.220727 g / cm^3
# Si number density = 22.257932 Si / 1000 Ang^3
#
#
#
# Elastic Constant Matrix: (Units=GPa)
#
#
# Indices 1 2 3 4 5 6 
#
# 1 41.6232 14.2118 38.5135 2.3942 4.6204 -2.6796
# 2 14.2118 113.7908 27.1299 4.3480 7.6676 -16.5910
# 3 38.5135 27.1299 114.0366 17.9059 3.9181 -4.6269
# 4 2.3942 4.3480 17.9059 36.9821 4.4574 -3.7084
# 5 4.6204 7.6676 3.9181 4.4574 49.1277 12.7212
# 6 -2.6796 -16.5910 -4.6269 -3.7084 12.7212 23.7545
#
#
#
# Elastic Compliance Matrix: (Units=1/GPa)
#
#
# Indices 1 2 3 4 5 6 
#
# 1 0.036263 -0.000953 -0.012470 0.004607 -0.003633 0.003661
# 2 -0.000953 0.010990 -0.001948 0.001157 -0.004044 0.009535
# 3 -0.012470 -0.001948 0.014307 -0.006218 0.001331 -0.001664
# 4 0.004607 0.001157 -0.006218 0.030964 -0.004887 0.007567
# 5 -0.003633 -0.004044 0.001331 -0.004887 0.026277 -0.017810
# 6 0.003661 0.009535 -0.001664 0.007567 -0.017810 0.059565
#
#
# Mechanical properties :
#
#
# Convention : Reuss Voigt Hill
#
# Bulk Modulus (GPa) = 32.45017 47.68455 40.06736
# Shear Modulus (GPa) = 22.79109 34.61256 28.70182
#
# Velocity S-wave (km/s) = 3.20340 3.94771 3.59487
# Velocity P-wave (km/s) = 5.31913 6.49995 5.93896
#
# Compressibility (1/GPa) = 0.03081648
#
# Stress axis : x y z
#
# Youngs Moduli (GPa) = 27.57613 90.98952 69.89403
#
# Poissons Ratio (x) = 0.08675 0.87161
# Poissons Ratio (y) = 0.02629 0.13618
# Poissons Ratio (z) = 0.34389 0.17729
#
# Static dielectric constant tensor:
#      x y z
#    x 3.907670 -0.232660 0.053670 
#    y -0.232660 3.914540 -0.121790 
#    z 0.053670 -0.121790 4.222690 
# 
# 
# High freq. dielectric constant tensor:
#      x y z
#    x 1.861430 0.007020 0.014410 
#    y 0.007020 1.894300 0.007660 
#    z 0.014410 0.007660 1.890300 
# 
# From -- ./inp_files/505820.got.cif
#   From: 2010.06.25/outbox.cif.g09.slc.cpg/sg2_253_cif.got.tgz:505820.got - 2010.06.27 13:26:56.
