data_PCOD8035581
_publ_section_title
;
Structure prediction by ZEFSAII (Michael W. Deem and Ramdas Pophale) SiO2 
 PCOD8035581
Probable space group: P -1
;
_chemical_formula_sum "Si O2"
_cell_formula_units_Z 16
_cell_length_a 19.208658
_cell_length_b 8.426910
_cell_length_c 9.008224
_cell_angle_alpha 121.502525
_cell_angle_beta 60.713624
_cell_angle_gamma 144.498874
_cell_volume 715.964782
_symmetry_space_group_name_H-M "P -1"
_symmetry_group_IT_number 2
_symmetry_cell_setting 'triclinic'
loop_
_space_group_symop_operation_xyz
x,y,z
-x,-y,-z
loop_
_atom_site_type_symbol
_atom_site_label
_atom_site_fract_x
_atom_site_fract_y
_atom_site_fract_z
Si Si1 0.544889 0.262849 0.923881
Si Si2 0.068652 0.633490 0.838660
Si Si3 0.316807 0.188704 0.770668
Si Si4 0.063659 0.283246 0.149188
Si Si5 0.327270 0.852505 0.145619
Si Si6 0.521749 0.257677 0.613803
Si Si7 0.993984 0.177057 0.504498
Si Si8 0.270181 0.160766 0.472114
O O1 0.600133 0.151349 0.816007
O O2 0.555517 0.368372 0.801663
O O3 0.612172 0.513409 0.091647
O O4 0.403757 0.005950 0.989644
O O5 0.998428 0.639624 0.801263
O O6 0.075290 0.451637 0.656355
O O7 0.205329 0.942734 0.875688
O O8 0.000000 0.500000 0.000000
O O9 0.402474 0.160944 0.643636
O O10 0.260270 0.152856 0.655676
O O11 0.202969 0.532765 0.076831
O O12 0.057945 0.260091 0.320950
O O13 0.000000 0.000000 0.000000
O O14 0.308537 0.021172 0.318355
O O15 0.632137 0.515476 0.522053
O O16 0.500000 0.000000 0.500000
O O17 0.858045 0.014188 0.551356
O O18 0.000000 0.000000 0.500000
#
# Coordination Sequence:
#
# PCOD8035581 Si02
#       8
#     2   2   2   2   2   2   2   2
#     4  11  27  46  72 109 138 189 240 301 351 428
#     4  12  27  46  74 107 144 188 240 300 367 434
#     4  12  26  48  73 105 144 186 244 290 361 434
#     4  12  25  47  74 107 142 192 238 300 367 433
#     4  11  25  45  75  97 148 182 242 285 366 419
#     4  12  29  44  73 105 145 185 242 296 360 416
#     4  12  28  48  71 107 146 191 246 299 362 436
#     4  12  26  49  75 102 144 193 236 296 363 433
#
# _framework density 22.347469
#
# number of rings (size 3 to 8) (size 9 to 14) (size 15 to 20)
#    0.000    0.250    3.750    4.125   10.500    0.000 
#    0.000    0.000    0.000    0.000    0.000    0.000 
#    0.000    0.000    0.000    0.000    0.000    0.000 
#
# Total GULP energy -198504.090252 kJ/mol
# GULP energy per Si atom -12406.505641 kJ/mol
# Density = 2.229661 g / cm^3
# Si number density = 22.347469 Si / 1000 Ang^3
#
#
#
# Elastic Constant Matrix: (Units=GPa)
#
#
# Indices 1 2 3 4 5 6 
#
# 1 108.8466 37.5106 30.8283 -0.0177 -6.4825 -9.5981
# 2 37.5106 177.0478 51.8946 -8.0923 -11.2706 3.3024
# 3 30.8283 51.8946 110.0621 10.3583 -2.3719 -11.9814
# 4 -0.0177 -8.0923 10.3583 34.0480 -0.6805 -6.1267
# 5 -6.4825 -11.2706 -2.3719 -0.6805 35.8154 -3.5935
# 6 -9.5981 3.3024 -11.9814 -6.1267 -3.5935 43.3692
#
#
#
# Elastic Compliance Matrix: (Units=1/GPa)
#
#
# Indices 1 2 3 4 5 6 
#
# 1 0.010576 -0.001560 -0.002026 0.000663 0.001514 0.002119
# 2 -0.001560 0.007191 -0.003296 0.002509 0.001678 -0.001310
# 3 -0.002026 -0.003296 0.011839 -0.003949 -0.000446 0.002479
# 4 0.000663 0.002509 -0.003949 0.031829 0.001603 0.003494
# 5 0.001514 0.001678 -0.000446 0.001603 0.028996 0.002713
# 6 0.002119 -0.001310 0.002479 0.003494 0.002713 0.025030
#
#
# Mechanical properties :
#
#
# Convention : Reuss Voigt Hill
#
# Bulk Modulus (GPa) = 63.12254 70.71372 66.91813
# Shear Modulus (GPa) = 37.17339 41.02804 39.10072
#
# Velocity S-wave (km/s) = 4.08294 4.28941 4.18744
# Velocity P-wave (km/s) = 7.10876 7.49957 7.30678
#
# Compressibility (1/GPa) = 0.01584220
#
# Stress axis : x y z
#
# Youngs Moduli (GPa) = 94.55683 139.06848 84.46486
#
# Poissons Ratio (x) = 0.21690 0.17112
# Poissons Ratio (y) = 0.14747 0.27841
# Poissons Ratio (z) = 0.19157 0.45839
#
# Static dielectric constant tensor:
#      x y z
#    x 4.293060 -0.017580 -0.102970 
#    y -0.017580 4.007240 -0.055110 
#    z -0.102970 -0.055110 3.976060 
# 
# 
# High freq. dielectric constant tensor:
#      x y z
#    x 1.893450 -0.004410 -0.005480 
#    y -0.004410 1.900300 -0.001910 
#    z -0.005480 -0.001910 1.882580 
# 
# From -- ./inp_files/226101.got.cif
#   From: 2010.06.25/outbox.cif.g09.slc.cpg/sg2_114_cif.got.tgz:226101.got - 2010.06.27 13:26:56.
