data_PCOD8035353
_publ_section_title
;
Structure prediction by ZEFSAII (Michael W. Deem and Ramdas Pophale) SiO2 
 PCOD8035353
Probable space group: P -1
;
_chemical_formula_sum "Si O2"
_cell_formula_units_Z 16
_cell_length_a 9.341266
_cell_length_b 25.193755
_cell_length_c 8.673495
_cell_angle_alpha 140.719884
_cell_angle_beta 71.006903
_cell_angle_gamma 137.858564
_cell_volume 703.253061
_symmetry_space_group_name_H-M "P -1"
_symmetry_group_IT_number 2
_symmetry_cell_setting 'triclinic'
loop_
_space_group_symop_operation_xyz
x,y,z
-x,-y,-z
loop_
_atom_site_type_symbol
_atom_site_label
_atom_site_fract_x
_atom_site_fract_y
_atom_site_fract_z
Si Si1 0.929024 0.854246 0.794054
Si Si2 0.923906 0.871063 0.189451
Si Si3 0.506227 0.574571 0.790742
Si Si4 0.147939 0.660941 0.114203
Si Si5 0.226821 0.360318 0.853328
Si Si6 0.594503 0.855521 0.887187
Si Si7 0.406519 0.048757 0.587219
Si Si8 0.046700 0.604811 0.377767
O O1 0.928887 0.771685 0.503372
O O2 0.661629 0.786602 0.704613
O O3 0.944317 0.849056 0.958381
O O4 0.207046 0.021464 0.034056
O O5 0.625076 0.715233 0.997519
O O6 0.000000 0.000000 0.500000
O O7 0.132451 0.905314 0.277698
O O8 0.500000 0.500000 0.500000
O O9 0.203061 0.446448 0.661216
O O10 0.714355 0.647641 0.015907
O O11 0.411263 0.816149 0.291843
O O12 0.174107 0.660941 0.289597
O O13 0.924393 0.621269 0.042727
O O14 0.058216 0.527052 0.798080
O O15 0.500000 0.500000 0.000000
O O16 0.292383 0.743987 0.709691
O O17 0.659388 0.920998 0.178988
O O18 0.500000 0.000000 0.500000
#
# Coordination Sequence:
#
# PCOD8035353 Si02
#       8
#     2   2   2   2   2   2   2   2
#     4  11  25  45  75 105 140 190 243 296 362 433
#     4  12  25  47  73 105 144 190 239 296 361 430
#     4  12  28  47  73 110 147 190 245 297 363 434
#     4  11  25  46  71 105 142 190 238 295 365 428
#     4  12  24  47  73 103 144 187 241 293 364 431
#     4  11  25  44  69 105 143 185 242 293 363 425
#     4  12  26  46  72 106 141 185 237 307 359 423
#     4  11  26  46  71 104 145 192 235 297 359 431
#
# _framework density 22.751411000000001
#
# number of rings (size 3 to 8) (size 9 to 14) (size 15 to 20)
#    0.000    0.500    2.500    5.250    7.000    0.500 
#    0.000    2.500    0.000    0.000    0.000    0.000 
#    0.000    0.000    0.000    0.000    0.000    0.000 
#
# Total GULP energy -198239.050448 kJ/mol
# GULP energy per Si atom -12389.940653 kJ/mol
# Density = 2.269963 g / cm^3
# Si number density = 22.751411 Si / 1000 Ang^3
#
#
#
# Elastic Constant Matrix: (Units=GPa)
#
#
# Indices 1 2 3 4 5 6 
#
# 1 103.1348 14.7410 29.5356 3.4544 10.7926 -4.3249
# 2 14.7410 124.3261 30.6444 8.1601 8.4375 -11.9006
# 3 29.5356 30.6444 101.4930 -6.5760 14.0520 -12.5139
# 4 3.4544 8.1601 -6.5760 41.7647 0.1321 4.1535
# 5 10.7926 8.4375 14.0520 0.1321 46.1148 2.9061
# 6 -4.3249 -11.9006 -12.5139 4.1535 2.9061 35.0839
#
#
#
# Elastic Compliance Matrix: (Units=1/GPa)
#
#
# Indices 1 2 3 4 5 6 
#
# 1 0.010792 -0.000336 -0.002838 -0.001318 -0.001627 0.000495
# 2 -0.000336 0.009137 -0.002354 -0.002382 -0.001032 0.002586
# 3 -0.002838 -0.002354 0.012334 0.002326 -0.002873 0.003214
# 4 -0.001318 -0.002382 0.002326 0.025196 0.000161 -0.003137
# 5 -0.001627 -0.001032 -0.002873 0.000161 0.023352 -0.003529
# 6 0.000495 0.002586 0.003214 -0.003137 -0.003529 0.031251
#
#
# Mechanical properties :
#
#
# Convention : Reuss Voigt Hill
#
# Bulk Modulus (GPa) = 47.15225 53.19954 50.17590
# Shear Modulus (GPa) = 38.40616 41.52821 39.96719
#
# Velocity S-wave (km/s) = 4.11308 4.27699 4.19584
# Velocity P-wave (km/s) = 6.58229 6.91548 6.75094
#
# Compressibility (1/GPa) = 0.02120789
#
# Stress axis : x y z
#
# Youngs Moduli (GPa) = 92.66102 109.44209 81.07476
#
# Poissons Ratio (x) = 0.03674 0.23012
# Poissons Ratio (y) = 0.03110 0.19083
# Poissons Ratio (z) = 0.26301 0.25760
#
# Static dielectric constant tensor:
#      x y z
#    x 4.092450 -0.082510 -0.011740 
#    y -0.082510 4.317920 0.178250 
#    z -0.011740 0.178250 3.968700 
# 
# 
# High freq. dielectric constant tensor:
#      x y z
#    x 1.904280 -0.003050 0.007080 
#    y -0.003050 1.916620 0.006330 
#    z 0.007080 0.006330 1.898260 
# 
# From -- ./inp_files/226640.got.cif
#   From: 2010.06.25/outbox.cif.g09.slc.cpg/sg2_114_cif.got.tgz:226640.got - 2010.06.27 13:26:56.
