data_PCOD8035751
_publ_section_title
;
Structure prediction by ZEFSAII (Michael W. Deem and Ramdas Pophale) SiO2 
 PCOD8035751
Probable space group: P -1
;
_chemical_formula_sum "Si O2"
_cell_formula_units_Z 12
_cell_length_a 8.483461
_cell_length_b 11.544987
_cell_length_c 9.412438
_cell_angle_alpha 142.196318
_cell_angle_beta 87.095093
_cell_angle_gamma 110.744830
_cell_volume 484.356061
_symmetry_space_group_name_H-M "P -1"
_symmetry_group_IT_number 2
_symmetry_cell_setting 'triclinic'
loop_
_space_group_symop_operation_xyz
x,y,z
-x,-y,-z
loop_
_atom_site_type_symbol
_atom_site_label
_atom_site_fract_x
_atom_site_fract_y
_atom_site_fract_z
Si Si1 0.240920 0.194153 0.421015
Si Si2 0.419213 0.120028 0.800544
Si Si3 0.589247 0.311435 0.685711
Si Si4 0.129258 0.396984 0.406398
Si Si5 0.506829 0.785932 0.802857
Si Si6 0.887673 0.789881 0.063215
O O1 0.415244 0.325610 0.646178
O O2 0.128678 0.313674 0.488841
O O3 0.309495 0.168741 0.238183
O O4 0.097842 0.956645 0.270228
O O5 0.557106 0.256639 0.800183
O O6 0.218767 0.088360 0.761857
O O7 0.400090 0.881214 0.584971
O O8 0.499323 0.267768 0.081839
O O9 0.783400 0.541381 0.889064
O O10 0.336119 0.585073 0.537388
O O11 0.000000 0.500000 0.500000
O O12 0.081469 0.212819 0.110210
O O13 0.500000 0.000000 0.000000
#
# Coordination Sequence:
#
# PCOD8035751 Si02
#       6
#     2   2   2   2   2   2
#     4  12  25  43  73 105 140 183 237 291 356 416
#     4  11  25  46  76 101 143 190 236 288 353 424
#     4  11  26  50  70 104 145 188 235 291 351 422
#     4  12  26  41  70 110 144 181 236 301 350 415
#     4  12  22  44  73 104 137 185 234 291 357 415
#     4  12  25  44  73 104 143 184 236 293 352 417
#
# _framework density 24.775161000000001
#
# number of rings (size 3 to 8) (size 9 to 14) (size 15 to 20)
#    0.000    0.333    5.000    3.500    4.667    0.667 
#    0.000    3.333    0.000    0.000    0.000    0.000 
#    0.000    0.000    0.000    0.000    0.000    0.000 
#
# Total GULP energy -148699.510457 kJ/mol
# GULP energy per Si atom -12391.625871 kJ/mol
# Density = 2.471877 g / cm^3
# Si number density = 24.775161 Si / 1000 Ang^3
#
#
#
# Elastic Constant Matrix: (Units=GPa)
#
#
# Indices 1 2 3 4 5 6 
#
# 1 93.3170 38.7394 23.0947 15.1845 -6.5594 8.1898
# 2 38.7394 113.8551 20.9451 24.0605 18.8158 5.4814
# 3 23.0947 20.9451 39.7455 11.8557 3.3167 10.7043
# 4 15.1845 24.0605 11.8557 48.9388 10.5916 2.1026
# 5 -6.5594 18.8158 3.3167 10.5916 36.4991 11.9533
# 6 8.1898 5.4814 10.7043 2.1026 11.9533 43.3002
#
#
#
# Elastic Compliance Matrix: (Units=1/GPa)
#
#
# Indices 1 2 3 4 5 6 
#
# 1 0.015191 -0.004703 -0.005438 -0.002545 0.007314 -0.002829
# 2 -0.004703 0.012544 -0.003111 -0.002533 -0.006989 0.002123
# 3 -0.005438 -0.003111 0.033136 -0.004788 0.001259 -0.006884
# 4 -0.002545 -0.002533 -0.004788 0.024995 -0.006841 0.002660
# 5 0.007314 -0.006989 0.001259 -0.006841 0.037756 -0.010900
# 6 -0.002829 0.002123 -0.006884 0.002660 -0.010900 0.027943
#
#
# Mechanical properties :
#
#
# Convention : Reuss Voigt Hill
#
# Bulk Modulus (GPa) = 29.09671 45.83065 37.46368
# Shear Modulus (GPa) = 26.38210 36.69016 31.53613
#
# Velocity S-wave (km/s) = 3.26676 3.85245 3.57163
# Velocity P-wave (km/s) = 5.09890 6.19091 5.67125
#
# Compressibility (1/GPa) = 0.03436814
#
# Stress axis : x y z
#
# Youngs Moduli (GPa) = 65.82930 79.72186 30.17861
#
# Poissons Ratio (x) = 0.37493 0.16410
# Poissons Ratio (y) = 0.30959 0.09387
# Poissons Ratio (z) = 0.35796 0.24798
#
# Static dielectric constant tensor:
#      x y z
#    x 4.295280 0.099200 -0.758460 
#    y 0.099200 4.392640 0.834130 
#    z -0.758460 0.834130 2.031900 
# 
# 
# High freq. dielectric constant tensor:
#      x y z
#    x 1.979610 0.002220 -0.007430 
#    y 0.002220 1.994400 0.010480 
#    z -0.007430 0.010480 1.981560 
# 
# From -- ./inp_files/191085.got.cif
#   From: 2010.06.25/outbox.cif.g09.slc.cpg/sg2_96_cif.got.tgz:191085.got - 2010.06.27 13:26:56.
