data_PCOD8035972
_publ_section_title
;
Structure prediction by ZEFSAII (Michael W. Deem and Ramdas Pophale) SiO2 
 PCOD8035972
Probable space group: P -1
;
_chemical_formula_sum "Si O2"
_cell_formula_units_Z 12
_cell_length_a 16.711201
_cell_length_b 8.259675
_cell_length_c 16.976324
_cell_angle_alpha 48.346530
_cell_angle_beta 162.833867
_cell_angle_gamma 133.755256
_cell_volume 499.452602
_symmetry_space_group_name_H-M "P -1"
_symmetry_group_IT_number 2
_symmetry_cell_setting 'triclinic'
loop_
_space_group_symop_operation_xyz
x,y,z
-x,-y,-z
loop_
_atom_site_type_symbol
_atom_site_label
_atom_site_fract_x
_atom_site_fract_y
_atom_site_fract_z
Si Si1 0.234412 0.333866 0.946408
Si Si2 0.425425 0.330612 0.413286
Si Si3 0.975069 0.556213 0.124492
Si Si4 0.687760 0.067892 0.452497
Si Si5 0.362187 0.202990 0.811302
Si Si6 0.913123 0.877034 0.582100
O O1 0.409561 0.152338 0.155264
O O2 0.421446 0.580211 0.019578
O O3 0.134510 0.321306 0.946535
O O4 0.964171 0.275344 0.653885
O O5 0.500000 0.500000 0.500000
O O6 0.689622 0.350843 0.597754
O O7 0.325166 0.079793 0.433363
O O8 0.170222 0.390590 0.108321
O O9 0.903739 0.287042 0.159446
O O10 0.702905 0.920394 0.437059
O O11 0.259480 0.257825 0.610616
O O12 0.102474 0.119044 0.654126
O O13 0.500000 0.000000 0.000000
#
# Coordination Sequence:
#
# PCOD8035972 Si02
#       6
#     2   2   2   2   2   2
#     4  12  28  47  71 111 152 187 236 307 370 421
#     4  12  26  44  77 109 141 194 251 289 354 433
#     4  12  25  47  77 102 148 195 242 292 354 441
#     4  12  29  46  72 113 152 182 242 310 364 413
#     4  11  25  48  79 103 140 198 251 284 371 446
#     4  11  26  46  78 107 141 194 249 301 352 441
#
# _framework density 24.026304
#
# number of rings (size 3 to 8) (size 9 to 14) (size 15 to 20)
#    0.000    0.333    3.333    4.500    7.000    5.333 
#    0.000    0.000    0.000    0.000    0.000    0.000 
#    0.000    0.000    0.000    0.000    0.000    0.000 
#
# Total GULP energy -148889.147005 kJ/mol
# GULP energy per Si atom -12407.428917 kJ/mol
# Density = 2.397162 g / cm^3
# Si number density = 24.026304 Si / 1000 Ang^3
#
#
#
# Elastic Constant Matrix: (Units=GPa)
#
#
# Indices 1 2 3 4 5 6 
#
# 1 105.7801 17.9990 22.4087 -13.8264 18.6389 3.7905
# 2 17.9990 92.5596 11.9301 1.7114 3.2386 14.5848
# 3 22.4087 11.9301 81.7603 -6.9614 19.9508 5.6215
# 4 -13.8264 1.7114 -6.9614 48.2585 -2.7611 4.3342
# 5 18.6389 3.2386 19.9508 -2.7611 29.8204 -7.7065
# 6 3.7905 14.5848 5.6215 4.3342 -7.7065 37.3754
#
#
#
# Elastic Compliance Matrix: (Units=1/GPa)
#
#
# Indices 1 2 3 4 5 6 
#
# 1 0.011582 -0.001619 -0.000883 0.003056 -0.006746 -0.002155
# 2 -0.001619 0.011981 -0.000813 -0.000656 -0.000973 -0.004513
# 3 -0.000883 -0.000813 0.015690 0.001814 -0.010824 -0.004395
# 4 0.003056 -0.000656 0.001814 0.022070 -0.001854 -0.003268
# 5 -0.006746 -0.000973 -0.010824 -0.001854 0.048249 0.012855
# 6 -0.002155 -0.004513 -0.004395 -0.003268 0.012855 0.032426
#
#
# Mechanical properties :
#
#
# Convention : Reuss Voigt Hill
#
# Bulk Modulus (GPa) = 30.65480 42.75282 36.70381
# Shear Modulus (GPa) = 31.34786 38.27501 34.81143
#
# Velocity S-wave (km/s) = 3.61602 3.99563 3.81056
# Velocity P-wave (km/s) = 5.49734 6.25456 5.88813
#
# Compressibility (1/GPa) = 0.03262132
#
# Stress axis : x y z
#
# Youngs Moduli (GPa) = 86.34408 83.46715 63.73655
#
# Poissons Ratio (x) = 0.13514 0.05631
# Poissons Ratio (y) = 0.13980 0.05180
# Poissons Ratio (z) = 0.07628 0.06783
#
# Static dielectric constant tensor:
#      x y z
#    x 4.511680 0.345070 0.149040 
#    y 0.345070 4.549470 0.094130 
#    z 0.149040 0.094130 4.424270 
# 
# 
# High freq. dielectric constant tensor:
#      x y z
#    x 1.957610 0.009620 0.011110 
#    y 0.009620 1.953810 -0.001210 
#    z 0.011110 -0.001210 1.960320 
# 
# From -- ./inp_files/440471.got.cif
#   From: 2010.06.25/outbox.cif.g09.slc.cpg/sg2_221_cif.got.tgz:440471.got - 2010.06.27 13:26:56.
