data_PCOD8035753
_publ_section_title
;
Structure prediction by ZEFSAII (Michael W. Deem and Ramdas Pophale) SiO2 
 PCOD8035753
Probable space group: P -1
;
_chemical_formula_sum "Si O2"
_cell_formula_units_Z 16
_cell_length_a 12.450001
_cell_length_b 9.661672
_cell_length_c 21.196894
_cell_angle_alpha 35.951770
_cell_angle_beta 153.572662
_cell_angle_gamma 136.069361
_cell_volume 666.129404
_symmetry_space_group_name_H-M "P -1"
_symmetry_group_IT_number 2
_symmetry_cell_setting 'triclinic'
loop_
_space_group_symop_operation_xyz
x,y,z
-x,-y,-z
loop_
_atom_site_type_symbol
_atom_site_label
_atom_site_fract_x
_atom_site_fract_y
_atom_site_fract_z
Si Si1 0.278150 0.183454 0.643924
Si Si2 0.612906 0.728288 0.006709
Si Si3 0.401951 0.758754 0.011275
Si Si4 0.580397 0.761515 0.439220
Si Si5 0.772388 0.639345 0.851244
Si Si6 0.662829 0.297178 0.478558
Si Si7 0.864051 0.101984 0.786450
Si Si8 0.929783 0.995316 0.626119
O O1 0.251873 0.212642 0.543728
O O2 0.355999 0.418230 0.634620
O O3 0.026160 0.121366 0.566894
O O4 0.472116 0.973228 0.831498
O O5 0.890373 0.760888 0.119951
O O6 0.500000 0.500000 0.000000
O O7 0.592213 0.674125 0.089768
O O8 0.128822 0.810876 0.825640
O O9 0.407123 0.538878 0.142607
O O10 0.500000 0.000000 0.000000
O O11 0.500000 0.500000 0.500000
O O12 0.317651 0.894491 0.250121
O O13 0.709124 0.843179 0.541050
O O14 0.611823 0.771397 0.662917
O O15 0.901835 0.826777 0.894930
O O16 0.000000 0.500000 0.000000
O O17 0.732756 0.217933 0.614142
O O18 0.850536 0.188591 0.565666
#
# Coordination Sequence:
#
# PCOD8035753 Si02
#       8
#     2   2   2   2   2   2   2   2
#     4  11  26  47  72 103 145 193 242 291 364 429
#     4  11  28  50  72 103 144 195 242 295 360 434
#     4  11  25  48  72 106 146 190 240 294 360 427
#     4  12  27  46  70 108 148 188 238 299 366 428
#     4  12  25  43  74 109 147 187 235 301 365 429
#     4  12  24  45  74 109 143 182 247 297 361 426
#     4  12  27  46  73 108 146 190 243 302 362 432
#     4  11  25  46  76 104 143 188 243 299 358 427
#
# _framework density 24.019359000000001
#
# number of rings (size 3 to 8) (size 9 to 14) (size 15 to 20)
#    0.000    0.500    2.500    5.625    7.000    3.500 
#    0.000    0.000    0.000    0.000    0.000    0.000 
#    0.000    0.000    0.000    0.000    0.000    0.000 
#
# Total GULP energy -198282.137942 kJ/mol
# GULP energy per Si atom -12392.633621 kJ/mol
# Density = 2.396469 g / cm^3
# Si number density = 24.019359 Si / 1000 Ang^3
#
#
#
# Elastic Constant Matrix: (Units=GPa)
#
#
# Indices 1 2 3 4 5 6 
#
# 1 104.0765 24.9056 17.3863 -0.8346 9.4681 -11.7829
# 2 24.9056 165.0113 18.3844 0.7403 6.8614 -7.2530
# 3 17.3863 18.3844 65.7072 2.6790 15.3040 0.1602
# 4 -0.8346 0.7403 2.6790 41.2285 2.8317 6.1062
# 5 9.4681 6.8614 15.3040 2.8317 43.4141 -4.9249
# 6 -11.7829 -7.2530 0.1602 6.1062 -4.9249 38.2452
#
#
#
# Elastic Compliance Matrix: (Units=1/GPa)
#
#
# Indices 1 2 3 4 5 6 
#
# 1 0.010698 -0.001190 -0.002270 0.000019 -0.001012 0.002946
# 2 -0.001190 0.006446 -0.001452 -0.000165 -0.000138 0.000870
# 3 -0.002270 -0.001452 0.017561 -0.000525 -0.005623 -0.001689
# 4 0.000019 -0.000165 -0.000525 0.025056 -0.001912 -0.004270
# 5 -0.001012 -0.000138 -0.005623 -0.001912 0.025759 0.003308
# 6 0.002946 0.000870 -0.001689 -0.004270 0.003308 0.028335
#
#
# Mechanical properties :
#
#
# Convention : Reuss Voigt Hill
#
# Bulk Modulus (GPa) = 40.19112 50.68307 45.43709
# Shear Modulus (GPa) = 37.88639 42.85213 40.36926
#
# Velocity S-wave (km/s) = 3.97587 4.22840 4.10408
# Velocity P-wave (km/s) = 6.15190 6.70715 6.43552
#
# Compressibility (1/GPa) = 0.02488112
#
# Stress axis : x y z
#
# Youngs Moduli (GPa) = 93.47426 155.12661 56.94380
#
# Poissons Ratio (x) = 0.18465 0.12926
# Poissons Ratio (y) = 0.11126 0.08268
# Poissons Ratio (z) = 0.21219 0.22524
#
# Static dielectric constant tensor:
#      x y z
#    x 3.587170 -0.385030 -0.387480 
#    y -0.385030 4.514520 -0.166510 
#    z -0.387480 -0.166510 4.181820 
# 
# 
# High freq. dielectric constant tensor:
#      x y z
#    x 1.965370 -0.001300 0.013000 
#    y -0.001300 1.971590 -0.010320 
#    z 0.013000 -0.010320 1.946480 
# 
# From -- ./inp_files/594000.got.cif
#   From: 2010.06.25/outbox.cif.g09.slc.cpg/sg2_297_cif.got.tgz:594000.got - 2010.06.27 13:26:56.
