data_PCOD8035689
_publ_section_title
;
Structure prediction by ZEFSAII (Michael W. Deem and Ramdas Pophale) SiO2 
 PCOD8035689
Probable space group: P -1
;
_chemical_formula_sum "Si O2"
_cell_formula_units_Z 14
_cell_length_a 11.026533
_cell_length_b 10.759691
_cell_length_c 24.964700
_cell_angle_alpha 34.539201
_cell_angle_beta 159.635020
_cell_angle_gamma 137.726977
_cell_volume 576.505483
_symmetry_space_group_name_H-M "P -1"
_symmetry_group_IT_number 2
_symmetry_cell_setting 'triclinic'
loop_
_space_group_symop_operation_xyz
x,y,z
-x,-y,-z
loop_
_atom_site_type_symbol
_atom_site_label
_atom_site_fract_x
_atom_site_fract_y
_atom_site_fract_z
Si Si1 0.948036 0.565616 0.607237
Si Si2 0.667853 0.785616 0.176842
Si Si3 0.872984 0.413504 0.920714
Si Si4 0.687169 0.195908 0.489859
Si Si5 0.983376 0.991749 0.412082
Si Si6 0.211027 0.440033 0.338751
Si Si7 0.197830 0.203093 0.028204
O O1 0.575998 0.520965 0.444713
O O2 0.941253 0.479384 0.695311
O O3 0.290176 0.420687 0.773623
O O4 0.998575 0.824946 0.529034
O O5 0.387659 0.760833 0.115010
O O6 0.054287 0.776921 0.364085
O O7 0.500000 0.000000 0.000000
O O8 0.641289 0.607099 0.721973
O O9 0.000000 0.500000 0.000000
O O10 0.171104 0.269280 0.057358
O O11 0.500000 0.000000 0.500000
O O12 0.926148 0.166600 0.545731
O O13 0.599936 0.137900 0.200395
O O14 0.255231 0.169104 0.456877
O O15 0.934716 0.563055 0.138519
O O16 0.000000 0.000000 0.000000
#
# Coordination Sequence:
#
# PCOD8035689 Si02
#       7
#     2   2   2   2   2   2   2
#     4  11  25  46  72 108 145 193 251 313 377 456
#     4  12  27  45  75 105 154 199 257 314 393 456
#     4  12  28  48  77 115 155 200 262 316 387 471
#     4  12  26  49  77 110 154 203 256 320 393 463
#     4  12  25  45  78 104 148 202 251 311 388 455
#     4  11  26  45  73 107 150 192 249 312 383 455
#     4  12  26  47  76 111 154 203 254 315 388 464
#
# _framework density 24.284244999999999
#
# number of rings (size 3 to 8) (size 9 to 14) (size 15 to 20)
#    0.000    0.286    2.857    5.571    6.000    1.143 
#    0.000    0.000    0.000    0.000    0.000    0.000 
#    0.000    0.000    0.000    0.000    0.000    0.000 
#
# Total GULP energy -173473.810409 kJ/mol
# GULP energy per Si atom -12390.986458 kJ/mol
# Density = 2.422897 g / cm^3
# Si number density = 24.284245 Si / 1000 Ang^3
#
#
#
# Elastic Constant Matrix: (Units=GPa)
#
#
# Indices 1 2 3 4 5 6 
#
# 1 111.8044 18.1034 31.3936 -6.8539 22.4227 0.3972
# 2 18.1034 121.4608 24.7992 -18.1887 -9.1075 14.4726
# 3 31.3936 24.7992 99.1351 -18.5904 -7.6120 -0.6873
# 4 -6.8539 -18.1887 -18.5904 40.1271 1.1220 -12.3445
# 5 22.4227 -9.1075 -7.6120 1.1220 46.6103 -9.7766
# 6 0.3972 14.4726 -0.6873 -12.3445 -9.7766 50.6744
#
#
#
# Elastic Compliance Matrix: (Units=1/GPa)
#
#
# Indices 1 2 3 4 5 6 
#
# 1 0.011599 -0.001377 -0.003981 -0.000673 -0.006738 -0.001215
# 2 -0.001377 0.009468 -0.001250 0.002922 0.001896 -0.001633
# 3 -0.003981 -0.001250 0.013039 0.005514 0.004239 0.002726
# 4 -0.000673 0.002922 0.005514 0.030845 0.002575 0.007256
# 5 -0.006738 0.001896 0.004239 0.002575 0.026823 0.005371
# 6 -0.001215 -0.001633 0.002726 0.007256 0.005371 0.023051
#
#
# Mechanical properties :
#
#
# Convention : Reuss Voigt Hill
#
# Bulk Modulus (GPa) = 47.86944 53.44365 50.65654
# Shear Modulus (GPa) = 37.03570 44.68929 40.86249
#
# Velocity S-wave (km/s) = 3.90948 4.29448 4.10649
# Velocity P-wave (km/s) = 6.33511 6.82974 6.58707
#
# Compressibility (1/GPa) = 0.02089015
#
# Stress axis : x y z
#
# Youngs Moduli (GPa) = 86.21193 105.62048 76.69275
#
# Poissons Ratio (x) = 0.14547 0.30529
# Poissons Ratio (y) = 0.11874 0.09588
# Poissons Ratio (z) = 0.34318 0.13204
#
# Static dielectric constant tensor:
#      x y z
#    x 4.872850 0.008430 0.178450 
#    y 0.008430 4.560590 -0.022140 
#    z 0.178450 -0.022140 4.256200 
# 
# 
# High freq. dielectric constant tensor:
#      x y z
#    x 1.990110 0.009410 0.006100 
#    y 0.009410 1.969660 -0.008760 
#    z 0.006100 -0.008760 1.960920 
# 
# From -- ./inp_files/381901.got.cif
#   From: 2010.06.25/outbox.cif.g09.slc.cpg/sg2_191_cif.got.tgz:381901.got - 2010.06.27 13:26:56.
