data_PCOD8035935
_publ_section_title
;
Structure prediction by ZEFSAII (Michael W. Deem and Ramdas Pophale) SiO2 
 PCOD8035935
Probable space group: P -1
;
_chemical_formula_sum "Si O2"
_cell_formula_units_Z 12
_cell_length_a 13.003636
_cell_length_b 13.635027
_cell_length_c 5.175061
_cell_angle_alpha 65.722355
_cell_angle_beta 117.366118
_cell_angle_gamma 148.382037
_cell_volume 426.818301
_symmetry_space_group_name_H-M "P -1"
_symmetry_group_IT_number 2
_symmetry_cell_setting 'triclinic'
loop_
_space_group_symop_operation_xyz
x,y,z
-x,-y,-z
loop_
_atom_site_type_symbol
_atom_site_label
_atom_site_fract_x
_atom_site_fract_y
_atom_site_fract_z
Si Si1 0.841285 0.486153 0.919760
Si Si2 0.768150 0.306094 0.521614
Si Si3 0.578633 0.470831 0.817804
Si Si4 0.314620 0.004582 0.275378
Si Si5 0.903164 0.126815 0.325296
Si Si6 0.179551 0.207737 0.877093
O O1 0.795962 0.360486 0.794034
O O2 0.647726 0.415225 0.815203
O O3 0.029864 0.698418 0.808744
O O4 0.908478 0.475673 0.279797
O O5 0.769673 0.180163 0.632938
O O6 0.552346 0.188717 0.308844
O O7 0.500000 0.500000 0.500000
O O8 0.385961 0.297606 0.968480
O O9 0.768210 0.657081 0.005131
O O10 0.251852 0.007769 0.472404
O O11 0.208161 0.993323 0.936299
O O12 0.100781 0.203236 0.523638
O O13 0.000000 0.000000 0.000000
#
# Coordination Sequence:
#
# PCOD8035935 Si02
#       6
#     2   2   2   2   2   2
#     4  12  25  45  74 105 145 190 237 296 371 423
#     4  11  26  47  73 105 142 195 237 295 372 427
#     4  11  25  48  74 106 152 191 244 305 357 448
#     4  11  26  47  72 106 146 183 248 300 351 443
#     4  12  25  46  72 108 144 183 245 302 353 439
#     4  11  27  48  75 110 147 196 246 300 370 433
#
# _framework density 28.115008
#
# number of rings (size 3 to 8) (size 9 to 14) (size 15 to 20)
#    0.000    0.667    1.667    5.000    4.667    8.667 
#    3.000    0.000    0.000    0.000    0.000    0.000 
#    0.000    0.000    0.000    0.000    0.000    0.000 
#
# Total GULP energy -148887.410894 kJ/mol
# GULP energy per Si atom -12407.284241 kJ/mol
# Density = 2.805102 g / cm^3
# Si number density = 28.115008 Si / 1000 Ang^3
#
#
#
# Elastic Constant Matrix: (Units=GPa)
#
#
# Indices 1 2 3 4 5 6 
#
# 1 134.3763 17.7802 28.4719 -1.2650 -12.0640 24.0532
# 2 17.7802 136.5371 42.9149 4.3736 -17.6389 15.2705
# 3 28.4719 42.9149 210.9931 24.7175 -5.2782 12.3804
# 4 -1.2650 4.3736 24.7175 43.2576 7.4542 1.5933
# 5 -12.0640 -17.6389 -5.2782 7.4542 46.1460 7.0313
# 6 24.0532 15.2705 12.3804 1.5933 7.0313 31.8586
#
#
#
# Elastic Compliance Matrix: (Units=1/GPa)
#
#
# Indices 1 2 3 4 5 6 
#
# 1 0.009263 0.000359 -0.000829 0.000375 0.003569 -0.007650
# 2 0.000359 0.008807 -0.001379 -0.000628 0.004141 -0.004839
# 3 -0.000829 -0.001379 0.005559 -0.003121 0.000523 -0.000833
# 4 0.000375 -0.000628 -0.003121 0.025768 -0.004814 0.001004
# 5 0.003569 0.004141 0.000523 -0.004814 0.026627 -0.010519
# 6 -0.007650 -0.004839 -0.000833 0.001004 -0.010519 0.042079
#
#
# Mechanical properties :
#
#
# Convention : Reuss Voigt Hill
#
# Bulk Modulus (GPa) = 50.16934 73.36008 61.76471
# Shear Modulus (GPa) = 38.92740 50.43508 44.68124
#
# Velocity S-wave (km/s) = 3.72503 4.24002 3.99084
# Velocity P-wave (km/s) = 6.03193 7.07954 6.57663
#
# Compressibility (1/GPa) = 0.01993249
#
# Stress axis : x y z
#
# Youngs Moduli (GPa) = 107.95370 113.54711 179.87762
#
# Poissons Ratio (x) = -0.04075 0.14907
# Poissons Ratio (y) = -0.03874 0.24799
# Poissons Ratio (z) = 0.08947 0.15654
#
# Static dielectric constant tensor:
#      x y z
#    x 5.373040 0.506170 0.178760 
#    y 0.506170 5.362090 0.109310 
#    z 0.178760 0.109310 5.653050 
# 
# 
# High freq. dielectric constant tensor:
#      x y z
#    x 2.152390 0.024030 0.009990 
#    y 0.024030 2.154120 0.002310 
#    z 0.009990 0.002310 2.159470 
# 
# From -- ./inp_files/55455.got.cif
#   From: 2010.06.25/outbox.cif.g09.slc.cpg/sg2_28_cif.got.tgz:55455.got - 2010.06.27 13:26:56.
