data_PCOD8035409
_publ_section_title
;
Structure prediction by ZEFSAII (Michael W. Deem and Ramdas Pophale) SiO2 
 PCOD8035409
Probable space group: P -1
;
_chemical_formula_sum "Si O2"
_cell_formula_units_Z 14
_cell_length_a 13.400690
_cell_length_b 10.948733
_cell_length_c 10.224613
_cell_angle_alpha 61.140140
_cell_angle_beta 143.992053
_cell_angle_gamma 136.357881
_cell_volume 588.840291
_symmetry_space_group_name_H-M "P -1"
_symmetry_group_IT_number 2
_symmetry_cell_setting 'triclinic'
loop_
_space_group_symop_operation_xyz
x,y,z
-x,-y,-z
loop_
_atom_site_type_symbol
_atom_site_label
_atom_site_fract_x
_atom_site_fract_y
_atom_site_fract_z
Si Si1 0.965526 0.499128 0.615678
Si Si2 0.366584 0.015357 0.169215
Si Si3 0.349914 0.820270 0.022575
Si Si4 0.971103 0.944261 0.265931
Si Si5 0.592709 0.663651 0.409403
Si Si6 0.665784 0.579869 0.256594
Si Si7 0.809617 0.138398 0.658361
O O1 0.729054 0.451498 0.413853
O O2 0.978169 0.350905 0.767864
O O3 0.000000 0.500000 0.500000
O O4 0.150793 0.685332 0.785719
O O5 0.302603 0.973680 0.273051
O O6 0.630967 0.123258 0.381354
O O7 0.255111 0.846570 0.037756
O O8 0.274994 0.118569 0.980205
O O9 0.466544 0.743334 0.241391
O O10 0.500000 0.000000 0.000000
O O11 0.146036 0.156342 0.387108
O O12 0.069038 0.926394 0.247853
O O13 0.905060 0.786082 0.378204
O O14 0.500000 0.500000 0.500000
O O15 0.551675 0.578440 0.266497
O O16 0.500000 0.500000 0.000000
#
# Coordination Sequence:
#
# PCOD8035409 Si02
#       7
#     2   2   2   2   2   2   2
#     4  12  24  43  72 102 140 187 247 301 371 444
#     4  11  25  44  73 104 142 194 241 305 375 449
#     4  12  25  48  74 103 147 197 252 307 374 455
#     4  12  24  49  75 105 151 198 248 304 383 447
#     4  12  29  47  76 115 154 197 259 320 380 453
#     4  12  26  47  76 111 149 197 258 310 380 465
#     4  11  25  45  70 108 147 186 246 304 378 443
#
# _framework density 23.775545999999999
#
# number of rings (size 3 to 8) (size 9 to 14) (size 15 to 20)
#    0.000    0.286    2.857    6.000    4.000    1.714 
#    0.000    0.000    0.000    0.000    0.000    0.000 
#    0.000    0.000    0.000    0.000    0.000    0.000 
#
# Total GULP energy -173480.031885 kJ/mol
# GULP energy per Si atom -12391.430849 kJ/mol
# Density = 2.372143 g / cm^3
# Si number density = 23.775546 Si / 1000 Ang^3
#
#
#
# Elastic Constant Matrix: (Units=GPa)
#
#
# Indices 1 2 3 4 5 6 
#
# 1 159.8406 25.3402 43.3367 -3.7464 3.5151 -24.0733
# 2 25.3402 95.2555 23.5952 -4.6517 -8.0889 -7.0749
# 3 43.3367 23.5952 109.1920 -5.7756 7.9675 -17.5172
# 4 -3.7464 -4.6517 -5.7756 41.8342 -9.8476 1.0388
# 5 3.5151 -8.0889 7.9675 -9.8476 41.2989 -7.2600
# 6 -24.0733 -7.0749 -17.5172 1.0388 -7.2600 40.2680
#
#
#
# Elastic Compliance Matrix: (Units=1/GPa)
#
#
# Indices 1 2 3 4 5 6 
#
# 1 0.007550 -0.001186 -0.002202 0.000201 0.000191 0.003377
# 2 -0.001186 0.011772 -0.002066 0.001690 0.003389 0.001028
# 3 -0.002202 -0.002066 0.011089 0.000631 -0.001710 0.002820
# 4 0.000201 0.001690 0.000631 0.025705 0.006533 0.001207
# 5 0.000191 0.003389 -0.001710 0.006533 0.027588 0.004771
# 6 0.003377 0.001028 0.002820 0.001207 0.004771 0.029089
#
#
# Mechanical properties :
#
#
# Convention : Reuss Voigt Hill
#
# Bulk Modulus (GPa) = 51.27361 60.98136 56.12749
# Shear Modulus (GPa) = 38.40175 42.81461 40.60818
#
# Velocity S-wave (km/s) = 4.02329 4.24817 4.13726
# Velocity P-wave (km/s) = 6.57229 7.05457 6.81770
#
# Compressibility (1/GPa) = 0.01950321
#
# Stress axis : x y z
#
# Youngs Moduli (GPa) = 132.44376 84.94706 90.17856
#
# Poissons Ratio (x) = 0.10077 0.19856
# Poissons Ratio (y) = 0.15711 0.18631
# Poissons Ratio (z) = 0.29162 0.17550
#
# Static dielectric constant tensor:
#      x y z
#    x 4.246590 -0.646590 0.147830 
#    y -0.646590 0.040460 0.204650 
#    z 0.147830 0.204650 4.603070 
# 
# 
# High freq. dielectric constant tensor:
#      x y z
#    x 1.951810 -0.019120 0.006600 
#    y -0.019120 1.948700 -0.005320 
#    z 0.006600 -0.005320 1.950350 
# 
# From -- ./inp_files/451177.got.cif
#   From: 2010.06.25/outbox.cif.g09.slc.cpg/sg2_226_cif.got.tgz:451177.got - 2010.06.27 13:26:56.
