data_PCOD8035221
_publ_section_title
;
Structure prediction by ZEFSAII (Michael W. Deem and Ramdas Pophale) SiO2 
 PCOD8035221
Probable space group: P -1
;
_chemical_formula_sum "Si O2"
_cell_formula_units_Z 14
_cell_length_a 11.165466
_cell_length_b 9.482925
_cell_length_c 7.925014
_cell_angle_alpha 79.646280
_cell_angle_beta 80.090465
_cell_angle_gamma 41.083856
_cell_volume 541.582048
_symmetry_space_group_name_H-M "P -1"
_symmetry_group_IT_number 2
_symmetry_cell_setting 'triclinic'
loop_
_space_group_symop_operation_xyz
x,y,z
-x,-y,-z
loop_
_atom_site_type_symbol
_atom_site_label
_atom_site_fract_x
_atom_site_fract_y
_atom_site_fract_z
Si Si1 0.934917 0.396321 0.557236
Si Si2 0.544871 0.801805 0.972807
Si Si3 0.337341 0.714538 0.147825
Si Si4 0.121123 0.661697 0.044193
Si Si5 0.633183 0.318987 0.369796
Si Si6 0.023934 0.116815 0.302335
Si Si7 0.539225 0.806746 0.585504
O O1 0.965333 0.317036 0.761431
O O2 0.044791 0.206025 0.434488
O O3 0.723029 0.577425 0.510078
O O4 0.000000 0.500000 0.500000
O O5 0.741536 0.569646 0.036569
O O6 0.581437 0.776221 0.774888
O O7 0.383321 0.835065 0.050862
O O8 0.500000 0.000000 0.000000
O O9 0.222790 0.724148 0.037567
O O10 0.523653 0.461897 0.193790
O O11 0.203793 0.854551 0.316092
O O12 0.969374 0.817806 0.901551
O O13 0.500000 0.500000 0.500000
O O14 0.841863 0.182716 0.351486
O O15 0.630759 0.147588 0.424305
O O16 0.500000 0.000000 0.500000
#
# Coordination Sequence:
#
# PCOD8035221 Si02
#       7
#     2   2   2   2   2   2   2
#     4  11  27  48  69 113 158 190 252 319 372 453
#     4  11  25  43  74 104 146 198 244 307 374 443
#     4  12  25  48  78 111 151 194 257 316 368 449
#     4  11  24  50  74 106 153 198 252 312 376 444
#     4  12  24  48  77 110 152 195 253 313 370 451
#     4  12  27  45  84 112 142 207 255 305 384 449
#     4  11  26  46  71 105 150 199 238 310 387 435
#
# _framework density 25.850190999999999
#
# number of rings (size 3 to 8) (size 9 to 14) (size 15 to 20)
#    0.000    0.571    5.714    1.714    8.000    5.143 
#    0.000    0.000    0.000    0.000    0.000    0.000 
#    0.000    0.000    0.000    0.000    0.000    0.000 
#
# Total GULP energy -173508.724779 kJ/mol
# GULP energy per Si atom -12393.480341 kJ/mol
# Density = 2.579136 g / cm^3
# Si number density = 25.850191 Si / 1000 Ang^3
#
#
#
# Elastic Constant Matrix: (Units=GPa)
#
#
# Indices 1 2 3 4 5 6 
#
# 1 129.2028 54.4404 32.2016 -4.8312 -21.7823 24.0695
# 2 54.4404 139.3715 19.1088 28.7525 -14.1238 17.5983
# 3 32.2016 19.1088 101.4655 4.9484 -20.5101 9.6630
# 4 -4.8312 28.7525 4.9484 42.2317 14.5964 -6.4425
# 5 -21.7823 -14.1238 -20.5101 14.5964 31.4882 3.4845
# 6 24.0695 17.5983 9.6630 -6.4425 3.4845 52.4663
#
#
#
# Elastic Compliance Matrix: (Units=1/GPa)
#
#
# Indices 1 2 3 4 5 6 
#
# 1 0.011204 -0.003547 -0.001662 0.001693 0.004707 -0.003749
# 2 -0.003547 0.013451 0.002545 -0.015283 0.012996 -0.006093
# 3 -0.001662 0.002545 0.013463 -0.008805 0.013345 -0.004538
# 4 0.001693 -0.015283 -0.008805 0.050045 -0.036225 0.014522
# 5 0.004707 0.012996 0.013345 -0.036225 0.068315 -0.017962
# 6 -0.003749 -0.006093 -0.004538 0.014522 -0.017962 0.026635
#
#
# Mechanical properties :
#
#
# Convention : Reuss Voigt Hill
#
# Bulk Modulus (GPa) = 30.49727 64.61570 47.55649
# Shear Modulus (GPa) = 25.07875 42.85652 33.96764
#
# Velocity S-wave (km/s) = 3.11811 4.07612 3.62887
# Velocity P-wave (km/s) = 4.97864 6.87048 5.99960
#
# Compressibility (1/GPa) = 0.03278982
#
# Stress axis : x y z
#
# Youngs Moduli (GPa) = 89.25493 74.34326 74.27860
#
# Poissons Ratio (x) = 0.26373 0.12343
# Poissons Ratio (y) = 0.31663 -0.18906
# Poissons Ratio (z) = 0.14832 -0.18922
#
# Static dielectric constant tensor:
#      x y z
#    x 4.603350 -0.222050 -0.026690 
#    y -0.222050 4.781320 0.056550 
#    z -0.026690 0.056550 5.031770 
# 
# 
# High freq. dielectric constant tensor:
#      x y z
#    x 2.024090 -0.001610 -0.010700 
#    y -0.001610 2.051920 0.007220 
#    z -0.010700 0.007220 2.050270 
# 
# From -- ./inp_files/243471.got.cif
#   From: 2010.06.25/outbox.cif.g09.slc.cpg/sg2_122_cif.got.tgz:243471.got - 2010.06.27 13:26:56.
