data_PCOD8035466
_publ_section_title
;
Structure prediction by ZEFSAII (Michael W. Deem and Ramdas Pophale) SiO2 
 PCOD8035466
Probable space group: P -1
;
_chemical_formula_sum "Si O2"
_cell_formula_units_Z 16
_cell_length_a 17.718050
_cell_length_b 23.973459
_cell_length_c 5.230238
_cell_angle_alpha 112.650627
_cell_angle_beta 113.285154
_cell_angle_gamma 20.285102
_cell_volume 706.763783
_symmetry_space_group_name_H-M "P -1"
_symmetry_group_IT_number 2
_symmetry_cell_setting 'triclinic'
loop_
_space_group_symop_operation_xyz
x,y,z
-x,-y,-z
loop_
_atom_site_type_symbol
_atom_site_label
_atom_site_fract_x
_atom_site_fract_y
_atom_site_fract_z
Si Si1 0.698347 0.970828 0.058498
Si Si2 0.894415 0.894486 0.688471
Si Si3 0.484426 0.679796 0.553690
Si Si4 0.756590 0.698677 0.811250
Si Si5 0.596749 0.464427 0.316295
Si Si6 0.098910 0.526345 0.307976
Si Si7 0.712455 0.836080 0.650639
Si Si8 0.783561 0.108561 0.933231
O O1 0.763224 0.957593 0.385748
O O2 0.442155 0.162871 0.003861
O O3 0.840180 0.896077 0.877596
O O4 0.737326 0.871620 0.961818
O O5 0.146209 0.717788 0.649594
O O6 0.838381 0.001690 0.847114
O O7 0.538900 0.573264 0.418938
O O8 0.702830 0.569281 0.700842
O O9 0.375557 0.774793 0.312807
O O10 0.325389 0.796549 0.783564
O O11 0.810425 0.592845 0.614009
O O12 0.670867 0.797287 0.634072
O O13 0.976000 0.580904 0.998555
O O14 0.500000 0.500000 0.500000
O O15 0.500000 0.500000 0.000000
O O16 0.936833 0.680886 0.516493
O O17 0.500000 0.000000 0.500000
O O18 0.000000 0.000000 0.000000
#
# Coordination Sequence:
#
# PCOD8035466 Si02
#       8
#     2   2   2   2   2   2   2   2
#     4  12  26  44  73 104 144 187 246 292 357 417
#     4  12  26  46  73 106 142 185 240 303 353 431
#     4  12  27  46  76 110 143 187 241 299 355 434
#     4  11  25  45  69  98 146 192 240 293 358 420
#     4  12  26  48  74 106 146 186 232 295 374 437
#     4  11  26  45  69 104 142 192 241 296 356 421
#     4  12  25  44  70 100 140 197 246 294 353 426
#     4  12  26  49  76 105 143 187 238 296 369 438
#
# _framework density 22.638399
#
# number of rings (size 3 to 8) (size 9 to 14) (size 15 to 20)
#    0.000    0.250    1.250    7.875    5.250    0.000 
#    0.000    0.000    0.000    0.000    0.000    0.000 
#    0.000    0.000    0.000    0.000    0.000    0.000 
#
# Total GULP energy -198455.181652 kJ/mol
# GULP energy per Si atom -12403.448853 kJ/mol
# Density = 2.258687 g / cm^3
# Si number density = 22.638399 Si / 1000 Ang^3
#
#
#
# Elastic Constant Matrix: (Units=GPa)
#
#
# Indices 1 2 3 4 5 6 
#
# 1 133.2415 59.1096 45.5130 2.9466 11.2453 3.6452
# 2 59.1096 147.8344 38.3255 20.1389 6.4776 -3.4480
# 3 45.5130 38.3255 120.9315 15.2037 8.0673 -1.0940
# 4 2.9466 20.1389 15.2037 40.8506 5.6312 5.0972
# 5 11.2453 6.4776 8.0673 5.6312 51.9221 10.7707
# 6 3.6452 -3.4480 -1.0940 5.0972 10.7707 67.1842
#
#
#
# Elastic Compliance Matrix: (Units=1/GPa)
#
#
# Indices 1 2 3 4 5 6 
#
# 1 0.010182 -0.003601 -0.002906 0.002410 -0.001412 -0.000741
# 2 -0.003601 0.009020 -0.001003 -0.003936 0.000044 0.000934
# 3 -0.002906 -0.001003 0.010110 -0.003050 -0.000610 0.000600
# 4 0.002410 -0.003936 -0.003050 0.027946 -0.002140 -0.002160
# 5 -0.001412 0.000044 -0.000610 -0.002140 0.020521 -0.003059
# 6 -0.000741 0.000934 0.000600 -0.002160 -0.003059 0.015637
#
#
# Mechanical properties :
#
#
# Convention : Reuss Voigt Hill
#
# Bulk Modulus (GPa) = 69.97085 76.43375 73.20230
# Shear Modulus (GPa) = 44.16962 49.26200 46.71581
#
# Velocity S-wave (km/s) = 4.42191 4.66986 4.54758
# Velocity P-wave (km/s) = 7.55289 7.93177 7.74465
#
# Compressibility (1/GPa) = 0.01429167
#
# Stress axis : x y z
#
# Youngs Moduli (GPa) = 98.21649 110.86039 98.90999
#
# Poissons Ratio (x) = 0.39924 0.28743
# Poissons Ratio (y) = 0.35370 0.09920
# Poissons Ratio (z) = 0.28542 0.11119
#
# Static dielectric constant tensor:
#      x y z
#    x 4.452670 0.016900 0.215870 
#    y 0.016900 4.440410 0.257440 
#    z 0.215870 0.257440 4.108790 
# 
# 
# High freq. dielectric constant tensor:
#      x y z
#    x 1.910200 0.000420 0.008880 
#    y 0.000420 1.917650 0.010720 
#    z 0.008880 0.010720 1.898360 
# 
# From -- ./inp_files/112989.got.cif
#   From: 2010.06.25/outbox.cif.g09.slc.cpg/sg2_57_cif.got.tgz:112989.got - 2010.06.27 13:26:56.
