data_PCOD8035520
_publ_section_title
;
Structure prediction by ZEFSAII (Michael W. Deem and Ramdas Pophale) SiO2 
 PCOD8035520
Probable space group: P -1
;
_chemical_formula_sum "Si O2"
_cell_formula_units_Z 12
_cell_length_a 9.788249
_cell_length_b 15.006291
_cell_length_c 5.315415
_cell_angle_alpha 68.950302
_cell_angle_beta 71.142020
_cell_angle_gamma 117.651574
_cell_volume 519.879218
_symmetry_space_group_name_H-M "P -1"
_symmetry_group_IT_number 2
_symmetry_cell_setting 'triclinic'
loop_
_space_group_symop_operation_xyz
x,y,z
-x,-y,-z
loop_
_atom_site_type_symbol
_atom_site_label
_atom_site_fract_x
_atom_site_fract_y
_atom_site_fract_z
Si Si1 0.664233 0.267962 0.113869
Si Si2 0.797513 0.672551 0.779499
Si Si3 0.951511 0.036123 0.743629
Si Si4 0.486796 0.106208 0.881678
Si Si5 0.604481 0.439439 0.794376
Si Si6 0.938829 0.565855 0.121577
O O1 0.607819 0.193807 0.483007
O O2 0.557819 0.180485 0.025425
O O3 0.611969 0.358101 0.080259
O O4 0.892802 0.348660 0.857364
O O5 0.706281 0.579966 0.687254
O O6 0.931482 0.815161 0.462388
O O7 0.614275 0.633859 0.085560
O O8 0.929381 0.658315 0.872278
O O9 0.000000 0.000000 0.500000
O O10 0.729150 0.958286 0.965121
O O11 0.000000 0.000000 0.000000
O O12 0.500000 0.000000 0.000000
O O13 0.728741 0.454642 0.471747
O O14 0.000000 0.500000 0.000000
#
# Coordination Sequence:
#
# PCOD8035520 Si02
#       6
#     2   2   2   2   2   2
#     4  12  26  46  77 106 151 189 247 304 369 438
#     4  11  26  46  73 106 145 192 243 308 368 443
#     4  12  28  50  76 107 146 197 251 302 365 436
#     4  12  27  48  74 107 147 197 248 302 362 434
#     4  11  25  45  72 107 146 187 243 306 378 433
#     4  12  25  44  73 111 149 191 240 302 379 446
#
# _framework density 23.082284999999999
#
# number of rings (size 3 to 8) (size 9 to 14) (size 15 to 20)
#    0.000    0.333    1.667    6.500    7.000    0.000 
#    0.000    0.000    0.000    0.000    0.000    0.000 
#    0.000    0.000    0.000    0.000    0.000    0.000 
#
# Total GULP energy -148827.195174 kJ/mol
# GULP energy per Si atom -12402.266264 kJ/mol
# Density = 2.302975 g / cm^3
# Si number density = 23.082285 Si / 1000 Ang^3
#
#
#
# Elastic Constant Matrix: (Units=GPa)
#
#
# Indices 1 2 3 4 5 6 
#
# 1 195.9344 56.8920 52.2633 -5.6323 -4.9975 -2.9124
# 2 56.8920 99.7074 49.4740 -7.9964 15.4023 0.8003
# 3 52.2633 49.4740 105.0403 -0.4547 6.5698 -14.3578
# 4 -5.6323 -7.9964 -0.4547 42.4711 -6.5069 0.5776
# 5 -4.9975 15.4023 6.5698 -6.5069 52.9585 -8.6109
# 6 -2.9124 0.8003 -14.3578 0.5776 -8.6109 45.1063
#
#
#
# Elastic Compliance Matrix: (Units=1/GPa)
#
#
# Indices 1 2 3 4 5 6 
#
# 1 0.006563 -0.003033 -0.001921 0.000558 0.001843 0.000211
# 2 -0.003033 0.015582 -0.005991 0.001841 -0.004375 -0.003238
# 3 -0.001921 -0.005991 0.013881 -0.001231 0.000419 0.004496
# 4 0.000558 0.001841 -0.001231 0.024359 0.002631 -0.000198
# 5 0.001843 -0.004375 0.000419 0.002631 0.021310 0.004364
# 6 0.000211 -0.003238 0.004496 -0.000198 0.004364 0.024508
#
#
# Mechanical properties :
#
#
# Convention : Reuss Voigt Hill
#
# Bulk Modulus (GPa) = 70.74244 79.77120 75.25682
# Shear Modulus (GPa) = 37.64925 44.24403 40.94664
#
# Velocity S-wave (km/s) = 4.04305 4.38287 4.21639
# Velocity P-wave (km/s) = 7.24635 7.76191 7.50856
#
# Compressibility (1/GPa) = 0.01413579
#
# Stress axis : x y z
#
# Youngs Moduli (GPa) = 152.36860 64.17530 72.04234
#
# Poissons Ratio (x) = 0.19466 0.13838
# Poissons Ratio (y) = 0.46218 0.43161
# Poissons Ratio (z) = 0.29267 0.38448
#
# Static dielectric constant tensor:
#      x y z
#    x 4.738570 -0.046140 -0.186870 
#    y -0.046140 4.252280 -0.231420 
#    z -0.186870 -0.231420 4.330820 
# 
# 
# High freq. dielectric constant tensor:
#      x y z
#    x 1.943290 -0.004750 -0.005060 
#    y -0.004750 1.914370 -0.011600 
#    z -0.005060 -0.011600 1.919260 
# 
# From -- ./inp_files/26395.got.cif
#   From: 2010.06.25/outbox.cif.g09.slc.cpg/sg2_14_cif.got.tgz:26395.got - 2010.06.27 13:26:56.
