data_PCOD8035967
_publ_section_title
;
Structure prediction by ZEFSAII (Michael W. Deem and Ramdas Pophale) SiO2 
 PCOD8035967
Probable space group: P -1
;
_chemical_formula_sum "Si O2"
_cell_formula_units_Z 14
_cell_length_a 5.484355
_cell_length_b 9.404326
_cell_length_c 21.842426
_cell_angle_alpha 144.791769
_cell_angle_beta 63.663295
_cell_angle_gamma 105.923936
_cell_volume 573.570671
_symmetry_space_group_name_H-M "P -1"
_symmetry_group_IT_number 2
_symmetry_cell_setting 'triclinic'
loop_
_space_group_symop_operation_xyz
x,y,z
-x,-y,-z
loop_
_atom_site_type_symbol
_atom_site_label
_atom_site_fract_x
_atom_site_fract_y
_atom_site_fract_z
Si Si1 0.571804 0.738181 0.762572
Si Si2 0.896331 0.116337 0.615297
Si Si3 0.319691 0.090263 0.705950
Si Si4 0.832327 0.329578 0.496536
Si Si5 0.960802 0.649533 0.806132
Si Si6 0.402565 0.191280 0.864558
Si Si7 0.822039 0.525333 0.903532
O O1 0.669515 0.482679 0.624031
O O2 0.746272 0.742122 0.807220
O O3 0.239357 0.768479 0.817390
O O4 0.617347 0.981944 0.804081
O O5 0.569521 0.213854 0.693356
O O6 0.053304 0.350011 0.687307
O O7 0.000000 0.000000 0.500000
O O8 0.955799 0.906705 0.586484
O O9 0.297781 0.058191 0.770437
O O10 0.056238 0.285971 0.783299
O O11 0.358206 0.805567 0.574901
O O12 0.000000 0.500000 0.500000
O O13 0.809753 0.707107 0.909331
O O14 0.537310 0.419796 0.903722
O O15 0.151481 0.310737 0.980371
#
# Coordination Sequence:
#
# PCOD8035967 Si02
#       7
#     2   2   2   2   2   2   2
#     4  12  29  48  74 112 157 195 251 312 384 447
#     4  12  24  42  70 105 147 197 243 302 377 453
#     4  12  23  45  75 107 147 195 251 310 369 453
#     4  12  27  42  72 110 148 196 243 312 378 449
#     4  12  26  48  74 110 152 197 250 312 374 449
#     4  11  27  48  74 107 147 202 252 316 371 449
#     4  11  25  48  78 106 143 199 262 307 376 446
#
# _framework density 24.408501000000001
#
# number of rings (size 3 to 8) (size 9 to 14) (size 15 to 20)
#    0.000    0.286    4.286    3.857    4.000    3.429 
#    0.000    0.000    0.000    0.000    0.000    0.000 
#    0.000    0.000    0.000    0.000    0.000    0.000 
#
# Total GULP energy -173509.021285 kJ/mol
# GULP energy per Si atom -12393.501520 kJ/mol
# Density = 2.435295 g / cm^3
# Si number density = 24.408501 Si / 1000 Ang^3
#
#
#
# Elastic Constant Matrix: (Units=GPa)
#
#
# Indices 1 2 3 4 5 6 
#
# 1 102.4956 45.5181 21.8189 -18.3625 13.6003 -9.7118
# 2 45.5181 104.9829 17.5444 -16.0676 9.4027 -18.0884
# 3 21.8189 17.5444 114.4753 -34.2147 11.7512 -4.5417
# 4 -18.3625 -16.0676 -34.2147 48.9461 -14.0449 3.7829
# 5 13.6003 9.4027 11.7512 -14.0449 29.4079 -6.2790
# 6 -9.7118 -18.0884 -4.5417 3.7829 -6.2790 38.8016
#
#
#
# Elastic Compliance Matrix: (Units=1/GPa)
#
#
# Indices 1 2 3 4 5 6 
#
# 1 0.012836 -0.004847 -0.000864 0.001690 -0.003198 0.000170
# 2 -0.004847 0.012727 -0.000315 0.001830 0.000138 0.004527
# 3 -0.000864 -0.000315 0.011164 0.007228 -0.000474 0.000163
# 4 0.001690 0.001830 0.007228 0.029530 0.010033 0.000867
# 5 -0.003198 0.000138 -0.000474 0.010033 0.041476 0.004942
# 6 0.000170 0.004527 0.000163 0.000867 0.004942 0.028659
#
#
# Mechanical properties :
#
#
# Convention : Reuss Voigt Hill
#
# Bulk Modulus (GPa) = 40.52333 54.63518 47.57925
# Shear Modulus (GPa) = 31.91485 39.23596 35.57541
#
# Velocity S-wave (km/s) = 3.61990 4.01368 3.82186
# Velocity P-wave (km/s) = 5.84036 6.62659 6.24586
#
# Compressibility (1/GPa) = 0.02467714
#
# Stress axis : x y z
#
# Youngs Moduli (GPa) = 77.90588 78.57329 89.57581
#
# Poissons Ratio (x) = 0.38082 0.07736
# Poissons Ratio (y) = 0.37759 0.02817
# Poissons Ratio (z) = 0.06728 0.02471
#
# Static dielectric constant tensor:
#      x y z
#    x 3.931790 -0.174350 0.215050 
#    y -0.174350 4.709540 -0.183310 
#    z 0.215050 -0.183310 4.818900 
# 
# 
# High freq. dielectric constant tensor:
#      x y z
#    x 1.948680 -0.007020 0.014880 
#    y -0.007020 1.984610 -0.012320 
#    z 0.014880 -0.012320 1.987340 
# 
# From -- ./inp_files/26869.got.cif
#   From: 2010.06.25/outbox.cif.g09.slc.cpg/sg2_14_cif.got.tgz:26869.got - 2010.06.27 13:26:56.
