data_PCOD8035599
_publ_section_title
;
Structure prediction by ZEFSAII (Michael W. Deem and Ramdas Pophale) SiO2 
 PCOD8035599
Probable space group: P -1
;
_chemical_formula_sum "Si O2"
_cell_formula_units_Z 14
_cell_length_a 9.552616
_cell_length_b 9.730420
_cell_length_c 11.434293
_cell_angle_alpha 58.245531
_cell_angle_beta 128.580973
_cell_angle_gamma 133.832376
_cell_volume 590.888049
_symmetry_space_group_name_H-M "P -1"
_symmetry_group_IT_number 2
_symmetry_cell_setting 'triclinic'
loop_
_space_group_symop_operation_xyz
x,y,z
-x,-y,-z
loop_
_atom_site_type_symbol
_atom_site_label
_atom_site_fract_x
_atom_site_fract_y
_atom_site_fract_z
Si Si1 0.801354 0.610475 0.386777
Si Si2 0.616157 0.433000 0.788174
Si Si3 0.849155 0.074902 0.416924
Si Si4 0.902710 0.819943 0.877478
Si Si5 0.982736 0.211655 0.800953
Si Si6 0.383157 0.725553 0.385415
Si Si7 0.735173 0.171206 0.072351
O O1 0.641492 0.687800 0.273428
O O2 0.672349 0.396518 0.469969
O O3 0.024127 0.749172 0.506752
O O4 0.867682 0.606804 0.288582
O O5 0.710939 0.655202 0.771612
O O6 0.661585 0.415997 0.683871
O O7 0.737227 0.365455 0.965563
O O8 0.805593 0.165529 0.241952
O O9 0.627686 0.905384 0.434027
O O10 0.000000 0.000000 0.500000
O O11 0.121800 0.848543 0.938008
O O12 0.911732 0.017352 0.777472
O O13 0.871120 0.764525 0.023024
O O14 0.770140 0.196352 0.739809
O O15 0.500000 0.000000 0.000000
#
# Coordination Sequence:
#
# PCOD8035599 Si02
#       7
#     2   2   2   2   2   2   2
#     4  12  28  46  74 112 153 198 246 303 375 448
#     4  12  25  47  78 109 141 191 264 304 357 436
#     4  12  25  45  78 111 153 190 245 313 376 426
#     4  11  25  45  78 105 150 195 246 312 369 440
#     4  11  26  50  70 109 156 197 241 302 388 442
#     4  12  26  49  75 112 148 194 251 311 362 449
#     4  12  22  44  76 112 142 187 252 312 360 435
#
# _framework density 23.693152000000001
#
# number of rings (size 3 to 8) (size 9 to 14) (size 15 to 20)
#    0.000    0.286    4.286    3.857    6.000    2.286 
#    2.571    0.000    0.000    0.000    0.000    0.000 
#    0.000    0.000    0.000    0.000    0.000    0.000 
#
# Total GULP energy -173646.688034 kJ/mol
# GULP energy per Si atom -12403.334860 kJ/mol
# Density = 2.363923 g / cm^3
# Si number density = 23.693152 Si / 1000 Ang^3
#
#
#
# Elastic Constant Matrix: (Units=GPa)
#
#
# Indices 1 2 3 4 5 6 
#
# 1 122.4035 46.9824 39.7419 6.9539 1.6463 15.4914
# 2 46.9824 104.1749 26.2034 8.4731 -2.5720 8.0359
# 3 39.7419 26.2034 116.9819 -3.5945 -3.7883 18.2659
# 4 6.9539 8.4731 -3.5945 32.2883 5.9339 -0.3594
# 5 1.6463 -2.5720 -3.7883 5.9339 43.7739 -7.9269
# 6 15.4914 8.0359 18.2659 -0.3594 -7.9269 37.9013
#
#
#
# Elastic Compliance Matrix: (Units=1/GPa)
#
#
# Indices 1 2 3 4 5 6 
#
# 1 0.010955 -0.004024 -0.002482 -0.001396 -0.001160 -0.002684
# 2 -0.004024 0.012001 -0.001360 -0.002634 0.001088 -0.000041
# 3 -0.002482 -0.001360 0.010329 0.002006 -0.000028 -0.003662
# 4 -0.001396 -0.002634 0.002006 0.033006 -0.004487 -0.000463
# 5 -0.001160 0.001088 -0.000028 -0.004487 0.024526 0.005344
# 6 -0.002684 -0.000041 -0.003662 -0.000463 0.005344 0.030368
#
#
# Mechanical properties :
#
#
# Convention : Reuss Voigt Hill
#
# Bulk Modulus (GPa) = 56.97411 63.26841 60.12126
# Shear Modulus (GPa) = 35.02231 38.16820 36.59526
#
# Velocity S-wave (km/s) = 3.84886 4.01800 3.93434
# Velocity P-wave (km/s) = 6.62197 6.94889 6.78740
#
# Compressibility (1/GPa) = 0.01755183
#
# Stress axis : x y z
#
# Youngs Moduli (GPa) = 91.28489 83.32867 96.81924
#
# Poissons Ratio (x) = 0.33535 0.24026
# Poissons Ratio (y) = 0.36736 0.13169
# Poissons Ratio (z) = 0.22653 0.11334
#
# Static dielectric constant tensor:
#      x y z
#    x 4.476180 0.112140 0.117240 
#    y 0.112140 4.061180 0.082940 
#    z 0.117240 0.082940 4.130930 
# 
# 
# High freq. dielectric constant tensor:
#      x y z
#    x 1.944600 0.008990 0.003090 
#    y 0.008990 1.928220 -0.003210 
#    z 0.003090 -0.003210 1.958170 
# 
# From -- ./inp_files/381504.got.cif
#   From: 2010.06.25/outbox.cif.g09.slc.cpg/sg2_191_cif.got.tgz:381504.got - 2010.06.27 13:26:56.
