data_PCOD8035846
_publ_section_title
;
Structure prediction by ZEFSAII (Michael W. Deem and Ramdas Pophale) SiO2 
 PCOD8035846
Probable space group: P -1
;
_chemical_formula_sum "Si O2"
_cell_formula_units_Z 14
_cell_length_a 23.647936
_cell_length_b 5.010738
_cell_length_c 16.701029
_cell_angle_alpha 97.145001
_cell_angle_beta 162.996895
_cell_angle_gamma 81.690857
_cell_volume 571.968122
_symmetry_space_group_name_H-M "P -1"
_symmetry_group_IT_number 2
_symmetry_cell_setting 'triclinic'
loop_
_space_group_symop_operation_xyz
x,y,z
-x,-y,-z
loop_
_atom_site_type_symbol
_atom_site_label
_atom_site_fract_x
_atom_site_fract_y
_atom_site_fract_z
Si Si1 0.284637 0.954486 0.733258
Si Si2 0.642904 0.113696 0.989664
Si Si3 0.189206 0.139843 0.365509
Si Si4 0.915962 0.554041 0.606825
Si Si5 0.631629 0.360660 0.604802
Si Si6 0.697439 0.582297 0.961219
Si Si7 0.134472 0.200244 0.112085
O O1 0.203085 0.709624 0.565239
O O2 0.159681 0.232390 0.555205
O O3 0.271352 0.879498 0.805365
O O4 0.500000 0.000000 0.000000
O O5 0.415748 0.069927 0.684707
O O6 0.690662 0.382060 0.019211
O O7 0.752619 0.865765 0.081475
O O8 0.102570 0.334469 0.324890
O O9 0.141806 0.267468 0.218923
O O10 0.079829 0.863708 0.208628
O O11 0.143846 0.496228 0.894770
O O12 0.500000 0.500000 0.500000
O O13 0.513898 0.388834 0.363652
O O14 0.819096 0.529500 0.859878
O O15 0.705757 0.047275 0.706268
#
# Coordination Sequence:
#
# PCOD8035846 Si02
#       7
#     2   2   2   2   2   2   2
#     4  12  27  47  74 108 137 184 236 296 352 411
#     4  12  26  47  75  98 148 183 238 290 351 418
#     4  11  25  47  74 106 141 189 236 293 341 421
#     4  12  28  46  75 105 144 180 239 291 351 417
#     4  12  24  45  68 103 147 186 230 289 347 415
#     4  12  26  47  70 107 141 190 229 288 358 414
#     4  11  26  43  72 105 139 188 240 280 347 415
#
# _framework density 24.476889
#
# number of rings (size 3 to 8) (size 9 to 14) (size 15 to 20)
#    0.000    0.286    4.286    3.429    2.000   11.429 
#    0.000    0.000    0.000    0.000    0.000    0.000 
#    0.000    0.000    0.000    0.000    0.000    0.000 
#
# Total GULP energy -173667.815658 kJ/mol
# GULP energy per Si atom -12404.843976 kJ/mol
# Density = 2.442118 g / cm^3
# Si number density = 24.476889 Si / 1000 Ang^3
#
#
#
# Elastic Constant Matrix: (Units=GPa)
#
#
# Indices 1 2 3 4 5 6 
#
# 1 95.6536 4.9999 11.4017 -2.9913 6.8918 -23.4991
# 2 4.9999 80.9706 16.7919 -0.8688 3.8731 3.2415
# 3 11.4017 16.7919 90.9193 9.1764 8.3861 -2.6096
# 4 -2.9913 -0.8688 9.1764 39.7355 2.7064 6.0655
# 5 6.8918 3.8731 8.3861 2.7064 26.1690 -4.1737
# 6 -23.4991 3.2415 -2.6096 6.0655 -4.1737 42.6901
#
#
#
# Elastic Compliance Matrix: (Units=1/GPa)
#
#
# Indices 1 2 3 4 5 6 
#
# 1 0.012377 -0.000712 -0.001096 0.000285 -0.001782 0.006586
# 2 -0.000712 0.013035 -0.002358 0.001150 -0.001396 -0.001826
# 3 -0.001096 -0.002358 0.012134 -0.002805 -0.002892 0.000433
# 4 0.000285 0.001150 -0.002805 0.026685 -0.002770 -0.004164
# 5 -0.001782 -0.001396 -0.002892 -0.002770 0.040631 0.003314
# 6 0.006586 -0.001826 0.000433 -0.004164 0.003314 0.028130
#
#
# Mechanical properties :
#
#
# Convention : Reuss Voigt Hill
#
# Bulk Modulus (GPa) = 34.22970 37.10339 35.66654
# Shear Modulus (GPa) = 33.09855 37.34224 35.22040
#
# Velocity S-wave (km/s) = 3.68127 3.91015 3.79743
# Velocity P-wave (km/s) = 5.66426 5.96465 5.81640
#
# Compressibility (1/GPa) = 0.02921440
#
# Stress axis : x y z
#
# Youngs Moduli (GPa) = 80.79193 76.71448 82.41315
#
# Poissons Ratio (x) = 0.05465 0.09033
# Poissons Ratio (y) = 0.05755 0.19432
# Poissons Ratio (z) = 0.08855 0.18088
#
# Static dielectric constant tensor:
#      x y z
#    x 4.494070 -0.142170 0.041470 
#    y -0.142170 4.450520 0.048730 
#    z 0.041470 0.048730 4.872140 
# 
# 
# High freq. dielectric constant tensor:
#      x y z
#    x 1.984450 -0.007940 0.001140 
#    y -0.007940 1.982260 0.001890 
#    z 0.001140 0.001890 1.985190 
# 
# From -- ./inp_files/503534.got.cif
#   From: 2010.06.25/outbox.cif.g09.slc.cpg/sg2_252_cif.got.tgz:503534.got - 2010.06.27 13:26:56.
