data_PCOD8035924
_publ_section_title
;
Structure prediction by ZEFSAII (Michael W. Deem and Ramdas Pophale) SiO2 
 PCOD8035924
Probable space group: P -1
;
_chemical_formula_sum "Si O2"
_cell_formula_units_Z 16
_cell_length_a 16.688162
_cell_length_b 9.694091
_cell_length_c 11.695123
_cell_angle_alpha 30.486942
_cell_angle_beta 127.639056
_cell_angle_gamma 132.440222
_cell_volume 706.228925
_symmetry_space_group_name_H-M "P -1"
_symmetry_group_IT_number 2
_symmetry_cell_setting 'triclinic'
loop_
_space_group_symop_operation_xyz
x,y,z
-x,-y,-z
loop_
_atom_site_type_symbol
_atom_site_label
_atom_site_fract_x
_atom_site_fract_y
_atom_site_fract_z
Si Si1 0.096502 0.316484 0.847531
Si Si2 0.883723 0.900940 0.207406
Si Si3 0.899415 0.079614 0.542658
Si Si4 0.714140 0.138761 0.839884
Si Si5 0.626150 0.085184 0.034074
Si Si6 0.277594 0.324708 0.175619
Si Si7 0.440528 0.206414 0.240720
Si Si8 0.774842 0.785643 0.436052
O O1 0.137328 0.352556 0.725424
O O2 0.049570 0.567554 0.657815
O O3 0.200942 0.370009 0.978579
O O4 0.000000 0.000000 0.000000
O O5 0.817932 0.772450 0.355736
O O6 0.012951 0.050186 0.238378
O O7 0.835897 0.133008 0.946838
O O8 0.789967 0.966875 0.604077
O O9 0.876997 0.973011 0.469066
O O10 0.720964 0.453604 0.661084
O O11 0.653721 0.024661 0.750913
O O12 0.643594 0.966192 0.009222
O O13 0.679306 0.908999 0.286734
O O14 0.689237 0.422555 0.880864
O O15 0.500000 0.000000 0.000000
O O16 0.386510 0.310658 0.224852
O O17 0.500000 0.000000 0.500000
O O18 0.500000 0.500000 0.000000
#
# Coordination Sequence:
#
# PCOD8035924 Si02
#       8
#     2   2   2   2   2   2   2   2
#     4  12  26  46  71 107 147 191 248 304 384 454
#     4  11  26  43  72 103 146 189 243 298 381 454
#     4  12  26  46  72 107 146 196 245 310 380 459
#     4  11  26  46  72 103 147 190 250 306 378 454
#     4  11  25  48  72 102 142 191 255 311 380 447
#     4  12  26  46  76 107 149 192 251 319 372 460
#     4  12  31  51  78 113 153 203 257 322 394 456
#     4  11  26  45  70 107 143 192 246 314 373 459
#
# _framework density 22.655543999999999
#
# number of rings (size 3 to 8) (size 9 to 14) (size 15 to 20)
#    0.000    0.500    5.000    1.500   10.500    2.000 
#    0.000    0.000    0.000    0.000    0.000    0.000 
#    0.000    0.000    0.000    0.000    0.000    0.000 
#
# Total GULP energy -198217.960862 kJ/mol
# GULP energy per Si atom -12388.622554 kJ/mol
# Density = 2.260398 g / cm^3
# Si number density = 22.655544 Si / 1000 Ang^3
#
#
#
# Elastic Constant Matrix: (Units=GPa)
#
#
# Indices 1 2 3 4 5 6 
#
# 1 108.0282 34.3999 34.6766 7.5287 12.0719 2.2779
# 2 34.3999 140.8600 52.2472 7.3585 8.7397 -9.9318
# 3 34.6766 52.2472 125.3580 -0.3047 17.9622 11.5708
# 4 7.5287 7.3585 -0.3047 40.9690 -1.5085 -2.9791
# 5 12.0719 8.7397 17.9622 -1.5085 32.6822 2.9150
# 6 2.2779 -9.9318 11.5708 -2.9791 2.9150 40.7027
#
#
#
# Elastic Compliance Matrix: (Units=1/GPa)
#
#
# Indices 1 2 3 4 5 6 
#
# 1 0.010830 -0.001728 -0.001873 -0.001820 -0.002553 -0.000446
# 2 -0.001728 0.009167 -0.003626 -0.001123 -0.000166 0.003294
# 3 -0.001873 -0.003626 0.010906 0.000672 -0.003985 -0.003546
# 4 -0.001820 -0.001123 0.000672 0.025109 0.001641 0.001357
# 5 -0.002553 -0.000166 -0.003985 0.001641 0.033947 -0.001076
# 6 -0.000446 0.003294 -0.003546 0.001357 -0.001076 0.026581
#
#
# Mechanical properties :
#
#
# Convention : Reuss Voigt Hill
#
# Bulk Modulus (GPa) = 60.79033 68.54372 64.66703
# Shear Modulus (GPa) = 36.63593 39.73230 38.18412
#
# Velocity S-wave (km/s) = 4.02566 4.19233 4.10984
# Velocity P-wave (km/s) = 6.96409 7.33175 7.15029
#
# Compressibility (1/GPa) = 0.01644998
#
# Stress axis : x y z
#
# Youngs Moduli (GPa) = 92.33719 109.08337 91.68924
#
# Poissons Ratio (x) = 0.18850 0.17174
# Poissons Ratio (y) = 0.15956 0.33244
# Poissons Ratio (z) = 0.17295 0.39551
#
# Static dielectric constant tensor:
#      x y z
#    x 4.191960 -0.222680 0.162770 
#    y -0.222680 4.276230 0.178040 
#    z 0.162770 0.178040 4.357780 
# 
# 
# High freq. dielectric constant tensor:
#      x y z
#    x 1.896110 -0.018050 0.009900 
#    y -0.018050 1.909050 0.013770 
#    z 0.009900 0.013770 1.895110 
# 
# From -- ./inp_files/461763.got.cif
#   From: 2010.06.25/outbox.cif.g09.slc.cpg/sg2_231_cif.got.tgz:461763.got - 2010.06.27 13:26:56.
