data_PCOD8035592
_publ_section_title
;
Structure prediction by ZEFSAII (Michael W. Deem and Ramdas Pophale) SiO2 
 PCOD8035592
Probable space group: P -1
;
_chemical_formula_sum "Si O2"
_cell_formula_units_Z 14
_cell_length_a 8.208711
_cell_length_b 8.016205
_cell_length_c 12.051294
_cell_angle_alpha 114.367997
_cell_angle_beta 120.932256
_cell_angle_gamma 56.550403
_cell_volume 558.224478
_symmetry_space_group_name_H-M "P -1"
_symmetry_group_IT_number 2
_symmetry_cell_setting 'triclinic'
loop_
_space_group_symop_operation_xyz
x,y,z
-x,-y,-z
loop_
_atom_site_type_symbol
_atom_site_label
_atom_site_fract_x
_atom_site_fract_y
_atom_site_fract_z
Si Si1 0.882282 0.543704 0.085398
Si Si2 0.991812 0.831286 0.346449
Si Si3 0.064573 0.784572 0.813864
Si Si4 0.597376 0.013219 0.704192
Si Si5 0.175274 0.709004 0.591204
Si Si6 0.479424 0.719969 0.450919
Si Si7 0.455783 0.858759 0.031203
O O1 0.972983 0.347916 0.140151
O O2 0.629663 0.626300 0.005478
O O3 0.918779 0.726657 0.198773
O O4 0.000000 0.500000 0.000000
O O5 0.990273 0.738667 0.444248
O O6 0.232564 0.793602 0.402162
O O7 0.824214 0.068432 0.346402
O O8 0.127760 0.659975 0.685679
O O9 0.840978 0.975133 0.771647
O O10 0.226875 0.870326 0.934272
O O11 0.570346 0.810818 0.606118
O O12 0.473892 0.196227 0.625956
O O13 0.511952 0.080914 0.816358
O O14 0.395407 0.527282 0.576106
O O15 0.500000 0.000000 0.000000
#
# Coordination Sequence:
#
# PCOD8035592 Si02
#       7
#     2   2   2   2   2   2   2
#     4  12  29  49  77 112 150 203 263 313 388 457
#     4  11  26  47  77 113 157 194 254 322 373 467
#     4  12  26  48  76 110 154 206 251 321 378 460
#     4  11  26  47  75 116 151 198 259 312 389 451
#     4  11  25  45  77 108 153 198 253 303 396 433
#     4  11  25  46  78 112 156 200 251 320 379 460
#     4  12  28  46  77 108 154 204 254 317 383 456
#
# _framework density 25.079516000000002
#
# number of rings (size 3 to 8) (size 9 to 14) (size 15 to 20)
#    0.000    0.571    1.429    4.714   10.000    2.286 
#    0.000    0.000    0.000    0.000    0.000    0.000 
#    0.000    0.000    0.000    0.000    0.000    0.000 
#
# Total GULP energy -173583.307641 kJ/mol
# GULP energy per Si atom -12398.807689 kJ/mol
# Density = 2.502243 g / cm^3
# Si number density = 25.079516 Si / 1000 Ang^3
#
#
#
# Elastic Constant Matrix: (Units=GPa)
#
#
# Indices 1 2 3 4 5 6 
#
# 1 114.6204 40.1554 65.9631 3.5732 -10.6812 -7.2775
# 2 40.1554 143.6968 49.2946 7.8977 -4.3848 -2.9786
# 3 65.9631 49.2946 144.5830 4.2854 -32.7516 7.6176
# 4 3.5732 7.8977 4.2854 35.6879 1.4385 -7.1306
# 5 -10.6812 -4.3848 -32.7516 1.4385 53.7392 -3.4936
# 6 -7.2775 -2.9786 7.6176 -7.1306 -3.4936 35.4702
#
#
#
# Elastic Compliance Matrix: (Units=1/GPa)
#
#
# Indices 1 2 3 4 5 6 
#
# 1 0.012664 -0.001584 -0.005634 0.000532 -0.000819 0.003701
# 2 -0.001584 0.008239 -0.002298 -0.001247 -0.000976 0.000514
# 3 -0.005634 -0.002298 0.011783 -0.001286 0.005675 -0.003579
# 4 0.000532 -0.001247 -0.001286 0.029670 -0.001176 0.006129
# 5 -0.000819 -0.000976 0.005675 -0.001176 0.021886 0.000450
# 6 0.003701 0.000514 -0.003579 0.006129 0.000450 0.031040
#
#
# Mechanical properties :
#
#
# Convention : Reuss Voigt Hill
#
# Bulk Modulus (GPa) = 73.23562 79.30294 76.26928
# Shear Modulus (GPa) = 36.00653 41.47861 38.74257
#
# Velocity S-wave (km/s) = 3.79317 4.07121 3.93464
# Velocity P-wave (km/s) = 6.96053 7.33409 7.14975
#
# Compressibility (1/GPa) = 0.01365456
#
# Stress axis : x y z
#
# Youngs Moduli (GPa) = 78.96625 121.36968 84.87090
#
# Poissons Ratio (x) = 0.19220 0.47817
# Poissons Ratio (y) = 0.12505 0.19502
# Poissons Ratio (z) = 0.44490 0.27889
#
# Static dielectric constant tensor:
#      x y z
#    x 4.579940 -0.220180 -0.210670 
#    y -0.220180 4.805680 -0.344860 
#    z -0.210670 -0.344860 4.929650 
# 
# 
# High freq. dielectric constant tensor:
#      x y z
#    x 2.001420 -0.006380 -0.017660 
#    y -0.006380 2.006860 -0.013760 
#    z -0.017660 -0.013760 2.014970 
# 
# From -- ./inp_files/383344.got.cif
#   From: 2010.06.25/outbox.cif.g09.slc.cpg/sg2_192_cif.got.tgz:383344.got - 2010.06.27 13:26:56.
