data_PCOD8035590
_publ_section_title
;
Structure prediction by ZEFSAII (Michael W. Deem and Ramdas Pophale) SiO2 
 PCOD8035590
Probable space group: P -1
;
_chemical_formula_sum "Si O2"
_cell_formula_units_Z 14
_cell_length_a 10.126592
_cell_length_b 17.752173
_cell_length_c 7.900477
_cell_angle_alpha 118.781501
_cell_angle_beta 113.363384
_cell_angle_gamma 28.116635
_cell_volume 585.278491
_symmetry_space_group_name_H-M "P -1"
_symmetry_group_IT_number 2
_symmetry_cell_setting 'triclinic'
loop_
_space_group_symop_operation_xyz
x,y,z
-x,-y,-z
loop_
_atom_site_type_symbol
_atom_site_label
_atom_site_fract_x
_atom_site_fract_y
_atom_site_fract_z
Si Si1 0.135281 0.540972 0.482954
Si Si2 0.485572 0.913638 0.969030
Si Si3 0.942545 0.467696 0.190379
Si Si4 0.730026 0.265265 0.332376
Si Si5 0.064623 0.009187 0.720321
Si Si6 0.435329 0.623835 0.004750
Si Si7 0.228932 0.113447 0.380868
O O1 0.167952 0.484585 0.623250
O O2 0.442527 0.419915 0.459173
O O3 0.023757 0.526960 0.274871
O O4 0.900306 0.733447 0.593363
O O5 0.336258 0.931112 0.770856
O O6 0.796644 0.720845 0.944978
O O7 0.500000 0.000000 0.000000
O O8 0.315255 0.002784 0.155949
O O9 0.695382 0.556473 0.044830
O O10 0.855505 0.104231 0.221853
O O11 0.985758 0.192993 0.458765
O O12 0.674557 0.335302 0.195899
O O13 0.000000 0.000000 0.500000
O O14 0.801053 0.203714 0.830757
O O15 0.500000 0.500000 0.000000
O O16 0.500000 0.000000 0.500000
#
# Coordination Sequence:
#
# PCOD8035590 Si02
#       7
#     2   2   2   2   2   2   2
#     4  11  25  49  72 112 147 204 252 318 377 469
#     4  12  25  50  75 112 153 200 258 322 385 464
#     4  11  25  45  77 106 152 196 259 308 388 452
#     4  12  27  50  77 111 159 195 265 315 387 462
#     4  12  28  49  80 113 153 209 257 317 392 457
#     4  12  27  48  77 113 154 204 255 320 392 458
#     4  12  29  46  76 110 153 198 255 320 391 456
#
# _framework density 23.920235999999999
#
# number of rings (size 3 to 8) (size 9 to 14) (size 15 to 20)
#    0.000    0.286    4.286    3.429    8.000    1.714 
#    0.000    0.000    0.000    0.000    0.000    0.000 
#    0.000    0.000    0.000    0.000    0.000    0.000 
#
# Total GULP energy -173544.623714 kJ/mol
# GULP energy per Si atom -12396.044551 kJ/mol
# Density = 2.386579 g / cm^3
# Si number density = 23.920236 Si / 1000 Ang^3
#
#
#
# Elastic Constant Matrix: (Units=GPa)
#
#
# Indices 1 2 3 4 5 6 
#
# 1 116.8729 43.5197 25.7789 -15.1465 5.1111 -15.4888
# 2 43.5197 126.9559 28.1994 -4.0435 -5.7830 -12.3281
# 3 25.7789 28.1994 78.8718 -0.1513 -1.7944 -0.8711
# 4 -15.1465 -4.0435 -0.1513 41.0708 -13.7526 12.5188
# 5 5.1111 -5.7830 -1.7944 -13.7526 33.3485 -0.3580
# 6 -15.4888 -12.3281 -0.8711 12.5188 -0.3580 60.4444
#
#
#
# Elastic Compliance Matrix: (Units=1/GPa)
#
#
# Indices 1 2 3 4 5 6 
#
# 1 0.010833 -0.002973 -0.002481 0.002851 -0.001117 0.001537
# 2 -0.002973 0.009645 -0.002416 0.000196 0.002091 0.001142
# 3 -0.002481 -0.002416 0.014353 -0.000722 0.000427 -0.000769
# 4 0.002851 0.000196 -0.000722 0.031290 0.012401 -0.005647
# 5 -0.001117 0.002091 0.000427 0.012401 0.035634 -0.002211
# 6 0.001537 0.001142 -0.000769 -0.005647 -0.002211 0.018316
#
#
# Mechanical properties :
#
#
# Convention : Reuss Voigt Hill
#
# Bulk Modulus (GPa) = 52.38030 57.52185 54.95108
# Shear Modulus (GPa) = 35.16815 41.98624 38.57719
#
# Velocity S-wave (km/s) = 3.83851 4.19413 4.02025
# Velocity P-wave (km/s) = 6.44911 6.89593 6.67626
#
# Compressibility (1/GPa) = 0.01909115
#
# Stress axis : x y z
#
# Youngs Moduli (GPa) = 92.31477 103.68008 69.67079
#
# Poissons Ratio (x) = 0.30826 0.17282
# Poissons Ratio (y) = 0.27447 0.16833
# Poissons Ratio (z) = 0.22899 0.25050
#
# Static dielectric constant tensor:
#      x y z
#    x 4.640660 -0.277560 0.357930 
#    y -0.277560 4.478620 -0.099230 
#    z 0.357930 -0.099230 4.665160 
# 
# 
# High freq. dielectric constant tensor:
#      x y z
#    x 1.959640 -0.014810 0.018360 
#    y -0.014810 1.967580 0.012290 
#    z 0.018360 0.012290 1.942800 
# 
# From -- ./inp_files/218368.got.cif
#   From: 2010.06.25/outbox.cif.g09.slc.cpg/sg2_110_cif.got.tgz:218368.got - 2010.06.27 13:26:56.
