data_PCOD8035158
_publ_section_title
;
Structure prediction by ZEFSAII (Michael W. Deem and Ramdas Pophale) SiO2 
 PCOD8035158
Probable space group: P -1
;
_chemical_formula_sum "Si O2"
_cell_formula_units_Z 14
_cell_length_a 10.941788
_cell_length_b 16.514163
_cell_length_c 12.582337
_cell_angle_alpha 154.536928
_cell_angle_beta 133.861577
_cell_angle_gamma 32.184947
_cell_volume 494.845675
_symmetry_space_group_name_H-M "P -1"
_symmetry_group_IT_number 2
_symmetry_cell_setting 'triclinic'
loop_
_space_group_symop_operation_xyz
x,y,z
-x,-y,-z
loop_
_atom_site_type_symbol
_atom_site_label
_atom_site_fract_x
_atom_site_fract_y
_atom_site_fract_z
Si Si1 0.582704 0.602860 0.244066
Si Si2 0.990238 0.288768 0.273528
Si Si3 0.509943 0.750142 0.977432
Si Si4 0.223555 0.378095 0.818785
Si Si5 0.758438 0.903347 0.226965
Si Si6 0.110863 0.684888 0.511466
Si Si7 0.626476 0.261834 0.389293
O O1 0.772885 0.373787 0.173969
O O2 0.716314 0.644665 0.296208
O O3 0.350731 0.883513 0.491781
O O4 0.500000 0.500000 0.000000
O O5 0.932142 0.280058 0.348378
O O6 0.000000 0.500000 0.500000
O O7 0.248600 0.993816 0.056616
O O8 0.532805 0.805180 0.180432
O O9 0.697907 0.732366 0.005171
O O10 0.571848 0.480874 0.694790
O O11 0.082372 0.290556 0.637318
O O12 0.950301 0.321946 0.878389
O O13 0.656198 0.051503 0.227257
O O14 0.401464 0.398153 0.333973
O O15 0.124376 0.881650 0.696415
#
# Coordination Sequence:
#
# PCOD8035158 Si02
#       7
#     2   2   2   2   2   2   2
#     4  12  28  53  84 125 158 214 280 335 410 483
#     4  12  24  53  82 116 165 215 269 341 408 487
#     4  12  27  52  81 117 166 214 274 333 406 486
#     4  12  28  52  84 119 164 223 263 339 412 474
#     4  12  26  54  84 113 170 207 276 333 403 485
#     4  11  24  48  76 121 162 206 277 326 413 475
#     4  11  26  48  76 125 156 215 274 334 400 489
#
# _framework density 28.291650000000001
#
# number of rings (size 3 to 8) (size 9 to 14) (size 15 to 20)
#    0.000    0.286    5.714    1.286    0.000    8.000 
#    7.714    0.000    0.000    0.000    0.000    0.000 
#    0.000    0.000    0.000    0.000    0.000    0.000 
#
# Total GULP energy -173490.374399 kJ/mol
# GULP energy per Si atom -12392.169600 kJ/mol
# Density = 2.822726 g / cm^3
# Si number density = 28.291650 Si / 1000 Ang^3
#
#
#
# Elastic Constant Matrix: (Units=GPa)
#
#
# Indices 1 2 3 4 5 6 
#
# 1 130.4643 -2.8435 4.6867 9.3471 -16.7792 8.3378
# 2 -2.8435 127.6415 39.2503 -22.8123 -11.3122 4.0935
# 3 4.6867 39.2503 73.5512 -17.8733 -17.0128 -8.6296
# 4 9.3471 -22.8123 -17.8733 55.9539 -5.4058 -4.4107
# 5 -16.7792 -11.3122 -17.0128 -5.4058 38.6920 6.0497
# 6 8.3378 4.0935 -8.6296 -4.4107 6.0497 47.0389
#
#
#
# Elastic Compliance Matrix: (Units=1/GPa)
#
#
# Indices 1 2 3 4 5 6 
#
# 1 0.008404 0.000538 -0.000490 -0.001152 0.003772 -0.002219
# 2 0.000538 0.009897 -0.004494 0.002543 0.001783 -0.001772
# 3 -0.000490 -0.004494 0.019443 0.005443 0.007216 0.003627
# 4 -0.001152 0.002543 0.005443 0.021533 0.005283 0.002321
# 5 0.003772 0.001783 0.007216 0.005283 0.032409 -0.003173
# 6 -0.002219 -0.001772 0.003627 0.002321 -0.003173 0.023098
#
#
# Mechanical properties :
#
#
# Convention : Reuss Voigt Hill
#
# Bulk Modulus (GPa) = 34.66005 45.98267 40.32136
# Shear Modulus (GPa) = 37.51121 47.70785 42.60953
#
# Velocity S-wave (km/s) = 3.64521 4.11090 3.88504
# Velocity P-wave (km/s) = 5.47671 6.23065 5.86580
#
# Compressibility (1/GPa) = 0.02885166
#
# Stress axis : x y z
#
# Youngs Moduli (GPa) = 118.99448 101.03564 51.43343
#
# Poissons Ratio (x) = -0.05431 0.02521
# Poissons Ratio (y) = -0.06397 0.23112
# Poissons Ratio (z) = 0.05832 0.45401
#
# Static dielectric constant tensor:
#      x y z
#    x 5.988080 -0.003560 0.073220 
#    y -0.003560 5.563130 0.117310 
#    z 0.073220 0.117310 4.959480 
# 
# 
# High freq. dielectric constant tensor:
#      x y z
#    x 2.174400 0.004110 -0.006820 
#    y 0.004110 2.144040 -0.014680 
#    z -0.006820 -0.014680 2.140940 
# 
# From -- ./inp_files/523074.got.cif
#   From: 2010.06.25/outbox.cif.g09.slc.cpg/sg2_262_cif.got.tgz:523074.got - 2010.06.27 13:26:56.
