data_PCOD8035079
_publ_section_title
;
Structure prediction by ZEFSAII (Michael W. Deem and Ramdas Pophale) SiO2 
 PCOD8035079
Probable space group: P -1
;
_chemical_formula_sum "Si O2"
_cell_formula_units_Z 16
_cell_length_a 12.709229
_cell_length_b 5.207682
_cell_length_c 10.671086
_cell_angle_alpha 101.782278
_cell_angle_beta 113.006018
_cell_angle_gamma 100.657076
_cell_volume 608.314637
_symmetry_space_group_name_H-M "P -1"
_symmetry_group_IT_number 2
_symmetry_cell_setting 'triclinic'
loop_
_space_group_symop_operation_xyz
x,y,z
-x,-y,-z
loop_
_atom_site_type_symbol
_atom_site_label
_atom_site_fract_x
_atom_site_fract_y
_atom_site_fract_z
Si Si1 0.987168 0.510893 0.641667
Si Si2 0.128005 0.131381 0.784230
Si Si3 0.461683 0.425139 0.113379
Si Si4 0.653483 0.100383 0.874171
Si Si5 0.310202 0.192264 0.647870
Si Si6 0.859069 0.908609 0.940790
Si Si7 0.239328 0.377727 0.389751
Si Si8 0.541946 0.167139 0.413928
O O1 0.037904 0.290353 0.710330
O O2 0.000000 0.500000 0.500000
O O3 0.846701 0.432615 0.601723
O O4 0.055312 0.817226 0.749262
O O5 0.232326 0.157981 0.734953
O O6 0.176140 0.248848 0.956777
O O7 0.393127 0.096334 0.045187
O O8 0.583022 0.513282 0.265426
O O9 0.376627 0.616374 0.127744
O O10 0.500000 0.500000 0.000000
O O11 0.797377 0.158665 0.935381
O O12 0.583079 0.861738 0.717805
O O13 0.226303 0.171459 0.482909
O O14 0.373924 0.954472 0.649106
O O15 0.797493 0.732273 0.776372
O O16 0.000000 0.000000 0.000000
O O17 0.380638 0.534814 0.472698
O O18 0.500000 0.000000 0.500000
#
# Coordination Sequence:
#
# PCOD8035079 Si02
#       8
#     2   2   2   2   2   2   2   2
#     4  12  26  48  81 113 155 207 272 330 394 471
#     4  12  28  50  76 117 159 207 268 330 399 475
#     4  11  24  47  78 117 154 204 257 332 401 473
#     4  11  26  48  75 110 156 202 264 322 395 468
#     4  11  25  46  80 115 154 204 271 331 397 476
#     4  12  29  53  76 117 165 216 266 328 406 484
#     4  12  26  49  82 109 161 210 273 326 402 477
#     4  11  26  47  80 116 154 205 268 330 400 474
#
# _framework density 26.302175999999999
#
# number of rings (size 3 to 8) (size 9 to 14) (size 15 to 20)
#    0.000    0.500    3.750    3.000    5.250    5.500 
#    2.250    0.000    0.000    0.000    0.000    0.000 
#    0.000    0.000    0.000    0.000    0.000    0.000 
#
# Total GULP energy -198209.045308 kJ/mol
# GULP energy per Si atom -12388.065332 kJ/mol
# Density = 2.624231 g / cm^3
# Si number density = 26.302176 Si / 1000 Ang^3
#
#
#
# Elastic Constant Matrix: (Units=GPa)
#
#
# Indices 1 2 3 4 5 6 
#
# 1 119.7817 16.4125 67.1471 -23.4151 12.3305 -1.6340
# 2 16.4125 61.0537 8.8479 -5.4621 4.9978 -7.2336
# 3 67.1471 8.8479 180.4112 -17.7446 -13.5293 -9.1297
# 4 -23.4151 -5.4621 -17.7446 38.2187 5.3194 12.2590
# 5 12.3305 4.9978 -13.5293 5.3194 56.9900 -7.0056
# 6 -1.6340 -7.2336 -9.1297 12.2590 -7.0056 37.7630
#
#
#
# Elastic Compliance Matrix: (Units=1/GPa)
#
#
# Indices 1 2 3 4 5 6 
#
# 1 0.013250 -0.002307 -0.004659 0.007753 -0.005041 -0.004447
# 2 -0.002307 0.017418 0.000136 0.000243 -0.000641 0.003072
# 3 -0.004659 0.000136 0.007576 -0.000528 0.003140 0.002410
# 4 0.007753 0.000243 -0.000528 0.035668 -0.006698 -0.012567
# 5 -0.005041 -0.000641 0.003140 -0.006698 0.020859 0.006462
# 6 -0.004447 0.003072 0.002410 -0.012567 0.006462 0.032738
#
#
# Mechanical properties :
#
#
# Convention : Reuss Voigt Hill
#
# Bulk Modulus (GPa) = 40.67904 60.67350 50.67627
# Shear Modulus (GPa) = 33.47527 44.51694 38.99610
#
# Velocity S-wave (km/s) = 3.57139 4.11849 3.85466
# Velocity P-wave (km/s) = 5.70141 6.76268 6.25459
#
# Compressibility (1/GPa) = 0.02458268
#
# Stress axis : x y z
#
# Youngs Moduli (GPa) = 75.47065 57.41278 131.99989
#
# Poissons Ratio (x) = 0.13247 0.61498
# Poissons Ratio (y) = 0.17414 -0.01793
# Poissons Ratio (z) = 0.35161 -0.00780
#
# Static dielectric constant tensor:
#      x y z
#    x 5.401980 -0.453380 0.299580 
#    y -0.453380 5.161680 0.183490 
#    z 0.299580 0.183490 5.546200 
# 
# 
# High freq. dielectric constant tensor:
#      x y z
#    x 2.071420 -0.003590 0.004770 
#    y -0.003590 2.035320 -0.013080 
#    z 0.004770 -0.013080 2.082670 
# 
# From -- ./inp_files/410914.got.cif
#   From: 2010.06.25/outbox.cif.g09.slc.cpg/sg2_206_cif.got.tgz:410914.got - 2010.06.27 13:26:56.
