data_PCOD8035073
_publ_section_title
;
Structure prediction by ZEFSAII (Michael W. Deem and Ramdas Pophale) SiO2 
 PCOD8035073
Probable space group: P -1
;
_chemical_formula_sum "Si O2"
_cell_formula_units_Z 16
_cell_length_a 15.268241
_cell_length_b 8.383324
_cell_length_c 14.405094
_cell_angle_alpha 64.165817
_cell_angle_beta 37.507739
_cell_angle_gamma 92.236746
_cell_volume 719.616221
_symmetry_space_group_name_H-M "P -1"
_symmetry_group_IT_number 2
_symmetry_cell_setting 'triclinic'
loop_
_space_group_symop_operation_xyz
x,y,z
-x,-y,-z
loop_
_atom_site_type_symbol
_atom_site_label
_atom_site_fract_x
_atom_site_fract_y
_atom_site_fract_z
Si Si1 0.004792 0.540946 0.249055
Si Si2 0.772172 0.468892 0.633697
Si Si3 0.472827 0.218442 0.396269
Si Si4 0.165406 0.718554 0.876766
Si Si5 0.989447 0.956925 0.412332
Si Si6 0.345191 0.857586 0.023664
Si Si7 0.411986 0.312339 0.884657
Si Si8 0.300693 0.007971 0.400113
O O1 0.844388 0.506360 0.456874
O O2 0.191524 0.647536 0.130068
O O3 0.904892 0.281271 0.354949
O O4 0.074778 0.704886 0.055763
O O5 0.730146 0.249625 0.780645
O O6 0.566817 0.406088 0.814838
O O7 0.950851 0.718712 0.478199
O O8 0.675256 0.303554 0.242050
O O9 0.499362 0.455732 0.315115
O O10 0.432536 0.105845 0.356622
O O11 0.277015 0.993197 0.677852
O O12 0.000000 0.500000 0.000000
O O13 0.200088 0.203777 0.129007
O O14 0.000000 0.000000 0.500000
O O15 0.785342 0.869506 0.567389
O O16 0.555852 0.933849 0.818462
O O17 0.375026 0.092851 0.918975
#
# Coordination Sequence:
#
# PCOD8035073 Si02
#       8
#     2   2   2   2   2   2   2   2
#     4  12  24  44  73 103 137 191 240 289 357 424
#     4  12  26  44  70 103 150 195 235 283 351 430
#     4  11  25  45  74 105 137 183 237 304 360 416
#     4  11  24  47  78 105 136 181 242 301 367 425
#     4  12  27  41  67 105 147 194 243 287 344 416
#     4  12  26  44  71 104 150 194 232 282 354 432
#     4  12  26  46  68 103 150 187 233 296 349 420
#     4  12  24  42  73 103 143 185 242 292 349 424
#
# _framework density 22.234074
#
# number of rings (size 3 to 8) (size 9 to 14) (size 15 to 20)
#    0.000    0.250    6.250    3.000    3.500    1.000 
#    0.000    1.250    0.000    0.000    0.000    0.000 
#    0.000    0.000    0.000    0.000    0.000    0.000 
#
# Total GULP energy -198319.684479 kJ/mol
# GULP energy per Si atom -12394.980280 kJ/mol
# Density = 2.218347 g / cm^3
# Si number density = 22.234074 Si / 1000 Ang^3
#
#
#
# Elastic Constant Matrix: (Units=GPa)
#
#
# Indices 1 2 3 4 5 6 
#
# 1 120.9935 39.7571 66.7070 -4.6291 0.6135 1.7433
# 2 39.7571 96.5761 58.3020 -11.2519 11.7467 -4.8808
# 3 66.7070 58.3020 150.0746 -2.4509 9.6153 -3.8722
# 4 -4.6291 -11.2519 -2.4509 45.6906 3.6877 3.7496
# 5 0.6135 11.7467 9.6153 3.6877 51.7337 -1.7992
# 6 1.7433 -4.8808 -3.8722 3.7496 -1.7992 40.0959
#
#
#
# Elastic Compliance Matrix: (Units=1/GPa)
#
#
# Indices 1 2 3 4 5 6 
#
# 1 0.011393 -0.002254 -0.004283 0.000376 0.001105 -0.001169
# 2 -0.002254 0.014747 -0.004474 0.003296 -0.002689 0.001032
# 3 -0.004283 -0.004474 0.010356 -0.000976 -0.000764 0.000699
# 4 0.000376 0.003296 -0.000976 0.023029 -0.002281 -0.001965
# 5 0.001105 -0.002689 -0.000764 -0.002281 0.020255 0.000673
# 6 -0.001169 0.001032 0.000699 -0.001965 0.000673 0.025398
#
#
# Mechanical properties :
#
#
# Convention : Reuss Voigt Hill
#
# Bulk Modulus (GPa) = 69.09432 77.46403 73.27917
# Shear Modulus (GPa) = 37.87158 41.02925 39.45041
#
# Velocity S-wave (km/s) = 4.13160 4.30039 4.21684
# Velocity P-wave (km/s) = 7.34190 7.71840 7.53250
#
# Compressibility (1/GPa) = 0.01447297
#
# Stress axis : x y z
#
# Youngs Moduli (GPa) = 87.77671 67.81192 96.55849
#
# Poissons Ratio (x) = 0.15284 0.41357
# Poissons Ratio (y) = 0.19784 0.43203
# Poissons Ratio (z) = 0.37596 0.30341
#
# Static dielectric constant tensor:
#      x y z
#    x 3.319830 0.443580 -0.020740 
#    y 0.443580 3.487470 -0.232150 
#    z -0.020740 -0.232150 4.382390 
# 
# 
# High freq. dielectric constant tensor:
#      x y z
#    x 1.869950 0.006380 -0.019950 
#    y 0.006380 1.860830 -0.013830 
#    z -0.019950 -0.013830 1.899280 
# 
# From -- ./inp_files/528266.got.cif
#   From: 2010.06.25/outbox.cif.g09.slc.cpg/sg2_265_cif.got.tgz:528266.got - 2010.06.27 13:26:56.
