data_PCOD8035876
_publ_section_title
;
Structure prediction by ZEFSAII (Michael W. Deem and Ramdas Pophale) SiO2 
 PCOD8035876
Probable space group: P -1
;
_chemical_formula_sum "Si O2"
_cell_formula_units_Z 12
_cell_length_a 8.668284
_cell_length_b 7.739400
_cell_length_c 14.110253
_cell_angle_alpha 127.800598
_cell_angle_beta 39.942582
_cell_angle_gamma 136.036818
_cell_volume 417.917552
_symmetry_space_group_name_H-M "P -1"
_symmetry_group_IT_number 2
_symmetry_cell_setting 'triclinic'
loop_
_space_group_symop_operation_xyz
x,y,z
-x,-y,-z
loop_
_atom_site_type_symbol
_atom_site_label
_atom_site_fract_x
_atom_site_fract_y
_atom_site_fract_z
Si Si1 0.758735 0.821241 0.391569
Si Si2 0.206215 0.300762 0.460874
Si Si3 0.344829 0.802156 0.364843
Si Si4 0.872968 0.372761 0.919276
Si Si5 0.931670 0.170123 0.155796
Si Si6 0.300448 0.290096 0.206672
O O1 0.487558 0.560853 0.415727
O O2 0.811200 0.866818 0.496504
O O3 0.016619 0.826250 0.214295
O O4 0.716408 0.063553 0.468813
O O5 0.191534 0.160363 0.319218
O O6 0.944005 0.348381 0.608128
O O7 0.425399 0.587383 0.276116
O O8 0.600360 0.031441 0.268775
O O9 0.972598 0.561050 0.846715
O O10 0.541649 0.239870 0.037801
O O11 0.000000 0.500000 0.000000
O O12 0.069413 0.196827 0.202668
O O13 0.000000 0.000000 0.000000
#
# Coordination Sequence:
#
# PCOD8035876 Si02
#       6
#     2   2   2   2   2   2
#     4  11  25  48  77 112 154 199 251 307 385 441
#     4  11  25  47  76 113 153 198 248 316 373 446
#     4  12  26  47  77 109 149 201 254 306 372 450
#     4  12  26  52  77 110 155 202 248 314 375 453
#     4  12  28  50  79 112 151 203 252 312 381 450
#     4  12  27  50  78 113 153 196 255 314 376 444
#
# _framework density 28.713799999999999
#
# number of rings (size 3 to 8) (size 9 to 14) (size 15 to 20)
#    0.000    0.333    3.333    5.500    2.333    4.000 
#    0.000    1.667    0.000    0.000    0.000    0.000 
#    0.000    0.000    0.000    0.000    0.000    0.000 
#
# Total GULP energy -148700.811197 kJ/mol
# GULP energy per Si atom -12391.734266 kJ/mol
# Density = 2.864845 g / cm^3
# Si number density = 28.713800 Si / 1000 Ang^3
#
#
#
# Elastic Constant Matrix: (Units=GPa)
#
#
# Indices 1 2 3 4 5 6 
#
# 1 167.9567 27.7491 68.9485 -20.4284 18.0751 19.7495
# 2 27.7491 103.3466 80.3301 5.0637 3.9983 1.6618
# 3 68.9485 80.3301 222.1971 -6.5610 -20.8893 22.0478
# 4 -20.4284 5.0637 -6.5610 81.5866 6.8508 -10.5632
# 5 18.0751 3.9983 -20.8893 6.8508 65.2606 -7.8092
# 6 19.7495 1.6618 22.0478 -10.5632 -7.8092 36.8902
#
#
#
# Elastic Compliance Matrix: (Units=1/GPa)
#
#
# Indices 1 2 3 4 5 6 
#
# 1 0.007890 -0.000189 -0.002353 0.001694 -0.003471 -0.003059
# 2 -0.000189 0.014072 -0.005463 -0.000915 -0.002223 0.002000
# 3 -0.002353 -0.005463 0.007748 -0.000220 0.003189 -0.002513
# 4 0.001694 -0.000915 -0.000220 0.013202 -0.001544 0.002719
# 5 -0.003471 -0.002223 0.003189 -0.001544 0.018013 0.003423
# 6 -0.003059 0.002000 -0.002513 0.002719 0.003423 0.031661
#
#
# Mechanical properties :
#
#
# Convention : Reuss Voigt Hill
#
# Bulk Modulus (GPa) = 72.99124 94.17289 83.58206
# Shear Modulus (GPa) = 44.18406 57.84567 51.01486
#
# Velocity S-wave (km/s) = 3.92698 4.49325 4.21963
# Velocity P-wave (km/s) = 6.78506 7.73223 7.27408
#
# Compressibility (1/GPa) = 0.01370027
#
# Stress axis : x y z
#
# Youngs Moduli (GPa) = 126.73967 71.06255 129.06129
#
# Poissons Ratio (x) = 0.01346 0.30363
# Poissons Ratio (y) = 0.02401 0.70508
# Poissons Ratio (z) = 0.29817 0.38822
#
# Static dielectric constant tensor:
#      x y z
#    x 5.705080 -0.022340 -0.193410 
#    y -0.022340 5.758030 -0.049570 
#    z -0.193410 -0.049570 5.931350 
# 
# 
# High freq. dielectric constant tensor:
#      x y z
#    x 2.175070 0.021390 -0.007900 
#    y 0.021390 2.213430 0.000770 
#    z -0.007900 0.000770 2.186230 
# 
# From -- ./inp_files/493557.got.cif
#   From: 2010.06.25/outbox.cif.g09.slc.cpg/sg2_247_cif.got.tgz:493557.got - 2010.06.27 13:26:56.
