data_PCOD8035942
_publ_section_title
;
Structure prediction by ZEFSAII (Michael W. Deem and Ramdas Pophale) SiO2 
 PCOD8035942
Probable space group: P -1
;
_chemical_formula_sum "Si O2"
_cell_formula_units_Z 16
_cell_length_a 11.600577
_cell_length_b 12.471696
_cell_length_c 6.695083
_cell_angle_alpha 127.648023
_cell_angle_beta 81.210249
_cell_angle_gamma 103.243930
_cell_volume 746.443264
_symmetry_space_group_name_H-M "P -1"
_symmetry_group_IT_number 2
_symmetry_cell_setting 'triclinic'
loop_
_space_group_symop_operation_xyz
x,y,z
-x,-y,-z
loop_
_atom_site_type_symbol
_atom_site_label
_atom_site_fract_x
_atom_site_fract_y
_atom_site_fract_z
Si Si1 0.395731 0.070529 0.513388
Si Si2 0.156743 0.431172 0.248037
Si Si3 0.268366 0.957650 0.039539
Si Si4 0.256569 0.616068 0.085482
Si Si5 0.305499 0.202358 0.049122
Si Si6 0.449786 0.628318 0.731511
Si Si7 0.888102 0.325695 0.176957
Si Si8 0.605974 0.216162 0.432355
O O1 0.468930 0.200823 0.520855
O O2 0.500000 0.000000 0.500000
O O3 0.303554 0.121639 0.747571
O O4 0.314909 0.968322 0.266406
O O5 0.204933 0.481586 0.074361
O O6 0.242679 0.335076 0.208329
O O7 0.151565 0.559981 0.539309
O O8 0.028720 0.338531 0.149781
O O9 0.160907 0.828636 0.907075
O O10 0.371476 0.928583 0.827538
O O11 0.238189 0.101310 0.125063
O O12 0.302478 0.742844 0.364844
O O13 0.369156 0.585717 0.896832
O O14 0.155183 0.654956 0.014606
O O15 0.444446 0.246704 0.110443
O O16 0.500000 0.500000 0.500000
O O17 0.368203 0.671788 0.624836
#
# Coordination Sequence:
#
# PCOD8035942 Si02
#       8
#     2   2   2   2   2   2   2   2
#     4  12  23  38  65  98 141 179 215 268 336 420
#     4  11  27  48  70  98 136 179 235 291 338 392
#     4  12  24  42  69  98 138 180 227 278 338 405
#     4  12  22  42  71  99 130 174 231 277 333 407
#     4  12  26  42  64 106 141 178 221 276 347 411
#     4  12  25  39  64 102 142 177 215 275 348 411
#     4  11  25  48  74  97 127 184 240 286 338 397
#     4  12  22  39  62 100 133 177 217 265 339 411
#
# _framework density 21.434987
#
# number of rings (size 3 to 8) (size 9 to 14) (size 15 to 20)
#    0.000    0.250    6.250    3.750    1.750    2.500 
#    0.000    0.625    0.000    0.000    0.000    0.000 
#    0.000    0.000    0.000    0.000    0.000    0.000 
#
# Total GULP energy -198415.848753 kJ/mol
# GULP energy per Si atom -12400.990547 kJ/mol
# Density = 2.138620 g / cm^3
# Si number density = 21.434987 Si / 1000 Ang^3
#
#
#
# Elastic Constant Matrix: (Units=GPa)
#
#
# Indices 1 2 3 4 5 6 
#
# 1 87.1975 39.1299 30.6654 -5.8638 10.2993 15.1141
# 2 39.1299 139.3488 27.4445 -12.3882 -1.4866 13.6639
# 3 30.6654 27.4445 112.9894 -12.2645 9.3638 9.8712
# 4 -5.8638 -12.3882 -12.2645 31.2039 0.4382 5.3002
# 5 10.2993 -1.4866 9.3638 0.4382 32.5327 6.2743
# 6 15.1141 13.6639 9.8712 5.3002 6.2743 33.1950
#
#
#
# Elastic Compliance Matrix: (Units=1/GPa)
#
#
# Indices 1 2 3 4 5 6 
#
# 1 0.015033 -0.003219 -0.002491 0.001356 -0.003367 -0.004359
# 2 -0.003219 0.008816 -0.000879 0.002993 0.002173 -0.002791
# 3 -0.002491 -0.000879 0.010455 0.003629 -0.001958 -0.001822
# 4 0.001356 0.002993 0.003629 0.036399 -0.000147 -0.008712
# 5 -0.003367 0.002173 -0.001958 -0.000147 0.033448 -0.005078
# 6 -0.004359 -0.002791 -0.001822 -0.008712 -0.005078 0.036151
#
#
# Mechanical properties :
#
#
# Convention : Reuss Voigt Hill
#
# Bulk Modulus (GPa) = 47.33378 59.33503 53.33440
# Shear Modulus (GPa) = 31.14808 35.53938 33.34373
#
# Velocity S-wave (km/s) = 3.81615 4.07628 3.94836
# Velocity P-wave (km/s) = 6.44575 7.06373 6.76180
#
# Compressibility (1/GPa) = 0.02112656
#
# Stress axis : x y z
#
# Youngs Moduli (GPa) = 66.51973 113.42857 95.64356
#
# Poissons Ratio (x) = 0.36509 0.23826
# Poissons Ratio (y) = 0.21411 0.08409
# Poissons Ratio (z) = 0.16571 0.09973
#
# Static dielectric constant tensor:
#      x y z
#    x 3.079260 0.870280 0.003800 
#    y 0.870280 3.613790 -0.030390 
#    z 0.003800 -0.030390 4.008250 
# 
# 
# High freq. dielectric constant tensor:
#      x y z
#    x 1.816320 0.014550 0.011970 
#    y 0.014550 1.853920 -0.007390 
#    z 0.011970 -0.007390 1.853410 
# 
# From -- ./inp_files/71974.got.cif
#   From: 2010.06.25/outbox.cif.g09.slc.cpg/sg2_36_cif.got.tgz:71974.got - 2010.06.27 13:26:56.
