data_PCOD8035738
_publ_section_title
;
Structure prediction by ZEFSAII (Michael W. Deem and Ramdas Pophale) SiO2 
 PCOD8035738
Probable space group: P -1
;
_chemical_formula_sum "Si O2"
_cell_formula_units_Z 16
_cell_length_a 18.385904
_cell_length_b 11.199171
_cell_length_c 9.134320
_cell_angle_alpha 121.457601
_cell_angle_beta 149.661390
_cell_angle_gamma 50.851868
_cell_volume 735.484134
_symmetry_space_group_name_H-M "P -1"
_symmetry_group_IT_number 2
_symmetry_cell_setting 'triclinic'
loop_
_space_group_symop_operation_xyz
x,y,z
-x,-y,-z
loop_
_atom_site_type_symbol
_atom_site_label
_atom_site_fract_x
_atom_site_fract_y
_atom_site_fract_z
Si Si1 0.736754 0.383984 0.221971
Si Si2 0.995598 0.868008 0.306287
Si Si3 0.424972 0.385433 0.671966
Si Si4 0.337716 0.557816 0.340522
Si Si5 0.855551 0.097670 0.712397
Si Si6 0.184779 0.443225 0.778202
Si Si7 0.338467 0.113988 0.366961
Si Si8 0.334314 0.095382 0.698840
O O1 0.901162 0.291279 0.533027
O O2 0.626103 0.541570 0.211027
O O3 0.777017 0.432888 0.167562
O O4 0.619856 0.295213 0.943795
O O5 0.083986 0.864014 0.308307
O O6 0.000000 0.000000 0.500000
O O7 0.816079 0.892006 0.979525
O O8 0.365521 0.520817 0.535972
O O9 0.333582 0.278466 0.424351
O O10 0.500000 0.500000 0.500000
O O11 0.249739 0.742267 0.286817
O O12 0.242218 0.461692 0.052124
O O13 0.766890 0.988651 0.462620
O O14 0.000000 0.000000 0.000000
O O15 0.267096 0.271695 0.747296
O O16 0.000000 0.500000 0.500000
O O17 0.341261 0.084649 0.527509
O O18 0.500000 0.000000 0.500000
O O19 0.500000 0.000000 0.000000
#
# Coordination Sequence:
#
# PCOD8035738 Si02
#       8
#     2   2   2   2   2   2   2   2
#     4  11  25  47  73 104 144 194 245 302 364 439
#     4  12  29  48  76 108 148 196 246 308 378 443
#     4  11  25  46  75 102 146 189 251 300 364 439
#     4  12  26  46  75 108 144 199 246 299 367 443
#     4  12  27  50  74 107 151 200 247 301 372 443
#     4  12  28  46  73 111 147 189 248 304 365 436
#     4  12  29  49  74 110 147 195 248 307 376 447
#     4  12  29  48  76 109 153 193 245 305 369 441
#
# _framework density 21.754379
#
# number of rings (size 3 to 8) (size 9 to 14) (size 15 to 20)
#    0.000    0.250    5.000    2.250   12.250    0.500 
#    0.000    0.000    0.000    0.000    0.000    0.000 
#    0.000    0.000    0.000    0.000    0.000    0.000 
#
# Total GULP energy -198370.339899 kJ/mol
# GULP energy per Si atom -12398.146244 kJ/mol
# Density = 2.170487 g / cm^3
# Si number density = 21.754379 Si / 1000 Ang^3
#
#
#
# Elastic Constant Matrix: (Units=GPa)
#
#
# Indices 1 2 3 4 5 6 
#
# 1 84.5290 34.6258 36.8259 -2.4649 10.4942 -0.7102
# 2 34.6258 110.3217 52.6313 -4.9186 8.0754 -2.1298
# 3 36.8259 52.6313 185.5248 -2.2209 15.9014 1.8523
# 4 -2.4649 -4.9186 -2.2209 45.5351 3.6340 2.5516
# 5 10.4942 8.0754 15.9014 3.6340 42.4663 2.9707
# 6 -0.7102 -2.1298 1.8523 2.5516 2.9707 34.5121
#
#
#
# Elastic Compliance Matrix: (Units=1/GPa)
#
#
# Indices 1 2 3 4 5 6 
#
# 1 0.014284 -0.003503 -0.001641 0.000481 -0.002314 0.000329
# 2 -0.003503 0.011452 -0.002507 0.000924 -0.000505 0.000744
# 3 -0.001641 -0.002507 0.006566 0.000108 -0.001557 -0.000415
# 4 0.000481 0.000924 0.000108 0.022342 -0.002149 -0.001406
# 5 -0.002314 -0.000505 -0.001557 -0.002149 0.025122 -0.001999
# 6 0.000329 0.000744 -0.000415 -0.001406 -0.001999 0.029326
#
#
# Mechanical properties :
#
#
# Convention : Reuss Voigt Hill
#
# Bulk Modulus (GPa) = 58.82077 69.83794 64.32936
# Shear Modulus (GPa) = 38.44335 41.58888 40.01611
#
# Velocity S-wave (km/s) = 4.20831 4.37710 4.29353
# Velocity P-wave (km/s) = 7.12113 7.59723 7.36303
#
# Compressibility (1/GPa) = 0.01700080
#
# Stress axis : x y z
#
# Youngs Moduli (GPa) = 70.00763 87.31885 152.30565
#
# Poissons Ratio (x) = 0.30591 0.24989
# Poissons Ratio (y) = 0.24526 0.38177
# Poissons Ratio (z) = 0.11486 0.21887
#
# Static dielectric constant tensor:
#      x y z
#    x 4.042140 0.137080 0.178250 
#    y 0.137080 3.978200 0.032260 
#    z 0.178250 0.032260 4.310490 
# 
# 
# High freq. dielectric constant tensor:
#      x y z
#    x 1.868990 -0.001090 0.001970 
#    y -0.001090 1.857900 0.000320 
#    z 0.001970 0.000320 1.877610 
# 
# From -- ./inp_files/208380.got.cif
#   From: 2010.06.25/outbox.cif.g09.slc.cpg/sg2_105_cif.got.tgz:208380.got - 2010.06.27 13:26:56.
