data_PCOD8035916
_publ_section_title
;
Structure prediction by ZEFSAII (Michael W. Deem and Ramdas Pophale) SiO2 
 PCOD8035916
Probable space group: P -1
;
_chemical_formula_sum "Si O2"
_cell_formula_units_Z 10
_cell_length_a 14.838499
_cell_length_b 11.216910
_cell_length_c 15.512174
_cell_angle_alpha 149.387495
_cell_angle_beta 18.376511
_cell_angle_gamma 151.931308
_cell_volume 378.262954
_symmetry_space_group_name_H-M "P -1"
_symmetry_group_IT_number 2
_symmetry_cell_setting 'triclinic'
loop_
_space_group_symop_operation_xyz
x,y,z
-x,-y,-z
loop_
_atom_site_type_symbol
_atom_site_label
_atom_site_fract_x
_atom_site_fract_y
_atom_site_fract_z
Si Si1 0.909039 0.959725 0.261700
Si Si2 0.504093 0.247536 0.798511
Si Si3 0.819915 0.252667 0.777962
Si Si4 0.432070 0.562788 0.327733
Si Si5 0.800799 0.750320 0.408892
O O1 0.605638 0.733819 0.357388
O O2 0.990444 0.875645 0.227757
O O3 0.816806 0.204016 0.511223
O O4 0.200455 0.014523 0.967637
O O5 0.482948 0.255848 0.719914
O O6 0.500000 0.500000 0.000000
O O7 0.063158 0.439209 0.603732
O O8 0.969996 0.315527 0.776673
O O9 0.699794 0.953138 0.677313
O O10 0.520148 0.319358 0.086852
O O11 0.500000 0.500000 0.500000
#
# Coordination Sequence:
#
# PCOD8035916 Si02
#       5
#     2   2   2   2   2
#     4  12  25  43  70 102 135 185 228 281 345 409
#     4  12  25  44  69 101 139 180 229 284 344 411
#     4  11  26  46  72 104 138 184 227 287 342 410
#     4  12  24  47  70 103 140 177 234 284 345 411
#     4  11  25  48  71 103 141 183 234 282 343 408
#
# _framework density 26.436637000000001
#
# number of rings (size 3 to 8) (size 9 to 14) (size 15 to 20)
#    0.000    0.400    2.000    6.600    0.000    5.600 
#    0.000    0.000    0.000    0.000    0.000    0.000 
#    0.000    0.000    0.000    0.000    0.000    0.000 
#
# Total GULP energy -124064.620624 kJ/mol
# GULP energy per Si atom -12406.462062 kJ/mol
# Density = 2.637647 g / cm^3
# Si number density = 26.436637 Si / 1000 Ang^3
#
#
#
# Elastic Constant Matrix: (Units=GPa)
#
#
# Indices 1 2 3 4 5 6 
#
# 1 162.8622 37.6126 28.8868 -18.4970 24.3743 -27.2758
# 2 37.6126 91.0342 3.1144 -0.1450 20.4580 0.7338
# 3 28.8868 3.1144 80.9571 -5.6063 15.1259 -24.5433
# 4 -18.4970 -0.1450 -5.6063 20.9144 3.3186 7.5065
# 5 24.3743 20.4580 15.1259 3.3186 22.5094 7.6046
# 6 -27.2758 0.7338 -24.5433 7.5065 7.6046 49.1482
#
#
#
# Elastic Compliance Matrix: (Units=1/GPa)
#
#
# Indices 1 2 3 4 5 6 
#
# 1 0.011066 -0.000789 0.002670 0.010171 -0.017478 0.008638
# 2 -0.000789 0.014994 0.004191 0.001888 -0.017149 0.003796
# 3 0.002670 0.004191 0.021465 0.006989 -0.027323 0.015299
# 4 0.010171 0.001888 0.006989 0.061683 -0.027871 0.003998
# 5 -0.017478 -0.017149 -0.027323 -0.027871 0.113714 -0.036426
# 6 0.008638 0.003796 0.015299 0.003998 -0.036426 0.037749
#
#
# Mechanical properties :
#
#
# Convention : Reuss Voigt Hill
#
# Bulk Modulus (GPa) = 16.75929 52.67568 34.71749
# Shear Modulus (GPa) = 18.62765 36.19706 27.41235
#
# Velocity S-wave (km/s) = 2.65734 3.70429 3.22360
# Velocity P-wave (km/s) = 3.97095 6.18580 5.19772
#
# Compressibility (1/GPa) = 0.05966839
#
# Stress axis : x y z
#
# Youngs Moduli (GPa) = 90.36438 66.69323 46.58674
#
# Poissons Ratio (x) = 0.05264 -0.12439
# Poissons Ratio (y) = 0.07133 -0.19522
# Poissons Ratio (z) = -0.24129 -0.27948
#
# Static dielectric constant tensor:
#      x y z
#    x 5.069710 -0.286980 0.192840 
#    y -0.286980 4.935120 -0.010900 
#    z 0.192840 -0.010900 4.911870 
# 
# 
# High freq. dielectric constant tensor:
#      x y z
#    x 2.074590 -0.005170 0.011070 
#    y -0.005170 2.068810 0.003290 
#    z 0.011070 0.003290 2.058340 
# 
# From -- ./inp_files/18655.got.cif
#   From: 2010.06.25/outbox.cif.g09.slc.cpg/sg2_10_cif.got.tgz:18655.got - 2010.06.27 13:26:56.
