data_PCOD8035716
_publ_section_title
;
Structure prediction by ZEFSAII (Michael W. Deem and Ramdas Pophale) SiO2 
 PCOD8035716
Probable space group: P -1
;
_chemical_formula_sum "Si O2"
_cell_formula_units_Z 16
_cell_length_a 6.798353
_cell_length_b 9.810262
_cell_length_c 16.222917
_cell_angle_alpha 98.953659
_cell_angle_beta 89.019935
_cell_angle_gamma 134.296664
_cell_volume 758.516623
_symmetry_space_group_name_H-M "P -1"
_symmetry_group_IT_number 2
_symmetry_cell_setting 'triclinic'
loop_
_space_group_symop_operation_xyz
x,y,z
-x,-y,-z
loop_
_atom_site_type_symbol
_atom_site_label
_atom_site_fract_x
_atom_site_fract_y
_atom_site_fract_z
Si Si1 0.804059 0.776304 0.961444
Si Si2 0.315264 0.672846 0.537828
Si Si3 0.898209 0.365089 0.765396
Si Si4 0.642321 0.509148 0.340712
Si Si5 0.833714 0.532843 0.053525
Si Si6 0.655217 0.050280 0.322101
Si Si7 0.870782 0.666243 0.778703
Si Si8 0.763397 0.869034 0.423001
O O1 0.486096 0.670603 0.953271
O O2 0.893879 0.759083 0.872010
O O3 0.852575 0.688367 0.023530
O O4 0.000000 0.000000 0.000000
O O5 0.422433 0.593360 0.580705
O O6 0.375783 0.840721 0.603483
O O7 0.469153 0.753298 0.456869
O O8 0.000000 0.500000 0.500000
O O9 0.133250 0.475362 0.704460
O O10 0.029343 0.378883 0.850652
O O11 0.788196 0.467535 0.780300
O O12 0.647060 0.139727 0.725392
O O13 0.775661 0.724411 0.370601
O O14 0.359589 0.376618 0.279873
O O15 0.000000 0.500000 0.000000
O O16 0.834320 0.182324 0.254354
O O17 0.807279 0.998828 0.361500
O O18 0.000000 0.000000 0.500000
#
# Coordination Sequence:
#
# PCOD8035716 Si02
#       8
#     2   2   2   2   2   2   2   2
#     4  11  27  45  73 109 141 181 235 278 343 422
#     4  12  24  44  68 101 140 181 234 294 352 410
#     4  12  25  47  70 104 142 183 234 287 347 415
#     4  12  24  45  71  97 140 185 228 287 358 404
#     4  11  25  46  74 101 145 187 220 286 349 406
#     4  12  26  43  72 103 137 187 236 285 352 419
#     4  12  25  47  68 104 144 179 229 294 342 411
#     4  12  24  42  66 102 136 178 238 288 342 418
#
# _framework density 21.093800999999999
#
# number of rings (size 3 to 8) (size 9 to 14) (size 15 to 20)
#    0.000    0.250    5.000    4.500    1.750    3.500 
#    0.000    0.000    0.000    0.000    0.000    0.000 
#    0.000    0.000    0.000    0.000    0.000    0.000 
#
# Total GULP energy -198537.144883 kJ/mol
# GULP energy per Si atom -12408.571555 kJ/mol
# Density = 2.104579 g / cm^3
# Si number density = 21.093801 Si / 1000 Ang^3
#
#
#
# Elastic Constant Matrix: (Units=GPa)
#
#
# Indices 1 2 3 4 5 6 
#
# 1 98.8178 38.7510 36.4311 13.2928 5.2546 0.0715
# 2 38.7510 113.0618 45.8794 20.0407 8.7368 -0.9203
# 3 36.4311 45.8794 112.2438 12.3846 6.9467 -2.2764
# 4 13.2928 20.0407 12.3846 40.0662 0.1357 1.1857
# 5 5.2546 8.7368 6.9467 0.1357 52.0563 -0.2806
# 6 0.0715 -0.9203 -2.2764 1.1857 -0.2806 45.7884
#
#
#
# Elastic Compliance Matrix: (Units=1/GPa)
#
#
# Indices 1 2 3 4 5 6 
#
# 1 0.012490 -0.002832 -0.002664 -0.001898 -0.000426 -0.000162
# 2 -0.002832 0.012035 -0.003477 -0.004006 -0.001259 0.000169
# 3 -0.002664 -0.003477 0.011345 -0.000897 -0.000656 0.000518
# 4 -0.001898 -0.004006 -0.000897 0.027891 0.000906 -0.000839
# 5 -0.000426 -0.001259 -0.000656 0.000906 0.019550 0.000039
# 6 -0.000162 0.000169 0.000518 -0.000839 0.000039 0.021891
#
#
# Mechanical properties :
#
#
# Convention : Reuss Voigt Hill
#
# Bulk Modulus (GPa) = 55.78802 62.91625 59.35214
# Shear Modulus (GPa) = 38.72291 41.11963 39.92127
#
# Velocity S-wave (km/s) = 4.28921 4.41996 4.35507
# Velocity P-wave (km/s) = 7.14386 7.47928 7.31350
#
# Compressibility (1/GPa) = 0.01792499
#
# Stress axis : x y z
#
# Youngs Moduli (GPa) = 80.06176 83.09132 88.14439
#
# Poissons Ratio (x) = 0.23531 0.23482
# Poissons Ratio (y) = 0.22673 0.30645
# Poissons Ratio (z) = 0.21328 0.28888
#
# Static dielectric constant tensor:
#      x y z
#    x 3.695550 -0.220270 0.181860 
#    y -0.220270 4.135800 -0.273760 
#    z 0.181860 -0.273760 3.945860 
# 
# 
# High freq. dielectric constant tensor:
#      x y z
#    x 1.839940 -0.000780 0.003350 
#    y -0.000780 1.834640 -0.000730 
#    z 0.003350 -0.000730 1.842530 
# 
# From -- ./inp_files/52635.got.cif
#   From: 2010.06.25/outbox.cif.g09.slc.cpg/sg2_27_cif.got.tgz:52635.got - 2010.06.27 13:26:56.
