data_PCOD8035419
_publ_section_title
;
Structure prediction by ZEFSAII (Michael W. Deem and Ramdas Pophale) SiO2 
 PCOD8035419
Probable space group: P -1
;
_chemical_formula_sum "Si O2"
_cell_formula_units_Z 12
_cell_length_a 23.233906
_cell_length_b 25.715625
_cell_length_c 8.655243
_cell_angle_alpha 32.115314
_cell_angle_beta 145.791683
_cell_angle_gamma 169.414583
_cell_volume 504.207255
_symmetry_space_group_name_H-M "P -1"
_symmetry_group_IT_number 2
_symmetry_cell_setting 'triclinic'
loop_
_space_group_symop_operation_xyz
x,y,z
-x,-y,-z
loop_
_atom_site_type_symbol
_atom_site_label
_atom_site_fract_x
_atom_site_fract_y
_atom_site_fract_z
Si Si1 0.871346 0.586232 0.170848
Si Si2 0.850544 0.254676 0.907497
Si Si3 0.712148 0.946632 0.570516
Si Si4 0.778487 0.711868 0.688318
Si Si5 0.160156 0.682199 0.739955
Si Si6 0.633028 0.521129 0.176818
O O1 0.515050 0.253976 0.279364
O O2 0.086978 0.730861 0.419931
O O3 0.959211 0.780739 0.844947
O O4 0.915024 0.577318 0.122715
O O5 0.774925 0.112786 0.235921
O O6 0.017461 0.498655 0.737144
O O7 0.529209 0.999257 0.759407
O O8 0.587471 0.775169 0.570257
O O9 0.037936 0.195964 0.723039
O O10 0.500000 0.500000 0.500000
O O11 0.630062 0.532643 0.959974
O O12 0.000000 0.000000 0.500000
O O13 0.000000 0.500000 0.000000
O O14 0.500000 0.500000 0.000000
#
# Coordination Sequence:
#
# PCOD8035419 Si02
#       6
#     2   2   2   2   2   2
#     4  11  27  47  76 104 150 187 245 297 356 431
#     4  12  27  45  77 105 146 191 240 287 368 430
#     4  11  25  45  70 108 141 192 233 301 359 417
#     4  11  26  45  68 105 139 185 235 295 351 414
#     4  12  26  49  74 109 146 189 238 301 359 428
#     4  11  25  44  73  98 146 186 245 294 357 420
#
# _framework density 23.799735999999999
#
# number of rings (size 3 to 8) (size 9 to 14) (size 15 to 20)
#    0.000    0.667    1.667    5.000    7.000    5.333 
#    0.000    0.000    0.000    0.000    0.000    0.000 
#    0.000    0.000    0.000    0.000    0.000    0.000 
#
# Total GULP energy -148736.604529 kJ/mol
# GULP energy per Si atom -12394.717044 kJ/mol
# Density = 2.374557 g / cm^3
# Si number density = 23.799736 Si / 1000 Ang^3
#
#
#
# Elastic Constant Matrix: (Units=GPa)
#
#
# Indices 1 2 3 4 5 6 
#
# 1 117.8652 58.6630 28.7428 10.3953 19.5322 -5.3727
# 2 58.6630 171.9499 54.7674 32.0079 18.5599 -13.5349
# 3 28.7428 54.7674 144.7960 21.6909 23.1458 0.2066
# 4 10.3953 32.0079 21.6909 43.9050 3.7363 0.5132
# 5 19.5322 18.5599 23.1458 3.7363 35.7234 4.5179
# 6 -5.3727 -13.5349 0.2066 0.5132 4.5179 29.8455
#
#
#
# Elastic Compliance Matrix: (Units=1/GPa)
#
#
# Indices 1 2 3 4 5 6 
#
# 1 0.010843 -0.003069 -0.000336 0.000187 -0.004289 0.001208
# 2 -0.003069 0.008778 -0.001731 -0.004713 -0.001747 0.003786
# 3 -0.000336 -0.001731 0.008696 -0.002590 -0.004253 -0.000217
# 4 0.000187 -0.004713 -0.002590 0.027351 0.001516 -0.002786
# 5 -0.004289 -0.001747 -0.004253 0.001516 0.034704 -0.006814
# 6 0.001208 0.003786 -0.000217 -0.002786 -0.006814 0.036521
#
#
# Mechanical properties :
#
#
# Convention : Reuss Voigt Hill
#
# Bulk Modulus (GPa) = 55.41676 79.88417 67.65047
# Shear Modulus (GPa) = 34.92114 41.39066 38.15590
#
# Velocity S-wave (km/s) = 3.83468 4.17480 4.00835
# Velocity P-wave (km/s) = 6.55298 7.54166 7.06464
#
# Compressibility (1/GPa) = 0.01804508
#
# Stress axis : x y z
#
# Youngs Moduli (GPa) = 92.22565 113.92250 114.99795
#
# Poissons Ratio (x) = 0.34963 0.03860
# Poissons Ratio (y) = 0.28304 0.19907
# Poissons Ratio (z) = 0.03096 0.19721
#
# Static dielectric constant tensor:
#      x y z
#    x 5.134190 -0.454170 1.092000 
#    y -0.454170 4.539630 -0.649390 
#    z 1.092000 -0.649390 5.904830 
# 
# 
# High freq. dielectric constant tensor:
#      x y z
#    x 1.953930 -0.003510 0.011140 
#    y -0.003510 1.938500 0.003840 
#    z 0.011140 0.003840 1.970710 
# 
# From -- ./inp_files/89408.got.cif
#   From: 2010.06.25/outbox.cif.g09.slc.cpg/sg2_45_cif.got.tgz:89408.got - 2010.06.27 13:26:56.
