data_PCOD8035790
_publ_section_title
;
Structure prediction by ZEFSAII (Michael W. Deem and Ramdas Pophale) SiO2 
 PCOD8035790
Probable space group: P -1
;
_chemical_formula_sum "Si O2"
_cell_formula_units_Z 16
_cell_length_a 11.733916
_cell_length_b 9.593175
_cell_length_c 17.911623
_cell_angle_alpha 30.290017
_cell_angle_beta 46.776351
_cell_angle_gamma 50.798759
_cell_volume 736.474929
_symmetry_space_group_name_H-M "P -1"
_symmetry_group_IT_number 2
_symmetry_cell_setting 'triclinic'
loop_
_space_group_symop_operation_xyz
x,y,z
-x,-y,-z
loop_
_atom_site_type_symbol
_atom_site_label
_atom_site_fract_x
_atom_site_fract_y
_atom_site_fract_z
Si Si1 0.105112 0.203737 0.813536
Si Si2 0.003400 0.235919 0.673930
Si Si3 0.034756 0.256045 0.313302
Si Si4 0.587460 0.691493 0.181311
Si Si5 0.631076 0.645899 0.828860
Si Si6 0.345586 0.708390 0.165958
Si Si7 0.542815 0.791485 0.321371
Si Si8 0.910915 0.314822 0.182194
O O1 0.289585 0.099202 0.783998
O O2 0.053150 0.270810 0.721089
O O3 0.097990 0.495544 0.723591
O O4 0.000000 0.000000 0.000000
O O5 0.823840 0.181820 0.777305
O O6 0.000000 0.500000 0.500000
O O7 0.117287 0.971812 0.714019
O O8 0.201325 0.377056 0.194477
O O9 0.016980 0.204909 0.256702
O O10 0.000000 0.000000 0.500000
O O11 0.461135 0.559749 0.246112
O O12 0.515472 0.739717 0.271723
O O13 0.749280 0.489303 0.198714
O O14 0.592133 0.009574 0.013651
O O15 0.658052 0.509920 0.798656
O O16 0.580504 0.974458 0.694235
O O17 0.500000 0.500000 0.000000
O O18 0.500000 0.500000 0.500000
O O19 0.000000 0.500000 0.000000
#
# Coordination Sequence:
#
# PCOD8035790 Si02
#       8
#     2   2   2   2   2   2   2   2
#     4  12  24  48  72  97 138 186 238 295 336 413
#     4  12  27  44  69 104 142 181 230 290 353 410
#     4  12  26  46  72 101 143 185 235 296 352 409
#     4  11  25  47  70 103 144 180 229 295 354 421
#     4  12  26  44  73 103 136 188 238 280 350 425
#     4  11  25  47  70 103 144 180 229 295 354 421
#     4  12  27  44  69 104 142 181 230 290 353 410
#     4  12  26  44  73 103 136 188 238 280 350 425
#
# _framework density 21.725110999999998
#
# number of rings (size 3 to 8) (size 9 to 14) (size 15 to 20)
#    0.000    0.250    5.000    3.750    7.000    0.000 
#    0.000    1.250    0.000    0.000    0.000    0.000 
#    0.000    0.000    0.000    0.000    0.000    0.000 
#
# Total GULP energy -198244.615457 kJ/mol
# GULP energy per Si atom -12390.288466 kJ/mol
# Density = 2.167566 g / cm^3
# Si number density = 21.725111 Si / 1000 Ang^3
#
#
#
# Elastic Constant Matrix: (Units=GPa)
#
#
# Indices 1 2 3 4 5 6 
#
# 1 126.4801 34.4438 25.2246 16.8818 12.0877 9.7900
# 2 34.4438 109.2734 17.2172 -23.2971 2.5270 5.1273
# 3 25.2246 17.2172 92.4903 -3.9099 18.5213 25.1056
# 4 16.8818 -23.2971 -3.9099 40.4596 2.2917 4.8182
# 5 12.0877 2.5270 18.5213 2.2917 32.3149 2.7542
# 6 9.7900 5.1273 25.1056 4.8182 2.7542 29.1481
#
#
#
# Elastic Compliance Matrix: (Units=1/GPa)
#
#
# Indices 1 2 3 4 5 6 
#
# 1 0.010681 -0.004549 -0.002081 -0.007211 -0.001968 0.000383
# 2 -0.004549 0.012723 -0.000227 0.009433 0.000347 -0.002107
# 3 -0.002081 -0.000227 0.016997 0.004491 -0.008081 -0.013880
# 4 -0.007211 0.009433 0.004491 0.034751 -0.002343 -0.008628
# 5 -0.001968 0.000347 -0.008081 -0.002343 0.036066 0.004540
# 6 0.000383 -0.002107 -0.013880 -0.008628 0.004540 0.047502
#
#
# Mechanical properties :
#
#
# Convention : Reuss Voigt Hill
#
# Bulk Modulus (GPa) = 37.46868 53.55722 45.51295
# Shear Modulus (GPa) = 27.57422 37.14173 32.35797
#
# Velocity S-wave (km/s) = 3.56649 4.13924 3.86350
# Velocity P-wave (km/s) = 5.85184 6.89566 6.39508
#
# Compressibility (1/GPa) = 0.02668896
#
# Stress axis : x y z
#
# Youngs Moduli (GPa) = 93.62339 78.59847 58.83243
#
# Poissons Ratio (x) = 0.35753 0.12243
# Poissons Ratio (y) = 0.42587 0.01333
# Poissons Ratio (z) = 0.19482 0.01781
#
# Static dielectric constant tensor:
#      x y z
#    x 4.195840 -0.047930 0.093310 
#    y -0.047930 4.170100 -0.140000 
#    z 0.093310 -0.140000 3.883260 
# 
# 
# High freq. dielectric constant tensor:
#      x y z
#    x 1.866090 0.002890 0.006120 
#    y 0.002890 1.871180 -0.003910 
#    z 0.006120 -0.003910 1.858370 
# 
# From -- ./inp_files/262003.got.cif
#   From: 2010.06.25/outbox.cif.g09.slc.cpg/sg2_132_cif.got.tgz:262003.got - 2010.06.27 13:26:56.
