data_PCOD8035712
_publ_section_title
;
Structure prediction by ZEFSAII (Michael W. Deem and Ramdas Pophale) SiO2 
 PCOD8035712
Probable space group: P -1
;
_chemical_formula_sum "Si O2"
_cell_formula_units_Z 16
_cell_length_a 27.885654
_cell_length_b 15.884078
_cell_length_c 19.180831
_cell_angle_alpha 19.195975
_cell_angle_beta 161.836235
_cell_angle_gamma 161.328139
_cell_volume 760.044034
_symmetry_space_group_name_H-M "P -1"
_symmetry_group_IT_number 2
_symmetry_cell_setting 'triclinic'
loop_
_space_group_symop_operation_xyz
x,y,z
-x,-y,-z
loop_
_atom_site_type_symbol
_atom_site_label
_atom_site_fract_x
_atom_site_fract_y
_atom_site_fract_z
Si Si1 0.289341 0.735040 0.116081
Si Si2 0.949307 0.149127 0.103413
Si Si3 0.522503 0.662240 0.604023
Si Si4 0.898670 0.143654 0.712185
Si Si5 0.925613 0.205658 0.540048
Si Si6 0.456954 0.920469 0.922981
Si Si7 0.141190 0.108017 0.672397
Si Si8 0.363600 0.769567 0.437500
O O1 0.372376 0.592287 0.394137
O O2 0.087620 0.490711 0.016064
O O3 0.390100 0.828080 0.108973
O O4 0.289290 0.015048 0.932247
O O5 0.962311 0.049185 0.277509
O O6 0.754362 0.096942 0.860465
O O7 0.993349 0.965174 0.254236
O O8 0.468875 0.717822 0.561913
O O9 0.690777 0.956277 0.581113
O O10 0.563683 0.395590 0.874769
O O11 0.952694 0.175615 0.681836
O O12 0.962553 0.456246 0.592234
O O13 0.000000 0.000000 0.000000
O O14 0.721236 0.075133 0.343048
O O15 0.500000 0.000000 0.000000
O O16 0.239109 0.457285 0.546383
O O17 0.000000 0.000000 0.500000
O O18 0.500000 0.000000 0.500000
#
# Coordination Sequence:
#
# PCOD8035712 Si02
#       8
#     2   2   2   2   2   2   2   2
#     4  12  25  46  74 102 142 185 242 297 354 424
#     4  12  28  45  73 105 146 183 239 296 356 425
#     4  12  25  47  74 102 142 189 238 300 355 418
#     4  11  25  46  73  96 145 191 232 284 360 422
#     4  11  27  45  68 108 138 186 237 287 354 434
#     4  12  27  44  72 108 142 183 239 297 356 422
#     4  12  25  48  74 101 141 195 239 288 360 428
#     4  12  29  46  73 111 144 190 241 296 360 426
#
# _framework density 21.051411000000002
#
# number of rings (size 3 to 8) (size 9 to 14) (size 15 to 20)
#    0.000    0.250    6.250    1.875    7.000    2.500 
#    0.000    0.000    0.000    0.000    0.000    0.000 
#    0.000    0.000    0.000    0.000    0.000    0.000 
#
# Total GULP energy -198519.399296 kJ/mol
# GULP energy per Si atom -12407.462456 kJ/mol
# Density = 2.100350 g / cm^3
# Si number density = 21.051411 Si / 1000 Ang^3
#
#
#
# Elastic Constant Matrix: (Units=GPa)
#
#
# Indices 1 2 3 4 5 6 
#
# 1 122.6535 44.0639 22.0549 -14.2335 4.1994 -0.6192
# 2 44.0639 132.3984 29.3867 -6.9814 -5.9198 2.0650
# 3 22.0549 29.3867 94.5499 -6.7175 6.0792 -10.0548
# 4 -14.2335 -6.9814 -6.7175 34.5668 -1.3187 -6.2501
# 5 4.1994 -5.9198 6.0792 -1.3187 41.6741 -0.4517
# 6 -0.6192 2.0650 -10.0548 -6.2501 -0.4517 26.3639
#
#
#
# Elastic Compliance Matrix: (Units=1/GPa)
#
#
# Indices 1 2 3 4 5 6 
#
# 1 0.009819 -0.002939 -0.000971 0.003374 -0.001149 0.000871
# 2 -0.002939 0.009193 -0.002485 -0.000074 0.001943 -0.001721
# 3 -0.000971 -0.002485 0.012454 0.002433 -0.001936 0.005465
# 4 0.003374 -0.000074 0.002433 0.032364 0.000413 0.008693
# 5 -0.001149 0.001943 -0.001936 0.000413 0.024679 -0.000397
# 6 0.000871 -0.001721 0.005465 0.008693 -0.000397 0.042224
#
#
# Mechanical properties :
#
#
# Convention : Reuss Voigt Hill
#
# Bulk Modulus (GPa) = 53.54526 60.06810 56.80668
# Shear Modulus (GPa) = 33.38968 37.46071 35.42520
#
# Velocity S-wave (km/s) = 3.98691 4.22297 4.10664
# Velocity P-wave (km/s) = 6.83261 7.23698 7.03770
#
# Compressibility (1/GPa) = 0.01867579
#
# Stress axis : x y z
#
# Youngs Moduli (GPa) = 101.84411 108.78319 80.29848
#
# Poissons Ratio (x) = 0.31977 0.07793
# Poissons Ratio (y) = 0.29937 0.19951
# Poissons Ratio (z) = 0.09884 0.27029
#
# Static dielectric constant tensor:
#      x y z
#    x 3.863930 0.165650 0.031700 
#    y 0.165650 4.510350 -0.183630 
#    z 0.031700 -0.183630 4.000700 
# 
# 
# High freq. dielectric constant tensor:
#      x y z
#    x 1.834720 0.005780 0.000330 
#    y 0.005780 1.830970 -0.002820 
#    z 0.000330 -0.002820 1.842790 
# 
# From -- ./inp_files/81225.got.cif
#   From: 2010.06.25/outbox.cif.g09.slc.cpg/sg2_41_cif.got.tgz:81225.got - 2010.06.27 13:26:56.
