data_PCOD8035337
_publ_section_title
;
Structure prediction by ZEFSAII (Michael W. Deem and Ramdas Pophale) SiO2 
 PCOD8035337
Probable space group: P -1
;
_chemical_formula_sum "Si O2"
_cell_formula_units_Z 16
_cell_length_a 9.528389
_cell_length_b 13.930669
_cell_length_c 10.360088
_cell_angle_alpha 99.649281
_cell_angle_beta 133.269281
_cell_angle_gamma 109.151293
_cell_volume 776.798256
_symmetry_space_group_name_H-M "P -1"
_symmetry_group_IT_number 2
_symmetry_cell_setting 'triclinic'
loop_
_space_group_symop_operation_xyz
x,y,z
-x,-y,-z
loop_
_atom_site_type_symbol
_atom_site_label
_atom_site_fract_x
_atom_site_fract_y
_atom_site_fract_z
Si Si1 0.452994 0.342338 0.259760
Si Si2 0.929823 0.455621 0.744608
Si Si3 0.802857 0.000256 0.309723
Si Si4 0.698049 0.506204 0.213704
Si Si5 0.619223 0.884984 0.900446
Si Si6 0.004400 0.340966 0.993592
Si Si7 0.100154 0.761283 0.647199
Si Si8 0.708804 0.123162 0.935295
O O1 0.659274 0.397774 0.512133
O O2 0.562026 0.389589 0.196185
O O3 0.303375 0.192823 0.134945
O O4 0.274222 0.377661 0.181623
O O5 0.117357 0.501008 0.755602
O O6 0.024037 0.575715 0.912795
O O7 0.936520 0.357425 0.810598
O O8 0.550720 0.909634 0.206116
O O9 0.903280 0.139972 0.410420
O O10 0.783156 0.956799 0.142977
O O11 0.000000 0.000000 0.500000
O O12 0.850261 0.627480 0.427779
O O13 0.500000 0.500000 0.000000
O O14 0.337041 0.780407 0.742791
O O15 0.669920 0.994334 0.865546
O O16 0.810765 0.198156 0.882808
O O17 0.112915 0.788368 0.814451
#
# Coordination Sequence:
#
# PCOD8035337 Si02
#       8
#     2   2   2   2   2   2   2   2
#     4  12  24  42  68  92 129 171 215 267 322 374
#     4  11  25  44  62  94 132 169 217 265 318 382
#     4   9  19  34  62  96 121 158 209 266 313 370
#     4  12  24  39  67  99 124 167 216 270 318 370
#     4   9  20  38  63  91 120 160 216 262 311 373
#     4  11  25  44  63  91 135 171 211 261 321 398
#     4   9  19  38  61  89 125 158 209 265 313 368
#     4   9  20  42  63  89 129 169 204 261 325 380
#
# _framework density 20.597367999999999
#
# number of rings (size 3 to 8) (size 9 to 14) (size 15 to 20)
#    0.000    1.750    2.500    3.000    5.250    0.500 
#    4.500    0.625    0.000    0.000    0.000    0.000 
#    0.000    0.000    0.000    0.000    0.000    0.000 
#
# Total GULP energy -198348.557276 kJ/mol
# GULP energy per Si atom -12396.784830 kJ/mol
# Density = 2.055049 g / cm^3
# Si number density = 20.597368 Si / 1000 Ang^3
#
#
#
# Elastic Constant Matrix: (Units=GPa)
#
#
# Indices 1 2 3 4 5 6 
#
# 1 67.0349 29.7824 18.6315 -4.3924 5.5947 -1.1322
# 2 29.7824 110.7794 40.7365 -5.6730 5.4223 9.7229
# 3 18.6315 40.7365 86.4688 -12.3635 19.1792 -10.4700
# 4 -4.3924 -5.6730 -12.3635 36.1141 -10.8778 -1.9439
# 5 5.5947 5.4223 19.1792 -10.8778 25.0442 -3.8787
# 6 -1.1322 9.7229 -10.4700 -1.9439 -3.8787 34.4499
#
#
#
# Elastic Compliance Matrix: (Units=1/GPa)
#
#
# Indices 1 2 3 4 5 6 
#
# 1 0.017313 -0.004239 -0.001131 0.000637 -0.001610 0.001277
# 2 -0.004239 0.012845 -0.006291 -0.000348 0.001985 -0.005473
# 3 -0.001131 -0.006291 0.018144 0.002315 -0.010311 0.006222
# 4 0.000637 -0.000348 0.002315 0.032635 0.012974 0.004125
# 5 -0.001610 0.001985 -0.010311 0.012974 0.053863 0.003050
# 6 0.001277 -0.005473 0.006222 0.004125 0.003050 0.033081
#
#
# Mechanical properties :
#
#
# Convention : Reuss Voigt Hill
#
# Bulk Modulus (GPa) = 40.03152 49.17600 44.60376
# Shear Modulus (GPa) = 25.05890 30.79713 27.92802
#
# Velocity S-wave (km/s) = 3.49177 3.87097 3.68625
# Velocity P-wave (km/s) = 5.97780 6.62616 6.31031
#
# Compressibility (1/GPa) = 0.02498031
#
# Stress axis : x y z
#
# Youngs Moduli (GPa) = 57.76024 77.84923 55.11600
#
# Poissons Ratio (x) = 0.33003 0.06231
# Poissons Ratio (y) = 0.24487 0.34672
# Poissons Ratio (z) = 0.06530 0.48973
#
# Static dielectric constant tensor:
#      x y z
#    x 3.564600 -0.070500 0.054030 
#    y -0.070500 3.867090 -0.103980 
#    z 0.054030 -0.103980 3.624930 
# 
# 
# High freq. dielectric constant tensor:
#      x y z
#    x 1.792340 -0.010470 0.003590 
#    y -0.010470 1.821390 -0.004710 
#    z 0.003590 -0.004710 1.797680 
# 
# From -- ./inp_files/208040.got.cif
#   From: 2010.06.25/outbox.cif.g09.slc.cpg/sg2_105_cif.got.tgz:208040.got - 2010.06.27 13:26:56.
