data_PCOD8035245
_publ_section_title
;
Structure prediction by ZEFSAII (Michael W. Deem and Ramdas Pophale) SiO2 
 PCOD8035245
Probable space group: P -1
;
_chemical_formula_sum "Si O2"
_cell_formula_units_Z 16
_cell_length_a 5.693579
_cell_length_b 9.888208
_cell_length_c 28.637067
_cell_angle_alpha 33.590937
_cell_angle_beta 123.765922
_cell_angle_gamma 106.520065
_cell_volume 683.310587
_symmetry_space_group_name_H-M "P -1"
_symmetry_group_IT_number 2
_symmetry_cell_setting 'triclinic'
loop_
_space_group_symop_operation_xyz
x,y,z
-x,-y,-z
loop_
_atom_site_type_symbol
_atom_site_label
_atom_site_fract_x
_atom_site_fract_y
_atom_site_fract_z
Si Si1 0.344228 0.431396 0.293241
Si Si2 0.277233 0.615804 0.792694
Si Si3 0.638768 0.390851 0.433966
Si Si4 0.037367 0.633552 0.918944
Si Si5 0.328021 0.803881 0.109236
Si Si6 0.342868 0.114960 0.556007
Si Si7 0.535818 0.929109 0.315811
Si Si8 0.453303 0.279638 0.999764
O O1 0.391688 0.457093 0.345963
O O2 0.329208 0.707034 0.190273
O O3 0.029166 0.404077 0.253318
O O4 0.614660 0.172802 0.376409
O O5 0.544272 0.463892 0.829336
O O6 0.424218 0.475894 0.897456
O O7 0.220370 0.926951 0.699791
O O8 0.491687 0.252346 0.495254
O O9 0.668801 0.646352 0.387062
O O10 0.979020 0.240868 0.492690
O O11 0.126885 0.408904 0.953209
O O12 0.299161 0.742673 0.927074
O O13 0.756029 0.886911 0.797944
O O14 0.000000 0.500000 0.000000
O O15 0.533160 0.979725 0.077413
O O16 0.000000 0.000000 0.000000
O O17 0.535404 0.099945 0.629191
#
# Coordination Sequence:
#
# PCOD8035245 Si02
#       8
#     2   2   2   2   2   2   2   2
#     4  12  28  47  80 111 153 203 252 325 398 459
#     4  12  25  46  73 111 153 204 251 307 387 468
#     4  12  31  50  84 115 154 198 271 337 388 461
#     4  11  25  44  69 109 153 194 241 313 380 457
#     4  12  26  43  72 112 150 199 256 300 379 474
#     4  12  27  56  77 116 151 206 264 333 396 459
#     4  12  26  49  81 109 152 203 259 313 400 465
#     4  11  25  41  70 105 157 200 247 306 364 464
#
# _framework density 23.415414999999999
#
# number of rings (size 3 to 8) (size 9 to 14) (size 15 to 20)
#    0.000    0.250    3.750    4.125    5.250    2.000 
#    0.000    0.000    0.000    0.000    0.000    0.000 
#    0.000    0.000    0.000    0.000    0.000    0.000 
#
# Total GULP energy -198266.503456 kJ/mol
# GULP energy per Si atom -12391.656466 kJ/mol
# Density = 2.336212 g / cm^3
# Si number density = 23.415415 Si / 1000 Ang^3
#
#
#
# Elastic Constant Matrix: (Units=GPa)
#
#
# Indices 1 2 3 4 5 6 
#
# 1 106.5618 15.4213 46.3926 5.0571 -13.3695 -9.8574
# 2 15.4213 110.6997 34.1961 2.5332 -17.0734 -6.4328
# 3 46.3926 34.1961 123.8435 14.1398 -27.8672 -10.9069
# 4 5.0571 2.5332 14.1398 53.7682 1.2730 -8.0808
# 5 -13.3695 -17.0734 -27.8672 1.2730 37.8072 8.1720
# 6 -9.8574 -6.4328 -10.9069 -8.0808 8.1720 33.5317
#
#
#
# Elastic Compliance Matrix: (Units=1/GPa)
#
#
# Indices 1 2 3 4 5 6 
#
# 1 0.011364 -0.000167 -0.003929 0.000249 0.000619 0.001940
# 2 -0.000167 0.010168 -0.002056 0.000091 0.002896 0.000549
# 3 -0.003929 -0.002056 0.011913 -0.002814 0.006547 0.000052
# 4 0.000249 0.000091 -0.002814 0.020138 -0.003688 0.004927
# 5 0.000619 0.002896 0.006547 -0.003688 0.034306 -0.006382
# 6 0.001940 0.000549 0.000052 0.004927 -0.006382 0.033258
#
#
# Mechanical properties :
#
#
# Convention : Reuss Voigt Hill
#
# Bulk Modulus (GPa) = 47.29841 59.23610 53.26725
# Shear Modulus (GPa) = 35.58743 41.36108 38.47425
#
# Velocity S-wave (km/s) = 3.90273 4.20742 4.05793
# Velocity P-wave (km/s) = 6.36804 6.99686 6.68984
#
# Compressibility (1/GPa) = 0.02114236
#
# Stress axis : x y z
#
# Youngs Moduli (GPa) = 87.99437 98.34633 83.94014
#
# Poissons Ratio (x) = 0.01640 0.32983
# Poissons Ratio (y) = 0.01468 0.17255
# Poissons Ratio (z) = 0.34576 0.20216
#
# Static dielectric constant tensor:
#      x y z
#    x 4.357310 0.308680 -0.126690 
#    y 0.308680 5.771530 -0.232110 
#    z -0.126690 -0.232110 4.758150 
# 
# 
# High freq. dielectric constant tensor:
#      x y z
#    x 1.926410 -0.001470 -0.004330 
#    y -0.001470 1.943680 0.008410 
#    z -0.004330 0.008410 1.942010 
# 
# From -- ./inp_files/615238.got.cif
#   From: 2010.06.25/outbox.cif.g09.slc.cpg/sg2_308_cif.got.tgz:615238.got - 2010.06.27 13:26:56.
