data_PCOD8035078
_publ_section_title
;
Structure prediction by ZEFSAII (Michael W. Deem and Ramdas Pophale) SiO2 
 PCOD8035078
Probable space group: P -1
;
_chemical_formula_sum "Si O2"
_cell_formula_units_Z 12
_cell_length_a 13.555949
_cell_length_b 11.336051
_cell_length_c 5.027319
_cell_angle_alpha 64.975715
_cell_angle_beta 73.799791
_cell_angle_gamma 35.861424
_cell_volume 407.122839
_symmetry_space_group_name_H-M "P -1"
_symmetry_group_IT_number 2
_symmetry_cell_setting 'triclinic'
loop_
_space_group_symop_operation_xyz
x,y,z
-x,-y,-z
loop_
_atom_site_type_symbol
_atom_site_label
_atom_site_fract_x
_atom_site_fract_y
_atom_site_fract_z
Si Si1 0.409256 0.726167 0.817683
Si Si2 0.297257 0.065587 0.874943
Si Si3 0.071644 0.636876 0.270549
Si Si4 0.682551 0.796100 0.767708
Si Si5 0.151752 0.804233 0.751877
Si Si6 0.645654 0.605867 0.317815
O O1 0.220861 0.874860 0.727363
O O2 0.511811 0.712578 0.548249
O O3 0.390641 0.827750 0.009661
O O4 0.500000 0.500000 0.000000
O O5 0.382377 0.087305 0.586190
O O6 0.118378 0.225368 0.699703
O O7 0.267480 0.136423 0.135937
O O8 0.160913 0.461432 0.140554
O O9 0.178541 0.512356 0.581065
O O10 0.080390 0.782928 0.057656
O O11 0.559862 0.817391 0.012246
O O12 0.308015 0.569573 0.716289
O O13 0.000000 0.000000 0.500000
#
# Coordination Sequence:
#
# PCOD8035078 Si02
#       6
#     2   2   2   2   2   2
#     4  12  28  50  73 114 158 207 251 317 388 466
#     4  12  28  45  80 110 156 204 257 317 383 461
#     4  11  24  47  78 115 150 199 255 327 381 451
#     4  11  26  49  75 117 151 199 263 318 386 453
#     4  11  26  46  79 112 151 203 265 316 379 462
#     4  11  25  47  78 106 159 200 250 322 387 451
#
# _framework density 29.475131000000001
#
# number of rings (size 3 to 8) (size 9 to 14) (size 15 to 20)
#    0.000    0.667    3.333    2.500    9.333    4.000 
#    0.000    0.000    0.000    0.000    0.000    0.000 
#    0.000    0.000    0.000    0.000    0.000    0.000 
#
# Total GULP energy -148809.604868 kJ/mol
# GULP energy per Si atom -12400.800406 kJ/mol
# Density = 2.940804 g / cm^3
# Si number density = 29.475131 Si / 1000 Ang^3
#
#
#
# Elastic Constant Matrix: (Units=GPa)
#
#
# Indices 1 2 3 4 5 6 
#
# 1 117.0257 27.0564 10.8512 -4.7459 19.8807 16.8042
# 2 27.0564 70.9740 33.5008 -19.9781 -11.1859 28.2986
# 3 10.8512 33.5008 169.0502 -23.2487 13.8411 11.8572
# 4 -4.7459 -19.9781 -23.2487 58.7295 2.3657 4.6318
# 5 19.8807 -11.1859 13.8411 2.3657 37.7128 8.3676
# 6 16.8042 28.2986 11.8572 4.6318 8.3676 60.0632
#
#
#
# Elastic Compliance Matrix: (Units=1/GPa)
#
#
# Indices 1 2 3 4 5 6 
#
# 1 0.011297 -0.006840 0.001164 -0.000692 -0.008609 0.001085
# 2 -0.006840 0.029302 -0.004650 0.008002 0.016586 -0.013901
# 3 0.001164 -0.004650 0.007311 0.001529 -0.004994 0.001000
# 4 -0.000692 0.008002 0.001529 0.020667 0.002162 -0.005773
# 5 -0.008609 0.016586 -0.004994 0.002162 0.039923 -0.010149
# 6 0.001085 -0.013901 0.001000 -0.005773 -0.010149 0.024557
#
#
# Mechanical properties :
#
#
# Convention : Reuss Voigt Hill
#
# Bulk Modulus (GPa) = 36.68758 55.54075 46.11417
# Shear Modulus (GPa) = 30.71341 50.34386 40.52863
#
# Velocity S-wave (km/s) = 3.23152 4.13729 3.71214
# Velocity P-wave (km/s) = 5.13786 6.45810 5.83544
#
# Compressibility (1/GPa) = 0.02725718
#
# Stress axis : x y z
#
# Youngs Moduli (GPa) = 88.51623 34.12793 136.77660
#
# Poissons Ratio (x) = 0.23345 -0.15921
# Poissons Ratio (y) = 0.60548 0.63602
# Poissons Ratio (z) = -0.10303 0.15870
#
# Static dielectric constant tensor:
#      x y z
#    x 4.940350 -0.386060 0.700460 
#    y -0.386060 5.770450 -0.014870 
#    z 0.700460 -0.014870 5.285400 
# 
# 
# High freq. dielectric constant tensor:
#      x y z
#    x 2.239120 -0.006280 0.009970 
#    y -0.006280 2.229810 -0.019160 
#    z 0.009970 -0.019160 2.203930 
# 
# From -- ./inp_files/64038.got.cif
#   From: 2010.06.25/outbox.cif.g09.slc.cpg/sg2_33_cif.got.tgz:64038.got - 2010.06.27 13:26:56.
