data_PCOD8035956
_publ_section_title
;
Structure prediction by ZEFSAII (Michael W. Deem and Ramdas Pophale) SiO2 
 PCOD8035956
Probable space group: P -1
;
_chemical_formula_sum "Si O2"
_cell_formula_units_Z 14
_cell_length_a 6.662770
_cell_length_b 14.859594
_cell_length_c 13.557583
_cell_angle_alpha 148.912807
_cell_angle_beta 107.353422
_cell_angle_gamma 61.162722
_cell_volume 587.253961
_symmetry_space_group_name_H-M "P -1"
_symmetry_group_IT_number 2
_symmetry_cell_setting 'triclinic'
loop_
_space_group_symop_operation_xyz
x,y,z
-x,-y,-z
loop_
_atom_site_type_symbol
_atom_site_label
_atom_site_fract_x
_atom_site_fract_y
_atom_site_fract_z
Si Si1 0.162715 0.698429 0.302788
Si Si2 0.506098 0.914227 0.696003
Si Si3 0.646781 0.314825 0.411509
Si Si4 0.307193 0.614689 0.871589
Si Si5 0.727672 0.102743 0.039006
Si Si6 0.074859 0.349800 0.601376
Si Si7 0.009020 0.133476 0.769090
O O1 0.443755 0.556557 0.213116
O O2 0.015846 0.611375 0.262394
O O3 0.084413 0.716847 0.195134
O O4 0.075449 0.912616 0.539258
O O5 0.463472 0.724320 0.541180
O O6 0.673189 0.846378 0.559887
O O7 0.262922 0.111045 0.822691
O O8 0.638680 0.956692 0.844788
O O9 0.500000 0.500000 0.500000
O O10 0.649929 0.146741 0.182381
O O11 0.890676 0.320236 0.476172
O O12 0.353681 0.704007 0.861594
O O13 0.114805 0.535172 0.749957
O O14 0.187391 0.788588 0.099569
O O15 0.000000 0.000000 0.000000
#
# Coordination Sequence:
#
# PCOD8035956 Si02
#       7
#     2   2   2   2   2   2   2
#     4  11  25  51  72 108 142 191 240 297 361 428
#     4  12  25  48  69 106 146 188 242 299 351 432
#     4  12  26  43  69 104 143 195 238 294 358 426
#     4  12  27  48  72 108 148 187 241 298 353 436
#     4  12  26  45  71 102 144 192 239 290 361 421
#     4  12  24  46  72 103 150 182 240 297 355 430
#     4  11  25  48  77 102 147 188 240 297 364 423
#
# _framework density 23.839770000000001
#
# number of rings (size 3 to 8) (size 9 to 14) (size 15 to 20)
#    0.000    0.286    4.286    4.286    6.000    2.286 
#    2.571    0.000    0.000    0.000    0.000    0.000 
#    0.000    0.000    0.000    0.000    0.000    0.000 
#
# Total GULP energy -173471.935102 kJ/mol
# GULP energy per Si atom -12390.852507 kJ/mol
# Density = 2.378551 g / cm^3
# Si number density = 23.839770 Si / 1000 Ang^3
#
#
#
# Elastic Constant Matrix: (Units=GPa)
#
#
# Indices 1 2 3 4 5 6 
#
# 1 140.5716 55.9592 36.0578 4.5069 -7.0757 -6.4758
# 2 55.9592 144.3787 13.7124 4.7656 -6.0236 -14.2471
# 3 36.0578 13.7124 65.3468 1.1043 -4.9579 -8.7057
# 4 4.5069 4.7656 1.1043 34.6769 2.8064 -7.5994
# 5 -7.0757 -6.0236 -4.9579 2.8064 44.1256 2.4476
# 6 -6.4758 -14.2471 -8.7057 -7.5994 2.4476 41.3102
#
#
#
# Elastic Compliance Matrix: (Units=1/GPa)
#
#
# Indices 1 2 3 4 5 6 
#
# 1 0.009661 -0.003324 -0.004677 -0.000884 0.000672 -0.000820
# 2 -0.003324 0.008442 0.000429 -0.000260 0.000551 0.002400
# 3 -0.004677 0.000429 0.018312 0.000600 0.001144 0.003316
# 4 -0.000884 -0.000260 0.000600 0.030393 -0.002355 0.005629
# 5 0.000672 0.000551 0.001144 -0.002355 0.023194 -0.001271
# 6 -0.000820 0.002400 0.003316 0.005629 -0.001271 0.026716
#
#
# Mechanical properties :
#
#
# Convention : Reuss Voigt Hill
#
# Bulk Modulus (GPa) = 47.01193 62.41731 54.71462
# Shear Modulus (GPa) = 35.98321 40.32707 38.15514
#
# Velocity S-wave (km/s) = 3.88929 4.11735 4.00494
# Velocity P-wave (km/s) = 6.31914 6.98873 6.66235
#
# Compressibility (1/GPa) = 0.02127120
#
# Stress axis : x y z
#
# Youngs Moduli (GPa) = 103.50859 118.45102 54.60883
#
# Poissons Ratio (x) = 0.39373 0.25539
# Poissons Ratio (y) = 0.34406 -0.02341
# Poissons Ratio (z) = 0.48408 -0.05077
#
# Static dielectric constant tensor:
#      x y z
#    x 3.859440 -0.399650 -0.224830 
#    y -0.399650 4.096090 -0.059970 
#    z -0.224830 -0.059970 4.447350 
# 
# 
# High freq. dielectric constant tensor:
#      x y z
#    x 1.953040 -0.001830 -0.010830 
#    y -0.001830 1.942150 -0.008130 
#    z -0.010830 -0.008130 1.957950 
# 
# From -- ./inp_files/48387.got.cif
#   From: 2010.06.25/outbox.cif.g09.slc.cpg/sg2_25_cif.got.tgz:48387.got - 2010.06.27 13:26:56.
