data_PCOD8035284
_publ_section_title
;
Structure prediction by ZEFSAII (Michael W. Deem and Ramdas Pophale) SiO2 
 PCOD8035284
Probable space group: P -1
;
_chemical_formula_sum "Si O2"
_cell_formula_units_Z 16
_cell_length_a 9.028692
_cell_length_b 9.208269
_cell_length_c 12.264548
_cell_angle_alpha 78.913017
_cell_angle_beta 96.033673
_cell_angle_gamma 135.073856
_cell_volume 705.928525
_symmetry_space_group_name_H-M "P -1"
_symmetry_group_IT_number 2
_symmetry_cell_setting 'triclinic'
loop_
_space_group_symop_operation_xyz
x,y,z
-x,-y,-z
loop_
_atom_site_type_symbol
_atom_site_label
_atom_site_fract_x
_atom_site_fract_y
_atom_site_fract_z
Si Si1 0.638453 0.729805 0.029108
Si Si2 0.091689 0.662932 0.311502
Si Si3 0.309935 0.737658 0.542951
Si Si4 0.606985 0.291288 0.811094
Si Si5 0.366337 0.270813 0.485606
Si Si6 0.288756 0.968016 0.667887
Si Si7 0.857394 0.733498 0.710257
Si Si8 0.043506 0.944738 0.165426
O O1 0.475586 0.735920 0.069020
O O2 0.808298 0.778291 0.119980
O O3 0.500000 0.500000 0.000000
O O4 0.770049 0.923505 0.928019
O O5 0.246766 0.726954 0.414283
O O6 0.178593 0.650753 0.205870
O O7 0.072369 0.825325 0.265551
O O8 0.870076 0.445244 0.363225
O O9 0.484328 0.735436 0.567566
O O10 0.390384 0.944267 0.579701
O O11 0.647841 0.487992 0.743154
O O12 0.430042 0.068053 0.771180
O O13 0.500000 0.500000 0.500000
O O14 0.174416 0.184227 0.407685
O O15 0.270887 0.126244 0.605474
O O16 0.049428 0.752237 0.703457
O O17 0.920787 0.875081 0.797770
#
# Coordination Sequence:
#
# PCOD8035284 Si02
#       8
#     2   2   2   2   2   2   2   2
#     4  11  25  49  75 100 133 172 234 300 353 408
#     4  11  25  45  68 103 144 182 231 276 335 415
#     4  11  25  43  67 101 149 193 222 270 336 415
#     4  12  24  46  69 100 140 180 226 290 344 405
#     4  12  25  39  65 103 141 187 238 272 330 404
#     4  12  24  43  64  97 143 191 224 279 338 405
#     4  12  24  42  68 103 136 183 233 282 337 408
#     4  11  26  45  75 104 129 180 231 291 352 406
#
# _framework density 22.665182000000001
#
# number of rings (size 3 to 8) (size 9 to 14) (size 15 to 20)
#    0.000    0.500    6.250    1.500    7.000    0.500 
#    0.000    0.625    0.000    0.000    0.000    0.000 
#    0.000    0.000    0.000    0.000    0.000    0.000 
#
# Total GULP energy -198246.783990 kJ/mol
# GULP energy per Si atom -12390.423999 kJ/mol
# Density = 2.261359 g / cm^3
# Si number density = 22.665182 Si / 1000 Ang^3
#
#
#
# Elastic Constant Matrix: (Units=GPa)
#
#
# Indices 1 2 3 4 5 6 
#
# 1 92.9122 27.3797 19.2376 2.9758 -20.7583 -4.2437
# 2 27.3797 103.1496 15.0504 11.9763 -2.5291 -0.9843
# 3 19.2376 15.0504 64.7705 2.5006 -16.3659 -4.6695
# 4 2.9758 11.9763 2.5006 39.4700 -5.0417 -4.1600
# 5 -20.7583 -2.5291 -16.3659 -5.0417 44.3213 2.3023
# 6 -4.2437 -0.9843 -4.6695 -4.1600 2.3023 39.9706
#
#
#
# Elastic Compliance Matrix: (Units=1/GPa)
#
#
# Indices 1 2 3 4 5 6 
#
# 1 0.013317 -0.003233 -0.001798 0.000881 0.005442 0.000902
# 2 -0.003233 0.011185 -0.002050 -0.003330 -0.001984 -0.000540
# 3 -0.001798 -0.002050 0.017973 0.000508 0.005653 0.001586
# 4 0.000881 -0.003330 0.000508 0.026957 0.003337 0.002684
# 5 0.005442 -0.001984 0.005653 0.003337 0.027467 -0.000045
# 6 0.000902 -0.000540 0.001586 0.002684 -0.000045 0.025568
#
#
# Mechanical properties :
#
#
# Convention : Reuss Voigt Hill
#
# Bulk Modulus (GPa) = 35.32066 42.68528 39.00297
# Shear Modulus (GPa) = 34.23119 38.03000 36.13060
#
# Velocity S-wave (km/s) = 3.89047 4.10067 3.99695
# Velocity P-wave (km/s) = 5.98319 6.42608 6.20858
#
# Compressibility (1/GPa) = 0.02831204
#
# Stress axis : x y z
#
# Youngs Moduli (GPa) = 75.09455 89.40722 55.64022
#
# Poissons Ratio (x) = 0.28902 0.10004
# Poissons Ratio (y) = 0.24275 0.11408
# Poissons Ratio (z) = 0.13502 0.18332
#
# Static dielectric constant tensor:
#      x y z
#    x 4.162460 0.150190 -0.434590 
#    y 0.150190 4.289480 -0.045640 
#    z -0.434590 -0.045640 3.965310 
# 
# 
# High freq. dielectric constant tensor:
#      x y z
#    x 1.896210 0.007990 -0.032760 
#    y 0.007990 1.921220 -0.006820 
#    z -0.032760 -0.006820 1.872850 
# 
# From -- ./inp_files/382005.got.cif
#   From: 2010.06.25/outbox.cif.g09.slc.cpg/sg2_192_cif.got.tgz:382005.got - 2010.06.27 13:26:56.
