data_PCOD8035379
_publ_section_title
;
Structure prediction by ZEFSAII (Michael W. Deem and Ramdas Pophale) SiO2 
 PCOD8035379
Probable space group: P -1
;
_chemical_formula_sum "Si O2"
_cell_formula_units_Z 12
_cell_length_a 11.835543
_cell_length_b 9.476443
_cell_length_c 9.700483
_cell_angle_alpha 74.591704
_cell_angle_beta 89.643580
_cell_angle_gamma 143.194766
_cell_volume 581.479416
_symmetry_space_group_name_H-M "P -1"
_symmetry_group_IT_number 2
_symmetry_cell_setting 'triclinic'
loop_
_space_group_symop_operation_xyz
x,y,z
-x,-y,-z
loop_
_atom_site_type_symbol
_atom_site_label
_atom_site_fract_x
_atom_site_fract_y
_atom_site_fract_z
Si Si1 0.493681 0.650100 0.393616
Si Si2 0.613487 0.829476 0.824712
Si Si3 0.698916 0.591312 0.839364
Si Si4 0.938199 0.222210 0.175288
Si Si5 0.961720 0.354117 0.839364
Si Si6 0.387297 0.730878 0.606384
O O1 0.500000 0.500000 0.500000
O O2 0.404504 0.546073 0.269918
O O3 0.351259 0.601259 0.500000
O O4 0.718125 0.961434 0.310038
O O5 0.715386 0.779921 0.826157
O O6 0.528162 0.784853 0.689962
O O7 0.431138 0.634512 0.986695
O O8 0.783470 0.129578 0.790494
O O9 0.926035 0.772144 0.790494
O O10 0.041543 0.477007 0.173843
O O11 0.917833 0.214458 0.013305
O O12 0.174421 0.532852 0.730082
O O13 0.500000 0.000000 0.500000
#
# Coordination Sequence:
#
# PCOD8035379 Si02
#       6
#     2   2   2   2   2   2
#     4  12  26  46  66 103 143 174 221 285 345 393
#     4  11  25  44  71 102 133 181 230 274 336 405
#     4  11  25  44  71 101 135 180 229 274 336 409
#     4  11  25  44  71 102 133 181 230 274 336 405
#     4  11  25  44  71 101 135 180 229 274 336 409
#     4  12  26  46  66 103 143 174 221 285 345 393
#
# _framework density 20.637015000000002
#
# number of rings (size 3 to 8) (size 9 to 14) (size 15 to 20)
#    0.000    0.667    6.667    0.000    4.667    4.000 
#    0.000    0.000    0.000    0.000    0.000    0.000 
#    0.000    0.000    0.000    0.000    0.000    0.000 
#
# Total GULP energy -148892.518268 kJ/mol
# GULP energy per Si atom -12407.709856 kJ/mol
# Density = 2.059004 g / cm^3
# Si number density = 20.637015 Si / 1000 Ang^3
#
#
#
# Elastic Constant Matrix: (Units=GPa)
#
#
# Indices 1 2 3 4 5 6 
#
# 1 76.3323 -7.6887 29.0222 6.9383 -14.8154 -1.4998
# 2 -7.6887 73.8535 26.5371 12.2960 -8.5023 -3.8453
# 3 29.0222 26.5371 102.6022 -0.9358 0.7348 -9.0291
# 4 6.9383 12.2960 -0.9358 33.7103 -1.9999 -3.4861
# 5 -14.8154 -8.5023 0.7348 -1.9999 33.9511 3.2502
# 6 -1.4998 -3.8453 -9.0291 -3.4861 3.2502 33.6732
#
#
#
# Elastic Compliance Matrix: (Units=1/GPa)
#
#
# Indices 1 2 3 4 5 6 
#
# 1 0.019074 0.006740 -0.007441 -0.006203 0.009997 -0.001983
# 2 0.006740 0.018925 -0.007015 -0.008145 0.007446 -0.000982
# 3 -0.007441 -0.007015 0.014065 0.004536 -0.005388 0.003629
# 4 -0.006203 -0.008145 0.004536 0.034248 -0.003197 0.003864
# 5 0.009997 0.007446 -0.005388 -0.003197 0.035988 -0.003954
# 6 -0.001983 -0.000982 0.003629 0.003864 -0.003954 0.031251
#
#
# Mechanical properties :
#
#
# Convention : Reuss Voigt Hill
#
# Bulk Modulus (GPa) = 27.29969 38.72548 33.01258
# Shear Modulus (GPa) = 27.59475 33.92806 30.76141
#
# Velocity S-wave (km/s) = 3.66067 4.05907 3.86501
# Velocity P-wave (km/s) = 5.57894 6.38544 5.99577
#
# Compressibility (1/GPa) = 0.03663046
#
# Stress axis : x y z
#
# Youngs Moduli (GPa) = 52.42805 52.84068 71.09916
#
# Poissons Ratio (x) = -0.35613 0.52906
# Poissons Ratio (y) = -0.35335 0.49877
# Poissons Ratio (z) = 0.39012 0.37068
#
# Static dielectric constant tensor:
#      x y z
#    x 3.625180 -0.188000 0.053300 
#    y -0.188000 3.570610 -0.049240 
#    z 0.053300 -0.049240 3.630230 
# 
# 
# High freq. dielectric constant tensor:
#      x y z
#    x 1.814590 -0.009250 -0.004330 
#    y -0.009250 1.811690 0.003420 
#    z -0.004330 0.003420 1.824230 
# 
# From -- ./inp_files/17762.got.cif
#   From: 2010.06.25/outbox.cif.g09.slc.cpg/sg2_9_cif.got.tgz:17762.got - 2010.06.27 13:26:56.
