data_PCOD8035155
_publ_section_title
;
Structure prediction by ZEFSAII (Michael W. Deem and Ramdas Pophale) SiO2 
 PCOD8035155
Probable space group: P -1
;
_chemical_formula_sum "Si O2"
_cell_formula_units_Z 16
_cell_length_a 14.915309
_cell_length_b 23.000338
_cell_length_c 9.631796
_cell_angle_alpha 136.610356
_cell_angle_beta 27.145582
_cell_angle_gamma 152.309773
_cell_volume 670.697410
_symmetry_space_group_name_H-M "P -1"
_symmetry_group_IT_number 2
_symmetry_cell_setting 'triclinic'
loop_
_space_group_symop_operation_xyz
x,y,z
-x,-y,-z
loop_
_atom_site_type_symbol
_atom_site_label
_atom_site_fract_x
_atom_site_fract_y
_atom_site_fract_z
Si Si1 0.746465 0.275583 0.418876
Si Si2 0.510490 0.331321 0.645969
Si Si3 0.557239 0.692643 0.596740
Si Si4 0.368491 0.000064 0.372631
Si Si5 0.581003 0.513985 0.251827
Si Si6 0.854111 0.031549 0.667281
Si Si7 0.887216 0.367788 0.689620
Si Si8 0.103039 0.267166 0.305212
O O1 0.521890 0.264428 0.631507
O O2 0.734091 0.299968 0.636482
O O3 0.605862 0.135646 0.364028
O O4 0.068425 0.391016 0.096940
O O5 0.467675 0.266280 0.445434
O O6 0.793714 0.486173 0.526382
O O7 0.222964 0.293329 0.027117
O O8 0.507782 0.582339 0.409362
O O9 0.885460 0.811231 0.418708
O O10 0.305809 0.630665 0.949190
O O11 0.233137 0.010118 0.446637
O O12 0.085297 0.877329 0.642182
O O13 0.546389 0.970383 0.046056
O O14 0.500000 0.500000 0.500000
O O15 0.379697 0.374373 0.218227
O O16 0.000000 0.000000 0.500000
O O17 0.900556 0.285255 0.614221
#
# Coordination Sequence:
#
# PCOD8035155 Si02
#       8
#     2   2   2   2   2   2   2   2
#     4  12  27  48  73 106 153 195 248 309 371 449
#     4  12  26  46  74 108 150 194 249 311 374 444
#     4  12  25  46  75 104 142 191 248 302 378 441
#     4  11  27  48  74 112 151 200 251 304 380 452
#     4  12  25  43  76 105 143 194 245 306 376 437
#     4  11  24  48  76 106 153 196 251 310 370 447
#     4  12  26  47  74 111 147 192 254 312 371 447
#     4  12  27  47  72 106 154 192 248 315 371 449
#
# _framework density 23.855764000000001
#
# number of rings (size 3 to 8) (size 9 to 14) (size 15 to 20)
#    0.000    0.250    3.750    4.875    7.000    1.000 
#    2.250    0.000    0.000    0.000    0.000    0.000 
#    0.000    0.000    0.000    0.000    0.000    0.000 
#
# Total GULP energy -198326.845284 kJ/mol
# GULP energy per Si atom -12395.427830 kJ/mol
# Density = 2.380147 g / cm^3
# Si number density = 23.855764 Si / 1000 Ang^3
#
#
#
# Elastic Constant Matrix: (Units=GPa)
#
#
# Indices 1 2 3 4 5 6 
#
# 1 99.1261 19.5243 28.6930 3.1656 6.7965 11.5451
# 2 19.5243 49.7712 15.5241 -17.1864 8.1185 6.6582
# 3 28.6930 15.5241 106.9252 -5.2202 18.4877 5.6110
# 4 3.1656 -17.1864 -5.2202 38.5898 -0.2600 2.6002
# 5 6.7965 8.1185 18.4877 -0.2600 43.0327 10.1363
# 6 11.5451 6.6582 5.6110 2.6002 10.1363 38.6956
#
#
#
# Elastic Compliance Matrix: (Units=1/GPa)
#
#
# Indices 1 2 3 4 5 6 
#
# 1 0.012173 -0.004896 -0.002719 -0.003384 0.000703 -0.002352
# 2 -0.004896 0.027784 -0.001404 0.012779 -0.003039 -0.003179
# 3 -0.002719 -0.001404 0.011029 0.001030 -0.004149 0.000471
# 4 -0.003384 0.012779 0.001030 0.032224 -0.001384 -0.003141
# 5 0.000703 -0.003039 -0.004149 -0.001384 0.026897 -0.006038
# 6 -0.002352 -0.003179 0.000471 -0.003141 -0.006038 0.028816
#
#
# Mechanical properties :
#
#
# Convention : Reuss Voigt Hill
#
# Bulk Modulus (GPa) = 30.35008 42.58949 36.46979
# Shear Modulus (GPa) = 29.77196 36.86902 33.32049
#
# Velocity S-wave (km/s) = 3.53653 3.93555 3.74136
# Velocity P-wave (km/s) = 5.42458 6.20830 5.82963
#
# Compressibility (1/GPa) = 0.03294884
#
# Stress axis : x y z
#
# Youngs Moduli (GPa) = 82.14694 35.99172 90.67242
#
# Poissons Ratio (x) = 0.17620 0.24655
# Poissons Ratio (y) = 0.40216 0.12730
# Poissons Ratio (z) = 0.22337 0.05053
#
# Static dielectric constant tensor:
#      x y z
#    x 4.523400 -0.050710 -0.053080 
#    y -0.050710 4.470520 0.148330 
#    z -0.053080 0.148330 4.253620 
# 
# 
# High freq. dielectric constant tensor:
#      x y z
#    x 1.956480 0.001070 0.003560 
#    y 0.001070 1.950190 0.000160 
#    z 0.003560 0.000160 1.948800 
# 
# From -- ./inp_files/320325.got.cif
#   From: 2010.06.25/outbox.cif.g09.slc.cpg/sg2_161_cif.got.tgz:320325.got - 2010.06.27 13:26:56.
