data_PCOD8035390
_publ_section_title
;
Structure prediction by ZEFSAII (Michael W. Deem and Ramdas Pophale) SiO2 
 PCOD8035390
Probable space group: P -1
;
_chemical_formula_sum "Si O2"
_cell_formula_units_Z 16
_cell_length_a 12.173447
_cell_length_b 25.053353
_cell_length_c 5.682237
_cell_angle_alpha 125.309139
_cell_angle_beta 127.715760
_cell_angle_gamma 29.520068
_cell_volume 670.830744
_symmetry_space_group_name_H-M "P -1"
_symmetry_group_IT_number 2
_symmetry_cell_setting 'triclinic'
loop_
_space_group_symop_operation_xyz
x,y,z
-x,-y,-z
loop_
_atom_site_type_symbol
_atom_site_label
_atom_site_fract_x
_atom_site_fract_y
_atom_site_fract_z
Si Si1 0.539387 0.329568 0.111218
Si Si2 0.137461 0.884987 0.807034
Si Si3 0.217238 0.353741 0.593214
Si Si4 0.588202 0.769085 0.952678
Si Si5 0.715654 0.365939 0.136080
Si Si6 0.493941 0.056317 0.827168
Si Si7 0.882834 0.867927 0.169909
Si Si8 0.710656 0.510689 0.405866
O O1 0.721283 0.200938 0.011450
O O2 0.684866 0.340433 0.277657
O O3 0.427365 0.383515 0.356545
O O4 0.331068 0.384179 0.802279
O O5 0.335508 0.831472 0.744162
O O6 0.968805 0.892561 0.514681
O O7 0.000000 0.000000 0.000000
O O8 0.278545 0.292851 0.277322
O O9 0.940011 0.461801 0.498688
O O10 0.295600 0.295457 0.806901
O O11 0.556644 0.858244 0.158252
O O12 0.783157 0.416072 0.399089
O O13 0.454011 0.455031 0.924771
O O14 0.905349 0.256744 0.953877
O O15 0.292303 0.117316 0.904701
O O16 0.500000 0.000000 0.500000
O O17 0.749444 0.959050 0.027498
#
# Coordination Sequence:
#
# PCOD8035390 Si02
#       8
#     2   2   2   2   2   2   2   2
#     4  11  25  45  71 106 142 189 242 298 363 438
#     4  11  25  46  73 106 149 191 243 301 369 440
#     4  11  27  47  76 104 151 191 243 303 360 440
#     4  11  27  48  72 111 146 193 246 296 369 439
#     4  11  25  44  72 102 146 182 248 299 368 433
#     4  11  27  43  71 100 144 191 246 300 372 434
#     4  11  25  45  69 103 142 188 243 306 367 440
#     4  11  25  46  71 106 140 194 240 303 365 427
#
# _framework density 23.851025
#
# number of rings (size 3 to 8) (size 9 to 14) (size 15 to 20)
#    0.000    1.000    1.250    3.000   15.750    1.000 
#    0.000    0.000    0.000    0.000    0.000    0.000 
#    0.000    0.000    0.000    0.000    0.000    0.000 
#
# Total GULP energy -198217.514921 kJ/mol
# GULP energy per Si atom -12388.594683 kJ/mol
# Density = 2.379674 g / cm^3
# Si number density = 23.851025 Si / 1000 Ang^3
#
#
#
# Elastic Constant Matrix: (Units=GPa)
#
#
# Indices 1 2 3 4 5 6 
#
# 1 58.9421 22.0759 -0.6291 -0.1161 -2.4586 -14.3573
# 2 22.0759 117.1074 25.7237 3.4178 -0.2156 -15.7813
# 3 -0.6291 25.7237 80.8030 -0.5513 -1.6712 -7.0981
# 4 -0.1161 3.4178 -0.5513 38.8427 -0.9751 10.3530
# 5 -2.4586 -0.2156 -1.6712 -0.9751 43.9556 -5.9021
# 6 -14.3573 -15.7813 -7.0981 10.3530 -5.9021 24.0598
#
#
#
# Elastic Compliance Matrix: (Units=1/GPa)
#
#
# Indices 1 2 3 4 5 6 
#
# 1 0.021477 -0.002554 0.002251 -0.003332 0.003079 0.013994
# 2 -0.002554 0.010492 -0.002865 -0.002479 0.000511 0.005704
# 3 0.002251 -0.002865 0.013680 -0.000595 0.001161 0.004040
# 4 -0.003332 -0.002479 -0.000595 0.030532 -0.001879 -0.017389
# 5 0.003079 0.000511 0.001161 -0.001879 0.024170 0.009253
# 6 0.013994 0.005704 0.004040 -0.017389 0.009253 0.064599
#
#
# Mechanical properties :
#
#
# Convention : Reuss Voigt Hill
#
# Bulk Modulus (GPa) = 25.43788 39.02148 32.22968
# Shear Modulus (GPa) = 27.11605 35.35041 31.23323
#
# Velocity S-wave (km/s) = 3.37544 3.85403 3.62265
# Velocity P-wave (km/s) = 5.08723 6.01670 5.57138
#
# Compressibility (1/GPa) = 0.03931146
#
# Stress axis : x y z
#
# Youngs Moduli (GPa) = 46.56147 95.30987 73.09746
#
# Poissons Ratio (x) = 0.24345 -0.16451
# Poissons Ratio (y) = 0.11893 0.20945
# Poissons Ratio (z) = -0.10479 0.27309
#
# Static dielectric constant tensor:
#      x y z
#    x 5.707780 0.144920 -0.027900 
#    y 0.144920 4.419650 -0.043790 
#    z -0.027900 -0.043790 4.184420 
# 
# 
# High freq. dielectric constant tensor:
#      x y z
#    x 1.963670 -0.003400 0.016690 
#    y -0.003400 1.958610 -0.000480 
#    z 0.016690 -0.000480 1.937470 
# 
# From -- ./inp_files/85112.got.cif
#   From: 2010.06.25/outbox.cif.g09.slc.cpg/sg2_43_cif.got.tgz:85112.got - 2010.06.27 13:26:56.
