data_PCOD8035853
_publ_section_title
;
Structure prediction by ZEFSAII (Michael W. Deem and Ramdas Pophale) SiO2 
 PCOD8035853
Probable space group: P -1
;
_chemical_formula_sum "Si O2"
_cell_formula_units_Z 16
_cell_length_a 9.074537
_cell_length_b 8.886831
_cell_length_c 15.925909
_cell_angle_alpha 145.303763
_cell_angle_beta 67.044103
_cell_angle_gamma 116.724322
_cell_volume 652.458939
_symmetry_space_group_name_H-M "P -1"
_symmetry_group_IT_number 2
_symmetry_cell_setting 'triclinic'
loop_
_space_group_symop_operation_xyz
x,y,z
-x,-y,-z
loop_
_atom_site_type_symbol
_atom_site_label
_atom_site_fract_x
_atom_site_fract_y
_atom_site_fract_z
Si Si1 0.179942 0.470615 0.973776
Si Si2 0.413915 0.602336 0.388128
Si Si3 0.342723 0.634896 0.680843
Si Si4 0.884585 0.904977 0.561874
Si Si5 0.391503 0.901194 0.226625
Si Si6 0.581403 0.804769 0.281642
Si Si7 0.115654 0.020130 0.904282
Si Si8 0.068819 0.250944 0.345101
O O1 0.252937 0.308266 0.809693
O O2 0.178296 0.333077 0.003954
O O3 0.310302 0.764901 0.094850
O O4 0.000000 0.500000 0.000000
O O5 0.589733 0.536663 0.341781
O O6 0.438834 0.654802 0.307700
O O7 0.263100 0.345010 0.322258
O O8 0.375232 0.868767 0.562842
O O9 0.197001 0.420864 0.567566
O O10 0.262258 0.883957 0.839889
O O11 0.506917 0.780971 0.660122
O O12 0.964253 0.955741 0.661436
O O13 0.749564 0.080039 0.665822
O O14 0.000000 0.000000 0.500000
O O15 0.509251 0.740147 0.173591
O O16 0.024010 0.890452 0.780611
O O17 0.000000 0.000000 0.000000
O O18 0.000000 0.500000 0.500000
#
# Coordination Sequence:
#
# PCOD8035853 Si02
#       8
#     2   2   2   2   2   2   2   2
#     4  12  29  49  73 108 156 203 256 312 383 466
#     4  11  26  45  79 111 151 190 258 323 381 453
#     4  12  25  51  75 114 151 198 254 326 384 457
#     4  12  27  45  81 115 154 197 260 321 392 453
#     4  12  25  48  76 104 152 204 248 316 388 453
#     4  11  25  47  74 111 147 199 253 315 382 457
#     4  12  30  49  76 109 159 208 257 315 390 466
#     4  12  25  46  74 112 153 195 253 321 384 450
#
# _framework density 24.522615999999999
#
# number of rings (size 3 to 8) (size 9 to 14) (size 15 to 20)
#    0.000    0.250    5.000    3.000    7.000    1.000 
#    0.000    1.250    0.000    0.000    0.000    0.000 
#    0.000    0.000    0.000    0.000    0.000    0.000 
#
# Total GULP energy -198239.756725 kJ/mol
# GULP energy per Si atom -12389.984795 kJ/mol
# Density = 2.446680 g / cm^3
# Si number density = 24.522616 Si / 1000 Ang^3
#
#
#
# Elastic Constant Matrix: (Units=GPa)
#
#
# Indices 1 2 3 4 5 6 
#
# 1 120.9702 35.8880 49.6102 5.1483 -10.0938 2.0191
# 2 35.8880 124.2298 51.4985 -15.0593 2.8614 8.0580
# 3 49.6102 51.4985 97.3966 -5.2264 -9.2442 4.9435
# 4 5.1483 -15.0593 -5.2264 35.9025 -1.6103 -4.5337
# 5 -10.0938 2.8614 -9.2442 -1.6103 51.4275 2.6958
# 6 2.0191 8.0580 4.9435 -4.5337 2.6958 37.0948
#
#
#
# Elastic Compliance Matrix: (Units=1/GPa)
#
#
# Indices 1 2 3 4 5 6 
#
# 1 0.010911 -0.001547 -0.004767 -0.002858 0.001285 -0.000065
# 2 -0.001547 0.011157 -0.005000 0.003965 -0.001643 -0.001069
# 3 -0.004767 -0.005000 0.015637 0.000862 0.002222 -0.000794
# 4 -0.002858 0.003965 0.000862 0.030424 0.000175 0.002885
# 5 0.001285 -0.001643 0.002222 0.000175 0.020270 -0.001461
# 6 -0.000065 -0.001069 -0.000794 0.002885 -0.001461 0.027758
#
#
# Mechanical properties :
#
#
# Convention : Reuss Voigt Hill
#
# Bulk Modulus (GPa) = 66.33563 68.51000 67.42282
# Shear Modulus (GPa) = 34.76768 38.59162 36.67965
#
# Velocity S-wave (km/s) = 3.76943 3.97131 3.87169
# Velocity P-wave (km/s) = 6.78633 7.00190 6.89496
#
# Compressibility (1/GPa) = 0.01507486
#
# Stress axis : x y z
#
# Youngs Moduli (GPa) = 91.65391 89.62787 63.95126
#
# Poissons Ratio (x) = 0.13869 0.30488
# Poissons Ratio (y) = 0.14183 0.31976
# Poissons Ratio (z) = 0.43695 0.44815
#
# Static dielectric constant tensor:
#      x y z
#    x 3.156830 -0.509610 -1.238230 
#    y -0.509610 4.402900 -0.068200 
#    z -1.238230 -0.068200 3.516530 
# 
# 
# High freq. dielectric constant tensor:
#      x y z
#    x 1.993240 -0.001310 -0.013890 
#    y -0.001310 1.971180 0.009650 
#    z -0.013890 0.009650 1.966990 
# 
# From -- ./inp_files/495808.got.cif
#   From: 2010.06.25/outbox.cif.g09.slc.cpg/sg2_248_cif.got.tgz:495808.got - 2010.06.27 13:26:56.
