data_PCOD8035442
_publ_section_title
;
Structure prediction by ZEFSAII (Michael W. Deem and Ramdas Pophale) SiO2 
 PCOD8035442
Probable space group: P -1
;
_chemical_formula_sum "Si O2"
_cell_formula_units_Z 12
_cell_length_a 9.755646
_cell_length_b 11.038228
_cell_length_c 4.984979
_cell_angle_alpha 85.168345
_cell_angle_beta 103.032657
_cell_angle_gamma 102.964986
_cell_volume 509.328347
_symmetry_space_group_name_H-M "P -1"
_symmetry_group_IT_number 2
_symmetry_cell_setting 'triclinic'
loop_
_space_group_symop_operation_xyz
x,y,z
-x,-y,-z
loop_
_atom_site_type_symbol
_atom_site_label
_atom_site_fract_x
_atom_site_fract_y
_atom_site_fract_z
Si Si1 0.990312 0.137837 0.386183
Si Si2 0.361228 0.674849 0.384996
Si Si3 0.662648 0.484515 0.087591
Si Si4 0.839318 0.756772 0.077615
Si Si5 0.672706 0.121370 0.296981
Si Si6 0.583779 0.846799 0.202993
O O1 0.036039 0.225647 0.647670
O O2 0.829333 0.143241 0.222749
O O3 0.100000 0.186579 0.187587
O O4 0.000000 0.000000 0.500000
O O5 0.319412 0.565150 0.599298
O O6 0.306954 0.798773 0.432429
O O7 0.535400 0.729334 0.408480
O O8 0.297451 0.614858 0.087010
O O9 0.773451 0.611498 0.052932
O O10 0.500000 0.500000 0.000000
O O11 0.719988 0.833969 0.092580
O O12 0.618147 0.974616 0.363396
O O13 0.557592 0.164480 0.044857
#
# Coordination Sequence:
#
# PCOD8035442 Si02
#       6
#     2   2   2   2   2   2
#     4  12  28  48  74 105 153 185 236 292 375 426
#     4  12  24  45  70 109 139 190 234 299 357 409
#     4  12  25  43  75 103 148 184 245 296 343 423
#     4  12  27  48  72 112 138 193 242 295 352 429
#     4  11  26  46  73 109 146 190 233 305 357 435
#     4  11  25  44  79 106 146 181 251 296 359 417
#
# _framework density 23.56044
#
# number of rings (size 3 to 8) (size 9 to 14) (size 15 to 20)
#    0.000    0.333    5.000    2.500    7.000    1.333 
#    0.000    5.000    0.000    0.000    0.000    0.000 
#    0.000    0.000    0.000    0.000    0.000    0.000 
#
# Total GULP energy -148749.537795 kJ/mol
# GULP energy per Si atom -12395.794816 kJ/mol
# Density = 2.350682 g / cm^3
# Si number density = 23.560440 Si / 1000 Ang^3
#
#
#
# Elastic Constant Matrix: (Units=GPa)
#
#
# Indices 1 2 3 4 5 6 
#
# 1 88.7242 30.5684 28.0082 6.3418 3.3648 14.1264
# 2 30.5684 166.4288 55.8575 12.7192 -20.1191 20.9461
# 3 28.0082 55.8575 94.0188 0.0874 -20.0920 13.3420
# 4 6.3418 12.7192 0.0874 46.0492 5.5068 -15.1780
# 5 3.3648 -20.1191 -20.0920 5.5068 42.6891 -2.7252
# 6 14.1264 20.9461 13.3420 -15.1780 -2.7252 38.4887
#
#
#
# Elastic Compliance Matrix: (Units=1/GPa)
#
#
# Indices 1 2 3 4 5 6 
#
# 1 0.013769 -0.000912 -0.003567 -0.002794 -0.003130 -0.004644
# 2 -0.000912 0.008585 -0.003623 -0.004033 0.002647 -0.004484
# 3 -0.003567 -0.003623 0.015265 0.000297 0.005625 -0.001495
# 4 -0.002794 -0.004033 0.000297 0.028339 -0.004303 0.013988
# 5 -0.003130 0.002647 0.005625 -0.004303 0.027997 -0.001956
# 6 -0.004644 -0.004484 -0.001495 0.013988 -0.001956 0.036023
#
#
# Mechanical properties :
#
#
# Convention : Reuss Voigt Hill
#
# Bulk Modulus (GPa) = 46.69734 64.22666 55.46200
# Shear Modulus (GPa) = 32.61164 41.09459 36.85312
#
# Velocity S-wave (km/s) = 3.72448 4.18092 3.95928
# Velocity P-wave (km/s) = 6.19346 7.11522 6.67028
#
# Compressibility (1/GPa) = 0.02141450
#
# Stress axis : x y z
#
# Youngs Moduli (GPa) = 72.62666 116.48845 65.50923
#
# Poissons Ratio (x) = 0.10626 0.23368
# Poissons Ratio (y) = 0.06625 0.23732
# Poissons Ratio (z) = 0.25907 0.42200
#
# Static dielectric constant tensor:
#      x y z
#    x 4.308810 0.231660 -0.158420 
#    y 0.231660 4.894150 0.281080 
#    z -0.158420 0.281080 4.293350 
# 
# 
# High freq. dielectric constant tensor:
#      x y z
#    x 1.921660 0.013280 -0.021590 
#    y 0.013280 1.958660 0.009370 
#    z -0.021590 0.009370 1.928290 
# 
# From -- ./inp_files/24748.got.cif
#   From: 2010.06.25/outbox.cif.g09.slc.cpg/sg2_13_cif.got.tgz:24748.got - 2010.06.27 13:26:56.
