data_PCOD8035053
_publ_section_title
;
Structure prediction by ZEFSAII (Michael W. Deem and Ramdas Pophale) SiO2 
 PCOD8035053
Probable space group: P -1
;
_chemical_formula_sum "Si O2"
_cell_formula_units_Z 16
_cell_length_a 5.584063
_cell_length_b 9.828324
_cell_length_c 18.677163
_cell_angle_alpha 40.985255
_cell_angle_beta 83.593641
_cell_angle_gamma 78.670268
_cell_volume 658.110964
_symmetry_space_group_name_H-M "P -1"
_symmetry_group_IT_number 2
_symmetry_cell_setting 'triclinic'
loop_
_space_group_symop_operation_xyz
x,y,z
-x,-y,-z
loop_
_atom_site_type_symbol
_atom_site_label
_atom_site_fract_x
_atom_site_fract_y
_atom_site_fract_z
Si Si1 0.100026 0.101392 0.111360
Si Si2 0.369146 0.685030 0.751237
Si Si3 0.334460 0.557937 0.551036
Si Si4 0.302053 0.212007 0.918563
Si Si5 0.963806 0.958680 0.434055
Si Si6 0.647809 0.679080 0.609858
Si Si7 0.457686 0.738102 0.885263
Si Si8 0.962901 0.689305 0.256277
O O1 0.326113 0.158141 0.127590
O O2 0.823022 0.168067 0.122969
O O3 0.103199 0.197986 0.992956
O O4 0.143655 0.848313 0.209778
O O5 0.395543 0.432715 0.842425
O O6 0.511026 0.780563 0.644347
O O7 0.486587 0.749071 0.794811
O O8 0.092831 0.822285 0.696671
O O9 0.500000 0.500000 0.500000
O O10 0.487531 0.540574 0.625884
O O11 0.172876 0.374019 0.641982
O O12 0.183934 0.796566 0.454614
O O13 0.203564 0.204375 0.844931
O O14 0.500000 0.000000 0.000000
O O15 0.722868 0.848461 0.485120
O O16 0.000000 0.000000 0.500000
O O17 0.885528 0.526330 0.693617
O O18 0.500000 0.500000 0.000000
#
# Coordination Sequence:
#
# PCOD8035053 Si02
#       8
#     2   2   2   2   2   2   2   2
#     4  12  28  50  76 114 165 206 267 330 400 478
#     4  12  25  46  81 110 154 213 263 326 409 473
#     4  11  26  49  79 111 161 198 260 335 406 483
#     4  12  25  49  80 115 155 210 268 334 398 485
#     4  11  24  48  74 118 152 202 267 331 398 490
#     4  11  24  47  75 111 150 195 266 327 398 484
#     4  12  29  50  74 113 163 211 267 330 398 485
#     4  11  26  46  80 114 150 207 263 326 409 483
#
# _framework density 24.312007999999999
#
# number of rings (size 3 to 8) (size 9 to 14) (size 15 to 20)
#    0.000    0.500    3.750    3.375    3.500    5.000 
#    0.000    0.000    0.000    0.000    0.000    0.000 
#    0.000    0.000    0.000    0.000    0.000    0.000 
#
# Total GULP energy -198257.250770 kJ/mol
# GULP energy per Si atom -12391.078173 kJ/mol
# Density = 2.425667 g / cm^3
# Si number density = 24.312008 Si / 1000 Ang^3
#
#
#
# Elastic Constant Matrix: (Units=GPa)
#
#
# Indices 1 2 3 4 5 6 
#
# 1 125.9285 64.2964 45.7588 -2.0560 2.2861 -1.3420
# 2 64.2964 146.1483 70.5415 4.6608 1.3532 -10.5016
# 3 45.7588 70.5415 123.9196 -7.4447 21.5382 -3.8443
# 4 -2.0560 4.6608 -7.4447 51.6218 -6.6209 -6.4488
# 5 2.2861 1.3532 21.5382 -6.6209 38.5727 -2.6563
# 6 -1.3420 -10.5016 -3.8443 -6.4488 -2.6563 42.7883
#
#
#
# Elastic Compliance Matrix: (Units=1/GPa)
#
#
# Indices 1 2 3 4 5 6 
#
# 1 0.010546 -0.003843 -0.001793 0.000496 0.000550 -0.000665
# 2 -0.003843 0.011398 -0.005581 -0.001352 0.002860 0.002149
# 3 -0.001793 -0.005581 0.013168 0.001397 -0.006842 -0.000457
# 4 0.000496 -0.001352 0.001397 0.020480 0.002966 0.003080
# 5 0.000550 0.002860 -0.006842 0.002966 0.030289 0.002432
# 6 -0.000665 0.002149 -0.000457 0.003080 0.002432 0.024452
#
#
# Mechanical properties :
#
#
# Convention : Reuss Voigt Hill
#
# Bulk Modulus (GPa) = 78.87811 84.13222 81.50516
# Shear Modulus (GPa) = 36.49877 40.95654 38.72765
#
# Velocity S-wave (km/s) = 3.87882 4.10887 3.99550
# Velocity P-wave (km/s) = 7.25085 7.56245 7.40829
#
# Compressibility (1/GPa) = 0.01267779
#
# Stress axis : x y z
#
# Youngs Moduli (GPa) = 94.82672 87.73745 75.94288
#
# Poissons Ratio (x) = 0.33714 0.13618
# Poissons Ratio (y) = 0.36438 0.42383
# Poissons Ratio (z) = 0.17004 0.48965
#
# Static dielectric constant tensor:
#      x y z
#    x 4.727190 -0.130330 0.058500 
#    y -0.130330 4.360530 -0.119530 
#    z 0.058500 -0.119530 4.750340 
# 
# 
# High freq. dielectric constant tensor:
#      x y z
#    x 1.966750 -0.005170 0.000810 
#    y -0.005170 1.973160 -0.013690 
#    z 0.000810 -0.013690 1.978080 
# 
# From -- ./inp_files/547760.got.cif
#   From: 2010.06.25/outbox.cif.g09.slc.cpg/sg2_274_cif.got.tgz:547760.got - 2010.06.27 13:26:56.
