data_PCOD8035121
_publ_section_title
;
Structure prediction by ZEFSAII (Michael W. Deem and Ramdas Pophale) SiO2 
 PCOD8035121
Probable space group: P -1
;
_chemical_formula_sum "Si O2"
_cell_formula_units_Z 14
_cell_length_a 5.736669
_cell_length_b 8.942795
_cell_length_c 11.873214
_cell_angle_alpha 82.624040
_cell_angle_beta 103.473857
_cell_angle_gamma 83.186267
_cell_volume 580.440214
_symmetry_space_group_name_H-M "P -1"
_symmetry_group_IT_number 2
_symmetry_cell_setting 'triclinic'
loop_
_space_group_symop_operation_xyz
x,y,z
-x,-y,-z
loop_
_atom_site_type_symbol
_atom_site_label
_atom_site_fract_x
_atom_site_fract_y
_atom_site_fract_z
Si Si1 0.160592 0.131735 0.892873
Si Si2 0.517936 0.676733 0.728288
Si Si3 0.966560 0.856239 0.365442
Si Si4 0.758514 0.419384 0.489808
Si Si5 0.817823 0.409920 0.924674
Si Si6 0.627884 0.189803 0.070705
Si Si7 0.740267 0.889146 0.568273
O O1 0.201149 0.155265 0.761477
O O2 0.927914 0.250502 0.891874
O O3 0.149495 0.948199 0.920332
O O4 0.385279 0.159681 0.987682
O O5 0.287284 0.639176 0.636092
O O6 0.662720 0.519191 0.807997
O O7 0.416209 0.796841 0.801792
O O8 0.698396 0.755713 0.662100
O O9 0.826207 0.816438 0.465454
O O10 0.193629 0.720266 0.402670
O O11 0.058011 0.019923 0.364133
O O12 0.500000 0.500000 0.500000
O O13 0.000000 0.500000 0.500000
O O14 0.664090 0.355396 0.014753
O O15 0.000000 0.500000 0.000000
O O16 0.500000 0.000000 0.500000
#
# Coordination Sequence:
#
# PCOD8035121 Si02
#       7
#     2   2   2   2   2   2   2
#     4  11  26  48  74 110 151 200 254 328 382 479
#     4  12  26  49  81 111 155 202 262 335 384 484
#     4  11  26  44  78 107 154 202 257 327 391 482
#     4  12  28  49  75 118 159 208 263 326 406 476
#     4  12  27  47  75 111 150 204 261 320 397 463
#     4  11  27  49  74 111 148 204 260 318 400 457
#     4  11  24  48  72 115 147 202 262 312 404 463
#
# _framework density 24.119624999999999
#
# number of rings (size 3 to 8) (size 9 to 14) (size 15 to 20)
#    0.000    0.571    2.857    3.429    6.000    4.571 
#    0.000    0.000    0.000    0.000    0.000    0.000 
#    0.000    0.000    0.000    0.000    0.000    0.000 
#
# Total GULP energy -173492.380466 kJ/mol
# GULP energy per Si atom -12392.312890 kJ/mol
# Density = 2.406473 g / cm^3
# Si number density = 24.119625 Si / 1000 Ang^3
#
#
#
# Elastic Constant Matrix: (Units=GPa)
#
#
# Indices 1 2 3 4 5 6 
#
# 1 82.7963 40.1664 25.4827 5.9563 -9.4562 15.5540
# 2 40.1664 134.8595 54.5044 -8.1981 -3.4623 -1.5025
# 3 25.4827 54.5044 143.6822 11.8078 2.1151 21.5786
# 4 5.9563 -8.1981 11.8078 55.0653 7.3559 0.6913
# 5 -9.4562 -3.4623 2.1151 7.3559 42.3255 -7.4812
# 6 15.5540 -1.5025 21.5786 0.6913 -7.4812 46.5497
#
#
#
# Elastic Compliance Matrix: (Units=1/GPa)
#
#
# Indices 1 2 3 4 5 6 
#
# 1 0.015898 -0.004869 -0.000042 -0.002741 0.002754 -0.004966
# 2 -0.004869 0.010712 -0.004015 0.002913 0.000157 0.003816
# 3 -0.000042 -0.004015 0.009400 -0.002389 -0.001211 -0.004632
# 4 -0.002741 0.002913 -0.002389 0.019852 -0.003482 0.001263
# 5 0.002754 0.000157 -0.001211 -0.003482 0.025594 0.003811
# 6 -0.004966 0.003816 -0.004632 0.001263 0.003811 0.026006
#
#
# Mechanical properties :
#
#
# Convention : Reuss Voigt Hill
#
# Bulk Modulus (GPa) = 55.07257 66.84945 60.96101
# Shear Modulus (GPa) = 38.06193 44.86707 41.46450
#
# Velocity S-wave (km/s) = 3.97678 4.31767 4.15072
# Velocity P-wave (km/s) = 6.63091 7.25481 6.94987
#
# Compressibility (1/GPa) = 0.01815786
#
# Stress axis : x y z
#
# Youngs Moduli (GPa) = 62.90239 93.35727 106.38407
#
# Poissons Ratio (x) = 0.45459 0.00445
# Poissons Ratio (y) = 0.30629 0.42708
# Poissons Ratio (z) = 0.00263 0.37478
#
# Static dielectric constant tensor:
#      x y z
#    x 3.912870 -0.360230 0.064810 
#    y -0.360230 5.083320 0.027080 
#    z 0.064810 0.027080 4.455580 
# 
# 
# High freq. dielectric constant tensor:
#      x y z
#    x 1.942900 -0.011810 0.007290 
#    y -0.011810 1.983200 -0.003300 
#    z 0.007290 -0.003300 1.974950 
# 
# From -- ./inp_files/229744.got.cif
#   From: 2010.06.25/outbox.cif.g09.slc.cpg/sg2_115_cif.got.tgz:229744.got - 2010.06.27 13:26:56.
