data_PCOD8035953
_publ_section_title
;
Structure prediction by ZEFSAII (Michael W. Deem and Ramdas Pophale) SiO2 
 PCOD8035953
Probable space group: P -1
;
_chemical_formula_sum "Si O2"
_cell_formula_units_Z 14
_cell_length_a 13.682094
_cell_length_b 13.124943
_cell_length_c 13.263425
_cell_angle_alpha 44.318707
_cell_angle_beta 159.081871
_cell_angle_gamma 126.973705
_cell_volume 572.378681
_symmetry_space_group_name_H-M "P -1"
_symmetry_group_IT_number 2
_symmetry_cell_setting 'triclinic'
loop_
_space_group_symop_operation_xyz
x,y,z
-x,-y,-z
loop_
_atom_site_type_symbol
_atom_site_label
_atom_site_fract_x
_atom_site_fract_y
_atom_site_fract_z
Si Si1 0.266070 0.503574 0.189725
Si Si2 0.994942 0.779723 0.607810
Si Si3 0.753864 0.774726 0.186914
Si Si4 0.661093 0.324531 0.282133
Si Si5 0.758077 0.790599 0.731703
Si Si6 0.207969 0.846455 0.270106
Si Si7 0.704443 0.978458 0.357424
O O1 0.500000 0.500000 0.500000
O O2 0.323606 0.363054 0.268129
O O3 0.000000 0.500000 0.000000
O O4 0.227605 0.657359 0.981006
O O5 0.866224 0.689175 0.461316
O O6 0.737588 0.869951 0.368502
O O7 0.145168 0.889968 0.615164
O O8 0.000810 0.727809 0.375243
O O9 0.475713 0.746098 0.890058
O O10 0.629597 0.949515 0.984992
O O11 0.631368 0.261551 0.408610
O O12 0.500000 0.500000 0.000000
O O13 0.463336 0.891078 0.425252
O O14 0.850485 0.877269 0.664899
O O15 0.023794 0.759972 0.086406
O O16 0.000000 0.000000 0.000000
#
# Coordination Sequence:
#
# PCOD8035953 Si02
#       7
#     2   2   2   2   2   2   2
#     4  12  28  50  72 113 154 200 244 306 374 462
#     4  11  27  46  80 110 155 195 250 301 384 456
#     4  12  25  48  74 107 149 192 250 308 379 432
#     4  12  28  48  75 107 149 196 260 315 368 452
#     4  12  27  47  81 106 155 197 250 307 387 442
#     4  12  27  50  74 112 147 201 256 321 379 436
#     4  11  25  48  76 117 146 199 247 310 369 471
#
# _framework density 24.459333000000001
#
# number of rings (size 3 to 8) (size 9 to 14) (size 15 to 20)
#    0.000    0.286    2.857    4.714    8.000    1.143 
#    0.000    0.000    0.000    0.000    0.000    0.000 
#    0.000    0.000    0.000    0.000    0.000    0.000 
#
# Total GULP energy -173505.046290 kJ/mol
# GULP energy per Si atom -12393.217592 kJ/mol
# Density = 2.440366 g / cm^3
# Si number density = 24.459333 Si / 1000 Ang^3
#
#
#
# Elastic Constant Matrix: (Units=GPa)
#
#
# Indices 1 2 3 4 5 6 
#
# 1 147.4931 55.3758 54.5610 -4.1223 -10.3570 -3.3384
# 2 55.3758 102.9972 53.9150 -2.5535 -23.7937 -1.1904
# 3 54.5610 53.9150 125.6279 5.2496 -14.6827 4.2917
# 4 -4.1223 -2.5535 5.2496 47.0723 -5.4283 -13.0138
# 5 -10.3570 -23.7937 -14.6827 -5.4283 60.0235 7.6214
# 6 -3.3384 -1.1904 4.2917 -13.0138 7.6214 33.5752
#
#
#
# Elastic Compliance Matrix: (Units=1/GPa)
#
#
# Indices 1 2 3 4 5 6 
#
# 1 0.009141 -0.003646 -0.002591 0.001307 -0.000606 0.001755
# 2 -0.003646 0.015043 -0.004444 0.001596 0.004344 0.000371
# 3 -0.002591 -0.004444 0.011279 -0.002466 0.000705 -0.002973
# 4 0.001307 0.001596 -0.002466 0.024555 0.001239 0.009738
# 5 -0.000606 0.004344 0.000705 0.001239 0.019050 -0.003840
# 6 0.001755 0.000371 -0.002973 0.009738 -0.003840 0.034998
#
#
# Mechanical properties :
#
#
# Convention : Reuss Voigt Hill
#
# Bulk Modulus (GPa) = 70.91249 78.20244 74.55747
# Shear Modulus (GPa) = 35.68178 42.28529 38.98353
#
# Velocity S-wave (km/s) = 3.82359 4.16239 3.99659
# Velocity P-wave (km/s) = 6.96765 7.42580 7.20037
#
# Compressibility (1/GPa) = 0.01410189
#
# Stress axis : x y z
#
# Youngs Moduli (GPa) = 109.39967 66.47683 88.65672
#
# Poissons Ratio (x) = 0.24236 0.22968
# Poissons Ratio (y) = 0.39884 0.39400
# Poissons Ratio (z) = 0.28342 0.29543
#
# Static dielectric constant tensor:
#      x y z
#    x 7.845750 -3.293750 4.189930 
#    y -3.293750 6.933330 -3.543930 
#    z 4.189930 -3.543930 8.768850 
# 
# 
# High freq. dielectric constant tensor:
#      x y z
#    x 2.001590 -0.018450 0.000260 
#    y -0.018450 1.947210 0.003570 
#    z 0.000260 0.003570 1.990170 
# 
# From -- ./inp_files/533718.got.cif
#   From: 2010.06.25/outbox.cif.g09.slc.cpg/sg2_267_cif.got.tgz:533718.got - 2010.06.27 13:26:56.
