data_PCOD8035229
_publ_section_title
;
Structure prediction by ZEFSAII (Michael W. Deem and Ramdas Pophale) SiO2 
 PCOD8035229
Probable space group: P -1
;
_chemical_formula_sum "Si O2"
_cell_formula_units_Z 16
_cell_length_a 14.331176
_cell_length_b 6.816646
_cell_length_c 11.719917
_cell_angle_alpha 134.029102
_cell_angle_beta 80.471422
_cell_angle_gamma 116.514367
_cell_volume 717.724019
_symmetry_space_group_name_H-M "P -1"
_symmetry_group_IT_number 2
_symmetry_cell_setting 'triclinic'
loop_
_space_group_symop_operation_xyz
x,y,z
-x,-y,-z
loop_
_atom_site_type_symbol
_atom_site_label
_atom_site_fract_x
_atom_site_fract_y
_atom_site_fract_z
Si Si1 0.417645 0.630831 0.226972
Si Si2 0.565974 0.323407 0.408829
Si Si3 0.139837 0.744732 0.612960
Si Si4 0.245674 0.367642 0.342288
Si Si5 0.730838 0.628805 0.060121
Si Si6 0.889937 0.338068 0.882878
Si Si7 0.434366 0.659516 0.840218
Si Si8 0.956060 0.236636 0.578862
O O1 0.313288 0.551511 0.292536
O O2 0.490985 0.502270 0.219175
O O3 0.497688 0.992631 0.347694
O O4 0.366840 0.486650 0.056910
O O5 0.500000 0.500000 0.500000
O O6 0.675430 0.551583 0.536781
O O7 0.597757 0.314644 0.270435
O O8 0.164392 0.488983 0.446600
O O9 0.124496 0.917309 0.574127
O O10 0.040119 0.568308 0.645922
O O11 0.225435 0.003847 0.783851
O O12 0.183091 0.999555 0.184124
O O13 0.677938 0.486962 0.133058
O O14 0.825197 0.537705 0.979521
O O15 0.908796 0.301049 0.730467
O O16 0.000000 0.500000 0.000000
O O17 0.500000 0.000000 0.000000
O O18 0.000000 0.000000 0.500000
#
# Coordination Sequence:
#
# PCOD8035229 Si02
#       8
#     2   2   2   2   2   2   2   2
#     4  12  26  49  71 109 154 190 242 300 362 436
#     4  12  26  46  73 104 145 196 241 298 358 428
#     4  11  27  44  75 108 136 191 244 295 361 424
#     4  12  26  46  75 109 144 195 245 293 363 436
#     4  12  27  45  74 111 148 193 241 296 368 434
#     4  12  28  49  76 106 148 195 241 304 367 432
#     4  12  26  47  72 104 153 190 241 298 362 434
#     4  11  24  51  73  99 145 184 245 308 355 419
#
# _framework density 22.292691000000001
#
# number of rings (size 3 to 8) (size 9 to 14) (size 15 to 20)
#    0.000    0.250    3.750    4.500    8.750    1.500 
#    0.000    0.000    0.000    0.000    0.000    0.000 
#    0.000    0.000    0.000    0.000    0.000    0.000 
#
# Total GULP energy -198276.428560 kJ/mol
# GULP energy per Si atom -12392.276785 kJ/mol
# Density = 2.224195 g / cm^3
# Si number density = 22.292691 Si / 1000 Ang^3
#
#
#
# Elastic Constant Matrix: (Units=GPa)
#
#
# Indices 1 2 3 4 5 6 
#
# 1 77.1277 36.2491 21.1420 1.6416 10.0912 5.8684
# 2 36.2491 116.4372 37.7785 -1.9434 -2.3881 8.7834
# 3 21.1420 37.7785 104.3939 13.9455 12.3700 7.7512
# 4 1.6416 -1.9434 13.9455 39.2084 6.1235 -8.5488
# 5 10.0912 -2.3881 12.3700 6.1235 47.9102 -5.7733
# 6 5.8684 8.7834 7.7512 -8.5488 -5.7733 43.1364
#
#
#
# Elastic Compliance Matrix: (Units=1/GPa)
#
#
# Indices 1 2 3 4 5 6 
#
# 1 0.015991 -0.004614 -0.000990 -0.000349 -0.003490 -0.001594
# 2 -0.004614 0.011295 -0.003598 0.001597 0.002210 -0.000413
# 3 -0.000990 -0.003598 0.012231 -0.004614 -0.002856 -0.002627
# 4 -0.000349 0.001597 -0.004614 0.028809 -0.001609 0.006045
# 5 -0.003490 0.002210 -0.002856 -0.001609 0.023059 0.003305
# 6 -0.001594 -0.000413 -0.002627 0.006045 0.003305 0.025596
#
#
# Mechanical properties :
#
#
# Convention : Reuss Voigt Hill
#
# Bulk Modulus (GPa) = 47.36310 54.25534 50.80922
# Shear Modulus (GPa) = 35.10667 39.57028 37.33847
#
# Velocity S-wave (km/s) = 3.97269 4.21769 4.09702
# Velocity P-wave (km/s) = 6.50655 6.93607 6.72474
#
# Compressibility (1/GPa) = 0.02111348
#
# Stress axis : x y z
#
# Youngs Moduli (GPa) = 62.53575 88.53307 81.75671
#
# Poissons Ratio (x) = 0.40850 0.08096
# Poissons Ratio (y) = 0.28855 0.29413
# Poissons Ratio (z) = 0.06193 0.31851
#
# Static dielectric constant tensor:
#      x y z
#    x 4.030190 0.150660 0.032060 
#    y 0.150660 4.180660 -0.118610 
#    z 0.032060 -0.118610 4.470710 
# 
# 
# High freq. dielectric constant tensor:
#      x y z
#    x 1.887110 0.003220 0.001810 
#    y 0.003220 1.894130 -0.005700 
#    z 0.001810 -0.005700 1.895070 
# 
# From -- ./inp_files/398864.got.cif
#   From: 2010.06.25/outbox.cif.g09.slc.cpg/sg2_200_cif.got.tgz:398864.got - 2010.06.27 13:26:56.
