data_PCOD8035120
_publ_section_title
;
Structure prediction by ZEFSAII (Michael W. Deem and Ramdas Pophale) SiO2 
 PCOD8035120
Probable space group: P -1
;
_chemical_formula_sum "Si O2"
_cell_formula_units_Z 14
_cell_length_a 21.572999
_cell_length_b 15.102541
_cell_length_c 11.928666
_cell_angle_alpha 141.419479
_cell_angle_beta 29.611182
_cell_angle_gamma 161.897173
_cell_volume 570.925580
_symmetry_space_group_name_H-M "P -1"
_symmetry_group_IT_number 2
_symmetry_cell_setting 'triclinic'
loop_
_space_group_symop_operation_xyz
x,y,z
-x,-y,-z
loop_
_atom_site_type_symbol
_atom_site_label
_atom_site_fract_x
_atom_site_fract_y
_atom_site_fract_z
Si Si1 0.915644 0.654685 0.587736
Si Si2 0.877517 0.428655 0.873640
Si Si3 0.447175 0.813677 0.642814
Si Si4 0.373534 0.014606 0.808719
Si Si5 0.808831 0.779297 0.300755
Si Si6 0.967918 0.713029 0.817723
Si Si7 0.034338 0.186242 0.682974
O O1 0.632998 0.338262 0.661621
O O2 0.126478 0.743587 0.313142
O O3 0.842020 0.584176 0.765561
O O4 0.035127 0.920975 0.621138
O O5 0.821265 0.450304 0.865166
O O6 0.652392 0.240270 0.130373
O O7 0.169187 0.766636 0.788511
O O8 0.246343 0.496250 0.592853
O O9 0.453210 0.957951 0.699704
O O10 0.725813 0.015308 0.411582
O O11 0.242665 0.007820 0.082988
O O12 0.500000 0.500000 0.500000
O O13 0.867252 0.728057 0.258317
O O14 0.922108 0.823302 0.052311
O O15 0.000000 0.000000 0.500000
#
# Coordination Sequence:
#
# PCOD8035120 Si02
#       7
#     2   2   2   2   2   2   2
#     4  12  28  43  77 108 144 197 244 293 362 444
#     4  11  24  48  72 110 148 187 240 302 364 420
#     4  11  25  46  78 104 151 186 238 312 356 426
#     4  11  25  47  72 111 147 184 241 307 360 426
#     4  12  29  51  72 103 153 197 238 304 364 430
#     4  12  26  50  72 107 146 191 250 294 363 427
#     4  11  26  45  73 109 143 196 245 293 363 434
#
# _framework density 24.521585999999999
#
# number of rings (size 3 to 8) (size 9 to 14) (size 15 to 20)
#    0.000    0.571    4.286    3.857    8.000    1.143 
#    0.000    0.000    0.000    0.000    0.000    0.000 
#    0.000    0.000    0.000    0.000    0.000    0.000 
#
# Total GULP energy -173639.023755 kJ/mol
# GULP energy per Si atom -12402.787411 kJ/mol
# Density = 2.446577 g / cm^3
# Si number density = 24.521586 Si / 1000 Ang^3
#
#
#
# Elastic Constant Matrix: (Units=GPa)
#
#
# Indices 1 2 3 4 5 6 
#
# 1 56.4487 16.2278 12.7151 -16.2455 -1.7716 -9.2660
# 2 16.2278 118.3619 64.7874 -2.0730 -15.0854 -27.7130
# 3 12.7151 64.7874 171.8216 9.3299 -5.5463 -1.3982
# 4 -16.2455 -2.0730 9.3299 51.1546 0.2846 -4.5280
# 5 -1.7716 -15.0854 -5.5463 0.2846 35.5457 3.7989
# 6 -9.2660 -27.7130 -1.3982 -4.5280 3.7989 32.5595
#
#
#
# Elastic Compliance Matrix: (Units=1/GPa)
#
#
# Indices 1 2 3 4 5 6 
#
# 1 0.021592 -0.000137 -0.001917 0.007825 -0.000097 0.007046
# 2 -0.000137 0.014966 -0.005542 0.002644 0.004139 0.012346
# 3 -0.001917 -0.005542 0.008141 -0.002778 -0.000596 -0.005230
# 4 0.007825 0.002644 -0.002778 0.023319 0.000081 0.007591
# 5 -0.000097 0.004139 -0.000596 0.000081 0.029790 0.000005
# 6 0.007046 0.012346 -0.005230 0.007591 0.000005 0.044057
#
#
# Mechanical properties :
#
#
# Convention : Reuss Voigt Hill
#
# Bulk Modulus (GPa) = 33.89121 59.34364 46.61743
# Shear Modulus (GPa) = 29.95963 40.71208 35.33585
#
# Velocity S-wave (km/s) = 3.49917 4.07904 3.80018
# Velocity P-wave (km/s) = 5.49332 6.81454 6.18928
#
# Compressibility (1/GPa) = 0.02950618
#
# Stress axis : x y z
#
# Youngs Moduli (GPa) = 46.31380 66.82028 122.84002
#
# Poissons Ratio (x) = 0.00913 0.23549
# Poissons Ratio (y) = 0.00633 0.68082
# Poissons Ratio (z) = 0.08878 0.37034
#
# Static dielectric constant tensor:
#      x y z
#    x 4.442600 -0.014850 -0.012450 
#    y -0.014850 4.462140 0.088780 
#    z -0.012450 0.088780 4.712450 
# 
# 
# High freq. dielectric constant tensor:
#      x y z
#    x 1.971260 -0.006430 -0.000870 
#    y -0.006430 1.979960 0.009290 
#    z -0.000870 0.009290 1.996730 
# 
# From -- ./inp_files/457590.got.cif
#   From: 2010.06.25/outbox.cif.g09.slc.cpg/sg2_229_cif.got.tgz:457590.got - 2010.06.27 13:26:56.
