data_PCOD8035725
_publ_section_title
;
Structure prediction by ZEFSAII (Michael W. Deem and Ramdas Pophale) SiO2 
 PCOD8035725
Probable space group: P -1
;
_chemical_formula_sum "Si O2"
_cell_formula_units_Z 14
_cell_length_a 16.711300
_cell_length_b 8.707566
_cell_length_c 9.221840
_cell_angle_alpha 103.057474
_cell_angle_beta 150.579631
_cell_angle_gamma 68.543883
_cell_volume 600.743814
_symmetry_space_group_name_H-M "P -1"
_symmetry_group_IT_number 2
_symmetry_cell_setting 'triclinic'
loop_
_space_group_symop_operation_xyz
x,y,z
-x,-y,-z
loop_
_atom_site_type_symbol
_atom_site_label
_atom_site_fract_x
_atom_site_fract_y
_atom_site_fract_z
Si Si1 0.754886 0.772458 0.342870
Si Si2 0.051091 0.504916 0.916334
Si Si3 0.114352 0.191078 0.764342
Si Si4 0.676453 0.347570 0.722462
Si Si5 0.761091 0.177431 0.110871
Si Si6 0.428772 0.696982 0.894377
Si Si7 0.799244 0.080965 0.642513
O O1 0.816117 0.790603 0.281655
O O2 0.882636 0.599722 0.575489
O O3 0.748332 0.927897 0.468032
O O4 0.566626 0.756059 0.036834
O O5 0.141604 0.321079 0.949647
O O6 0.188511 0.598698 0.147611
O O7 0.000000 0.500000 0.000000
O O8 0.917356 0.198760 0.453358
O O9 0.217235 0.007002 0.952382
O O10 0.500000 0.500000 0.500000
O O11 0.672916 0.179733 0.597720
O O12 0.743657 0.303545 0.979976
O O13 0.597030 0.224510 0.969126
O O14 0.248223 0.774982 0.530934
O O15 0.500000 0.500000 0.000000
O O16 0.000000 0.000000 0.000000
#
# Coordination Sequence:
#
# PCOD8035725 Si02
#       7
#     2   2   2   2   2   2   2
#     4  12  26  49  77 112 146 204 255 316 379 457
#     4  12  29  45  72 109 152 197 253 314 388 455
#     4  11  25  47  75 104 144 192 254 309 376 458
#     4  12  29  48  72 110 158 200 248 320 388 447
#     4  11  25  46  74 107 143 198 248 306 378 452
#     4  12  28  46  79 112 153 195 263 314 378 457
#     4  12  26  50  78 111 158 204 253 319 387 458
#
# _framework density 23.304442999999999
#
# number of rings (size 3 to 8) (size 9 to 14) (size 15 to 20)
#    0.000    0.286    4.286    2.571   14.000    0.000 
#    0.000    1.429    0.000    0.000    0.000    0.000 
#    0.000    0.000    0.000    0.000    0.000    0.000 
#
# Total GULP energy -173494.728999 kJ/mol
# GULP energy per Si atom -12392.480643 kJ/mol
# Density = 2.325140 g / cm^3
# Si number density = 23.304443 Si / 1000 Ang^3
#
#
#
# Elastic Constant Matrix: (Units=GPa)
#
#
# Indices 1 2 3 4 5 6 
#
# 1 153.2328 41.3053 50.9346 -6.0987 -2.7369 -6.0318
# 2 41.3053 147.2112 64.5844 -18.0378 -7.8468 -19.8483
# 3 50.9346 64.5844 92.1939 -16.7185 -9.2255 3.2444
# 4 -6.0987 -18.0378 -16.7185 40.2455 -0.7069 -7.8316
# 5 -2.7369 -7.8468 -9.2255 -0.7069 28.3195 -2.0392
# 6 -6.0318 -19.8483 3.2444 -7.8316 -2.0392 49.1195
#
#
#
# Elastic Compliance Matrix: (Units=1/GPa)
#
#
# Indices 1 2 3 4 5 6 
#
# 1 0.008100 -0.000259 -0.004502 -0.000563 -0.000693 0.001069
# 2 -0.000259 0.011227 -0.007237 0.003083 0.001203 0.005524
# 3 -0.004502 -0.007237 0.019548 0.003470 0.003722 -0.004061
# 4 -0.000563 0.003083 0.003470 0.028740 0.003055 0.005656
# 5 -0.000693 0.001203 0.003722 0.003055 0.037024 0.002179
# 6 0.001069 0.005524 -0.004061 0.005656 0.002179 0.023983
#
#
# Mechanical properties :
#
#
# Convention : Reuss Voigt Hill
#
# Bulk Modulus (GPa) = 67.21104 78.47626 72.84365
# Shear Modulus (GPa) = 31.73039 39.25779 35.49409
#
# Velocity S-wave (km/s) = 3.69393 4.10879 3.90688
# Velocity P-wave (km/s) = 6.86270 7.50047 7.18866
#
# Compressibility (1/GPa) = 0.01487851
#
# Stress axis : x y z
#
# Youngs Moduli (GPa) = 123.46034 89.06826 51.15514
#
# Poissons Ratio (x) = 0.02309 0.23032
# Poissons Ratio (y) = 0.03201 0.37020
# Poissons Ratio (z) = 0.55586 0.64457
#
# Static dielectric constant tensor:
#      x y z
#    x 4.277840 -0.131190 0.018600 
#    y -0.131190 4.546060 -0.310200 
#    z 0.018600 -0.310200 4.293480 
# 
# 
# High freq. dielectric constant tensor:
#      x y z
#    x 1.931720 -0.010580 -0.010210 
#    y -0.010580 1.944550 -0.014940 
#    z -0.010210 -0.014940 1.910070 
# 
# From -- ./inp_files/152903.got.cif
#   From: 2010.06.25/outbox.cif.g09.slc.cpg/sg2_77_cif.got.tgz:152903.got - 2010.06.27 13:26:56.
