data_PCOD8035286
_publ_section_title
;
Structure prediction by ZEFSAII (Michael W. Deem and Ramdas Pophale) SiO2 
 PCOD8035286
Probable space group: P -1
;
_chemical_formula_sum "Si O2"
_cell_formula_units_Z 16
_cell_length_a 18.568023
_cell_length_b 12.758183
_cell_length_c 21.268320
_cell_angle_alpha 143.895571
_cell_angle_beta 162.554813
_cell_angle_gamma 28.210826
_cell_volume 694.708393
_symmetry_space_group_name_H-M "P -1"
_symmetry_group_IT_number 2
_symmetry_cell_setting 'triclinic'
loop_
_space_group_symop_operation_xyz
x,y,z
-x,-y,-z
loop_
_atom_site_type_symbol
_atom_site_label
_atom_site_fract_x
_atom_site_fract_y
_atom_site_fract_z
Si Si1 0.848542 0.553467 0.090868
Si Si2 0.795093 0.920887 0.788752
Si Si3 0.908042 0.181807 0.565425
Si Si4 0.152906 0.326223 0.601295
Si Si5 0.122772 0.236728 0.358968
Si Si6 0.799570 0.492226 0.880742
Si Si7 0.223319 0.853796 0.782267
Si Si8 0.813620 0.032144 0.054010
O O1 0.090429 0.281219 0.165780
O O2 0.972788 0.677381 0.285579
O O3 0.790295 0.605366 0.993177
O O4 0.540937 0.637966 0.912305
O O5 0.810011 0.834846 0.690708
O O6 0.439497 0.127753 0.608539
O O7 0.000000 0.000000 0.000000
O O8 0.544954 0.359009 0.360117
O O9 0.000000 0.000000 0.500000
O O10 0.064071 0.063692 0.704044
O O11 0.000000 0.500000 0.500000
O O12 0.080033 0.489916 0.678652
O O13 0.002917 0.205465 0.425626
O O14 0.522120 0.130107 0.813097
O O15 0.945613 0.163098 0.211243
O O16 0.928198 0.234547 0.874176
O O17 0.000000 0.500000 0.000000
O O18 0.281169 0.928119 0.932261
#
# Coordination Sequence:
#
# PCOD8035286 Si02
#       8
#     2   2   2   2   2   2   2   2
#     4  12  27  46  76 105 148 197 247 302 371 440
#     4  11  25  43  72 102 148 192 245 301 368 436
#     4  12  28  49  76 108 147 192 254 306 371 441
#     4  12  27  44  72 108 148 193 244 300 373 439
#     4  11  25  43  67 105 144 190 245 301 364 441
#     4  12  28  48  76 108 147 190 248 311 372 435
#     4  12  27  46  77 106 147 197 249 305 370 441
#     4  12  27  45  73 108 149 188 248 307 370 443
#
# _framework density 23.031245999999999
#
# number of rings (size 3 to 8) (size 9 to 14) (size 15 to 20)
#    0.000    0.250    2.500    5.250   10.500    6.000 
#    0.000    0.000    0.000    0.000    0.000    0.000 
#    0.000    0.000    0.000    0.000    0.000    0.000 
#
# Total GULP energy -198484.195750 kJ/mol
# GULP energy per Si atom -12405.262234 kJ/mol
# Density = 2.297883 g / cm^3
# Si number density = 23.031246 Si / 1000 Ang^3
#
#
#
# Elastic Constant Matrix: (Units=GPa)
#
#
# Indices 1 2 3 4 5 6 
#
# 1 79.1832 -13.8114 12.4479 -0.4198 -7.1929 2.8981
# 2 -13.8114 94.2139 21.3301 1.0206 2.8397 6.9723
# 3 12.4479 21.3301 130.4183 -4.2230 16.4553 9.3467
# 4 -0.4198 1.0206 -4.2230 50.9525 1.6129 2.2311
# 5 -7.1929 2.8397 16.4553 1.6129 42.2082 1.2456
# 6 2.8981 6.9723 9.3467 2.2311 1.2456 39.7254
#
#
#
# Elastic Compliance Matrix: (Units=1/GPa)
#
#
# Indices 1 2 3 4 5 6 
#
# 1 0.013682 0.002450 -0.002014 -0.000152 0.002988 -0.001039
# 2 0.002450 0.011559 -0.002076 -0.000324 0.000512 -0.001717
# 3 -0.002014 -0.002076 0.008794 0.000934 -0.003624 -0.001497
# 4 -0.000152 -0.000324 0.000934 0.019797 -0.001089 -0.001229
# 5 0.002988 0.000512 -0.003624 -0.001089 0.025627 -0.000198
# 6 -0.001039 -0.001717 -0.001497 -0.001229 -0.000198 0.025977
#
#
# Mechanical properties :
#
#
# Convention : Reuss Voigt Hill
#
# Bulk Modulus (GPa) = 32.51646 38.19431 35.35538
# Shear Modulus (GPa) = 42.02824 45.50046 43.76435
#
# Velocity S-wave (km/s) = 4.27644 4.44959 4.36388
# Velocity P-wave (km/s) = 6.20750 6.55882 6.38558
#
# Compressibility (1/GPa) = 0.03075366
#
# Stress axis : x y z
#
# Youngs Moduli (GPa) = 73.09075 86.51612 113.71169
#
# Poissons Ratio (x) = -0.21198 0.22902
# Poissons Ratio (y) = -0.17908 0.23611
# Poissons Ratio (z) = 0.14721 0.17964
#
# Static dielectric constant tensor:
#      x y z
#    x 4.358020 0.054020 -0.074440 
#    y 0.054020 4.755710 -0.193920 
#    z -0.074440 -0.193920 4.556690 
# 
# 
# High freq. dielectric constant tensor:
#      x y z
#    x 1.920490 -0.005210 -0.005250 
#    y -0.005210 1.922800 -0.004070 
#    z -0.005250 -0.004070 1.924590 
# 
# From -- ./inp_files/600102.got.cif
#   From: 2010.06.25/outbox.cif.g09.slc.cpg/sg2_301_cif.got.tgz:600102.got - 2010.06.27 13:26:56.
