data_PCOD8035019
_publ_section_title
;
Structure prediction by ZEFSAII (Michael W. Deem and Ramdas Pophale) SiO2 
 PCOD8035019
Probable space group: P -1
;
_chemical_formula_sum "Si O2"
_cell_formula_units_Z 16
_cell_length_a 21.162382
_cell_length_b 8.705269
_cell_length_c 12.052165
_cell_angle_alpha 49.122652
_cell_angle_beta 139.099013
_cell_angle_gamma 150.392964
_cell_volume 718.198170
_symmetry_space_group_name_H-M "P -1"
_symmetry_group_IT_number 2
_symmetry_cell_setting 'triclinic'
loop_
_space_group_symop_operation_xyz
x,y,z
-x,-y,-z
loop_
_atom_site_type_symbol
_atom_site_label
_atom_site_fract_x
_atom_site_fract_y
_atom_site_fract_z
Si Si1 0.763325 0.499872 0.365074
Si Si2 0.154281 0.671894 0.072635
Si Si3 0.019339 0.292180 0.625477
Si Si4 0.288752 0.027332 0.428823
Si Si5 0.764136 0.596018 0.565654
Si Si6 0.397906 0.404906 0.009464
Si Si7 0.464179 0.468939 0.646948
Si Si8 0.027455 0.274676 0.879849
O O1 0.907351 0.667342 0.408728
O O2 0.802174 0.677167 0.446807
O O3 0.682079 0.165884 0.453166
O O4 0.667168 0.482099 0.163309
O O5 0.219864 0.607846 0.272832
O O6 0.267688 0.038029 0.038667
O O7 0.000000 0.500000 0.000000
O O8 0.133446 0.544641 0.983401
O O9 0.000000 0.500000 0.500000
O O10 0.108935 0.400471 0.808493
O O11 0.870688 0.922868 0.616101
O O12 0.335196 0.152127 0.557253
O O13 0.389692 0.294284 0.345165
O O14 0.122041 0.830573 0.277122
O O15 0.596680 0.404730 0.458063
O O16 0.498133 0.595872 0.161136
O O17 0.500000 0.500000 0.000000
O O18 0.000000 0.000000 0.000000
#
# Coordination Sequence:
#
# PCOD8035019 Si02
#       8
#     2   2   2   2   2   2   2   2
#     4  12  26  44  69 101 143 183 235 294 362 411
#     4  12  27  46  74 105 140 190 243 293 351 427
#     4  12  25  43  71 105 140 184 231 297 364 419
#     4  11  25  46  72 103 136 191 233 293 353 437
#     4  12  24  46  71 100 141 189 233 287 357 434
#     4  12  28  46  70 106 147 185 241 302 355 422
#     4  11  24  47  72  97 142 185 240 282 359 434
#     4  12  24  47  71 106 142 181 244 294 353 425
#
# _framework density 22.277974
#
# number of rings (size 3 to 8) (size 9 to 14) (size 15 to 20)
#    0.000    0.250    5.000    3.375    5.250    2.500 
#    0.000    0.000    0.000    0.000    0.000    0.000 
#    0.000    0.000    0.000    0.000    0.000    0.000 
#
# Total GULP energy -198360.187014 kJ/mol
# GULP energy per Si atom -12397.511688 kJ/mol
# Density = 2.222727 g / cm^3
# Si number density = 22.277974 Si / 1000 Ang^3
#
#
#
# Elastic Constant Matrix: (Units=GPa)
#
#
# Indices 1 2 3 4 5 6 
#
# 1 113.7765 7.7705 39.5006 8.4659 -17.6513 1.1611
# 2 7.7705 45.1738 18.9134 -8.7279 6.7096 -0.5902
# 3 39.5006 18.9134 163.0426 -11.0193 -6.1950 -12.3882
# 4 8.4659 -8.7279 -11.0193 34.7965 -7.0657 4.1641
# 5 -17.6513 6.7096 -6.1950 -7.0657 54.7555 -2.9463
# 6 1.1611 -0.5902 -12.3882 4.1641 -2.9463 34.0817
#
#
#
# Elastic Compliance Matrix: (Units=1/GPa)
#
#
# Indices 1 2 3 4 5 6 
#
# 1 0.010456 -0.001800 -0.002476 -0.003117 0.002873 -0.000658
# 2 -0.001800 0.024935 -0.002310 0.005453 -0.003263 -0.001295
# 3 -0.002476 -0.002310 0.007370 0.002205 0.000739 0.002518
# 4 -0.003117 0.005453 0.002205 0.032421 0.002613 -0.002733
# 5 0.002873 -0.003263 0.000739 0.002613 0.020092 0.001532
# 6 -0.000658 -0.001295 0.002518 -0.002733 0.001532 0.030723
#
#
# Mechanical properties :
#
#
# Convention : Reuss Voigt Hill
#
# Bulk Modulus (GPa) = 33.79659 50.48464 42.14061
# Shear Modulus (GPa) = 33.55004 41.78063 37.66533
#
# Velocity S-wave (km/s) = 3.88490 4.33531 4.11627
# Velocity P-wave (km/s) = 5.94362 6.91161 6.44581
#
# Compressibility (1/GPa) = 0.02958879
#
# Stress axis : x y z
#
# Youngs Moduli (GPa) = 95.63789 40.10448 135.69176
#
# Poissons Ratio (x) = 0.07217 0.33597
# Poissons Ratio (y) = 0.17211 0.31350
# Poissons Ratio (z) = 0.23680 0.09266
#
# Static dielectric constant tensor:
#      x y z
#    x 3.169200 -0.105700 0.099480 
#    y -0.105700 3.918510 -0.007960 
#    z 0.099480 -0.007960 4.306400 
# 
# 
# High freq. dielectric constant tensor:
#      x y z
#    x 1.903040 -0.003570 -0.012480 
#    y -0.003570 1.862110 -0.007390 
#    z -0.012480 -0.007390 1.890550 
# 
# From -- ./inp_files/223231.got.cif
#   From: 2010.06.25/outbox.cif.g09.slc.cpg/sg2_112_cif.got.tgz:223231.got - 2010.06.27 13:26:56.
