data_PCOD8035189
_publ_section_title
;
Structure prediction by ZEFSAII (Michael W. Deem and Ramdas Pophale) SiO2 
 PCOD8035189
Probable space group: P -1
;
_chemical_formula_sum "Si O2"
_cell_formula_units_Z 14
_cell_length_a 5.871004
_cell_length_b 14.070494
_cell_length_c 10.674356
_cell_angle_alpha 46.627026
_cell_angle_beta 61.307020
_cell_angle_gamma 73.939705
_cell_volume 560.310877
_symmetry_space_group_name_H-M "P -1"
_symmetry_group_IT_number 2
_symmetry_cell_setting 'triclinic'
loop_
_space_group_symop_operation_xyz
x,y,z
-x,-y,-z
loop_
_atom_site_type_symbol
_atom_site_label
_atom_site_fract_x
_atom_site_fract_y
_atom_site_fract_z
Si Si1 0.037078 0.261150 0.956359
Si Si2 0.178325 0.383276 0.063823
Si Si3 0.296901 0.527998 0.253670
Si Si4 0.686123 0.994690 0.335249
Si Si5 0.405360 0.713175 0.268349
Si Si6 0.305163 0.967667 0.961944
Si Si7 0.947439 0.732720 0.534935
O O1 0.145311 0.287614 0.042480
O O2 0.842986 0.133724 0.141186
O O3 0.933953 0.392267 0.809821
O O4 0.293436 0.234371 0.829797
O O5 0.107702 0.295726 0.281263
O O6 0.474317 0.444684 0.932520
O O7 0.000000 0.500000 0.000000
O O8 0.377400 0.569832 0.337558
O O9 0.217050 0.372273 0.415973
O O10 0.879106 0.880844 0.398451
O O11 0.500000 0.000000 0.500000
O O12 0.539167 0.975294 0.256340
O O13 0.250458 0.717624 0.436091
O O14 0.275156 0.808167 0.115753
O O15 0.500000 0.000000 0.000000
O O16 0.000000 0.000000 0.000000
#
# Coordination Sequence:
#
# PCOD8035189 Si02
#       7
#     2   2   2   2   2   2   2
#     4  11  25  49  75 104 160 207 256 321 406 475
#     4  11  25  46  75 109 150 211 256 323 407 473
#     4  11  24  49  74 103 155 202 258 324 397 476
#     4  12  28  49  79 121 155 209 270 337 403 486
#     4  11  26  46  76 109 148 208 266 317 401 473
#     4  12  26  52  79 116 163 221 264 333 415 486
#     4  12  26  46  75 114 154 199 272 327 393 482
#
# _framework density 24.986127
#
# number of rings (size 3 to 8) (size 9 to 14) (size 15 to 20)
#    0.000    0.571    4.286    2.571    4.000    2.286 
#    2.571    0.000    0.000    0.000    0.000    0.000 
#    0.000    0.000    0.000    0.000    0.000    0.000 
#
# Total GULP energy -173466.291713 kJ/mol
# GULP energy per Si atom -12390.449408 kJ/mol
# Density = 2.492926 g / cm^3
# Si number density = 24.986127 Si / 1000 Ang^3
#
#
#
# Elastic Constant Matrix: (Units=GPa)
#
#
# Indices 1 2 3 4 5 6 
#
# 1 101.1504 28.9163 27.3621 17.6631 -18.8830 -4.6858
# 2 28.9163 91.5342 31.2085 15.4265 -14.3380 -6.3312
# 3 27.3621 31.2085 118.9329 34.9769 -22.1687 0.6407
# 4 17.6631 15.4265 34.9769 58.9092 -6.7662 -1.3235
# 5 -18.8830 -14.3380 -22.1687 -6.7662 29.2580 6.8953
# 6 -4.6858 -6.3312 0.6407 -1.3235 6.8953 42.8712
#
#
#
# Elastic Compliance Matrix: (Units=1/GPa)
#
#
# Indices 1 2 3 4 5 6 
#
# 1 0.012152 -0.002420 -0.000467 -0.002064 0.005832 -0.000024
# 2 -0.002420 0.013093 -0.002032 -0.001152 0.002761 0.001220
# 3 -0.000467 -0.002032 0.012031 -0.005716 0.006926 -0.001821
# 4 -0.002064 -0.001152 -0.005716 0.021133 -0.001477 0.000580
# 5 0.005832 0.002761 0.006926 -0.001477 0.045723 -0.006458
# 6 -0.000024 0.001220 -0.001821 0.000580 -0.006458 0.024587
#
#
# Mechanical properties :
#
#
# Convention : Reuss Voigt Hill
#
# Bulk Modulus (GPa) = 36.44572 54.06570 45.25571
# Shear Modulus (GPa) = 33.85150 41.14971 37.50061
#
# Velocity S-wave (km/s) = 3.68477 4.06261 3.87829
# Velocity P-wave (km/s) = 5.72026 6.60996 6.18114
#
# Compressibility (1/GPa) = 0.02743806
#
# Stress axis : x y z
#
# Youngs Moduli (GPa) = 82.28872 76.37511 83.12137
#
# Poissons Ratio (x) = 0.18485 0.03879
# Poissons Ratio (y) = 0.19916 0.16891
# Poissons Ratio (z) = 0.03840 0.15520
#
# Static dielectric constant tensor:
#      x y z
#    x 4.903430 0.106360 0.550190 
#    y 0.106360 5.093980 0.154590 
#    z 0.550190 0.154590 5.618100 
# 
# 
# High freq. dielectric constant tensor:
#      x y z
#    x 1.991250 0.000150 0.001430 
#    y 0.000150 2.021350 0.002450 
#    z 0.001430 0.002450 2.003490 
# 
# From -- ./inp_files/367434.got.cif
#   From: 2010.06.25/outbox.cif.g09.slc.cpg/sg2_184_cif.got.tgz:367434.got - 2010.06.27 13:26:56.
