data_PCOD8035789
_publ_section_title
;
Structure prediction by ZEFSAII (Michael W. Deem and Ramdas Pophale) SiO2 
 PCOD8035789
Probable space group: P -1
;
_chemical_formula_sum "Si O2"
_cell_formula_units_Z 16
_cell_length_a 21.418847
_cell_length_b 18.393030
_cell_length_c 12.055154
_cell_angle_alpha 28.922849
_cell_angle_beta 35.626047
_cell_angle_gamma 18.257843
_cell_volume 714.286655
_symmetry_space_group_name_H-M "P -1"
_symmetry_group_IT_number 2
_symmetry_cell_setting 'triclinic'
loop_
_space_group_symop_operation_xyz
x,y,z
-x,-y,-z
loop_
_atom_site_type_symbol
_atom_site_label
_atom_site_fract_x
_atom_site_fract_y
_atom_site_fract_z
Si Si1 0.456791 0.438328 0.048461
Si Si2 0.979250 0.402437 0.062440
Si Si3 0.658115 0.212846 0.587161
Si Si4 0.114176 0.144836 0.823320
Si Si5 0.410128 0.264599 0.742800
Si Si6 0.896360 0.093454 0.222729
Si Si7 0.263670 0.455661 0.463867
Si Si8 0.997562 0.469769 0.358006
O O1 0.377402 0.377711 0.295050
O O2 0.662977 0.168463 0.045041
O O3 0.500000 0.500000 0.000000
O O4 0.294701 0.704014 0.848977
O O5 0.821823 0.460147 0.249588
O O6 0.197541 0.065820 0.174062
O O7 0.000000 0.500000 0.000000
O O8 0.887744 0.587952 0.834407
O O9 0.500000 0.500000 0.500000
O O10 0.531889 0.259535 0.622904
O O11 0.818395 0.130978 0.404293
O O12 0.058586 0.341333 0.723852
O O13 0.112476 0.202884 0.618571
O O14 0.959949 0.191996 0.002444
O O15 0.417329 0.269005 0.593386
O O16 0.500000 0.000000 0.000000
O O17 0.074976 0.783244 0.329932
O O18 0.194094 0.372444 0.639913
#
# Coordination Sequence:
#
# PCOD8035789 Si02
#       8
#     2   2   2   2   2   2   2   2
#     4  12  24  41  72 101 135 185 236 284 353 424
#     4  12  24  49  76 104 147 190 243 305 353 434
#     4  12  29  46  72 111 145 188 241 302 368 432
#     4  11  27  47  69 106 142 191 229 298 364 421
#     4  12  26  46  72 107 138 194 245 293 367 432
#     4  12  25  48  69 102 145 179 237 293 358 427
#     4  12  23  45  73 101 139 184 238 301 345 428
#     4  11  25  47  70 102 147 183 236 294 359 417
#
# _framework density 22.399968999999999
#
# number of rings (size 3 to 8) (size 9 to 14) (size 15 to 20)
#    0.000    0.250    6.250    1.875    5.250    1.000 
#    0.000    0.000    0.000    0.000    0.000    0.000 
#    0.000    0.000    0.000    0.000    0.000    0.000 
#
# Total GULP energy -198356.399686 kJ/mol
# GULP energy per Si atom -12397.274980 kJ/mol
# Density = 2.234899 g / cm^3
# Si number density = 22.399969 Si / 1000 Ang^3
#
#
#
# Elastic Constant Matrix: (Units=GPa)
#
#
# Indices 1 2 3 4 5 6 
#
# 1 105.7817 21.0914 41.6452 -9.2508 -3.0194 -1.5709
# 2 21.0914 89.6721 26.8959 -7.3891 -7.0357 -5.9894
# 3 41.6452 26.8959 105.6642 -3.4345 4.5568 0.8810
# 4 -9.2508 -7.3891 -3.4345 42.0918 -0.7117 6.9435
# 5 -3.0194 -7.0357 4.5568 -0.7117 44.0252 0.3433
# 6 -1.5709 -5.9894 0.8810 6.9435 0.3433 30.0986
#
#
#
# Elastic Compliance Matrix: (Units=1/GPa)
#
#
# Indices 1 2 3 4 5 6 
#
# 1 0.011565 -0.001200 -0.004234 0.002001 0.001072 0.000015
# 2 -0.001200 0.012725 -0.002835 0.001414 0.002250 0.002201
# 3 -0.004234 -0.002835 0.011938 -0.000316 -0.001976 -0.001039
# 4 0.002001 0.001414 -0.000316 0.025335 0.000848 -0.005459
# 5 0.001072 0.002250 -0.001976 0.000848 0.023365 0.000099
# 6 0.000015 0.002201 -0.001039 -0.005459 0.000099 0.034951
#
#
# Mechanical properties :
#
#
# Convention : Reuss Voigt Hill
#
# Bulk Modulus (GPa) = 50.79057 53.37589 52.08323
# Shear Modulus (GPa) = 34.96962 37.34215 36.15588
#
# Velocity S-wave (km/s) = 3.95542 4.08740 4.02195
# Velocity P-wave (km/s) = 6.60182 6.79382 6.69851
#
# Compressibility (1/GPa) = 0.01968869
#
# Stress axis : x y z
#
# Youngs Moduli (GPa) = 86.46417 78.58849 83.76613
#
# Poissons Ratio (x) = 0.09433 0.35467
# Poissons Ratio (y) = 0.10379 0.23750
# Poissons Ratio (z) = 0.36609 0.22282
#
# Static dielectric constant tensor:
#      x y z
#    x 4.222570 -0.113990 0.244570 
#    y -0.113990 4.321580 0.406590 
#    z 0.244570 0.406590 4.705890 
# 
# 
# High freq. dielectric constant tensor:
#      x y z
#    x 1.881840 -0.014710 0.004310 
#    y -0.014710 1.879180 0.007230 
#    z 0.004310 0.007230 1.901210 
# 
# From -- ./inp_files/472331.got.cif
#   From: 2010.06.25/outbox.cif.g09.slc.cpg/sg2_237_cif.got.tgz:472331.got - 2010.06.27 13:26:56.
