data_PCOD8035356
_publ_section_title
;
Structure prediction by ZEFSAII (Michael W. Deem and Ramdas Pophale) SiO2 
 PCOD8035356
Probable space group: P -1
;
_chemical_formula_sum "Si O2"
_cell_formula_units_Z 16
_cell_length_a 8.258900
_cell_length_b 14.728628
_cell_length_c 14.820218
_cell_angle_alpha 132.095065
_cell_angle_beta 30.971747
_cell_angle_gamma 130.232569
_cell_volume 676.366186
_symmetry_space_group_name_H-M "P -1"
_symmetry_group_IT_number 2
_symmetry_cell_setting 'triclinic'
loop_
_space_group_symop_operation_xyz
x,y,z
-x,-y,-z
loop_
_atom_site_type_symbol
_atom_site_label
_atom_site_fract_x
_atom_site_fract_y
_atom_site_fract_z
Si Si1 0.809387 0.848289 0.182018
Si Si2 0.218884 0.658965 0.413547
Si Si3 0.985689 0.110663 0.705797
Si Si4 0.085527 0.623159 0.100981
Si Si5 0.513486 0.001599 0.273970
Si Si6 0.789500 0.620955 0.756269
Si Si7 0.209955 0.760562 0.790368
Si Si8 0.241678 0.379395 0.558310
O O1 0.524815 0.763031 0.316513
O O2 0.666357 0.917000 0.214169
O O3 0.004912 0.938746 0.226978
O O4 0.058870 0.768689 0.967285
O O5 0.313775 0.527481 0.308036
O O6 0.009698 0.694010 0.620531
O O7 0.004134 0.648181 0.421900
O O8 0.069992 0.260926 0.780196
O O9 0.653089 0.072779 0.784234
O O10 0.259435 0.063994 0.489339
O O11 0.957585 0.593111 0.242121
O O12 0.465496 0.674014 0.953491
O O13 0.000000 0.500000 0.000000
O O14 0.792266 0.109895 0.175073
O O15 0.985991 0.645719 0.771513
O O16 0.575732 0.738083 0.602295
O O17 0.500000 0.500000 0.500000
#
# Coordination Sequence:
#
# PCOD8035356 Si02
#       8
#     2   2   2   2   2   2   2   2
#     4  12  27  45  76 108 139 197 248 299 359 437
#     4  11  25  44  69 106 144 188 243 295 363 434
#     4  11  25  46  74 107 142 191 247 298 364 424
#     4  12  26  44  74 107 147 189 233 304 370 432
#     4  11  25  51  73 103 151 195 242 307 357 422
#     4  11  25  44  70 103 147 189 233 303 365 430
#     4  12  26  46  72 107 148 189 242 299 362 431
#     4  12  25  43  69 107 148 192 237 297 366 438
#
# _framework density 23.655823999999999
#
# number of rings (size 3 to 8) (size 9 to 14) (size 15 to 20)
#    0.000    0.500    2.500    5.250    8.750    1.500 
#    0.000    0.000    0.000    0.000    0.000    0.000 
#    0.000    0.000    0.000    0.000    0.000    0.000 
#
# Total GULP energy -198362.238816 kJ/mol
# GULP energy per Si atom -12397.639926 kJ/mol
# Density = 2.360198 g / cm^3
# Si number density = 23.655824 Si / 1000 Ang^3
#
#
#
# Elastic Constant Matrix: (Units=GPa)
#
#
# Indices 1 2 3 4 5 6 
#
# 1 169.2841 18.0210 53.9266 4.1242 17.7966 2.6677
# 2 18.0210 74.4982 26.1336 3.8922 13.9492 -4.5931
# 3 53.9266 26.1336 160.7717 -3.4193 28.5655 2.9194
# 4 4.1242 3.8922 -3.4193 34.4000 -10.9211 4.6926
# 5 17.7966 13.9492 28.5655 -10.9211 25.6637 1.1860
# 6 2.6677 -4.5931 2.9194 4.6926 1.1860 27.8018
#
#
#
# Elastic Compliance Matrix: (Units=1/GPa)
#
#
# Indices 1 2 3 4 5 6 
#
# 1 0.006907 -0.000287 -0.001659 -0.002130 -0.003692 -0.000019
# 2 -0.000287 0.016300 -0.000928 -0.005737 -0.010264 0.004224
# 3 -0.001659 -0.000928 0.008370 -0.001451 -0.008266 -0.000276
# 4 -0.002130 -0.005737 -0.001451 0.038168 0.022822 -0.008007
# 5 -0.003692 -0.010264 -0.008266 0.022822 0.066348 -0.007156
# 6 -0.000019 0.004224 -0.000276 -0.008007 -0.007156 0.038354
#
#
# Mechanical properties :
#
#
# Convention : Reuss Voigt Hill
#
# Bulk Modulus (GPa) = 38.71739 66.74625 52.73182
# Shear Modulus (GPa) = 26.48222 38.00461 32.24342
#
# Velocity S-wave (km/s) = 3.34949 4.01255 3.69592
# Velocity P-wave (km/s) = 5.60012 7.05296 6.36810
#
# Compressibility (1/GPa) = 0.02582819
#
# Stress axis : x y z
#
# Youngs Moduli (GPa) = 144.78855 61.34860 119.47135
#
# Poissons Ratio (x) = 0.01762 0.19818
# Poissons Ratio (y) = 0.04160 0.11091
# Poissons Ratio (z) = 0.24018 0.05695
#
# Static dielectric constant tensor:
#      x y z
#    x 4.815400 0.305470 0.205680 
#    y 0.305470 4.769880 0.436940 
#    z 0.205680 0.436940 4.860330 
# 
# 
# High freq. dielectric constant tensor:
#      x y z
#    x 1.954230 0.000860 0.002870 
#    y 0.000860 1.924680 0.002450 
#    z 0.002870 0.002450 1.954210 
# 
# From -- ./inp_files/505464.got.cif
#   From: 2010.06.25/outbox.cif.g09.slc.cpg/sg2_253_cif.got.tgz:505464.got - 2010.06.27 13:26:56.
