data_PCOD8035037
_publ_section_title
;
Structure prediction by ZEFSAII (Michael W. Deem and Ramdas Pophale) SiO2 
 PCOD8035037
Probable space group: P -1
;
_chemical_formula_sum "Si O2"
_cell_formula_units_Z 14
_cell_length_a 16.510732
_cell_length_b 9.526965
_cell_length_c 8.731146
_cell_angle_alpha 68.629238
_cell_angle_beta 150.716140
_cell_angle_gamma 114.952541
_cell_volume 609.048380
_symmetry_space_group_name_H-M "P -1"
_symmetry_group_IT_number 2
_symmetry_cell_setting 'triclinic'
loop_
_space_group_symop_operation_xyz
x,y,z
-x,-y,-z
loop_
_atom_site_type_symbol
_atom_site_label
_atom_site_fract_x
_atom_site_fract_y
_atom_site_fract_z
Si Si1 0.965393 0.553013 0.094731
Si Si2 0.290221 0.752936 0.146421
Si Si3 0.496801 0.860656 0.163074
Si Si4 0.858816 0.858874 0.884997
Si Si5 0.552650 0.696565 0.833371
Si Si6 0.836819 0.963028 0.138375
Si Si7 0.328338 0.590646 0.790045
O O1 0.135428 0.606539 0.454661
O O2 0.846880 0.406707 0.041793
O O3 0.877583 0.698539 0.900950
O O4 0.000000 0.500000 0.000000
O O5 0.343985 0.841138 0.040560
O O6 0.458820 0.715146 0.512673
O O7 0.208404 0.876027 0.057725
O O8 0.677182 0.887475 0.530571
O O9 0.457083 0.704310 0.064898
O O10 0.500000 0.000000 0.000000
O O11 0.870365 0.861349 0.088158
O O12 0.000000 0.000000 0.000000
O O13 0.401202 0.626887 0.726219
O O14 0.676733 0.862369 0.011036
O O15 0.675436 0.577785 0.080481
O O16 0.000000 0.000000 0.500000
#
# Coordination Sequence:
#
# PCOD8035037 Si02
#       7
#     2   2   2   2   2   2   2
#     4  12  26  49  76 109 149 191 244 302 368 434
#     4  12  26  48  78 102 149 195 240 302 369 430
#     4  12  28  47  73 109 147 191 250 300 363 437
#     4  12  29  47  76 106 150 193 241 304 365 433
#     4  11  24  47  74 104 142 195 243 300 365 434
#     4  12  28  47  74 108 147 190 246 300 366 434
#     4  11  26  44  75 106 145 190 246 299 365 437
#
# _framework density 22.986678999999999
#
# number of rings (size 3 to 8) (size 9 to 14) (size 15 to 20)
#    0.000    0.286    2.857    4.714   12.000    1.714 
#    0.000    0.000    0.000    0.000    0.000    0.000 
#    0.000    0.000    0.000    0.000    0.000    0.000 
#
# Total GULP energy -173592.536376 kJ/mol
# GULP energy per Si atom -12399.466884 kJ/mol
# Density = 2.293436 g / cm^3
# Si number density = 22.986679 Si / 1000 Ang^3
#
#
#
# Elastic Constant Matrix: (Units=GPa)
#
#
# Indices 1 2 3 4 5 6 
#
# 1 97.2709 50.6564 31.1497 -8.0734 -7.2758 7.8537
# 2 50.6564 169.6640 41.6586 2.1909 5.0495 15.2754
# 3 31.1497 41.6586 130.2670 9.4009 -0.5973 14.7617
# 4 -8.0734 2.1909 9.4009 42.5604 0.6315 5.9971
# 5 -7.2758 5.0495 -0.5973 0.6315 35.1855 5.4619
# 6 7.8537 15.2754 14.7617 5.9971 5.4619 46.6236
#
#
#
# Elastic Compliance Matrix: (Units=1/GPa)
#
#
# Indices 1 2 3 4 5 6 
#
# 1 0.013434 -0.003508 -0.002174 0.003335 0.003379 -0.001250
# 2 -0.003508 0.007439 -0.001377 -0.000558 -0.001628 -0.001148
# 3 -0.002174 -0.001377 0.008990 -0.002079 0.000215 -0.001787
# 4 0.003335 -0.000558 -0.002079 0.025032 0.000755 -0.003029
# 5 0.003379 -0.001628 0.000215 0.000755 0.029919 -0.003706
# 6 -0.001250 -0.001148 -0.001787 -0.003029 -0.003706 0.023424
#
#
# Mechanical properties :
#
#
# Convention : Reuss Voigt Hill
#
# Bulk Modulus (GPa) = 63.51484 71.57016 67.54250
# Shear Modulus (GPa) = 39.18334 43.12303 41.15318
#
# Velocity S-wave (km/s) = 4.13317 4.33598 4.23579
# Velocity P-wave (km/s) = 7.10413 7.50138 7.30546
#
# Compressibility (1/GPa) = 0.01574435
#
# Stress axis : x y z
#
# Youngs Moduli (GPa) = 74.43629 134.43424 111.23155
#
# Poissons Ratio (x) = 0.47164 0.24182
# Poissons Ratio (y) = 0.26115 0.15317
# Poissons Ratio (z) = 0.16183 0.18512
#
# Static dielectric constant tensor:
#      x y z
#    x 4.354820 0.042650 0.045090 
#    y 0.042650 4.320470 0.019970 
#    z 0.045090 0.019970 4.086270 
# 
# 
# High freq. dielectric constant tensor:
#      x y z
#    x 1.904410 0.012840 0.006570 
#    y 0.012840 1.929690 0.004360 
#    z 0.006570 0.004360 1.916710 
# 
# From -- ./inp_files/184467.got.cif
#   From: 2010.06.25/outbox.cif.g09.slc.cpg/sg2_93_cif.got.tgz:184467.got - 2010.06.27 13:26:56.
