data_PCOD8035333
_publ_section_title
;
Structure prediction by ZEFSAII (Michael W. Deem and Ramdas Pophale) SiO2 
 PCOD8035333
Probable space group: P -1
;
_chemical_formula_sum "Si O2"
_cell_formula_units_Z 14
_cell_length_a 11.325030
_cell_length_b 10.844503
_cell_length_c 11.392943
_cell_angle_alpha 38.827114
_cell_angle_beta 50.316456
_cell_angle_gamma 43.049819
_cell_volume 590.962691
_symmetry_space_group_name_H-M "P -1"
_symmetry_group_IT_number 2
_symmetry_cell_setting 'triclinic'
loop_
_space_group_symop_operation_xyz
x,y,z
-x,-y,-z
loop_
_atom_site_type_symbol
_atom_site_label
_atom_site_fract_x
_atom_site_fract_y
_atom_site_fract_z
Si Si1 0.636950 0.286741 0.002592
Si Si2 0.805998 0.652736 0.234072
Si Si3 0.749093 0.498357 0.156819
Si Si4 0.541707 0.931138 0.838339
Si Si5 0.938034 0.174293 0.070042
Si Si6 0.210480 0.889788 0.442269
Si Si7 0.803396 0.277236 0.663678
O O1 0.546824 0.127018 0.172706
O O2 0.819228 0.172617 0.040700
O O3 0.500000 0.500000 0.000000
O O4 0.671875 0.353339 0.801085
O O5 0.871506 0.523762 0.161882
O O6 0.834430 0.480609 0.449151
O O7 0.600553 0.820693 0.214505
O O8 0.897648 0.801155 0.102313
O O9 0.847284 0.386402 0.056821
O O10 0.689571 0.325847 0.376428
O O11 0.585393 0.739395 0.050670
O O12 0.722795 0.934853 0.691372
O O13 0.007840 0.935037 0.266466
O O14 0.273630 0.808543 0.329336
O O15 0.000000 0.000000 0.500000
#
# Coordination Sequence:
#
# PCOD8035333 Si02
#       7
#     2   2   2   2   2   2   2
#     4  12  28  49  71 101 147 197 242 288 348 427
#     4  11  27  43  76 112 138 187 238 296 366 416
#     4  11  25  43  77 106 147 181 234 302 358 423
#     4  12  27  45  72 105 142 190 239 292 360 420
#     4  12  24  47  73 102 148 195 233 291 352 424
#     4  11  26  44  74 114 139 180 232 300 365 420
#     4  11  26  47  74 105 147 184 240 297 354 421
#
# _framework density 23.690158
#
# number of rings (size 3 to 8) (size 9 to 14) (size 15 to 20)
#    0.000    0.571    4.286    2.143    8.000    1.714 
#    0.000    1.429    0.000    0.000    0.000    0.000 
#    0.000    0.000    0.000    0.000    0.000    0.000 
#
# Total GULP energy -173526.532518 kJ/mol
# GULP energy per Si atom -12394.752323 kJ/mol
# Density = 2.363624 g / cm^3
# Si number density = 23.690158 Si / 1000 Ang^3
#
#
#
# Elastic Constant Matrix: (Units=GPa)
#
#
# Indices 1 2 3 4 5 6 
#
# 1 171.8685 38.6325 86.7937 -1.3830 -24.1145 -5.4879
# 2 38.6325 84.4187 60.6462 -10.1087 0.2463 -3.3974
# 3 86.7937 60.6462 155.2052 -29.0913 6.8990 -11.1687
# 4 -1.3830 -10.1087 -29.0913 45.6047 -3.6477 10.0129
# 5 -24.1145 0.2463 6.8990 -3.6477 29.7171 -0.4438
# 6 -5.4879 -3.3974 -11.1687 10.0129 -0.4438 35.0437
#
#
#
# Elastic Compliance Matrix: (Units=1/GPa)
#
#
# Indices 1 2 3 4 5 6 
#
# 1 0.010803 -0.000374 -0.006957 -0.003522 0.009961 0.000571
# 2 -0.000374 0.016550 -0.006377 -0.000242 0.001004 -0.000405
# 3 -0.006957 -0.006377 0.014524 0.006799 -0.008117 0.000876
# 4 -0.003522 -0.000242 0.006799 0.027382 -0.001166 -0.006247
# 5 0.009961 0.001004 -0.008117 -0.001166 0.043466 -0.000046
# 6 0.000571 -0.000405 0.000876 -0.006247 -0.000046 0.030649
#
#
# Mechanical properties :
#
#
# Convention : Reuss Voigt Hill
#
# Bulk Modulus (GPa) = 69.15110 87.07080 78.11095
# Shear Modulus (GPa) = 28.47220 37.10111 32.78666
#
# Velocity S-wave (km/s) = 3.47054 3.96169 3.72422
# Velocity P-wave (km/s) = 6.73147 7.60003 7.17890
#
# Compressibility (1/GPa) = 0.01446109
#
# Stress axis : x y z
#
# Youngs Moduli (GPa) = 92.56451 60.42406 68.85351
#
# Poissons Ratio (x) = 0.02258 0.47903
# Poissons Ratio (y) = 0.03459 0.43907
# Poissons Ratio (z) = 0.64399 0.38532
#
# Static dielectric constant tensor:
#      x y z
#    x 4.390900 0.123690 0.101500 
#    y 0.123690 4.305480 -0.154080 
#    z 0.101500 -0.154080 4.199810 
# 
# 
# High freq. dielectric constant tensor:
#      x y z
#    x 1.937950 0.001480 0.001730 
#    y 0.001480 1.947810 -0.014440 
#    z 0.001730 -0.014440 1.929030 
# 
# From -- ./inp_files/424884.got.cif
#   From: 2010.06.25/outbox.cif.g09.slc.cpg/sg2_213_cif.got.tgz:424884.got - 2010.06.27 13:26:56.
