data_PCOD8035323
_publ_section_title
;
Structure prediction by ZEFSAII (Michael W. Deem and Ramdas Pophale) SiO2 
 PCOD8035323
Probable space group: P -1
;
_chemical_formula_sum "Si O2"
_cell_formula_units_Z 16
_cell_length_a 11.910584
_cell_length_b 9.495562
_cell_length_c 8.582274
_cell_angle_alpha 71.478464
_cell_angle_beta 47.300432
_cell_angle_gamma 73.407735
_cell_volume 672.956636
_symmetry_space_group_name_H-M "P -1"
_symmetry_group_IT_number 2
_symmetry_cell_setting 'triclinic'
loop_
_space_group_symop_operation_xyz
x,y,z
-x,-y,-z
loop_
_atom_site_type_symbol
_atom_site_label
_atom_site_fract_x
_atom_site_fract_y
_atom_site_fract_z
Si Si1 0.115179 0.113521 0.609141
Si Si2 0.803955 0.714135 0.030265
Si Si3 0.473883 0.653375 0.838192
Si Si4 0.137595 0.787129 0.614434
Si Si5 0.363533 0.126945 0.603109
Si Si6 0.662971 0.440965 0.300988
Si Si7 0.237882 0.390772 0.228857
Si Si8 0.176881 0.714624 0.245288
O O1 0.204231 0.080193 0.698384
O O2 0.170137 0.262931 0.434961
O O3 0.932434 0.155419 0.785344
O O4 0.147512 0.964770 0.525891
O O5 0.681123 0.833613 0.190328
O O6 0.791211 0.553289 0.182411
O O7 0.740481 0.691392 0.927067
O O8 0.976201 0.758690 0.856374
O O9 0.576434 0.736368 0.593549
O O10 0.362883 0.563904 0.861907
O O11 0.598045 0.566050 0.869811
O O12 0.349960 0.752762 0.027393
O O13 0.274911 0.716461 0.622744
O O14 0.150143 0.717206 0.455731
O O15 0.500000 0.000000 0.500000
O O16 0.500000 0.500000 0.500000
O O17 0.136046 0.550890 0.280479
#
# Coordination Sequence:
#
# PCOD8035323 Si02
#       8
#     2   2   2   2   2   2   2   2
#     4  11  27  48  72 104 151 193 243 301 368 438
#     4  12  27  45  77 105 150 187 251 298 370 431
#     4  11  25  43  73 107 141 189 243 300 362 428
#     4  12  29  47  73 111 150 193 244 304 370 436
#     4  11  27  48  71 104 149 196 243 299 372 438
#     4  12  25  47  74 107 148 191 246 300 366 437
#     4  11  25  47  75 110 146 194 245 305 360 437
#     4  12  25  44  76 107 149 188 248 300 368 434
#
# _framework density 23.775677000000002
#
# number of rings (size 3 to 8) (size 9 to 14) (size 15 to 20)
#    0.000    0.500    3.750    3.000    7.000    0.500 
#    0.000    2.500    0.000    0.000    0.000    0.000 
#    0.000    0.000    0.000    0.000    0.000    0.000 
#
# Total GULP energy -198262.858860 kJ/mol
# GULP energy per Si atom -12391.428679 kJ/mol
# Density = 2.372156 g / cm^3
# Si number density = 23.775677 Si / 1000 Ang^3
#
#
#
# Elastic Constant Matrix: (Units=GPa)
#
#
# Indices 1 2 3 4 5 6 
#
# 1 139.9147 53.2044 32.6815 26.0515 4.2041 -18.0801
# 2 53.2044 125.2939 29.1563 30.3517 4.9430 -4.7329
# 3 32.6815 29.1563 102.8188 34.8189 -5.5629 -1.3389
# 4 26.0515 30.3517 34.8189 42.0621 10.3127 -7.3437
# 5 4.2041 4.9430 -5.5629 10.3127 39.4067 4.9970
# 6 -18.0801 -4.7329 -1.3389 -7.3437 4.9970 39.7742
#
#
#
# Elastic Compliance Matrix: (Units=1/GPa)
#
#
# Indices 1 2 3 4 5 6 
#
# 1 0.009497 -0.003139 -0.001686 -0.001321 -0.000989 0.003767
# 2 -0.003139 0.010740 0.000142 -0.006384 0.000860 -0.001431
# 3 -0.001686 0.000142 0.015207 -0.013840 0.006387 -0.003595
# 4 -0.001321 -0.006384 -0.013840 0.045542 -0.013988 0.008340
# 5 -0.000989 0.000860 0.006387 -0.013988 0.030771 -0.006581
# 6 0.003767 -0.001431 -0.003595 0.008340 -0.006581 0.028930
#
#
# Mechanical properties :
#
#
# Convention : Reuss Voigt Hill
#
# Bulk Modulus (GPa) = 38.34596 66.45684 52.40140
# Shear Modulus (GPa) = 31.49724 41.11428 36.30576
#
# Velocity S-wave (km/s) = 3.64368 4.16295 3.91194
# Velocity P-wave (km/s) = 5.81938 7.14976 6.51860
#
# Compressibility (1/GPa) = 0.02607836
#
# Stress axis : x y z
#
# Youngs Moduli (GPa) = 105.29409 93.11329 65.75914
#
# Poissons Ratio (x) = 0.29230 0.11084
# Poissons Ratio (y) = 0.33054 -0.00934
# Poissons Ratio (z) = 0.17748 -0.01322
#
# Static dielectric constant tensor:
#      x y z
#    x 4.783550 0.101700 -0.160510 
#    y 0.101700 4.401730 -0.065990 
#    z -0.160510 -0.065990 4.552250 
# 
# 
# High freq. dielectric constant tensor:
#      x y z
#    x 1.945900 0.005670 -0.007520 
#    y 0.005670 1.942110 -0.003340 
#    z -0.007520 -0.003340 1.960900 
# 
# From -- ./inp_files/243333.got.cif
#   From: 2010.06.25/outbox.cif.g09.slc.cpg/sg2_122_cif.got.tgz:243333.got - 2010.06.27 13:26:56.
