data_PCOD8035595
_publ_section_title
;
Structure prediction by ZEFSAII (Michael W. Deem and Ramdas Pophale) SiO2 
 PCOD8035595
Probable space group: P -1
;
_chemical_formula_sum "Si O2"
_cell_formula_units_Z 14
_cell_length_a 11.567538
_cell_length_b 5.876082
_cell_length_c 11.325045
_cell_angle_alpha 65.538093
_cell_angle_beta 63.144581
_cell_angle_gamma 52.981277
_cell_volume 537.315157
_symmetry_space_group_name_H-M "P -1"
_symmetry_group_IT_number 2
_symmetry_cell_setting 'triclinic'
loop_
_space_group_symop_operation_xyz
x,y,z
-x,-y,-z
loop_
_atom_site_type_symbol
_atom_site_label
_atom_site_fract_x
_atom_site_fract_y
_atom_site_fract_z
Si Si1 0.386481 0.070626 0.785479
Si Si2 0.813110 0.285612 0.344864
Si Si3 0.983232 0.622028 0.613779
Si Si4 0.350030 0.762942 0.064941
Si Si5 0.346536 0.866977 0.314637
Si Si6 0.963824 0.136296 0.855782
Si Si7 0.440809 0.781028 0.596339
O O1 0.297973 0.404359 0.723852
O O2 0.563272 0.972112 0.724959
O O3 0.370603 0.857440 0.744939
O O4 0.319394 0.048042 0.945676
O O5 0.704238 0.143707 0.438041
O O6 0.884829 0.306989 0.431503
O O7 0.947441 0.114674 0.227007
O O8 0.997989 0.396032 0.758363
O O9 0.000000 0.500000 0.500000
O O10 0.828644 0.928335 0.620629
O O11 0.375044 0.805984 0.177524
O O12 0.212656 0.709709 0.122072
O O13 0.500000 0.500000 0.000000
O O14 0.419916 0.548097 0.412986
O O15 0.000000 0.000000 0.000000
O O16 0.500000 0.000000 0.500000
#
# Coordination Sequence:
#
# PCOD8035595 Si02
#       7
#     2   2   2   2   2   2   2
#     4  11  25  45  77 113 154 205 256 325 389 478
#     4  11  26  51  76 115 158 213 259 325 402 473
#     4  12  29  53  79 115 164 213 267 330 397 473
#     4  12  23  46  78 114 157 199 263 327 394 466
#     4  11  26  48  79 114 155 207 261 327 404 460
#     4  12  28  48  77 119 164 209 266 323 395 484
#     4  11  26  51  78 114 153 204 267 324 389 484
#
# _framework density 26.055474
#
# number of rings (size 3 to 8) (size 9 to 14) (size 15 to 20)
#    0.000    0.571    2.857    3.857    4.000    7.429 
#    2.571    2.857    0.000    0.000    0.000    0.000 
#    0.000    0.000    0.000    0.000    0.000    0.000 
#
# Total GULP energy -173590.294213 kJ/mol
# GULP energy per Si atom -12399.306729 kJ/mol
# Density = 2.599617 g / cm^3
# Si number density = 26.055474 Si / 1000 Ang^3
#
#
#
# Elastic Constant Matrix: (Units=GPa)
#
#
# Indices 1 2 3 4 5 6 
#
# 1 218.2010 59.5709 58.8650 8.3170 5.5541 3.3565
# 2 59.5709 107.8079 45.8795 19.4248 6.8238 -10.3196
# 3 58.8650 45.8795 140.6405 -3.2243 8.4084 6.8457
# 4 8.3170 19.4248 -3.2243 51.6649 -1.0832 0.3183
# 5 5.5541 6.8238 8.4084 -1.0832 44.0567 3.0122
# 6 3.3565 -10.3196 6.8457 0.3183 3.0122 41.3645
#
#
#
# Elastic Compliance Matrix: (Units=1/GPa)
#
#
# Indices 1 2 3 4 5 6 
#
# 1 0.005711 -0.002594 -0.001504 -0.000032 0.000027 -0.000863
# 2 -0.002594 0.013659 -0.003606 -0.005002 -0.001522 0.004364
# 3 -0.001504 -0.003606 0.009122 0.002165 -0.000786 -0.002247
# 4 -0.000032 -0.005002 0.002165 0.021409 0.001018 -0.001842
# 5 0.000027 -0.001522 -0.000786 0.001018 0.023239 -0.001952
# 6 -0.000863 0.004364 -0.002247 -0.001842 -0.001952 0.025862
#
#
# Mechanical properties :
#
#
# Convention : Reuss Voigt Hill
#
# Bulk Modulus (GPa) = 76.43478 88.36448 82.39963
# Shear Modulus (GPa) = 42.09726 47.57280 44.83503
#
# Velocity S-wave (km/s) = 4.02391 4.27761 4.15270
# Velocity P-wave (km/s) = 7.14060 7.64100 7.39503
#
# Compressibility (1/GPa) = 0.01308305
#
# Stress axis : x y z
#
# Youngs Moduli (GPa) = 175.10832 73.21136 109.62026
#
# Poissons Ratio (x) = 0.18990 0.16491
# Poissons Ratio (y) = 0.45422 0.39532
# Poissons Ratio (z) = 0.26343 0.26402
#
# Static dielectric constant tensor:
#      x y z
#    x 5.313400 -0.074930 -0.085820 
#    y -0.074930 4.810450 0.047210 
#    z -0.085820 0.047210 5.874540 
# 
# 
# High freq. dielectric constant tensor:
#      x y z
#    x 2.063070 -0.005530 0.006900 
#    y -0.005530 2.053910 0.002990 
#    z 0.006900 0.002990 2.066110 
# 
# From -- ./inp_files/410006.got.cif
#   From: 2010.06.25/outbox.cif.g09.slc.cpg/sg2_206_cif.got.tgz:410006.got - 2010.06.27 13:26:56.
