data_PCOD8035867
_publ_section_title
;
Structure prediction by ZEFSAII (Michael W. Deem and Ramdas Pophale) SiO2 
 PCOD8035867
Probable space group: P -1
;
_chemical_formula_sum "Si O2"
_cell_formula_units_Z 12
_cell_length_a 5.125833
_cell_length_b 9.222854
_cell_length_c 11.155882
_cell_angle_alpha 65.019766
_cell_angle_beta 80.461435
_cell_angle_gamma 84.134231
_cell_volume 471.140759
_symmetry_space_group_name_H-M "P -1"
_symmetry_group_IT_number 2
_symmetry_cell_setting 'triclinic'
loop_
_space_group_symop_operation_xyz
x,y,z
-x,-y,-z
loop_
_atom_site_type_symbol
_atom_site_label
_atom_site_fract_x
_atom_site_fract_y
_atom_site_fract_z
Si Si1 0.632039 0.786578 0.790961
Si Si2 0.918552 0.678381 0.481763
Si Si3 0.724118 0.170123 0.990289
Si Si4 0.995528 0.487172 0.863863
Si Si5 0.648511 0.310541 0.365234
Si Si6 0.074103 0.952781 0.209294
O O1 0.534746 0.756622 0.946893
O O2 0.789487 0.628177 0.785946
O O3 0.400290 0.815116 0.697886
O O4 0.813033 0.940571 0.728790
O O5 0.611473 0.672820 0.540470
O O6 0.000000 0.500000 0.500000
O O7 0.104680 0.744306 0.550603
O O8 0.948607 0.794911 0.326333
O O9 0.918086 0.311921 0.892940
O O10 0.685245 0.087357 0.891850
O O11 0.845962 0.046295 0.120670
O O12 0.274967 0.522722 0.765465
O O13 0.000000 0.500000 0.000000
#
# Coordination Sequence:
#
# PCOD8035867 Si02
#       6
#     2   2   2   2   2   2
#     4  12  24  46  75 118 151 197 252 318 382 445
#     4  12  29  54  77 110 155 207 254 309 380 463
#     4  11  25  47  75 115 154 200 255 316 382 448
#     4  12  23  45  77 113 151 196 254 315 376 447
#     4  12  27  49  81 112 147 202 258 312 372 456
#     4  11  27  47  74 111 159 201 251 318 381 450
#
# _framework density 25.470095000000001
#
# number of rings (size 3 to 8) (size 9 to 14) (size 15 to 20)
#    0.000    0.333    5.000    2.500    2.333    1.333 
#    3.000    0.000    0.000    0.000    0.000    0.000 
#    0.000    0.000    0.000    0.000    0.000    0.000 
#
# Total GULP energy -148743.394406 kJ/mol
# GULP energy per Si atom -12395.282867 kJ/mol
# Density = 2.541212 g / cm^3
# Si number density = 25.470095 Si / 1000 Ang^3
#
#
#
# Elastic Constant Matrix: (Units=GPa)
#
#
# Indices 1 2 3 4 5 6 
#
# 1 95.2787 16.8404 42.9555 -2.9873 -8.6392 7.8528
# 2 16.8404 88.2632 47.9158 -13.4615 21.7492 4.7450
# 3 42.9555 47.9158 165.5223 -15.6716 -23.4544 -8.3190
# 4 -2.9873 -13.4615 -15.6716 46.3579 2.0487 -1.2014
# 5 -8.6392 21.7492 -23.4544 2.0487 39.9378 18.4128
# 6 7.8528 4.7450 -8.3190 -1.2014 18.4128 31.1605
#
#
#
# Elastic Compliance Matrix: (Units=1/GPa)
#
#
# Indices 1 2 3 4 5 6 
#
# 1 0.013111 -0.002685 -0.002188 -0.001150 0.006456 -0.007338
# 2 -0.002685 0.021185 -0.007494 0.004537 -0.020251 0.007592
# 3 -0.002188 -0.007494 0.010221 0.000638 0.010347 -0.001668
# 4 -0.001150 0.004537 0.000638 0.023363 -0.005295 0.003799
# 5 0.006456 -0.020251 0.010347 -0.005295 0.057672 -0.030063
# 6 -0.007338 0.007592 -0.001668 0.003799 -0.030063 0.050251
#
#
# Mechanical properties :
#
#
# Convention : Reuss Voigt Hill
#
# Bulk Modulus (GPa) = 50.55200 62.72085 56.63642
# Shear Modulus (GPa) = 24.13930 39.58143 31.86036
#
# Velocity S-wave (km/s) = 3.08190 3.94640 3.54063
# Velocity P-wave (km/s) = 5.70568 6.74123 6.24496
#
# Compressibility (1/GPa) = 0.01978161
#
# Stress axis : x y z
#
# Youngs Moduli (GPa) = 76.27355 47.20432 97.83377
#
# Poissons Ratio (x) = 0.12676 0.21406
# Poissons Ratio (y) = 0.20482 0.73318
# Poissons Ratio (z) = 0.16689 0.35376
#
# Static dielectric constant tensor:
#      x y z
#    x 4.629890 -0.367670 -0.013200 
#    y -0.367670 9.555070 -0.838590 
#    z -0.013200 -0.838590 5.023590 
# 
# 
# High freq. dielectric constant tensor:
#      x y z
#    x 2.006830 0.014710 -0.016080 
#    y 0.014710 2.016400 0.014040 
#    z -0.016080 0.014040 2.032990 
# 
# From -- ./inp_files/67770.got.cif
#   From: 2010.06.25/outbox.cif.g09.slc.cpg/sg2_34_cif.got.tgz:67770.got - 2010.06.27 13:26:56.
