data_PCOD8035032
_publ_section_title
;
Structure prediction by ZEFSAII (Michael W. Deem and Ramdas Pophale) SiO2 
 PCOD8035032
Probable space group: P -1
;
_chemical_formula_sum "Si O2"
_cell_formula_units_Z 16
_cell_length_a 11.629970
_cell_length_b 10.892689
_cell_length_c 10.584550
_cell_angle_alpha 144.484028
_cell_angle_beta 105.095833
_cell_angle_gamma 61.334607
_cell_volume 660.872338
_symmetry_space_group_name_H-M "P -1"
_symmetry_group_IT_number 2
_symmetry_cell_setting 'triclinic'
loop_
_space_group_symop_operation_xyz
x,y,z
-x,-y,-z
loop_
_atom_site_type_symbol
_atom_site_label
_atom_site_fract_x
_atom_site_fract_y
_atom_site_fract_z
Si Si1 0.754611 0.808550 0.436973
Si Si2 0.927114 0.054008 0.658611
Si Si3 0.291716 0.543451 0.716878
Si Si4 0.903908 0.024359 0.110148
Si Si5 0.483977 0.278374 0.356519
Si Si6 0.276729 0.190441 0.059822
Si Si7 0.721462 0.590758 0.996280
Si Si8 0.435042 0.728967 0.085581
O O1 0.791063 0.566407 0.323957
O O2 0.727112 0.767579 0.251169
O O3 0.882719 0.854581 0.512365
O O4 0.623372 0.030714 0.646704
O O5 0.794761 0.316490 0.836839
O O6 0.000000 0.000000 0.500000
O O7 0.026600 0.038326 0.786039
O O8 0.209994 0.695524 0.697497
O O9 0.436233 0.329012 0.531737
O O10 0.315536 0.728026 0.967184
O O11 0.835866 0.849171 0.929556
O O12 0.000000 0.000000 0.000000
O O13 0.500000 0.500000 0.500000
O O14 0.628423 0.047553 0.193024
O O15 0.364136 0.251042 0.231856
O O16 0.207945 0.395729 0.103567
O O17 0.560910 0.697463 0.007831
O O18 0.500000 0.500000 0.000000
#
# Coordination Sequence:
#
# PCOD8035032 Si02
#       8
#     2   2   2   2   2   2   2   2
#     4  12  25  46  75 111 144 198 243 313 384 442
#     4  12  30  51  74 106 152 203 262 310 362 447
#     4  12  27  44  76 109 150 191 251 307 381 448
#     4  12  28  51  73 106 156 201 257 306 360 452
#     4  11  24  47  73 112 147 189 245 310 390 442
#     4  11  27  45  76 108 149 194 244 314 375 448
#     4  12  26  47  76 110 149 193 250 307 381 451
#     4  12  24  44  75 114 153 182 243 319 387 451
#
# _framework density 24.210422000000001
#
# number of rings (size 3 to 8) (size 9 to 14) (size 15 to 20)
#    0.000    0.250    3.750    4.125    8.750    5.500 
#    0.000    0.000    0.000    0.000    0.000    0.000 
#    0.000    0.000    0.000    0.000    0.000    0.000 
#
# Total GULP energy -198390.890084 kJ/mol
# GULP energy per Si atom -12399.430630 kJ/mol
# Density = 2.415532 g / cm^3
# Si number density = 24.210422 Si / 1000 Ang^3
#
#
#
# Elastic Constant Matrix: (Units=GPa)
#
#
# Indices 1 2 3 4 5 6 
#
# 1 155.6855 34.4782 34.2288 -5.2752 25.8587 16.6956
# 2 34.4782 112.2660 14.7240 -3.3310 14.6176 7.2385
# 3 34.2288 14.7240 89.1161 -9.6389 11.6404 -4.0744
# 4 -5.2752 -3.3310 -9.6389 28.7679 8.4959 -2.3427
# 5 25.8587 14.6176 11.6404 8.4959 48.3373 2.2125
# 6 16.6956 7.2385 -4.0744 -2.3427 2.2125 41.5870
#
#
#
# Elastic Compliance Matrix: (Units=1/GPa)
#
#
# Indices 1 2 3 4 5 6 
#
# 1 0.008243 -0.001527 -0.002465 0.001278 -0.003440 -0.003030
# 2 -0.001527 0.009845 -0.000674 0.001193 -0.002163 -0.000984
# 3 -0.002465 -0.000674 0.013293 0.004945 -0.002678 0.002830
# 4 0.001278 0.001193 0.004945 0.039751 -0.009337 0.002500
# 5 -0.003440 -0.002163 -0.002678 -0.009337 0.025486 -0.000387
# 6 -0.003030 -0.000984 0.002830 0.002500 -0.000387 0.025872
#
#
# Mechanical properties :
#
#
# Convention : Reuss Voigt Hill
#
# Bulk Modulus (GPa) = 45.34970 58.21440 51.78205
# Shear Modulus (GPa) = 35.92677 41.98088 38.95383
#
# Velocity S-wave (km/s) = 3.85637 4.16865 4.01555
# Velocity P-wave (km/s) = 6.21297 6.87514 6.55242
#
# Compressibility (1/GPa) = 0.02205086
#
# Stress axis : x y z
#
# Youngs Moduli (GPa) = 121.31650 101.57241 75.22572
#
# Poissons Ratio (x) = 0.15510 0.18540
# Poissons Ratio (y) = 0.18525 0.05067
# Poissons Ratio (z) = 0.29900 0.06842
#
# Static dielectric constant tensor:
#      x y z
#    x 5.361430 -0.252920 0.476250 
#    y -0.252920 4.657810 -0.136670 
#    z 0.476250 -0.136670 4.933260 
# 
# 
# High freq. dielectric constant tensor:
#      x y z
#    x 1.973690 0.018030 0.004940 
#    y 0.018030 1.960430 0.003620 
#    z 0.004940 0.003620 1.967430 
# 
# From -- ./inp_files/429266.got.cif
#   From: 2010.06.25/outbox.cif.g09.slc.cpg/sg2_215_cif.got.tgz:429266.got - 2010.06.27 13:26:56.
