data_PCOD8035222
_publ_section_title
;
Structure prediction by ZEFSAII (Michael W. Deem and Ramdas Pophale) SiO2 
 PCOD8035222
Probable space group: P -1
;
_chemical_formula_sum "Si O2"
_cell_formula_units_Z 14
_cell_length_a 11.747079
_cell_length_b 17.340308
_cell_length_c 7.837486
_cell_angle_alpha 89.179998
_cell_angle_beta 79.899696
_cell_angle_gamma 20.821844
_cell_volume 505.067848
_symmetry_space_group_name_H-M "P -1"
_symmetry_group_IT_number 2
_symmetry_cell_setting 'triclinic'
loop_
_space_group_symop_operation_xyz
x,y,z
-x,-y,-z
loop_
_atom_site_type_symbol
_atom_site_label
_atom_site_fract_x
_atom_site_fract_y
_atom_site_fract_z
Si Si1 0.666690 0.135166 0.181505
Si Si2 0.731464 0.542180 0.208549
Si Si3 0.299192 0.673724 0.227380
Si Si4 0.716419 0.773415 0.626082
Si Si5 0.238826 0.215387 0.769172
Si Si6 0.762171 0.244692 0.181952
Si Si7 0.807123 0.978628 0.642210
O O1 0.375400 0.259453 0.324720
O O2 0.557727 0.291345 0.251351
O O3 0.099587 0.848464 0.125745
O O4 0.789747 0.046572 0.955752
O O5 0.567878 0.560299 0.261338
O O6 0.011715 0.372551 0.294610
O O7 0.424500 0.797622 0.315611
O O8 0.907804 0.440408 0.976105
O O9 0.510960 0.461193 0.126857
O O10 0.942722 0.873756 0.419776
O O11 0.872672 0.685348 0.395491
O O12 0.352580 0.053728 0.738276
O O13 0.571202 0.054846 0.761495
O O14 0.810458 0.253602 0.352953
#
# Coordination Sequence:
#
# PCOD8035222 Si02
#       7
#     2   2   2   2   2   2   2
#     4  11  24  50  74 116 149 193 260 316 380 460
#     4  12  26  48  79 109 157 202 254 319 382 452
#     4  12  25  50  76 108 151 199 253 318 381 448
#     4  11  25  50  77 112 157 198 258 313 387 458
#     4  11  25  48  77 111 155 203 257 308 389 459
#     4  11  25  44  80 109 150 197 257 315 383 450
#     4  12  25  50  68 113 148 198 256 313 373 461
#
# _framework density 27.719047
#
# number of rings (size 3 to 8) (size 9 to 14) (size 15 to 20)
#    0.000    0.571    2.857    4.714    0.000    0.571 
#    7.714    0.000    0.000    0.000    0.000    0.000 
#    0.000    0.000    0.000    0.000    0.000    0.000 
#
# Total GULP energy -173531.197386 kJ/mol
# GULP energy per Si atom -12395.085528 kJ/mol
# Density = 2.765596 g / cm^3
# Si number density = 27.719047 Si / 1000 Ang^3
#
#
#
# Elastic Constant Matrix: (Units=GPa)
#
#
# Indices 1 2 3 4 5 6 
#
# 1 169.9576 53.1169 4.8744 -3.9950 -6.9860 16.0455
# 2 53.1169 102.0015 7.8990 -5.0334 3.5678 11.2594
# 3 4.8744 7.8990 91.2513 8.8511 -7.9046 3.7324
# 4 -3.9950 -5.0334 8.8511 27.9419 -1.6144 0.5806
# 5 -6.9860 3.5678 -7.9046 -1.6144 41.7464 3.2447
# 6 16.0455 11.2594 3.7324 0.5806 3.2447 48.0714
#
#
#
# Elastic Compliance Matrix: (Units=1/GPa)
#
#
# Indices 1 2 3 4 5 6 
#
# 1 0.007259 -0.003635 0.000096 0.000486 0.001694 -0.001699
# 2 -0.003635 0.012098 -0.001128 0.001950 -0.001668 -0.001444
# 3 0.000096 -0.001128 0.011638 -0.003731 0.002232 -0.000777
# 4 0.000486 0.001950 -0.003731 0.037450 0.000721 -0.000830
# 5 0.001694 -0.001668 0.002232 0.000721 0.024990 -0.002044
# 6 -0.001699 -0.001444 -0.000777 -0.000830 -0.002044 0.021916
#
#
# Mechanical properties :
#
#
# Convention : Reuss Voigt Hill
#
# Bulk Modulus (GPa) = 46.16483 54.99901 50.58192
# Shear Modulus (GPa) = 37.90620 43.37327 40.63973
#
# Velocity S-wave (km/s) = 3.70200 3.95998 3.83316
# Velocity P-wave (km/s) = 5.91302 6.38696 6.15455
#
# Compressibility (1/GPa) = 0.02166151
#
# Stress axis : x y z
#
# Youngs Moduli (GPa) = 137.76734 82.65818 85.92340
#
# Poissons Ratio (x) = 0.30047 -0.00826
# Poissons Ratio (y) = 0.50080 0.09690
# Poissons Ratio (z) = -0.01324 0.09321
#
# Static dielectric constant tensor:
#      x y z
#    x 4.862480 0.060150 0.255800 
#    y 0.060150 5.101990 -0.239550 
#    z 0.255800 -0.239550 5.128770 
# 
# 
# High freq. dielectric constant tensor:
#      x y z
#    x 2.120150 0.001370 0.013490 
#    y 0.001370 2.135660 -0.003120 
#    z 0.013490 -0.003120 2.139160 
# 
# From -- ./inp_files/277921.got.cif
#   From: 2010.06.25/outbox.cif.g09.slc.cpg/sg2_139_cif.got.tgz:277921.got - 2010.06.27 13:26:56.
