data_PCOD8035039
_publ_section_title
;
Structure prediction by ZEFSAII (Michael W. Deem and Ramdas Pophale) SiO2 
 PCOD8035039
Probable space group: P -1
;
_chemical_formula_sum "Si O2"
_cell_formula_units_Z 14
_cell_length_a 17.335386
_cell_length_b 7.520936
_cell_length_c 4.836166
_cell_angle_alpha 84.678765
_cell_angle_beta 66.585599
_cell_angle_gamma 70.277499
_cell_volume 544.042897
_symmetry_space_group_name_H-M "P -1"
_symmetry_group_IT_number 2
_symmetry_cell_setting 'triclinic'
loop_
_space_group_symop_operation_xyz
x,y,z
-x,-y,-z
loop_
_atom_site_type_symbol
_atom_site_label
_atom_site_fract_x
_atom_site_fract_y
_atom_site_fract_z
Si Si1 0.102730 0.752368 0.336419
Si Si2 0.827680 0.959956 0.512147
Si Si3 0.752721 0.640947 0.833890
Si Si4 0.355491 0.856391 0.497732
Si Si5 0.460635 0.688671 0.855142
Si Si6 0.004099 0.283850 0.014042
Si Si7 0.636098 0.754587 0.477562
O O1 0.176288 0.554303 0.335001
O O2 0.860981 0.075968 0.678077
O O3 0.014499 0.777288 0.643616
O O4 0.073445 0.748336 0.061384
O O5 0.797163 0.805680 0.743938
O O6 0.748020 0.106636 0.427014
O O7 0.900943 0.851984 0.199502
O O8 0.667440 0.693808 0.750788
O O9 0.712559 0.619080 0.191871
O O10 0.394764 0.683106 0.689163
O O11 0.369307 0.032385 0.613383
O O12 0.406465 0.838716 0.136496
O O13 0.539037 0.739871 0.582295
O O14 0.500000 0.500000 0.000000
O O15 0.000000 0.500000 0.000000
#
# Coordination Sequence:
#
# PCOD8035039 Si02
#       7
#     2   2   2   2   2   2   2
#     4  12  27  47  76 109 157 197 255 314 383 445
#     4  11  27  48  78 113 153 198 264 310 384 454
#     4  11  25  45  74 109 150 200 247 319 374 446
#     4  11  25  46  75 105 148 201 247 312 378 452
#     4  12  26  47  73 112 150 192 252 316 377 450
#     4  12  26  49  78 111 153 205 249 313 382 453
#     4  11  24  47  74 104 150 198 251 302 384 449
#
# _framework density 25.733264999999999
#
# number of rings (size 3 to 8) (size 9 to 14) (size 15 to 20)
#    0.000    0.571    1.429    6.000    4.000    4.571 
#    2.571    0.000    0.000    0.000    0.000    0.000 
#    0.000    0.000    0.000    0.000    0.000    0.000 
#
# Total GULP energy -173644.618329 kJ/mol
# GULP energy per Si atom -12403.187023 kJ/mol
# Density = 2.567470 g / cm^3
# Si number density = 25.733265 Si / 1000 Ang^3
#
#
#
# Elastic Constant Matrix: (Units=GPa)
#
#
# Indices 1 2 3 4 5 6 
#
# 1 120.6882 62.2672 33.3932 16.6041 -6.7867 1.6444
# 2 62.2672 103.4156 36.3042 17.2901 -8.5474 -8.4302
# 3 33.3932 36.3042 119.8147 26.7682 1.1903 -2.4115
# 4 16.6041 17.2901 26.7682 36.1738 -10.5318 3.8316
# 5 -6.7867 -8.5474 1.1903 -10.5318 32.3403 8.6371
# 6 1.6444 -8.4302 -2.4115 3.8316 8.6371 35.7201
#
#
#
# Elastic Compliance Matrix: (Units=1/GPa)
#
#
# Indices 1 2 3 4 5 6 
#
# 1 0.012478 -0.007052 -0.001216 -0.000841 0.001199 -0.002520
# 2 -0.007052 0.015487 -0.002003 -0.002910 0.000673 0.003994
# 3 -0.001216 -0.002003 0.011259 -0.008392 -0.004558 0.002346
# 4 -0.000841 -0.002910 -0.008392 0.041045 0.015212 -0.009296
# 5 0.001199 0.000673 -0.004558 0.015212 0.039514 -0.011390
# 6 -0.002520 0.003994 0.002346 -0.009296 -0.011390 0.032964
#
#
# Mechanical properties :
#
#
# Convention : Reuss Voigt Hill
#
# Bulk Modulus (GPa) = 53.52618 67.53863 60.53240
# Shear Modulus (GPa) = 27.85259 34.97712 31.41485
#
# Velocity S-wave (km/s) = 3.29349 3.69076 3.49777
# Velocity P-wave (km/s) = 5.94208 6.66820 6.31558
#
# Compressibility (1/GPa) = 0.01868245
#
# Stress axis : x y z
#
# Youngs Moduli (GPa) = 80.14048 64.57112 88.81510
#
# Poissons Ratio (x) = 0.45536 0.10796
# Poissons Ratio (y) = 0.56516 0.17791
# Poissons Ratio (z) = 0.09742 0.12935
#
# Static dielectric constant tensor:
#      x y z
#    x 4.667670 -0.074020 -0.039150 
#    y -0.074020 4.791890 0.227300 
#    z -0.039150 0.227300 4.739350 
# 
# 
# High freq. dielectric constant tensor:
#      x y z
#    x 2.033000 -0.013270 0.003660 
#    y -0.013270 2.039160 0.013050 
#    z 0.003660 0.013050 2.037680 
# 
# From -- ./inp_files/106461.got.cif
#   From: 2010.06.25/outbox.cif.g09.slc.cpg/sg2_54_cif.got.tgz:106461.got - 2010.06.27 13:26:56.
