data_PCOD8035966
_publ_section_title
;
Structure prediction by ZEFSAII (Michael W. Deem and Ramdas Pophale) SiO2 
 PCOD8035966
Probable space group: P -1
;
_chemical_formula_sum "Si O2"
_cell_formula_units_Z 16
_cell_length_a 8.585485
_cell_length_b 17.704450
_cell_length_c 12.364424
_cell_angle_alpha 30.352219
_cell_angle_beta 121.580719
_cell_angle_gamma 130.932699
_cell_volume 713.185584
_symmetry_space_group_name_H-M "P -1"
_symmetry_group_IT_number 2
_symmetry_cell_setting 'triclinic'
loop_
_space_group_symop_operation_xyz
x,y,z
-x,-y,-z
loop_
_atom_site_type_symbol
_atom_site_label
_atom_site_fract_x
_atom_site_fract_y
_atom_site_fract_z
Si Si1 0.202288 0.754165 0.449902
Si Si2 0.297080 0.599717 0.041365
Si Si3 0.354608 0.046017 0.315844
Si Si4 0.082222 0.364429 0.690162
Si Si5 0.465111 0.429818 0.454764
Si Si6 0.980552 0.857036 0.855544
Si Si7 0.110072 0.444626 0.952187
Si Si8 0.567707 0.898906 0.233071
O O1 0.146349 0.577501 0.706382
O O2 0.394193 0.802862 0.378893
O O3 0.001097 0.730184 0.338233
O O4 0.245350 0.900976 0.367920
O O5 0.289845 0.459218 0.295539
O O6 0.102853 0.625493 0.971563
O O7 0.505356 0.776906 0.912145
O O8 0.290093 0.535554 0.994778
O O9 0.170063 0.057146 0.300285
O O10 0.500000 0.000000 0.500000
O O11 0.326898 0.459662 0.672843
O O12 0.000000 0.500000 0.500000
O O13 0.997802 0.226282 0.923217
O O14 0.500000 0.500000 0.500000
O O15 0.402475 0.233119 0.670310
O O16 0.889760 0.720270 0.895020
O O17 0.220463 0.994003 0.754257
O O18 0.500000 0.000000 0.000000
#
# Coordination Sequence:
#
# PCOD8035966 Si02
#       8
#     2   2   2   2   2   2   2   2
#     4  12  25  45  76 102 152 187 237 299 364 425
#     4  11  26  48  74 106 144 186 250 290 363 431
#     4  12  28  49  73 109 146 190 243 306 359 430
#     4  12  22  44  70 105 139 187 241 292 357 435
#     4  12  27  43  74 105 143 192 241 295 363 432
#     4  12  26  45  74 107 146 188 242 295 369 422
#     4  11  25  48  78 101 142 197 238 298 354 442
#     4  12  27  46  69 112 150 188 239 301 368 431
#
# _framework density 22.434553999999999
#
# number of rings (size 3 to 8) (size 9 to 14) (size 15 to 20)
#    0.000    0.250    6.250    1.500    7.000    2.000 
#    0.000    1.875    0.000    0.000    0.000    0.000 
#    0.000    0.000    0.000    0.000    0.000    0.000 
#
# Total GULP energy -198435.231755 kJ/mol
# GULP energy per Si atom -12402.201985 kJ/mol
# Density = 2.238349 g / cm^3
# Si number density = 22.434554 Si / 1000 Ang^3
#
#
#
# Elastic Constant Matrix: (Units=GPa)
#
#
# Indices 1 2 3 4 5 6 
#
# 1 81.9004 32.3918 20.9048 -6.9720 15.1349 -10.0521
# 2 32.3918 131.6355 30.4615 -11.7646 18.7889 -22.8274
# 3 20.9048 30.4615 86.2232 3.1695 15.8062 -9.9960
# 4 -6.9720 -11.7646 3.1695 47.2366 0.7559 1.5109
# 5 15.1349 18.7889 15.8062 0.7559 43.0228 -6.2489
# 6 -10.0521 -22.8274 -9.9960 1.5109 -6.2489 46.6329
#
#
#
# Elastic Compliance Matrix: (Units=1/GPa)
#
#
# Indices 1 2 3 4 5 6 
#
# 1 0.014517 -0.002295 -0.002057 0.001726 -0.003223 0.001077
# 2 -0.002295 0.009771 -0.002171 0.002165 -0.002198 0.003458
# 3 -0.002057 -0.002171 0.013627 -0.001742 -0.003152 0.001049
# 4 0.001726 0.002165 -0.001742 0.022096 -0.001276 0.000172
# 5 -0.003223 -0.002198 -0.003152 -0.001276 0.026688 0.001171
# 6 0.001077 0.003458 0.001049 0.000172 0.001171 0.023745
#
#
# Mechanical properties :
#
#
# Convention : Reuss Voigt Hill
#
# Bulk Modulus (GPa) = 40.21086 51.91949 46.06517
# Shear Modulus (GPa) = 37.94209 41.77852 39.86030
#
# Velocity S-wave (km/s) = 4.11692 4.32005 4.21971
# Velocity P-wave (km/s) = 6.36877 6.93373 6.65725
#
# Compressibility (1/GPa) = 0.02486890
#
# Stress axis : x y z
#
# Youngs Moduli (GPa) = 68.88268 102.34522 73.38430
#
# Poissons Ratio (x) = 0.23492 0.15092
# Poissons Ratio (y) = 0.15811 0.15933
# Poissons Ratio (z) = 0.14166 0.22221
#
# Static dielectric constant tensor:
#      x y z
#    x 4.108370 0.077590 0.002520 
#    y 0.077590 4.533550 -0.091640 
#    z 0.002520 -0.091640 4.026740 
# 
# 
# High freq. dielectric constant tensor:
#      x y z
#    x 1.886140 0.002570 -0.001890 
#    y 0.002570 1.904000 -0.007200 
#    z -0.001890 -0.007200 1.884270 
# 
# From -- ./inp_files/186954.got.cif
#   From: 2010.06.25/outbox.cif.g09.slc.cpg/sg2_94_cif.got.tgz:186954.got - 2010.06.27 13:26:56.
