data_PCOD8035095
_publ_section_title
;
Structure prediction by ZEFSAII (Michael W. Deem and Ramdas Pophale) SiO2 
 PCOD8035095
Probable space group: P -1
;
_chemical_formula_sum "Si O2"
_cell_formula_units_Z 14
_cell_length_a 11.983862
_cell_length_b 11.983909
_cell_length_c 5.005905
_cell_angle_alpha 66.830163
_cell_angle_beta 113.169648
_cell_angle_gamma 86.998150
_cell_volume 589.084352
_symmetry_space_group_name_H-M "P -1"
_symmetry_group_IT_number 2
_symmetry_cell_setting 'triclinic'
loop_
_space_group_symop_operation_xyz
x,y,z
-x,-y,-z
loop_
_atom_site_type_symbol
_atom_site_label
_atom_site_fract_x
_atom_site_fract_y
_atom_site_fract_z
Si Si1 0.368891 0.368891 0.500009
Si Si2 0.246663 0.753337 0.326018
Si Si3 0.755739 0.964812 0.892887
Si Si4 0.377779 0.095458 0.686475
Si Si5 0.964814 0.755737 0.107104
Si Si6 0.381388 0.618612 0.077675
Si Si7 0.904544 0.622220 0.686467
O O1 0.401578 0.231981 0.521589
O O2 0.373340 0.474227 0.180008
O O3 0.474227 0.373340 0.820010
O O4 0.231980 0.401579 0.478425
O O5 0.335569 0.664441 0.287374
O O6 0.105119 0.746083 0.158206
O O7 0.253914 0.894882 0.158226
O O8 0.291766 0.708226 0.705169
O O9 0.659014 0.962089 0.566631
O O10 0.726444 0.888514 0.193865
O O11 0.896614 0.896611 0.999999
O O12 0.500000 0.000000 0.000000
O O13 0.962092 0.659011 0.433364
O O14 0.888513 0.726443 0.806124
O O15 0.000000 0.500000 0.000000
#
# Coordination Sequence:
#
# PCOD8035095 Si02
#       7
#     2   2   2   2   2   2   2
#     4  11  24  48  70 101 142 172 242 277 352 410
#     4  12  25  47  68 102 142 178 242 270 352 410
#     4  12  24  44  67 103 136 184 230 284 345 402
#     4  12  25  43  71 101 140 182 228 285 344 410
#     4  12  24  44  67 103 136 184 230 284 345 402
#     4  11  28  44  71 100 134 189 218 298 338 413
#     4  12  25  43  71 101 140 182 228 285 344 410
#
# _framework density 23.765696999999999
#
# number of rings (size 3 to 8) (size 9 to 14) (size 15 to 20)
#    0.000    0.286    2.857    6.429    0.000    6.857 
#    0.000    4.286    0.000    0.000    0.000    0.000 
#    0.000    0.000    0.000    0.000    0.000    0.000 
#
# Total GULP energy -173685.681116 kJ/mol
# GULP energy per Si atom -12406.120080 kJ/mol
# Density = 2.371160 g / cm^3
# Si number density = 23.765697 Si / 1000 Ang^3
#
#
#
# Elastic Constant Matrix: (Units=GPa)
#
#
# Indices 1 2 3 4 5 6 
#
# 1 102.9080 60.2373 34.7167 -0.3451 11.8886 10.0041
# 2 60.2373 111.8797 39.3338 -11.5299 2.2621 15.4415
# 3 34.7167 39.3338 107.9551 -1.5901 1.8951 13.0952
# 4 -0.3451 -11.5299 -1.5901 38.9375 -12.4474 1.3353
# 5 11.8886 2.2621 1.8951 -12.4474 43.3266 0.4348
# 6 10.0041 15.4415 13.0952 1.3353 0.4348 38.5222
#
#
#
# Elastic Compliance Matrix: (Units=1/GPa)
#
#
# Indices 1 2 3 4 5 6 
#
# 1 0.015657 -0.008000 -0.002097 -0.003885 -0.004903 0.000043
# 2 -0.008000 0.015075 -0.002490 0.005397 0.003101 -0.003341
# 3 -0.002097 -0.002490 0.011109 -0.000163 0.000195 -0.002231
# 4 -0.003885 0.005397 -0.000163 0.030366 0.009538 -0.002259
# 5 -0.004903 0.003101 0.000195 0.009538 0.027002 -0.000671
# 6 0.000043 -0.003341 -0.002231 -0.002259 -0.000671 0.028131
#
#
# Mechanical properties :
#
#
# Convention : Reuss Voigt Hill
#
# Bulk Modulus (GPa) = 59.99208 65.70203 62.84706
# Shear Modulus (GPa) = 31.63169 36.72092 34.17630
#
# Velocity S-wave (km/s) = 3.65222 3.93507 3.79628
# Velocity P-wave (km/s) = 6.56376 6.95357 6.76147
#
# Compressibility (1/GPa) = 0.01666887
#
# Stress axis : x y z
#
# Youngs Moduli (GPa) = 63.87080 66.33339 90.01506
#
# Poissons Ratio (x) = 0.53065 0.18873
# Poissons Ratio (y) = 0.51095 0.22412
# Poissons Ratio (z) = 0.13391 0.16516
#
# Static dielectric constant tensor:
#      x y z
#    x 4.324490 0.043240 0.099510 
#    y 0.043240 4.339750 -0.083490 
#    z 0.099510 -0.083490 4.244790 
# 
# 
# High freq. dielectric constant tensor:
#      x y z
#    x 1.948520 -0.002300 0.015630 
#    y -0.002300 1.947710 -0.013120 
#    z 0.015630 -0.013120 1.954980 
# 
# From -- ./inp_files/68789.got.cif
#   From: 2010.06.25/outbox.cif.g09.slc.cpg/sg2_35_cif.got.tgz:68789.got - 2010.06.27 13:26:56.
