data_PCOD8035518
_publ_section_title
;
Structure prediction by ZEFSAII (Michael W. Deem and Ramdas Pophale) SiO2 
 PCOD8035518
Probable space group: P -1
;
_chemical_formula_sum "Si O2"
_cell_formula_units_Z 16
_cell_length_a 12.822452
_cell_length_b 9.303890
_cell_length_c 9.074267
_cell_angle_alpha 76.507395
_cell_angle_beta 44.722091
_cell_angle_gamma 73.158519
_cell_volume 728.477165
_symmetry_space_group_name_H-M "P -1"
_symmetry_group_IT_number 2
_symmetry_cell_setting 'triclinic'
loop_
_space_group_symop_operation_xyz
x,y,z
-x,-y,-z
loop_
_atom_site_type_symbol
_atom_site_label
_atom_site_fract_x
_atom_site_fract_y
_atom_site_fract_z
Si Si1 0.074069 0.616316 0.310450
Si Si2 0.629808 0.396127 0.802472
Si Si3 0.382776 0.439005 0.530214
Si Si4 0.352216 0.115396 0.583315
Si Si5 0.143291 0.104467 0.063636
Si Si6 0.869733 0.938549 0.421837
Si Si7 0.120281 0.437890 0.013244
Si Si8 0.347849 0.940905 0.136659
O O1 0.222495 0.634947 0.240948
O O2 0.114183 0.557543 0.120787
O O3 0.000000 0.500000 0.500000
O O4 0.958533 0.770859 0.385814
O O5 0.661418 0.456310 0.593508
O O6 0.587130 0.234205 0.865200
O O7 0.500000 0.500000 0.000000
O O8 0.500000 0.500000 0.500000
O O9 0.415772 0.271295 0.469259
O O10 0.268802 0.434266 0.775744
O O11 0.282171 0.061584 0.518131
O O12 0.500000 0.000000 0.500000
O O13 0.209620 0.124641 0.831818
O O14 0.106365 0.272628 0.131398
O O15 0.278761 0.991152 0.034314
O O16 0.986449 0.042421 0.222379
O O17 0.800675 0.001526 0.630583
O O18 0.000000 0.500000 0.000000
O O19 0.500000 0.000000 0.000000
#
# Coordination Sequence:
#
# PCOD8035518 Si02
#       8
#     2   2   2   2   2   2   2   2
#     4  12  25  45  76 107 148 193 244 310 364 445
#     4  12  29  48  74 109 145 195 252 305 377 448
#     4  11  27  46  71 104 144 190 244 298 372 440
#     4  11  26  45  73 105 148 193 244 307 366 446
#     4  11  25  46  72 106 144 192 249 296 375 439
#     4  12  26  48  72 108 145 194 248 302 374 448
#     4  11  25  45  72 106 146 190 238 303 365 438
#     4  12  29  47  75 105 149 193 245 311 376 445
#
# _framework density 21.963626999999999
#
# number of rings (size 3 to 8) (size 9 to 14) (size 15 to 20)
#    0.000    0.500    1.250    6.000   15.750    1.000 
#    0.000    0.000    0.000    0.000    0.000    0.000 
#    0.000    0.000    0.000    0.000    0.000    0.000 
#
# Total GULP energy -198273.726211 kJ/mol
# GULP energy per Si atom -12392.107888 kJ/mol
# Density = 2.191364 g / cm^3
# Si number density = 21.963627 Si / 1000 Ang^3
#
#
#
# Elastic Constant Matrix: (Units=GPa)
#
#
# Indices 1 2 3 4 5 6 
#
# 1 142.3214 49.8075 13.1736 -14.5569 -11.5827 3.4060
# 2 49.8075 179.5679 55.3777 -11.4005 -8.7192 -3.7575
# 3 13.1736 55.3777 66.8639 -11.3508 -4.3421 5.7460
# 4 -14.5569 -11.4005 -11.3508 41.4271 3.8435 -4.4866
# 5 -11.5827 -8.7192 -4.3421 3.8435 47.7111 -2.6182
# 6 3.4060 -3.7575 5.7460 -4.4866 -2.6182 41.2200
#
#
#
# Elastic Compliance Matrix: (Units=1/GPa)
#
#
# Indices 1 2 3 4 5 6 
#
# 1 0.008119 -0.002317 0.000849 0.002245 0.001407 -0.000667
# 2 -0.002317 0.008288 -0.006568 -0.000174 0.000471 0.001874
# 3 0.000849 -0.006568 0.021194 0.003913 0.000446 -0.003169
# 4 0.002245 -0.000174 0.003913 0.026279 -0.001135 0.002041
# 5 0.001407 0.000471 0.000446 -0.001135 0.021580 0.001112
# 6 -0.000667 0.001874 -0.003169 0.002041 0.001112 0.025220
#
#
# Mechanical properties :
#
#
# Convention : Reuss Voigt Hill
#
# Bulk Modulus (GPa) = 46.44812 69.49678 57.97245
# Shear Modulus (GPa) = 37.33376 44.09792 40.71584
#
# Velocity S-wave (km/s) = 4.12734 4.48568 4.31023
# Velocity P-wave (km/s) = 6.62622 7.65107 7.15701
#
# Compressibility (1/GPa) = 0.02152940
#
# Stress axis : x y z
#
# Youngs Moduli (GPa) = 123.17247 120.65542 47.18416
#
# Poissons Ratio (x) = 0.27954 -0.04006
# Poissons Ratio (y) = 0.28537 0.30989
# Poissons Ratio (z) = -0.10459 0.79243
#
# Static dielectric constant tensor:
#      x y z
#    x 3.670090 -0.600140 0.113500 
#    y -0.600140 2.642580 0.128900 
#    z 0.113500 0.128900 4.051450 
# 
# 
# High freq. dielectric constant tensor:
#      x y z
#    x 1.879220 0.004100 -0.002670 
#    y 0.004100 1.882270 -0.003750 
#    z -0.002670 -0.003750 1.878910 
# 
# From -- ./inp_files/243319.got.cif
#   From: 2010.06.25/outbox.cif.g09.slc.cpg/sg2_122_cif.got.tgz:243319.got - 2010.06.27 13:26:56.
