data_PCOD8035406
_publ_section_title
;
Structure prediction by ZEFSAII (Michael W. Deem and Ramdas Pophale) SiO2 
 PCOD8035406
Probable space group: P -1
;
_chemical_formula_sum "Si O2"
_cell_formula_units_Z 16
_cell_length_a 11.257357
_cell_length_b 20.193806
_cell_length_c 8.293577
_cell_angle_alpha 31.977709
_cell_angle_beta 134.234722
_cell_angle_gamma 127.670624
_cell_volume 714.459196
_symmetry_space_group_name_H-M "P -1"
_symmetry_group_IT_number 2
_symmetry_cell_setting 'triclinic'
loop_
_space_group_symop_operation_xyz
x,y,z
-x,-y,-z
loop_
_atom_site_type_symbol
_atom_site_label
_atom_site_fract_x
_atom_site_fract_y
_atom_site_fract_z
Si Si1 0.048549 0.880190 0.702731
Si Si2 0.823655 0.537778 0.807040
Si Si3 0.357092 0.739411 0.303073
Si Si4 0.713814 0.756380 0.735884
Si Si5 0.186745 0.491578 0.762812
Si Si6 0.167307 0.954433 0.317554
Si Si7 0.692531 0.784383 0.025858
Si Si8 0.658852 0.285488 0.045402
O O1 0.875957 0.797176 0.696004
O O2 0.000000 0.000000 0.500000
O O3 0.132951 0.916106 0.543791
O O4 0.203444 0.816852 0.065594
O O5 0.799404 0.677810 0.428986
O O6 0.813328 0.543693 0.977009
O O7 0.708232 0.427676 0.845852
O O8 0.000000 0.500000 0.000000
O O9 0.537136 0.798436 0.410100
O O10 0.311760 0.609459 0.613716
O O11 0.365603 0.724410 0.149094
O O12 0.716011 0.607615 0.043924
O O13 0.741737 0.804942 0.843256
O O14 0.000000 0.500000 0.500000
O O15 0.227030 0.827191 0.552054
O O16 0.291624 0.077471 0.162889
O O17 0.000000 0.000000 0.000000
O O18 0.505343 0.737280 0.961388
#
# Coordination Sequence:
#
# PCOD8035406 Si02
#       8
#     2   2   2   2   2   2   2   2
#     4  11  25  47  68 101 138 183 238 284 341 422
#     4  12  26  42  73 102 139 183 231 284 355 411
#     4  11  25  44  73 102 140 182 232 288 350 411
#     4  12  25  44  74 101 141 182 233 288 354 408
#     4  12  24  44  72 105 140 180 231 290 348 421
#     4  11  26  44  72  98 141 184 230 284 356 411
#     4  12  25  46  68 105 140 182 232 289 347 421
#     4  11  25  47  67 105 141 179 236 287 344 425
#
# _framework density 22.394560999999999
#
# number of rings (size 3 to 8) (size 9 to 14) (size 15 to 20)
#    0.000    0.500    2.500    5.625    5.250    2.500 
#    0.000    0.000    0.000    0.000    0.000    0.000 
#    0.000    0.000    0.000    0.000    0.000    0.000 
#
# Total GULP energy -198225.937214 kJ/mol
# GULP energy per Si atom -12389.121076 kJ/mol
# Density = 2.234359 g / cm^3
# Si number density = 22.394561 Si / 1000 Ang^3
#
#
#
# Elastic Constant Matrix: (Units=GPa)
#
#
# Indices 1 2 3 4 5 6 
#
# 1 75.9475 15.9955 19.8149 -1.0740 11.2308 18.2514
# 2 15.9955 83.8687 39.6135 1.6169 -0.3673 11.7675
# 3 19.8149 39.6135 110.0487 0.6022 9.9196 11.7877
# 4 -1.0740 1.6169 0.6022 39.9819 4.7592 2.2646
# 5 11.2308 -0.3673 9.9196 4.7592 42.7215 3.8939
# 6 18.2514 11.7675 11.7877 2.2646 3.8939 49.2048
#
#
#
# Elastic Compliance Matrix: (Units=1/GPa)
#
#
# Indices 1 2 3 4 5 6 
#
# 1 0.015571 -0.001682 -0.001374 0.001195 -0.003482 -0.004824
# 2 -0.001682 0.014908 -0.005040 -0.000704 0.001988 -0.001859
# 3 -0.001374 -0.005040 0.011446 0.000317 -0.002297 -0.000860
# 4 0.001195 -0.000704 0.000317 0.025511 -0.003119 -0.001278
# 5 -0.003482 0.001988 -0.002297 -0.003119 0.025265 -0.000490
# 6 -0.004824 -0.001859 -0.000860 -0.001278 -0.000490 0.022861
#
#
# Mechanical properties :
#
#
# Convention : Reuss Voigt Hill
#
# Bulk Modulus (GPa) = 38.86133 46.74587 42.80360
# Shear Modulus (GPa) = 35.63032 39.34436 37.48734
#
# Velocity S-wave (km/s) = 3.99309 4.19605 4.09583
# Velocity P-wave (km/s) = 6.21695 6.66295 6.44381
#
# Compressibility (1/GPa) = 0.02573252
#
# Stress axis : x y z
#
# Youngs Moduli (GPa) = 64.22288 67.07966 87.36863
#
# Poissons Ratio (x) = 0.11284 0.12005
# Poissons Ratio (y) = 0.10803 0.44030
# Poissons Ratio (z) = 0.08825 0.33805
#
# Static dielectric constant tensor:
#      x y z
#    x 3.475110 -1.126320 0.922740 
#    y -1.126320 1.485870 1.804440 
#    z 0.922740 1.804440 2.818700 
# 
# 
# High freq. dielectric constant tensor:
#      x y z
#    x 1.895920 0.009440 0.007720 
#    y 0.009440 1.883340 -0.011500 
#    z 0.007720 -0.011500 1.898410 
# 
# From -- ./inp_files/282664.got.cif
#   From: 2010.06.25/outbox.cif.g09.slc.cpg/sg2_142_cif.got.tgz:282664.got - 2010.06.27 13:26:56.
