data_PCOD8035483
_publ_section_title
;
Structure prediction by ZEFSAII (Michael W. Deem and Ramdas Pophale) SiO2 
 PCOD8035483
Probable space group: P -1
;
_chemical_formula_sum "Si O2"
_cell_formula_units_Z 14
_cell_length_a 24.781262
_cell_length_b 12.544731
_cell_length_c 5.096981
_cell_angle_alpha 110.459980
_cell_angle_beta 85.921922
_cell_angle_gamma 152.547755
_cell_volume 569.995150
_symmetry_space_group_name_H-M "P -1"
_symmetry_group_IT_number 2
_symmetry_cell_setting 'triclinic'
loop_
_space_group_symop_operation_xyz
x,y,z
-x,-y,-z
loop_
_atom_site_type_symbol
_atom_site_label
_atom_site_fract_x
_atom_site_fract_y
_atom_site_fract_z
Si Si1 0.765288 0.768264 0.340042
Si Si2 0.467172 0.618497 0.523052
Si Si3 0.929929 0.653336 0.131787
Si Si4 0.616532 0.314886 0.649532
Si Si5 0.262865 0.083393 0.845956
Si Si6 0.232643 0.882166 0.163776
Si Si7 0.867177 0.667816 0.680731
O O1 0.643106 0.599741 0.387599
O O2 0.812691 0.943881 0.233959
O O3 0.705483 0.532225 0.055083
O O4 0.901612 0.010003 0.679101
O O5 0.463604 0.736336 0.500615
O O6 0.625281 0.902383 0.807340
O O7 0.420899 0.427793 0.175605
O O8 0.884644 0.650209 0.373934
O O9 0.890137 0.447345 0.040191
O O10 0.851794 0.538447 0.793016
O O11 0.725766 0.468429 0.544908
O O12 0.500000 0.000000 0.500000
O O13 0.263806 0.998707 0.532446
O O14 0.183129 0.873896 0.946347
O O15 0.000000 0.000000 0.000000
#
# Coordination Sequence:
#
# PCOD8035483 Si02
#       7
#     2   2   2   2   2   2   2
#     4  11  26  45  70 103 140 181 232 283 342 415
#     4  11  25  45  71 102 140 178 235 282 344 412
#     4  12  28  46  70 106 140 181 235 279 341 413
#     4  11  26  43  71 104 141 179 232 287 344 403
#     4  11  25  46  72 103 137 186 225 285 349 402
#     4  12  26  45  73 102 141 180 231 285 340 411
#     4  12  25  48  72  99 139 190 225 278 348 409
#
# _framework density 24.561613999999999
#
# number of rings (size 3 to 8) (size 9 to 14) (size 15 to 20)
#    0.000    0.571    2.857    3.857   10.000    1.714 
#    0.000    0.000    0.000    0.000    0.000    0.000 
#    0.000    0.000    0.000    0.000    0.000    0.000 
#
# Total GULP energy -173635.439957 kJ/mol
# GULP energy per Si atom -12402.531426 kJ/mol
# Density = 2.450571 g / cm^3
# Si number density = 24.561614 Si / 1000 Ang^3
#
#
#
# Elastic Constant Matrix: (Units=GPa)
#
#
# Indices 1 2 3 4 5 6 
#
# 1 64.5293 30.1562 26.1760 11.0790 -18.2836 -13.4897
# 2 30.1562 102.4098 34.3710 4.3200 -15.0285 -8.8346
# 3 26.1760 34.3710 77.1323 4.7454 -11.8331 2.9166
# 4 11.0790 4.3200 4.7454 46.5503 -8.8841 0.0962
# 5 -18.2836 -15.0285 -11.8331 -8.8841 31.6437 4.6180
# 6 -13.4897 -8.8346 2.9166 0.0962 4.6180 52.9712
#
#
#
# Elastic Compliance Matrix: (Units=1/GPa)
#
#
# Indices 1 2 3 4 5 6 
#
# 1 0.022973 -0.003311 -0.005051 -0.003083 0.008237 0.004864
# 2 -0.003311 0.012596 -0.004191 0.000513 0.002460 0.001273
# 3 -0.005051 -0.004191 0.016947 0.000241 0.001947 -0.003089
# 4 -0.003083 0.000513 0.000241 0.023144 0.005227 -0.001211
# 5 0.008237 0.002460 0.001947 0.005227 0.039883 -0.001086
# 6 0.004864 0.001273 -0.003089 -0.001211 -0.001086 0.020596
#
#
# Mechanical properties :
#
#
# Convention : Reuss Voigt Hill
#
# Bulk Modulus (GPa) = 36.48530 47.27533 41.88031
# Shear Modulus (GPa) = 29.34566 36.45760 32.90163
#
# Velocity S-wave (km/s) = 3.46031 3.85688 3.66396
# Velocity P-wave (km/s) = 5.55444 6.25488 5.91504
#
# Compressibility (1/GPa) = 0.02740830
#
# Stress axis : x y z
#
# Youngs Moduli (GPa) = 43.52897 79.39315 59.00633
#
# Poissons Ratio (x) = 0.26288 0.29807
# Poissons Ratio (y) = 0.14413 0.24732
# Poissons Ratio (z) = 0.21988 0.33277
#
# Static dielectric constant tensor:
#      x y z
#    x 4.603240 -0.195490 0.000850 
#    y -0.195490 4.493360 -0.123820 
#    z 0.000850 -0.123820 4.511280 
# 
# 
# High freq. dielectric constant tensor:
#      x y z
#    x 1.986230 -0.016760 -0.007310 
#    y -0.016760 1.976070 -0.004950 
#    z -0.007310 -0.004950 1.974580 
# 
# From -- ./inp_files/26801.got.cif
#   From: 2010.06.25/outbox.cif.g09.slc.cpg/sg2_14_cif.got.tgz:26801.got - 2010.06.27 13:26:56.
