data_PCOD8035389
_publ_section_title
;
Structure prediction by ZEFSAII (Michael W. Deem and Ramdas Pophale) SiO2 
 PCOD8035389
Probable space group: P -1
;
_chemical_formula_sum "Si O2"
_cell_formula_units_Z 16
_cell_length_a 8.256938
_cell_length_b 21.362687
_cell_length_c 8.738120
_cell_angle_alpha 129.605277
_cell_angle_beta 146.119169
_cell_angle_gamma 51.612196
_cell_volume 646.726787
_symmetry_space_group_name_H-M "P -1"
_symmetry_group_IT_number 2
_symmetry_cell_setting 'triclinic'
loop_
_space_group_symop_operation_xyz
x,y,z
-x,-y,-z
loop_
_atom_site_type_symbol
_atom_site_label
_atom_site_fract_x
_atom_site_fract_y
_atom_site_fract_z
Si Si1 0.739411 0.554479 0.787606
Si Si2 0.320908 0.691713 0.186117
Si Si3 0.477240 0.929016 0.657488
Si Si4 0.261974 0.825256 0.582548
Si Si5 0.270600 0.221005 0.565430
Si Si6 0.129583 0.411874 0.391612
Si Si7 0.583565 0.265978 0.148825
Si Si8 0.040686 0.981203 0.822131
O O1 0.500000 0.500000 0.500000
O O2 0.882750 0.575391 0.777256
O O3 0.596130 0.641776 0.890658
O O4 0.000000 0.500000 0.000000
O O5 0.141768 0.766664 0.272755
O O6 0.542833 0.723568 0.295668
O O7 0.531572 0.620287 0.339374
O O8 0.079158 0.654678 0.842388
O O9 0.417989 0.886591 0.703482
O O10 0.718411 0.865436 0.647126
O O11 0.188503 0.956780 0.368144
O O12 0.629901 0.005201 0.938073
O O13 0.471500 0.760581 0.760572
O O14 0.031400 0.886008 0.613303
O O15 0.928640 0.265540 0.387982
O O16 0.442355 0.203991 0.835891
O O17 0.000000 0.500000 0.500000
O O18 0.000000 0.000000 0.000000
#
# Coordination Sequence:
#
# PCOD8035389 Si02
#       8
#     2   2   2   2   2   2   2   2
#     4  12  28  48  72 106 143 184 240 299 369 434
#     4  11  26  47  70 104 137 191 235 296 351 436
#     4  11  25  46  69 109 144 193 244 289 358 422
#     4  11  26  46  74 103 149 190 243 302 351 431
#     4  11  25  44  72 101 144 188 243 293 357 422
#     4  12  27  48  73 101 141 181 241 286 370 428
#     4  12  26  46  72 105 143 190 241 298 367 426
#     4  12  25  45  73 108 147 191 240 296 361 421
#
# _framework density 24.739968999999999
#
# number of rings (size 3 to 8) (size 9 to 14) (size 15 to 20)
#    0.000    0.500    1.250    6.000    7.000    6.000 
#    0.000    0.000    0.000    0.000    0.000    0.000 
#    0.000    0.000    0.000    0.000    0.000    0.000 
#
# Total GULP energy -198328.569152 kJ/mol
# GULP energy per Si atom -12395.535572 kJ/mol
# Density = 2.468366 g / cm^3
# Si number density = 24.739969 Si / 1000 Ang^3
#
#
#
# Elastic Constant Matrix: (Units=GPa)
#
#
# Indices 1 2 3 4 5 6 
#
# 1 74.2874 40.2668 39.8872 0.4149 -13.5938 -18.2751
# 2 40.2668 120.1759 40.2420 8.2199 -6.0071 -5.7504
# 3 39.8872 40.2420 130.5523 0.0826 8.6559 -6.3469
# 4 0.4149 8.2199 0.0826 49.7899 -0.2218 -11.0485
# 5 -13.5938 -6.0071 8.6559 -0.2218 35.2356 1.5609
# 6 -18.2751 -5.7504 -6.3469 -11.0485 1.5609 38.4922
#
#
#
# Elastic Compliance Matrix: (Units=1/GPa)
#
#
# Indices 1 2 3 4 5 6 
#
# 1 0.023414 -0.005217 -0.005672 0.002905 0.009118 0.009866
# 2 -0.005217 0.010758 -0.001831 -0.002127 0.000337 -0.001795
# 3 -0.005672 -0.001831 0.010235 0.000076 -0.004968 -0.001056
# 4 0.002905 -0.002127 0.000076 0.022052 0.000551 0.007381
# 5 0.009118 0.000337 -0.004968 0.000551 0.033074 0.002378
# 6 0.009866 -0.001795 -0.001056 0.007381 0.002378 0.032243
#
#
# Mechanical properties :
#
#
# Convention : Reuss Voigt Hill
#
# Bulk Modulus (GPa) = 52.72010 62.86754 57.79382
# Shear Modulus (GPa) = 30.57379 38.34482 34.45931
#
# Velocity S-wave (km/s) = 3.51922 3.94117 3.73615
# Velocity P-wave (km/s) = 6.15379 6.79536 6.48251
#
# Compressibility (1/GPa) = 0.01896810
#
# Stress axis : x y z
#
# Youngs Moduli (GPa) = 42.70972 92.94979 97.70270
#
# Poissons Ratio (x) = 0.48488 0.55420
# Poissons Ratio (y) = 0.22280 0.17887
# Poissons Ratio (z) = 0.24226 0.17017
#
# Static dielectric constant tensor:
#      x y z
#    x 4.806250 -0.064420 -0.292330 
#    y -0.064420 4.466630 0.161180 
#    z -0.292330 0.161180 4.424370 
# 
# 
# High freq. dielectric constant tensor:
#      x y z
#    x 1.997670 0.003280 -0.012070 
#    y 0.003280 1.995840 0.009080 
#    z -0.012070 0.009080 1.987450 
# 
# From -- ./inp_files/226576.got.cif
#   From: 2010.06.25/outbox.cif.g09.slc.cpg/sg2_114_cif.got.tgz:226576.got - 2010.06.27 13:26:56.
