data_PCOD8035055
_publ_section_title
;
Structure prediction by ZEFSAII (Michael W. Deem and Ramdas Pophale) SiO2 
 PCOD8035055
Probable space group: P -1
;
_chemical_formula_sum "Si O2"
_cell_formula_units_Z 16
_cell_length_a 20.229379
_cell_length_b 9.646269
_cell_length_c 4.997849
_cell_angle_alpha 58.174694
_cell_angle_beta 63.367307
_cell_angle_gamma 57.557485
_cell_volume 680.466912
_symmetry_space_group_name_H-M "P -1"
_symmetry_group_IT_number 2
_symmetry_cell_setting 'triclinic'
loop_
_space_group_symop_operation_xyz
x,y,z
-x,-y,-z
loop_
_atom_site_type_symbol
_atom_site_label
_atom_site_fract_x
_atom_site_fract_y
_atom_site_fract_z
Si Si1 0.480972 0.190682 0.710770
Si Si2 0.364811 0.768739 0.853225
Si Si3 0.990946 0.894056 0.872399
Si Si4 0.718167 0.033578 0.680086
Si Si5 0.925245 0.501882 0.804563
Si Si6 0.243163 0.297854 0.358404
Si Si7 0.145849 0.175704 0.032453
Si Si8 0.387844 0.377612 0.190191
O O1 0.561946 0.202535 0.448309
O O2 0.443344 0.329990 0.875313
O O3 0.500000 0.000000 0.000000
O O4 0.578300 0.764348 0.485230
O O5 0.294053 0.838960 0.686347
O O6 0.384270 0.566604 0.102142
O O7 0.343873 0.873332 0.064472
O O8 0.058888 0.696039 0.929187
O O9 0.000000 0.000000 0.500000
O O10 0.902648 0.887689 0.032151
O O11 0.000000 0.000000 0.000000
O O12 0.707400 0.851798 0.797665
O O13 0.812102 0.973861 0.663324
O O14 0.841975 0.561646 0.734068
O O15 0.000000 0.500000 0.500000
O O16 0.916158 0.636406 0.928685
O O17 0.223293 0.193667 0.743177
O O18 0.298164 0.396857 0.259404
#
# Coordination Sequence:
#
# PCOD8035055 Si02
#       8
#     2   2   2   2   2   2   2   2
#     4  12  27  46  77 107 147 194 246 294 353 430
#     4  12  25  49  74 107 151 193 232 306 363 422
#     4  12  28  45  71 108 143 181 239 301 362 425
#     4  11  25  45  75 104 146 192 242 282 370 426
#     4  11  24  47  76 103 141 195 244 292 363 433
#     4  11  26  45  76 103 144 191 246 298 349 439
#     4  11  25  47  74 101 147 192 238 299 356 433
#     4  12  28  47  72 113 146 186 245 300 364 421
#
# _framework density 23.513266000000002
#
# number of rings (size 3 to 8) (size 9 to 14) (size 15 to 20)
#    0.000    0.500    2.500    4.500    8.750    2.000 
#    0.000    0.000    0.000    0.000    0.000    0.000 
#    0.000    0.000    0.000    0.000    0.000    0.000 
#
# Total GULP energy -198392.337512 kJ/mol
# GULP energy per Si atom -12399.521094 kJ/mol
# Density = 2.345975 g / cm^3
# Si number density = 23.513266 Si / 1000 Ang^3
#
#
#
# Elastic Constant Matrix: (Units=GPa)
#
#
# Indices 1 2 3 4 5 6 
#
# 1 130.1156 71.2914 46.5246 -7.1020 11.7166 4.8650
# 2 71.2914 135.3394 75.3388 5.2078 -8.5545 1.6680
# 3 46.5246 75.3388 134.7191 8.7989 10.2672 4.8587
# 4 -7.1020 5.2078 8.7989 47.9645 -2.0577 8.8963
# 5 11.7166 -8.5545 10.2672 -2.0577 43.1178 -4.2111
# 6 4.8650 1.6680 4.8587 8.8963 -4.2111 38.0334
#
#
#
# Elastic Compliance Matrix: (Units=1/GPa)
#
#
# Indices 1 2 3 4 5 6 
#
# 1 0.012028 -0.006587 -0.000213 0.002779 -0.004625 -0.002385
# 2 -0.006587 0.014945 -0.006551 -0.001507 0.006447 0.002091
# 3 -0.000213 -0.006551 0.011618 -0.001389 -0.004203 -0.001310
# 4 0.002779 -0.001507 -0.001389 0.022680 -0.000172 -0.005436
# 5 -0.004625 0.006447 -0.004203 -0.000172 0.027100 0.003887
# 6 -0.002385 0.002091 -0.001310 -0.005436 0.003887 0.028375
#
#
# Mechanical properties :
#
#
# Convention : Reuss Voigt Hill
#
# Bulk Modulus (GPa) = 84.11434 87.38707 85.75071
# Shear Modulus (GPa) = 33.91827 39.62442 36.77135
#
# Velocity S-wave (km/s) = 3.80217 4.10957 3.95885
# Velocity P-wave (km/s) = 7.42470 7.73070 7.57924
#
# Compressibility (1/GPa) = 0.01188858
#
# Stress axis : x y z
#
# Youngs Moduli (GPa) = 83.13811 66.91048 86.07026
#
# Poissons Ratio (x) = 0.44075 0.01835
# Poissons Ratio (y) = 0.54764 0.56387
# Poissons Ratio (z) = 0.01772 0.43835
#
# Static dielectric constant tensor:
#      x y z
#    x 4.082400 -0.193040 0.327270 
#    y -0.193040 4.612110 -0.013000 
#    z 0.327270 -0.013000 4.315360 
# 
# 
# High freq. dielectric constant tensor:
#      x y z
#    x 1.945040 -0.013510 0.021170 
#    y -0.013510 1.937780 0.008650 
#    z 0.021170 0.008650 1.930760 
# 
# From -- ./inp_files/126239.got.cif
#   From: 2010.06.25/outbox.cif.g09.slc.cpg/sg2_64_cif.got.tgz:126239.got - 2010.06.27 13:26:56.
