data_PCOD8035283
_publ_section_title
;
Structure prediction by ZEFSAII (Michael W. Deem and Ramdas Pophale) SiO2 
 PCOD8035283
Probable space group: P -1
;
_chemical_formula_sum "Si O2"
_cell_formula_units_Z 14
_cell_length_a 17.937895
_cell_length_b 9.199556
_cell_length_c 23.960161
_cell_angle_alpha 150.410751
_cell_angle_beta 20.193689
_cell_angle_gamma 141.212693
_cell_volume 658.174542
_symmetry_space_group_name_H-M "P -1"
_symmetry_group_IT_number 2
_symmetry_cell_setting 'triclinic'
loop_
_space_group_symop_operation_xyz
x,y,z
-x,-y,-z
loop_
_atom_site_type_symbol
_atom_site_label
_atom_site_fract_x
_atom_site_fract_y
_atom_site_fract_z
Si Si1 0.966479 0.758552 0.394891
Si Si2 0.520669 0.342416 0.279701
Si Si3 0.020044 0.653833 0.593907
Si Si4 0.498237 0.674392 0.294601
Si Si5 0.706149 0.653234 0.908560
Si Si6 0.356294 0.376050 0.603995
Si Si7 0.069012 0.720558 0.183780
O O1 0.732972 0.662639 0.531346
O O2 0.156371 0.454782 0.167999
O O3 0.002977 0.853934 0.337111
O O4 0.000000 0.000000 0.500000
O O5 0.553021 0.579685 0.288559
O O6 0.649450 0.430840 0.271710
O O7 0.641600 0.008295 0.066533
O O8 0.275594 0.563014 0.400861
O O9 0.000000 0.500000 0.500000
O O10 0.872557 0.521185 0.697568
O O11 0.924092 0.008150 0.772597
O O12 0.462022 0.029526 0.428733
O O13 0.693626 0.509708 0.061107
O O14 0.500000 0.500000 0.000000
O O15 0.500000 0.500000 0.500000
O O16 0.114694 0.439110 0.767010
#
# Coordination Sequence:
#
# PCOD8035283 Si02
#       7
#     2   2   2   2   2   2   2
#     4  12  25  43  70 103 141 181 227 282 348 412
#     4  12  25  47  69 100 145 180 228 287 348 406
#     4  11  25  43  67 101 143 179 230 284 341 416
#     4  11  26  46  70 101 138 184 231 284 351 407
#     4  12  26  42  70 105 136 184 230 277 344 416
#     4  11  26  47  72 102 136 179 237 294 335 410
#     4  11  26  45  70 102 137 184 232 282 349 411
#
# _framework density 21.270952000000001
#
# number of rings (size 3 to 8) (size 9 to 14) (size 15 to 20)
#    0.000    0.571    5.714    1.286    4.000    2.857 
#    0.000    0.000    0.000    0.000    0.000    0.000 
#    0.000    0.000    0.000    0.000    0.000    0.000 
#
# Total GULP energy -173574.949818 kJ/mol
# GULP energy per Si atom -12398.210701 kJ/mol
# Density = 2.122254 g / cm^3
# Si number density = 21.270952 Si / 1000 Ang^3
#
#
#
# Elastic Constant Matrix: (Units=GPa)
#
#
# Indices 1 2 3 4 5 6 
#
# 1 147.3194 50.4185 46.1132 -13.1151 7.8024 4.9705
# 2 50.4185 106.5918 46.2822 -20.6340 4.4048 -3.7695
# 3 46.1132 46.2822 129.8543 -15.0282 -8.0550 4.7443
# 4 -13.1151 -20.6340 -15.0282 31.9945 -4.7427 -3.8843
# 5 7.8024 4.4048 -8.0550 -4.7427 36.1410 1.9233
# 6 4.9705 -3.7695 4.7443 -3.8843 1.9233 42.5960
#
#
#
# Elastic Compliance Matrix: (Units=1/GPa)
#
#
# Indices 1 2 3 4 5 6 
#
# 1 0.008637 -0.003135 -0.002008 0.000183 -0.001855 -0.000961
# 2 -0.003135 0.013555 -0.003164 0.006127 -0.001011 0.002522
# 3 -0.002008 -0.003164 0.010052 0.002228 0.003411 -0.001116
# 4 0.000183 0.006127 0.002228 0.037409 0.004434 0.003484
# 5 -0.001855 -0.001011 0.003411 0.004434 0.029598 -0.001185
# 6 -0.000961 0.002522 -0.001116 0.003484 -0.001185 0.024307
#
#
# Mechanical properties :
#
#
# Convention : Reuss Voigt Hill
#
# Bulk Modulus (GPa) = 63.98072 74.37704 69.17888
# Shear Modulus (GPa) = 34.39213 38.20972 36.30093
#
# Velocity S-wave (km/s) = 4.02538 4.24292 4.13558
# Velocity P-wave (km/s) = 7.19369 7.68411 7.44294
#
# Compressibility (1/GPa) = 0.01562971
#
# Stress axis : x y z
#
# Youngs Moduli (GPa) = 115.78764 73.77239 99.48289
#
# Poissons Ratio (x) = 0.23127 0.19979
# Poissons Ratio (y) = 0.36298 0.31474
# Poissons Ratio (z) = 0.23254 0.23340
#
# Static dielectric constant tensor:
#      x y z
#    x 3.843140 0.085010 -0.109510 
#    y 0.085010 3.556370 -0.100200 
#    z -0.109510 -0.100200 3.868050 
# 
# 
# High freq. dielectric constant tensor:
#      x y z
#    x 1.844820 -0.012770 -0.009230 
#    y -0.012770 1.846600 -0.005130 
#    z -0.009230 -0.005130 1.839710 
# 
# From -- ./inp_files/44316.got.cif
#   From: 2010.06.25/outbox.cif.g09.slc.cpg/sg2_23_cif.got.tgz:44316.got - 2010.06.27 13:26:56.
