data_PCOD8035479
_publ_section_title
;
Structure prediction by ZEFSAII (Michael W. Deem and Ramdas Pophale) SiO2 
 PCOD8035479
Probable space group: P -1
;
_chemical_formula_sum "Si O2"
_cell_formula_units_Z 16
_cell_length_a 23.842047
_cell_length_b 8.909305
_cell_length_c 8.026800
_cell_angle_alpha 94.936813
_cell_angle_beta 136.184288
_cell_angle_gamma 51.796970
_cell_volume 695.215657
_symmetry_space_group_name_H-M "P -1"
_symmetry_group_IT_number 2
_symmetry_cell_setting 'triclinic'
loop_
_space_group_symop_operation_xyz
x,y,z
-x,-y,-z
loop_
_atom_site_type_symbol
_atom_site_label
_atom_site_fract_x
_atom_site_fract_y
_atom_site_fract_z
Si Si1 0.746776 0.038379 0.229232
Si Si2 0.965055 0.431125 0.050851
Si Si3 0.748325 0.355659 0.124249
Si Si4 0.748294 0.899409 0.868990
Si Si5 0.499985 0.101833 0.242449
Si Si6 0.034914 0.826334 0.190575
Si Si7 0.253262 0.778650 0.242206
Si Si8 0.499974 0.764249 0.111474
O O1 0.892105 0.851325 0.607340
O O2 0.694718 0.281510 0.086959
O O3 0.777479 0.884369 0.123725
O O4 0.635426 0.129506 0.122197
O O5 0.880464 0.626840 0.040371
O O6 0.884439 0.423340 0.768857
O O7 0.000000 0.500000 0.000000
O O8 0.880510 0.231705 0.481549
O O9 0.631283 0.655122 0.910491
O O10 0.777486 0.283174 0.986201
O O11 0.631249 0.951064 0.614603
O O12 0.694691 0.134374 0.691874
O O13 0.499963 0.922176 0.221282
O O14 0.500012 0.193462 0.077905
O O15 0.000000 0.000000 0.000000
O O16 0.892043 0.972459 0.960895
O O17 0.364636 0.535686 0.580577
#
# Coordination Sequence:
#
# PCOD8035479 Si02
#       8
#     2   2   2   2   2   2   2   2
#     4  11  25  46  68  99 135 177 218 270 334 393
#     4  12  25  44  69  98 133 176 223 272 326 389
#     4  11  25  45  70  98 135 175 220 272 330 395
#     4  11  25  45  70  98 135 175 220 272 330 395
#     4  11  26  43  68 102 133 171 222 274 330 392
#     4  12  25  44  69  98 133 176 223 272 326 389
#     4  11  25  46  68  99 135 177 218 270 334 393
#     4  11  26  43  70 100 134 172 220 276 331 390
#
# _framework density 23.014444000000001
#
# number of rings (size 3 to 8) (size 9 to 14) (size 15 to 20)
#    0.000    0.750    2.500    3.750    7.000    5.000 
#    0.000    0.000    0.000    0.000    0.000    0.000 
#    0.000    0.000    0.000    0.000    0.000    0.000 
#
# Total GULP energy -198371.267269 kJ/mol
# GULP energy per Si atom -12398.204204 kJ/mol
# Density = 2.296206 g / cm^3
# Si number density = 23.014444 Si / 1000 Ang^3
#
#
#
# Elastic Constant Matrix: (Units=GPa)
#
#
# Indices 1 2 3 4 5 6 
#
# 1 46.6556 0.2747 -1.2279 -3.0020 -0.0795 1.2337
# 2 0.2747 113.8225 14.9721 5.5270 6.9397 -6.3114
# 3 -1.2279 14.9721 97.9007 4.6995 12.0963 -2.5249
# 4 -3.0020 5.5270 4.6995 43.7126 -5.2031 2.4787
# 5 -0.0795 6.9397 12.0963 -5.2031 27.3889 1.8429
# 6 1.2337 -6.3114 -2.5249 2.4787 1.8429 37.2881
#
#
#
# Elastic Compliance Matrix: (Units=1/GPa)
#
#
# Indices 1 2 3 4 5 6 
#
# 1 0.021565 -0.000223 0.000155 0.001591 0.000411 -0.000867
# 2 -0.000223 0.009224 -0.001019 -0.001440 -0.002276 0.001708
# 3 0.000155 -0.001019 0.011100 -0.001706 -0.005031 0.000936
# 4 0.001591 -0.001440 -0.001706 0.024181 0.005872 -0.002309
# 5 0.000411 -0.002276 -0.005031 0.005872 0.040637 -0.003138
# 6 -0.000867 0.001708 0.000936 -0.002309 -0.003138 0.027508
#
#
# Mechanical properties :
#
#
# Convention : Reuss Voigt Hill
#
# Bulk Modulus (GPa) = 25.17945 31.82405 28.50175
# Shear Modulus (GPa) = 33.41649 37.96859 35.69254
#
# Velocity S-wave (km/s) = 3.81462 4.06615 3.94239
# Velocity P-wave (km/s) = 5.51055 5.99188 5.75625
#
# Compressibility (1/GPa) = 0.03971493
#
# Stress axis : x y z
#
# Youngs Moduli (GPa) = 46.37137 108.41801 90.09176
#
# Poissons Ratio (x) = 0.02416 -0.01397
# Poissons Ratio (y) = 0.01033 0.09180
# Poissons Ratio (z) = -0.00719 0.11048
#
# Static dielectric constant tensor:
#      x y z
#    x 3.977380 0.038200 -0.207860 
#    y 0.038200 4.136450 0.289510 
#    z -0.207860 0.289510 3.434690 
# 
# 
# High freq. dielectric constant tensor:
#      x y z
#    x 1.909700 0.000280 -0.001820 
#    y 0.000280 1.935270 0.010960 
#    z -0.001820 0.010960 1.907940 
# 
# From -- ./inp_files/352283.got.cif
#   From: 2010.06.25/outbox.cif.g09.slc.cpg/sg2_177_cif.got.tgz:352283.got - 2010.06.27 13:26:56.
