data_PCOD8035587
_publ_section_title
;
Structure prediction by ZEFSAII (Michael W. Deem and Ramdas Pophale) SiO2 
 PCOD8035587
Probable space group: P -1
;
_chemical_formula_sum "Si O2"
_cell_formula_units_Z 16
_cell_length_a 14.053429
_cell_length_b 18.727150
_cell_length_c 9.719118
_cell_angle_alpha 37.095185
_cell_angle_beta 151.088418
_cell_angle_gamma 146.191930
_cell_volume 664.175150
_symmetry_space_group_name_H-M "P -1"
_symmetry_group_IT_number 2
_symmetry_cell_setting 'triclinic'
loop_
_space_group_symop_operation_xyz
x,y,z
-x,-y,-z
loop_
_atom_site_type_symbol
_atom_site_label
_atom_site_fract_x
_atom_site_fract_y
_atom_site_fract_z
Si Si1 0.756411 0.485380 0.724846
Si Si2 0.110663 0.103059 0.301737
Si Si3 0.666240 0.918083 0.131814
Si Si4 0.424384 0.318458 0.788772
Si Si5 0.022755 0.750717 0.296721
Si Si6 0.325245 0.534324 0.651849
Si Si7 0.576200 0.247505 0.350560
Si Si8 0.744283 0.033770 0.513368
O O1 0.633172 0.389222 0.842277
O O2 0.755059 0.626035 0.538748
O O3 0.625064 0.427934 0.503887
O O4 0.000000 0.500000 0.000000
O O5 0.309224 0.151553 0.589553
O O6 0.114064 0.979874 0.412068
O O7 0.880907 0.059311 0.161605
O O8 0.145059 0.222952 0.056794
O O9 0.675674 0.835228 0.139442
O O10 0.442649 0.930998 0.837817
O O11 0.501926 0.333183 0.022715
O O12 0.246466 0.787872 0.441866
O O13 0.084016 0.849305 0.352761
O O14 0.911951 0.597534 0.437932
O O15 0.318428 0.660443 0.523674
O O16 0.500000 0.500000 0.000000
O O17 0.368224 0.107614 0.334662
#
# Coordination Sequence:
#
# PCOD8035587 Si02
#       8
#     2   2   2   2   2   2   2   2
#     4  11  27  48  70 107 139 194 241 294 360 440
#     4  11  26  42  69 110 143 189 241 304 359 431
#     4  11  25  46  70 105 149 190 240 300 367 427
#     4  11  25  45  76  99 148 190 236 300 364 424
#     4  12  25  45  75 106 141 192 247 297 364 434
#     4  12  27  46  74 106 147 188 248 301 361 430
#     4  12  24  47  76 108 146 193 243 302 362 429
#     4  12  25  47  77 106 145 193 247 296 361 433
#
# _framework density 24.090032000000001
#
# number of rings (size 3 to 8) (size 9 to 14) (size 15 to 20)
#    0.000    0.500    3.750    3.750    5.250    1.000 
#    0.000    0.000    0.000    0.000    0.000    0.000 
#    0.000    0.000    0.000    0.000    0.000    0.000 
#
# Total GULP energy -198432.808985 kJ/mol
# GULP energy per Si atom -12402.050562 kJ/mol
# Density = 2.403520 g / cm^3
# Si number density = 24.090032 Si / 1000 Ang^3
#
#
#
# Elastic Constant Matrix: (Units=GPa)
#
#
# Indices 1 2 3 4 5 6 
#
# 1 62.2771 8.3925 19.4173 6.1187 8.8114 -6.5203
# 2 8.3925 93.5118 9.5308 -2.4075 -11.8274 -6.7409
# 3 19.4173 9.5308 133.1189 5.4584 -2.8983 7.6926
# 4 6.1187 -2.4075 5.4584 27.4122 -6.5106 -0.7649
# 5 8.8114 -11.8274 -2.8983 -6.5106 45.2855 -0.5722
# 6 -6.5203 -6.7409 7.6926 -0.7649 -0.5722 37.4124
#
#
#
# Elastic Compliance Matrix: (Units=1/GPa)
#
#
# Indices 1 2 3 4 5 6 
#
# 1 0.018681 -0.001921 -0.002685 -0.004893 -0.004970 0.003286
# 2 -0.001921 0.011622 -0.000690 0.002535 0.003755 0.002010
# 3 -0.002685 -0.000690 0.008140 -0.000981 0.000693 -0.002275
# 4 -0.004893 0.002535 -0.000981 0.039738 0.007273 0.000729
# 5 -0.004970 0.003755 0.000693 0.007273 0.025122 0.000201
# 6 0.003286 0.002010 -0.002275 0.000729 0.000201 0.028150
#
#
# Mechanical properties :
#
#
# Convention : Reuss Voigt Hill
#
# Bulk Modulus (GPa) = 35.90527 40.39877 38.15202
# Shear Modulus (GPa) = 33.04074 38.79316 35.91695
#
# Velocity S-wave (km/s) = 3.70747 4.01726 3.86547
# Velocity P-wave (km/s) = 5.76750 6.19065 5.98282
#
# Compressibility (1/GPa) = 0.02785106
#
# Stress axis : x y z
#
# Youngs Moduli (GPa) = 53.52991 86.04643 122.85103
#
# Poissons Ratio (x) = 0.16527 0.32984
# Poissons Ratio (y) = 0.10281 0.08480
# Poissons Ratio (z) = 0.14372 0.05939
#
# Static dielectric constant tensor:
#      x y z
#    x 4.429830 -0.176820 -0.151520 
#    y -0.176820 4.312060 -0.015580 
#    z -0.151520 -0.015580 4.471470 
# 
# 
# High freq. dielectric constant tensor:
#      x y z
#    x 1.970330 -0.005610 -0.002360 
#    y -0.005610 1.945050 -0.004000 
#    z -0.002360 -0.004000 1.963160 
# 
# From -- ./inp_files/317999.got.cif
#   From: 2010.06.25/outbox.cif.g09.slc.cpg/sg2_159_cif.got.tgz:317999.got - 2010.06.27 13:26:56.
