data_PCOD8035731
_publ_section_title
;
Structure prediction by ZEFSAII (Michael W. Deem and Ramdas Pophale) SiO2 
 PCOD8035731
Probable space group: P -1
;
_chemical_formula_sum "Si O2"
_cell_formula_units_Z 16
_cell_length_a 13.440542
_cell_length_b 9.273665
_cell_length_c 12.452939
_cell_angle_alpha 139.904955
_cell_angle_beta 106.053451
_cell_angle_gamma 103.037622
_cell_volume 680.134802
_symmetry_space_group_name_H-M "P -1"
_symmetry_group_IT_number 2
_symmetry_cell_setting 'triclinic'
loop_
_space_group_symop_operation_xyz
x,y,z
-x,-y,-z
loop_
_atom_site_type_symbol
_atom_site_label
_atom_site_fract_x
_atom_site_fract_y
_atom_site_fract_z
Si Si1 0.431246 0.749046 0.664379
Si Si2 0.516134 0.677447 0.205875
Si Si3 0.050463 0.328652 0.714216
Si Si4 0.188395 0.739218 0.301406
Si Si5 0.341756 0.843187 0.198198
Si Si6 0.160188 0.253053 0.146361
Si Si7 0.435470 0.174897 0.036432
Si Si8 0.122268 0.706845 0.744507
O O1 0.273339 0.469050 0.401999
O O2 0.553548 0.846589 0.670956
O O3 0.471769 0.072618 0.885348
O O4 0.449839 0.662010 0.736989
O O5 0.440644 0.802795 0.257334
O O6 0.690284 0.969476 0.420475
O O7 0.500000 0.500000 0.000000
O O8 0.447135 0.449247 0.159292
O O9 0.955884 0.324015 0.771297
O O10 0.045115 0.463964 0.681334
O O11 0.000000 0.000000 0.500000
O O12 0.216437 0.545171 0.919546
O O13 0.259893 0.863461 0.275311
O O14 0.161979 0.444172 0.163185
O O15 0.181508 0.045918 0.980252
O O16 0.000000 0.000000 0.000000
O O17 0.275295 0.831827 0.825221
O O18 0.000000 0.500000 0.500000
#
# Coordination Sequence:
#
# PCOD8035731 Si02
#       8
#     2   2   2   2   2   2   2   2
#     4  11  25  46  76 109 151 195 255 317 373 454
#     4  12  24  44  79 106 149 196 251 307 376 452
#     4  12  29  50  75 109 155 200 255 314 381 452
#     4  12  27  47  74 112 149 202 249 311 384 449
#     4  12  25  49  72 110 152 193 254 314 377 450
#     4  12  25  49  77 108 154 198 254 315 382 460
#     4  11  25  46  74 111 147 196 252 310 381 444
#     4  12  28  47  76 108 146 202 253 311 386 459
#
# _framework density 23.524750000000001
#
# number of rings (size 3 to 8) (size 9 to 14) (size 15 to 20)
#    0.000    0.250    5.000    3.000    7.000    1.500 
#    2.250    0.000    0.000    0.000    0.000    0.000 
#    0.000    0.000    0.000    0.000    0.000    0.000 
#
# Total GULP energy -198299.723552 kJ/mol
# GULP energy per Si atom -12393.732722 kJ/mol
# Density = 2.347121 g / cm^3
# Si number density = 23.524750 Si / 1000 Ang^3
#
#
#
# Elastic Constant Matrix: (Units=GPa)
#
#
# Indices 1 2 3 4 5 6 
#
# 1 84.4736 31.8380 22.0236 3.3674 4.4593 11.6477
# 2 31.8380 93.5492 37.3062 12.3524 -9.6989 11.2897
# 3 22.0236 37.3062 139.5217 -3.5764 10.4993 1.8291
# 4 3.3674 12.3524 -3.5764 37.9467 2.0865 2.5604
# 5 4.4593 -9.6989 10.4993 2.0865 46.7482 7.1674
# 6 11.6477 11.2897 1.8291 2.5604 7.1674 40.9671
#
#
#
# Elastic Compliance Matrix: (Units=1/GPa)
#
#
# Indices 1 2 3 4 5 6 
#
# 1 0.014140 -0.004375 -0.000894 0.000347 -0.001688 -0.002501
# 2 -0.004375 0.015347 -0.003890 -0.005031 0.005223 -0.003411
# 3 -0.000894 -0.003890 0.008611 0.002231 -0.002958 0.001320
# 4 0.000347 -0.005031 0.002231 0.028332 -0.002829 -0.000087
# 5 -0.001688 0.005223 -0.002958 -0.002829 0.024175 -0.004880
# 6 -0.002501 -0.003411 0.001320 -0.000087 -0.004880 0.026861
#
#
# Mechanical properties :
#
#
# Convention : Reuss Voigt Hill
#
# Bulk Modulus (GPa) = 50.55393 55.54224 53.04809
# Shear Modulus (GPa) = 35.11795 40.22417 37.67106
#
# Velocity S-wave (km/s) = 3.86788 4.13954 4.00601
# Velocity P-wave (km/s) = 6.44078 6.81976 6.63298
#
# Compressibility (1/GPa) = 0.01978086
#
# Stress axis : x y z
#
# Youngs Moduli (GPa) = 70.72114 65.15739 116.12929
#
# Poissons Ratio (x) = 0.28506 0.10376
# Poissons Ratio (y) = 0.30940 0.45179
# Poissons Ratio (z) = 0.06319 0.25349
#
# Static dielectric constant tensor:
#      x y z
#    x 4.630790 0.194770 0.457960 
#    y 0.194770 4.457260 0.063420 
#    z 0.457960 0.063420 4.397520 
# 
# 
# High freq. dielectric constant tensor:
#      x y z
#    x 1.936440 0.008770 0.005500 
#    y 0.008770 1.940350 -0.000530 
#    z 0.005500 -0.000530 1.945000 
# 
# From -- ./inp_files/448219.got.cif
#   From: 2010.06.25/outbox.cif.g09.slc.cpg/sg2_225_cif.got.tgz:448219.got - 2010.06.27 13:26:56.
