data_PCOD8035955
_publ_section_title
;
Structure prediction by ZEFSAII (Michael W. Deem and Ramdas Pophale) SiO2 
 PCOD8035955
Probable space group: P -1
;
_chemical_formula_sum "Si O2"
_cell_formula_units_Z 12
_cell_length_a 4.963585
_cell_length_b 13.049975
_cell_length_c 12.711872
_cell_angle_alpha 138.189477
_cell_angle_beta 94.438694
_cell_angle_gamma 105.492478
_cell_volume 477.500360
_symmetry_space_group_name_H-M "P -1"
_symmetry_group_IT_number 2
_symmetry_cell_setting 'triclinic'
loop_
_space_group_symop_operation_xyz
x,y,z
-x,-y,-z
loop_
_atom_site_type_symbol
_atom_site_label
_atom_site_fract_x
_atom_site_fract_y
_atom_site_fract_z
Si Si1 0.304429 0.735607 0.523762
Si Si2 0.639590 0.569139 0.298692
Si Si3 0.903283 0.801924 0.973053
Si Si4 0.365811 0.870896 0.215153
Si Si5 0.838649 0.811446 0.296615
Si Si6 0.198758 0.888853 0.838290
O O1 0.531883 0.653872 0.454168
O O2 0.254308 0.761494 0.664827
O O3 0.977374 0.597765 0.357338
O O4 0.447205 0.918067 0.604013
O O5 0.409146 0.362771 0.121774
O O6 0.644042 0.658269 0.256162
O O7 0.930015 0.777110 0.829414
O O8 0.207329 0.821045 0.056942
O O9 0.885490 0.981183 0.131990
O O10 0.606028 0.799464 0.186902
O O11 0.102965 0.782897 0.228782
O O12 0.000000 0.000000 0.500000
O O13 0.500000 0.000000 0.000000
#
# Coordination Sequence:
#
# PCOD8035955 Si02
#       6
#     2   2   2   2   2   2
#     4  12  24  45  73 105 139 190 235 287 350 423
#     4  12  28  44  71 110 148 175 238 302 345 406
#     4  11  28  47  70 107 142 184 238 300 352 416
#     4  12  23  44  74  99 141 194 235 274 349 434
#     4  12  23  42  72 106 140 190 233 281 349 421
#     4  11  25  48  76  97 138 195 238 282 364 434
#
# _framework density 25.130872
#
# number of rings (size 3 to 8) (size 9 to 14) (size 15 to 20)
#    0.000    0.333    5.000    3.500    4.667    2.667 
#    0.000    0.000    0.000    0.000    0.000    0.000 
#    0.000    0.000    0.000    0.000    0.000    0.000 
#
# Total GULP energy -148879.588889 kJ/mol
# GULP energy per Si atom -12406.632407 kJ/mol
# Density = 2.507367 g / cm^3
# Si number density = 25.130872 Si / 1000 Ang^3
#
#
#
# Elastic Constant Matrix: (Units=GPa)
#
#
# Indices 1 2 3 4 5 6 
#
# 1 83.3077 14.1016 10.2675 -1.9147 16.4413 11.9871
# 2 14.1016 130.6140 45.1945 7.4291 16.6619 12.6548
# 3 10.2675 45.1945 70.5305 -1.9016 16.4346 5.8513
# 4 -1.9147 7.4291 -1.9016 38.3019 8.0258 12.0649
# 5 16.4413 16.6619 16.4346 8.0258 51.6444 -8.8110
# 6 11.9871 12.6548 5.8513 12.0649 -8.8110 27.8391
#
#
#
# Elastic Compliance Matrix: (Units=1/GPa)
#
#
# Indices 1 2 3 4 5 6 
#
# 1 0.015434 -0.000124 0.000935 0.006402 -0.008242 -0.012170
# 2 -0.000124 0.010352 -0.005870 -0.000723 -0.001956 -0.003725
# 3 0.000935 -0.005870 0.020086 0.005676 -0.006798 -0.006567
# 4 0.006402 -0.000723 0.005676 0.037251 -0.013501 -0.024038
# 5 -0.008242 -0.001956 -0.006798 -0.013501 0.030527 0.021380
# 6 -0.012170 -0.003725 -0.006567 -0.024038 0.021380 0.061418
#
#
# Mechanical properties :
#
#
# Convention : Reuss Voigt Hill
#
# Bulk Modulus (GPa) = 27.96840 47.06435 37.51637
# Shear Modulus (GPa) = 25.36732 37.88300 31.62516
#
# Velocity S-wave (km/s) = 3.18057 3.88677 3.55127
# Velocity P-wave (km/s) = 4.96400 6.23787 5.63703
#
# Compressibility (1/GPa) = 0.03575464
#
# Stress axis : x y z
#
# Youngs Moduli (GPa) = 64.79084 96.59869 49.78713
#
# Poissons Ratio (x) = 0.01193 -0.04656
# Poissons Ratio (y) = 0.00801 0.29226
# Poissons Ratio (z) = -0.06059 0.56706
#
# Static dielectric constant tensor:
#      x y z
#    x 4.786970 0.273460 0.040850 
#    y 0.273460 4.852710 -0.191690 
#    z 0.040850 -0.191690 4.238840 
# 
# 
# High freq. dielectric constant tensor:
#      x y z
#    x 2.016420 0.018420 0.007930 
#    y 0.018420 2.005070 -0.012350 
#    z 0.007930 -0.012350 1.983670 
# 
# From -- ./inp_files/71953.got.cif
#   From: 2010.06.25/outbox.cif.g09.slc.cpg/sg2_36_cif.got.tgz:71953.got - 2010.06.27 13:26:56.
