data_PCOD8035932
_publ_section_title
;
Structure prediction by ZEFSAII (Michael W. Deem and Ramdas Pophale) SiO2 
 PCOD8035932
Probable space group: P -1
;
_chemical_formula_sum "Si O2"
_cell_formula_units_Z 14
_cell_length_a 8.756332
_cell_length_b 11.942850
_cell_length_c 8.554621
_cell_angle_alpha 99.063934
_cell_angle_beta 59.157941
_cell_angle_gamma 127.525313
_cell_volume 593.224935
_symmetry_space_group_name_H-M "P -1"
_symmetry_group_IT_number 2
_symmetry_cell_setting 'triclinic'
loop_
_space_group_symop_operation_xyz
x,y,z
-x,-y,-z
loop_
_atom_site_type_symbol
_atom_site_label
_atom_site_fract_x
_atom_site_fract_y
_atom_site_fract_z
Si Si1 0.621229 0.652927 0.396481
Si Si2 0.587631 0.652580 0.054182
Si Si3 0.716527 0.334010 0.262647
Si Si4 0.194235 0.614445 0.111791
Si Si5 0.952486 0.961522 0.835922
Si Si6 0.375927 0.027746 0.449677
Si Si7 0.884125 0.155513 0.743314
O O1 0.500000 0.500000 0.500000
O O2 0.675843 0.668144 0.187066
O O3 0.453876 0.688938 0.521457
O O4 0.848414 0.755148 0.400457
O O5 0.375603 0.656470 0.160003
O O6 0.500000 0.500000 0.000000
O O7 0.790813 0.786019 0.871044
O O8 0.597397 0.164672 0.270726
O O9 0.968472 0.449352 0.228268
O O10 0.713522 0.392470 0.107015
O O11 0.152914 0.733224 0.141693
O O12 0.814743 0.018499 0.856808
O O13 0.189522 0.037380 0.633391
O O14 0.000000 0.000000 0.000000
O O15 0.500000 0.000000 0.500000
O O16 0.239034 0.897598 0.369368
#
# Coordination Sequence:
#
# PCOD8035932 Si02
#       7
#     2   2   2   2   2   2   2
#     4  12  25  47  75 108 148 195 241 305 370 444
#     4  12  29  47  77 111 149 194 253 304 369 444
#     4  11  25  48  73 107 150 188 251 296 375 428
#     4  11  28  46  79 109 149 197 245 310 367 439
#     4  12  27  50  76 109 152 197 248 305 374 440
#     4  12  30  46  76 110 151 193 249 310 370 443
#     4  12  27  48  77 109 150 198 244 308 374 438
#
# _framework density 23.599816000000001
#
# number of rings (size 3 to 8) (size 9 to 14) (size 15 to 20)
#    0.000    0.286    4.286    2.143   14.000    1.714 
#    0.000    0.000    0.000    0.000    0.000    0.000 
#    0.000    0.000    0.000    0.000    0.000    0.000 
#
# Total GULP energy -173436.752556 kJ/mol
# GULP energy per Si atom -12388.339468 kJ/mol
# Density = 2.354610 g / cm^3
# Si number density = 23.599816 Si / 1000 Ang^3
#
#
#
# Elastic Constant Matrix: (Units=GPa)
#
#
# Indices 1 2 3 4 5 6 
#
# 1 139.8768 50.1675 28.9065 -11.3073 8.1588 17.3907
# 2 50.1675 152.8378 51.0107 -36.1381 1.3626 14.4533
# 3 28.9065 51.0107 94.2732 -21.3049 -1.3586 11.8274
# 4 -11.3073 -36.1381 -21.3049 50.2579 3.4077 1.5549
# 5 8.1588 1.3626 -1.3586 3.4077 33.3014 4.6027
# 6 17.3907 14.4533 11.8274 1.5549 4.6027 40.4539
#
#
#
# Elastic Compliance Matrix: (Units=1/GPa)
#
#
# Indices 1 2 3 4 5 6 
#
# 1 0.008570 -0.002168 -0.001167 0.000066 -0.001737 -0.002373
# 2 -0.002168 0.009729 -0.003200 0.005226 -0.000287 -0.001777
# 3 -0.001167 -0.003200 0.013785 0.003293 0.001005 -0.002626
# 4 0.000066 0.005226 0.003293 0.025325 -0.002192 -0.003582
# 5 -0.001737 -0.000287 0.001005 -0.002192 0.031133 -0.002903
# 6 -0.002373 -0.001777 -0.002626 -0.003582 -0.002903 0.027610
#
#
# Mechanical properties :
#
#
# Convention : Reuss Voigt Hill
#
# Bulk Modulus (GPa) = 52.59351 71.90635 62.24993
# Shear Modulus (GPa) = 36.88457 41.92951 39.40704
#
# Velocity S-wave (km/s) = 3.95766 4.21965 4.09076
# Velocity P-wave (km/s) = 6.57405 7.36721 6.98190
#
# Compressibility (1/GPa) = 0.01901375
#
# Stress axis : x y z
#
# Youngs Moduli (GPa) = 116.69241 102.79044 72.54332
#
# Poissons Ratio (x) = 0.22284 0.08466
# Poissons Ratio (y) = 0.25298 0.23211
# Poissons Ratio (z) = 0.13619 0.32889
#
# Static dielectric constant tensor:
#      x y z
#    x 4.629770 -0.371840 -0.452810 
#    y -0.371840 5.418650 -0.311980 
#    z -0.452810 -0.311980 5.239500 
# 
# 
# High freq. dielectric constant tensor:
#      x y z
#    x 1.933310 0.006270 0.001650 
#    y 0.006270 1.963630 -0.017160 
#    z 0.001650 -0.017160 1.925430 
# 
# From -- ./inp_files/156933.got.cif
#   From: 2010.06.25/outbox.cif.g09.slc.cpg/sg2_79_cif.got.tgz:156933.got - 2010.06.27 13:26:56.
