data_PCOD8035717
_publ_section_title
;
Structure prediction by ZEFSAII (Michael W. Deem and Ramdas Pophale) SiO2 
 PCOD8035717
Probable space group: P -1
;
_chemical_formula_sum "Si O2"
_cell_formula_units_Z 16
_cell_length_a 9.819830
_cell_length_b 6.974152
_cell_length_c 16.299691
_cell_angle_alpha 90.874496
_cell_angle_beta 81.835434
_cell_angle_gamma 43.946907
_cell_volume 755.536669
_symmetry_space_group_name_H-M "P -1"
_symmetry_group_IT_number 2
_symmetry_cell_setting 'triclinic'
loop_
_space_group_symop_operation_xyz
x,y,z
-x,-y,-z
loop_
_atom_site_type_symbol
_atom_site_label
_atom_site_fract_x
_atom_site_fract_y
_atom_site_fract_z
Si Si1 0.439429 0.157186 0.422388
Si Si2 0.701714 0.212145 0.338790
Si Si3 0.328107 0.656827 0.948996
Si Si4 0.999831 0.703989 0.044275
Si Si5 0.120335 0.721548 0.537913
Si Si6 0.590920 0.373399 0.771782
Si Si7 0.082269 0.652869 0.225134
Si Si8 0.815844 0.805076 0.675683
O O1 0.634370 0.073678 0.375777
O O2 0.247094 0.487322 0.455527
O O3 0.379767 0.066580 0.356774
O O4 0.500000 0.000000 0.500000
O O5 0.730438 0.329734 0.411395
O O6 0.524004 0.480355 0.302094
O O7 0.907809 0.976184 0.269932
O O8 0.428994 0.485058 0.855164
O O9 0.500000 0.500000 0.000000
O O10 0.172800 0.652911 0.988059
O O11 0.215504 0.974552 0.948492
O O12 0.042874 0.628313 0.135755
O O13 0.000000 0.500000 0.000000
O O14 0.978801 0.715439 0.596526
O O15 0.000000 0.000000 0.500000
O O16 0.707141 0.448855 0.787667
O O17 0.747611 0.040580 0.745493
O O18 0.085759 0.463150 0.280933
#
# Coordination Sequence:
#
# PCOD8035717 Si02
#       8
#     2   2   2   2   2   2   2   2
#     4  12  24  42  64 103 136 175 240 288 341 420
#     4  12  24  45  71  97 140 185 230 286 354 411
#     4  11  25  46  74 101 145 187 224 280 347 417
#     4  11  27  45  73 109 141 181 232 283 345 411
#     4  12  24  44  70 100 140 184 232 294 353 409
#     4  12  25  47  70 104 140 186 232 283 350 413
#     4  12  25  47  68 104 146 176 232 297 338 417
#     4  12  26  43  72 103 137 187 234 286 357 409
#
# _framework density 21.177
#
# number of rings (size 3 to 8) (size 9 to 14) (size 15 to 20)
#    0.000    0.250    5.000    4.500    1.750    3.500 
#    0.000    0.000    0.000    0.000    0.000    0.000 
#    0.000    0.000    0.000    0.000    0.000    0.000 
#
# Total GULP energy -198527.399644 kJ/mol
# GULP energy per Si atom -12407.962478 kJ/mol
# Density = 2.112880 g / cm^3
# Si number density = 21.177000 Si / 1000 Ang^3
#
#
#
# Elastic Constant Matrix: (Units=GPa)
#
#
# Indices 1 2 3 4 5 6 
#
# 1 110.0094 22.4188 35.3209 -8.0049 7.7175 1.1452
# 2 22.4188 109.2229 30.0748 -5.9550 9.3618 -0.9926
# 3 35.3209 30.0748 108.3601 -3.2973 2.6077 2.2915
# 4 -8.0049 -5.9550 -3.2973 41.8880 -4.0814 0.5798
# 5 7.7175 9.3618 2.6077 -4.0814 44.8345 0.6634
# 6 1.1452 -0.9926 2.2915 0.5798 0.6634 33.6709
#
#
#
# Elastic Compliance Matrix: (Units=1/GPa)
#
#
# Indices 1 2 3 4 5 6 
#
# 1 0.010491 -0.001133 -0.003026 0.001486 -0.001255 -0.000185
# 2 -0.001133 0.010256 -0.002420 0.000875 -0.001734 0.000525
# 3 -0.003026 -0.002420 0.010891 -0.000016 0.000402 -0.000717
# 4 0.001486 0.000875 -0.000016 0.024462 0.001796 -0.000480
# 5 -0.001255 -0.001734 0.000402 0.001796 0.023030 -0.000520
# 6 -0.000185 0.000525 -0.000717 -0.000480 -0.000520 0.029788
#
#
# Mechanical properties :
#
#
# Convention : Reuss Voigt Hill
#
# Bulk Modulus (GPa) = 54.11189 55.91349 55.01269
# Shear Modulus (GPa) = 38.99082 40.06386 39.52734
#
# Velocity S-wave (km/s) = 4.29556 4.35427 4.32501
# Velocity P-wave (km/s) = 7.08591 7.19304 7.13967
#
# Compressibility (1/GPa) = 0.01848023
#
# Stress axis : x y z
#
# Youngs Moduli (GPa) = 95.32327 97.50822 91.81607
#
# Poissons Ratio (x) = 0.11050 0.27780
# Poissons Ratio (y) = 0.10802 0.22217
# Poissons Ratio (z) = 0.28841 0.23594
#
# Static dielectric constant tensor:
#      x y z
#    x 3.930140 -0.116960 -0.076640 
#    y -0.116960 3.611750 -0.479550 
#    z -0.076640 -0.479550 3.346970 
# 
# 
# High freq. dielectric constant tensor:
#      x y z
#    x 1.841500 -0.005070 -0.001550 
#    y -0.005070 1.838590 -0.004330 
#    z -0.001550 -0.004330 1.844420 
# 
# From -- ./inp_files/48048.got.cif
#   From: 2010.06.25/outbox.cif.g09.slc.cpg/sg2_25_cif.got.tgz:48048.got - 2010.06.27 13:26:56.
