data_PCOD8035908
_publ_section_title
;
Structure prediction by ZEFSAII (Michael W. Deem and Ramdas Pophale) SiO2 
 PCOD8035908
Probable space group: P -1
;
_chemical_formula_sum "Si O2"
_cell_formula_units_Z 16
_cell_length_a 23.998469
_cell_length_b 9.237329
_cell_length_c 20.909922
_cell_angle_alpha 30.262236
_cell_angle_beta 18.644011
_cell_angle_gamma 29.525645
_cell_volume 707.248836
_symmetry_space_group_name_H-M "P -1"
_symmetry_group_IT_number 2
_symmetry_cell_setting 'triclinic'
loop_
_space_group_symop_operation_xyz
x,y,z
-x,-y,-z
loop_
_atom_site_type_symbol
_atom_site_label
_atom_site_fract_x
_atom_site_fract_y
_atom_site_fract_z
Si Si1 0.557648 0.136421 0.821962
Si Si2 0.215986 0.170983 0.104801
Si Si3 0.957252 0.733606 0.871403
Si Si4 0.169274 0.093772 0.917537
Si Si5 0.956319 0.795716 0.181638
Si Si6 0.837959 0.797068 0.548491
Si Si7 0.366011 0.488007 0.208275
Si Si8 0.574591 0.722163 0.637490
O O1 0.632931 0.411277 0.652067
O O2 0.708864 0.863680 0.725956
O O3 0.388511 0.259106 0.909648
O O4 0.500000 0.000000 0.000000
O O5 0.208821 0.174669 0.034059
O O6 0.032564 0.431265 0.228514
O O7 0.229644 0.829687 0.242061
O O8 0.085352 0.387679 0.851899
O O9 0.856548 0.791174 0.026141
O O10 0.095805 0.920909 0.643467
O O11 0.387319 0.945868 0.725012
O O12 0.055325 0.864711 0.111881
O O13 0.736267 0.875282 0.399481
O O14 0.000000 0.000000 0.000000
O O15 0.742190 0.735906 0.611475
O O16 0.000000 0.500000 0.500000
O O17 0.468415 0.349539 0.215185
O O18 0.500000 0.500000 0.000000
#
# Coordination Sequence:
#
# PCOD8035908 Si02
#       8
#     2   2   2   2   2   2   2   2
#     4  12  26  44  71 112 147 194 243 300 375 445
#     4  12  23  45  72 100 149 183 236 310 355 440
#     4  11  25  48  70 105 139 190 248 295 369 428
#     4  11  26  49  75 100 148 191 243 310 352 444
#     4  12  27  48  71 108 145 194 248 303 365 436
#     4  12  26  42  73 105 145 192 241 299 372 440
#     4  12  24  46  70 105 141 188 237 301 375 439
#     4  12  27  46  75 107 148 194 246 303 380 431
#
# _framework density 22.622872000000001
#
# number of rings (size 3 to 8) (size 9 to 14) (size 15 to 20)
#    0.000    0.250    6.250    2.250    1.750    3.000 
#    0.000    1.875    0.000    0.000    0.000    0.000 
#    0.000    0.000    0.000    0.000    0.000    0.000 
#
# Total GULP energy -198391.397052 kJ/mol
# GULP energy per Si atom -12399.462316 kJ/mol
# Density = 2.257138 g / cm^3
# Si number density = 22.622872 Si / 1000 Ang^3
#
#
#
# Elastic Constant Matrix: (Units=GPa)
#
#
# Indices 1 2 3 4 5 6 
#
# 1 113.0541 24.5761 36.8767 -5.2491 -32.4278 -2.0898
# 2 24.5761 122.1532 36.4412 3.5228 -7.7015 4.5836
# 3 36.8767 36.4412 120.5280 1.2898 -22.1165 -2.8138
# 4 -5.2491 3.5228 1.2898 36.2150 -2.3197 -6.9173
# 5 -32.4278 -7.7015 -22.1165 -2.3197 38.6297 -5.0211
# 6 -2.0898 4.5836 -2.8138 -6.9173 -5.0211 37.8284
#
#
#
# Elastic Compliance Matrix: (Units=1/GPa)
#
#
# Indices 1 2 3 4 5 6 
#
# 1 0.012803 -0.001680 -0.001530 0.003241 0.010087 0.002729
# 2 -0.001680 0.009322 -0.002582 -0.001503 -0.001363 -0.001870
# 3 -0.001530 -0.002582 0.010383 0.000250 0.004372 0.001627
# 4 0.003241 -0.001503 0.000250 0.029798 0.005201 0.006519
# 5 0.010087 -0.001363 0.004372 0.005201 0.037810 0.007017
# 6 0.002729 -0.001870 0.001627 0.006519 0.007017 0.029057
#
#
# Mechanical properties :
#
#
# Convention : Reuss Voigt Hill
#
# Bulk Modulus (GPa) = 47.78797 61.28038 54.53418
# Shear Modulus (GPa) = 33.84491 39.72403 36.78447
#
# Velocity S-wave (km/s) = 3.87207 4.19492 4.03673
# Velocity P-wave (km/s) = 6.41562 7.11405 6.77385
#
# Compressibility (1/GPa) = 0.02092577
#
# Stress axis : x y z
#
# Youngs Moduli (GPa) = 78.10388 107.26956 96.30917
#
# Poissons Ratio (x) = 0.18016 0.14732
# Poissons Ratio (y) = 0.13118 0.24871
# Poissons Ratio (z) = 0.11947 0.27701
#
# Static dielectric constant tensor:
#      x y z
#    x 4.769390 0.435130 -0.094700 
#    y 0.435130 4.556870 0.032110 
#    z -0.094700 0.032110 3.675110 
# 
# 
# High freq. dielectric constant tensor:
#      x y z
#    x 1.914840 0.011460 -0.018540 
#    y 0.011460 1.904270 -0.003550 
#    z -0.018540 -0.003550 1.870840 
# 
# From -- ./inp_files/601911.got.cif
#   From: 2010.06.25/outbox.cif.g09.slc.cpg/sg2_301_cif.got.tgz:601911.got - 2010.06.27 13:26:56.
