data_PCOD8035492
_publ_section_title
;
Structure prediction by ZEFSAII (Michael W. Deem and Ramdas Pophale) SiO2 
 PCOD8035492
Probable space group: P -1
;
_chemical_formula_sum "Si O2"
_cell_formula_units_Z 12
_cell_length_a 13.827011
_cell_length_b 5.448480
_cell_length_c 11.379935
_cell_angle_alpha 56.428143
_cell_angle_beta 137.882263
_cell_angle_gamma 106.125363
_cell_volume 465.407857
_symmetry_space_group_name_H-M "P -1"
_symmetry_group_IT_number 2
_symmetry_cell_setting 'triclinic'
loop_
_space_group_symop_operation_xyz
x,y,z
-x,-y,-z
loop_
_atom_site_type_symbol
_atom_site_label
_atom_site_fract_x
_atom_site_fract_y
_atom_site_fract_z
Si Si1 0.733546 0.746637 0.428260
Si Si2 0.633866 0.219580 0.577071
Si Si3 0.921612 0.847026 0.872202
Si Si4 0.037161 0.928820 0.393455
Si Si5 0.232540 0.303610 0.786051
Si Si6 0.477622 0.098129 0.250066
O O1 0.728386 0.472967 0.585395
O O2 0.681765 0.703521 0.259668
O O3 0.902193 0.797834 0.563490
O O4 0.618340 0.031870 0.307129
O O5 0.509482 0.287220 0.343038
O O6 0.749542 0.889149 0.745660
O O7 0.561884 0.203977 0.646330
O O8 0.915027 0.075734 0.696907
O O9 0.000000 0.500000 0.000000
O O10 0.000000 0.000000 0.000000
O O11 0.117623 0.624355 0.614217
O O12 0.859342 0.962946 0.229397
O O13 0.340698 0.273532 0.002339
#
# Coordination Sequence:
#
# PCOD8035492 Si02
#       6
#     2   2   2   2   2   2
#     4  12  22  46  73 102 148 195 243 315 368 445
#     4  11  25  47  72 106 149 186 254 313 363 453
#     4  12  25  46  78 109 148 197 252 313 383 445
#     4  11  25  46  70 105 148 188 253 311 368 444
#     4  11  25  45  71 105 147 193 249 304 383 446
#     4  11  25  46  72 106 144 199 243 305 382 450
#
# _framework density 25.783835
#
# number of rings (size 3 to 8) (size 9 to 14) (size 15 to 20)
#    0.000    0.667    3.333    3.500    0.000    4.000 
#    9.000    0.000    0.000    0.000    0.000    0.000 
#    0.000    0.000    0.000    0.000    0.000    0.000 
#
# Total GULP energy -148679.729006 kJ/mol
# GULP energy per Si atom -12389.977417 kJ/mol
# Density = 2.572515 g / cm^3
# Si number density = 25.783835 Si / 1000 Ang^3
#
#
#
# Elastic Constant Matrix: (Units=GPa)
#
#
# Indices 1 2 3 4 5 6 
#
# 1 78.8800 -2.1915 15.2517 15.4436 -9.2632 6.3888
# 2 -2.1915 98.0685 35.1026 10.0502 0.9884 14.8662
# 3 15.2517 35.1026 137.9774 31.5006 -10.7529 -1.7282
# 4 15.4436 10.0502 31.5006 33.2147 -3.5055 -12.7510
# 5 -9.2632 0.9884 -10.7529 -3.5055 41.0488 11.6396
# 6 6.3888 14.8662 -1.7282 -12.7510 11.6396 41.6956
#
#
#
# Elastic Compliance Matrix: (Units=1/GPa)
#
#
# Indices 1 2 3 4 5 6 
#
# 1 0.016146 0.002564 0.000443 -0.011336 0.005070 -0.008252
# 2 0.002564 0.012670 -0.002257 -0.005448 0.001204 -0.007006
# 3 0.000443 -0.002257 0.010223 -0.009945 0.002733 -0.002643
# 4 -0.011336 -0.005448 -0.009945 0.054071 -0.006548 0.021630
# 5 0.005070 0.001204 0.002733 -0.006548 0.028789 -0.011132
# 6 -0.008252 -0.007006 -0.002643 0.021630 -0.011132 0.037358
#
#
# Mechanical properties :
#
#
# Convention : Reuss Voigt Hill
#
# Bulk Modulus (GPa) = 24.66789 45.69460 35.18124
# Shear Modulus (GPa) = 29.19334 40.97601 35.08468
#
# Velocity S-wave (km/s) = 3.36852 3.99082 3.69280
# Velocity P-wave (km/s) = 4.97164 6.24469 5.64417
#
# Compressibility (1/GPa) = 0.04053853
#
# Stress axis : x y z
#
# Youngs Moduli (GPa) = 61.93428 78.92451 97.81761
#
# Poissons Ratio (x) = -0.20235 -0.04330
# Poissons Ratio (y) = -0.15879 0.22078
# Poissons Ratio (z) = -0.02742 0.17813
#
# Static dielectric constant tensor:
#      x y z
#    x 5.163490 0.320250 -0.176200 
#    y 0.320250 4.553600 0.113300 
#    z -0.176200 0.113300 4.749180 
# 
# 
# High freq. dielectric constant tensor:
#      x y z
#    x 2.048420 0.011770 -0.013120 
#    y 0.011770 2.020620 0.019520 
#    z -0.013120 0.019520 2.021020 
# 
# From -- ./inp_files/31398.got.cif
#   From: 2010.06.25/outbox.cif.g09.slc.cpg/sg2_16_cif.got.tgz:31398.got - 2010.06.27 13:26:56.
