data_PCOD8035017
_publ_section_title
;
Structure prediction by ZEFSAII (Michael W. Deem and Ramdas Pophale) SiO2 
 PCOD8035017
Probable space group: P -1
;
_chemical_formula_sum "Si O2"
_cell_formula_units_Z 14
_cell_length_a 11.439899
_cell_length_b 21.051827
_cell_length_c 15.076252
_cell_angle_alpha 161.023477
_cell_angle_beta 142.307945
_cell_angle_gamma 29.777552
_cell_volume 576.510903
_symmetry_space_group_name_H-M "P -1"
_symmetry_group_IT_number 2
_symmetry_cell_setting 'triclinic'
loop_
_space_group_symop_operation_xyz
x,y,z
-x,-y,-z
loop_
_atom_site_type_symbol
_atom_site_label
_atom_site_fract_x
_atom_site_fract_y
_atom_site_fract_z
Si Si1 0.569914 0.263765 0.904073
Si Si2 0.401852 0.729467 0.680306
Si Si3 0.021747 0.261734 0.163952
Si Si4 0.252308 0.054544 0.701074
Si Si5 0.786666 0.241506 0.578213
Si Si6 0.372706 0.134964 0.467248
Si Si7 0.117155 0.381937 0.205894
O O1 0.495894 0.245128 0.735521
O O2 0.658795 0.024460 0.696228
O O3 0.770534 0.307828 0.086116
O O4 0.331394 0.484461 0.100058
O O5 0.500000 0.500000 0.500000
O O6 0.231825 0.751744 0.530244
O O7 0.632699 0.670070 0.689310
O O8 0.242935 0.996009 0.987683
O O9 0.000000 0.500000 0.500000
O O10 0.083385 0.223997 0.045706
O O11 0.068374 0.066293 0.538585
O O12 0.340545 0.852539 0.564880
O O13 0.475376 0.001494 0.710069
O O14 0.123447 0.312049 0.014760
O O15 0.103730 0.338068 0.541424
#
# Coordination Sequence:
#
# PCOD8035017 Si02
#       7
#     2   2   2   2   2   2   2
#     4  11  25  46  73 111 153 196 252 313 384 454
#     4  12  28  48  74 109 157 200 254 314 384 461
#     4  12  27  48  78 108 152 205 258 316 375 458
#     4  11  25  45  78 108 147 192 256 314 377 446
#     4  11  24  47  72 109 146 198 252 313 376 451
#     4  11  26  46  73 113 155 195 246 321 387 446
#     4  12  26  46  73 113 146 196 258 305 382 456
#
# _framework density 24.284016999999999
#
# number of rings (size 3 to 8) (size 9 to 14) (size 15 to 20)
#    0.000    0.571    2.857    3.857    8.000    2.857 
#    0.000    2.857    0.000    0.000    0.000    0.000 
#    0.000    0.000    0.000    0.000    0.000    0.000 
#
# Total GULP energy -173584.394926 kJ/mol
# GULP energy per Si atom -12398.885352 kJ/mol
# Density = 2.422875 g / cm^3
# Si number density = 24.284017 Si / 1000 Ang^3
#
#
#
# Elastic Constant Matrix: (Units=GPa)
#
#
# Indices 1 2 3 4 5 6 
#
# 1 84.5742 35.0883 44.3969 -1.4228 -16.6701 -7.0953
# 2 35.0883 112.7288 46.3787 12.3560 -0.3113 4.0466
# 3 44.3969 46.3787 115.8125 11.0089 -1.7526 -3.7314
# 4 -1.4228 12.3560 11.0089 47.7524 -1.3275 -1.8193
# 5 -16.6701 -0.3113 -1.7526 -1.3275 36.2404 2.3940
# 6 -7.0953 4.0466 -3.7314 -1.8193 2.3940 45.1927
#
#
#
# Elastic Compliance Matrix: (Units=1/GPa)
#
#
# Indices 1 2 3 4 5 6 
#
# 1 0.018124 -0.003770 -0.005534 0.003106 0.007990 0.002428
# 2 -0.003770 0.011647 -0.003065 -0.002540 -0.001750 -0.001897
# 3 -0.005534 -0.003065 0.012177 -0.002221 -0.002093 0.000432
# 4 0.003106 -0.002540 -0.002221 0.022310 0.002029 0.001322
# 5 0.007990 -0.001750 -0.002093 0.002029 0.031249 -0.000335
# 6 0.002428 -0.001897 0.000432 0.001322 -0.000335 0.022785
#
#
# Mechanical properties :
#
#
# Convention : Reuss Voigt Hill
#
# Bulk Modulus (GPa) = 58.10766 62.76037 60.43401
# Shear Modulus (GPa) = 33.60942 38.32056 35.96499
#
# Velocity S-wave (km/s) = 3.72427 3.97673 3.85257
# Velocity P-wave (km/s) = 6.51720 6.85466 6.68806
#
# Compressibility (1/GPa) = 0.01720944
#
# Stress axis : x y z
#
# Youngs Moduli (GPa) = 55.17522 85.85844 82.12170
#
# Poissons Ratio (x) = 0.32369 0.45448
# Poissons Ratio (y) = 0.20801 0.25171
# Poissons Ratio (z) = 0.30535 0.26317
#
# Static dielectric constant tensor:
#      x y z
#    x 4.228410 0.022460 -0.066750 
#    y 0.022460 4.364220 0.095580 
#    z -0.066750 0.095580 4.431910 
# 
# 
# High freq. dielectric constant tensor:
#      x y z
#    x 1.959660 -0.000990 -0.009470 
#    y -0.000990 1.973280 0.008210 
#    z -0.009470 0.008210 1.970350 
# 
# From -- ./inp_files/331111.got.cif
#   From: 2010.06.25/outbox.cif.g09.slc.cpg/sg2_166_cif.got.tgz:331111.got - 2010.06.27 13:26:56.
