data_PCOD8035031
_publ_section_title
;
Structure prediction by ZEFSAII (Michael W. Deem and Ramdas Pophale) SiO2 
 PCOD8035031
Probable space group: P -1
;
_chemical_formula_sum "Si O2"
_cell_formula_units_Z 14
_cell_length_a 12.069829
_cell_length_b 11.881984
_cell_length_c 11.838784
_cell_angle_alpha 86.881817
_cell_angle_beta 151.619833
_cell_angle_gamma 111.817478
_cell_volume 589.174044
_symmetry_space_group_name_H-M "P -1"
_symmetry_group_IT_number 2
_symmetry_cell_setting 'triclinic'
loop_
_space_group_symop_operation_xyz
x,y,z
-x,-y,-z
loop_
_atom_site_type_symbol
_atom_site_label
_atom_site_fract_x
_atom_site_fract_y
_atom_site_fract_z
Si Si1 0.288493 0.174717 0.230455
Si Si2 0.283926 0.829273 0.548256
Si Si3 0.336426 0.626536 0.231471
Si Si4 0.672628 0.603552 0.889428
Si Si5 0.355371 0.564296 0.808273
Si Si6 0.648709 0.904209 0.342264
Si Si7 0.359444 0.115572 0.917227
O O1 0.530712 0.181206 0.376611
O O2 0.410927 0.253622 0.456738
O O3 0.180853 0.252871 0.067688
O O4 0.000000 0.000000 0.000000
O O5 0.333957 0.979955 0.568301
O O6 0.374606 0.834948 0.758132
O O7 0.926329 0.667234 0.214728
O O8 0.424953 0.536713 0.261859
O O9 0.377194 0.732371 0.161705
O O10 0.000000 0.500000 0.000000
O O11 0.362650 0.547089 0.679553
O O12 0.000000 0.500000 0.500000
O O13 0.500000 0.500000 0.000000
O O14 0.615233 0.740858 0.075335
O O15 0.555466 0.907008 0.129061
O O16 0.002860 0.964277 0.648586
#
# Coordination Sequence:
#
# PCOD8035031 Si02
#       7
#     2   2   2   2   2   2   2
#     4  12  27  47  76 108 146 205 265 318 397 473
#     4  12  22  47  77 106 149 201 262 326 398 477
#     4  12  27  50  74 112 156 204 266 327 397 470
#     4  12  26  48  74 108 155 200 260 330 397 481
#     4  12  26  46  77 113 158 203 258 330 413 481
#     4  11  26  46  74 107 152 203 257 323 400 475
#     4  11  24  47  73 111 151 195 264 319 400 483
#
# _framework density 23.762079
#
# number of rings (size 3 to 8) (size 9 to 14) (size 15 to 20)
#    0.000    0.286    4.286    4.286    2.000    2.286 
#    7.714    0.000    0.000    0.000    0.000    0.000 
#    0.000    0.000    0.000    0.000    0.000    0.000 
#
# Total GULP energy -173454.828832 kJ/mol
# GULP energy per Si atom -12389.630631 kJ/mol
# Density = 2.370800 g / cm^3
# Si number density = 23.762079 Si / 1000 Ang^3
#
#
#
# Elastic Constant Matrix: (Units=GPa)
#
#
# Indices 1 2 3 4 5 6 
#
# 1 148.9636 51.2789 62.5823 15.1711 -18.9106 -13.4134
# 2 51.2789 132.8820 48.1773 19.5885 0.6797 -2.6726
# 3 62.5823 48.1773 122.0889 5.1418 -10.8898 5.7092
# 4 15.1711 19.5885 5.1418 44.6493 1.0958 -6.1574
# 5 -18.9106 0.6797 -10.8898 1.0958 42.2839 8.7574
# 6 -13.4134 -2.6726 5.7092 -6.1574 8.7574 51.3450
#
#
#
# Elastic Compliance Matrix: (Units=1/GPa)
#
#
# Indices 1 2 3 4 5 6 
#
# 1 0.009863 -0.002069 -0.004000 -0.001755 0.003006 0.002191
# 2 -0.002069 0.009847 -0.002859 -0.003216 -0.001779 0.000208
# 3 -0.004000 -0.002859 0.011618 0.000861 0.001783 -0.002686
# 4 -0.001755 -0.003216 0.000861 0.024694 -0.001674 0.002525
# 5 0.003006 -0.001779 0.001783 -0.001674 0.026397 -0.004209
# 6 0.002191 0.000208 -0.002686 0.002525 -0.004209 0.021379
#
#
# Mechanical properties :
#
#
# Convention : Reuss Voigt Hill
#
# Bulk Modulus (GPa) = 74.21703 80.89018 77.55361
# Shear Modulus (GPa) = 39.63748 43.78203 41.70975
#
# Velocity S-wave (km/s) = 4.08867 4.29711 4.19418
# Velocity P-wave (km/s) = 7.32057 7.66393 7.49422
#
# Compressibility (1/GPa) = 0.01347400
#
# Stress axis : x y z
#
# Youngs Moduli (GPa) = 101.38731 101.54893 86.07688
#
# Poissons Ratio (x) = 0.21006 0.34430
# Poissons Ratio (y) = 0.20973 0.24605
# Poissons Ratio (z) = 0.40554 0.29028
#
# Static dielectric constant tensor:
#      x y z
#    x 5.115150 0.247330 0.231430 
#    y 0.247330 4.724400 0.345030 
#    z 0.231430 0.345030 3.987140 
# 
# 
# High freq. dielectric constant tensor:
#      x y z
#    x 1.964500 -0.006580 -0.007950 
#    y -0.006580 1.951300 0.010980 
#    z -0.007950 0.010980 1.934830 
# 
# From -- ./inp_files/79398.got.cif
#   From: 2010.06.25/outbox.cif.g09.slc.cpg/sg2_40_cif.got.tgz:79398.got - 2010.06.27 13:26:56.
