data_PCOD8035826
_publ_section_title
;
Structure prediction by ZEFSAII (Michael W. Deem and Ramdas Pophale) SiO2 
 PCOD8035826
Probable space group: P -1
;
_chemical_formula_sum "Si O2"
_cell_formula_units_Z 16
_cell_length_a 9.115935
_cell_length_b 11.438652
_cell_length_c 8.797941
_cell_angle_alpha 57.909972
_cell_angle_beta 114.647058
_cell_angle_gamma 98.423371
_cell_volume 703.056937
_symmetry_space_group_name_H-M "P -1"
_symmetry_group_IT_number 2
_symmetry_cell_setting 'triclinic'
loop_
_space_group_symop_operation_xyz
x,y,z
-x,-y,-z
loop_
_atom_site_type_symbol
_atom_site_label
_atom_site_fract_x
_atom_site_fract_y
_atom_site_fract_z
Si Si1 0.296628 0.890793 0.373002
Si Si2 0.004795 0.501085 0.320974
Si Si3 0.028250 0.020286 0.672911
Si Si4 0.238864 0.236598 0.520182
Si Si5 0.503981 0.629269 0.302911
Si Si6 0.349667 0.436082 0.906734
Si Si7 0.828429 0.237205 0.895105
Si Si8 0.621209 0.818638 0.700836
O O1 0.255750 0.838371 0.225826
O O2 0.439173 0.791420 0.585437
O O3 0.131225 0.894264 0.391384
O O4 0.369941 0.038934 0.301796
O O5 0.823334 0.473945 0.206622
O O6 0.000000 0.500000 0.500000
O O7 0.127222 0.381803 0.382582
O O8 0.052790 0.651514 0.184941
O O9 0.172314 0.119413 0.678556
O O10 0.000000 0.000000 0.500000
O O11 0.070334 0.876169 0.878770
O O12 0.417253 0.251833 0.651035
O O13 0.254692 0.189803 0.382882
O O14 0.500000 0.500000 0.500000
O O15 0.619345 0.584950 0.243303
O O16 0.323081 0.684894 0.130888
O O17 0.500000 0.500000 0.000000
O O18 0.323044 0.292930 0.073380
#
# Coordination Sequence:
#
# PCOD8035826 Si02
#       8
#     2   2   2   2   2   2   2   2
#     4  11  25  47  73 101 154 190 247 298 375 440
#     4  12  26  48  79 112 145 197 254 312 373 449
#     4  12  28  46  70 112 148 196 252 310 365 441
#     4  12  25  47  78 104 154 189 252 310 367 443
#     4  12  25  49  74 111 146 193 250 309 375 448
#     4  12  29  45  74 108 150 190 249 305 385 441
#     4  12  27  46  82 105 153 201 249 304 380 446
#     4  11  26  47  71 108 146 200 241 310 369 447
#
# _framework density 22.757760000000001
#
# number of rings (size 3 to 8) (size 9 to 14) (size 15 to 20)
#    0.000    0.250    5.000    2.625    7.000    1.000 
#    0.000    0.000    0.000    0.000    0.000    0.000 
#    0.000    0.000    0.000    0.000    0.000    0.000 
#
# Total GULP energy -198411.138677 kJ/mol
# GULP energy per Si atom -12400.696167 kJ/mol
# Density = 2.270596 g / cm^3
# Si number density = 22.757760 Si / 1000 Ang^3
#
#
#
# Elastic Constant Matrix: (Units=GPa)
#
#
# Indices 1 2 3 4 5 6 
#
# 1 140.2433 18.3895 47.0650 -13.8851 11.2687 6.9206
# 2 18.3895 76.0947 20.5055 -3.5819 0.6419 13.7344
# 3 47.0650 20.5055 107.5679 -14.7988 -1.7110 5.5343
# 4 -13.8851 -3.5819 -14.7988 33.6755 9.0498 2.7524
# 5 11.2687 0.6419 -1.7110 9.0498 44.8130 -3.5842
# 6 6.9206 13.7344 5.5343 2.7524 -3.5842 47.6511
#
#
#
# Elastic Compliance Matrix: (Units=1/GPa)
#
#
# Indices 1 2 3 4 5 6 
#
# 1 0.008966 -0.000910 -0.003324 0.003051 -0.003070 -0.001061
# 2 -0.000910 0.014678 -0.002106 0.000722 -0.000522 -0.003935
# 3 -0.003324 -0.002106 0.011651 0.003401 0.000591 -0.000415
# 4 0.003051 0.000722 0.003401 0.034975 -0.008004 -0.003669
# 5 -0.003070 -0.000522 0.000591 -0.008004 0.024963 0.002868
# 6 -0.001061 -0.003935 -0.000415 -0.003669 0.002868 0.022750
#
#
# Mechanical properties :
#
#
# Convention : Reuss Voigt Hill
#
# Bulk Modulus (GPa) = 44.22028 55.09177 49.65603
# Shear Modulus (GPa) = 36.17891 41.09098 38.63495
#
# Velocity S-wave (km/s) = 3.99148 4.25382 4.12474
# Velocity P-wave (km/s) = 6.38088 6.95609 6.67468
#
# Compressibility (1/GPa) = 0.02261406
#
# Stress axis : x y z
#
# Youngs Moduli (GPa) = 111.52680 68.13084 85.82942
#
# Poissons Ratio (x) = 0.06201 0.28531
# Poissons Ratio (y) = 0.10150 0.18078
# Poissons Ratio (z) = 0.37073 0.14350
#
# Static dielectric constant tensor:
#      x y z
#    x 3.934670 0.257950 -0.750000 
#    y 0.257950 4.325130 -0.062340 
#    z -0.750000 -0.062340 2.077410 
# 
# 
# High freq. dielectric constant tensor:
#      x y z
#    x 1.923770 0.007290 0.008790 
#    y 0.007290 1.902340 0.000890 
#    z 0.008790 0.000890 1.895120 
# 
# From -- ./inp_files/185361.got.cif
#   From: 2010.06.25/outbox.cif.g09.slc.cpg/sg2_93_cif.got.tgz:185361.got - 2010.06.27 13:26:56.
