data_PCOD8035681
_publ_section_title
;
Structure prediction by ZEFSAII (Michael W. Deem and Ramdas Pophale) SiO2 
 PCOD8035681
Probable space group: P -1
;
_chemical_formula_sum "Si O2"
_cell_formula_units_Z 14
_cell_length_a 8.313640
_cell_length_b 5.159285
_cell_length_c 14.703644
_cell_angle_alpha 90.408077
_cell_angle_beta 73.888037
_cell_angle_gamma 84.185843
_cell_volume 602.376308
_symmetry_space_group_name_H-M "P -1"
_symmetry_group_IT_number 2
_symmetry_cell_setting 'triclinic'
loop_
_space_group_symop_operation_xyz
x,y,z
-x,-y,-z
loop_
_atom_site_type_symbol
_atom_site_label
_atom_site_fract_x
_atom_site_fract_y
_atom_site_fract_z
Si Si1 0.772486 0.399270 0.283490
Si Si2 0.881991 0.877711 0.375141
Si Si3 0.156703 0.554090 0.414487
Si Si4 0.633059 0.079059 0.549270
Si Si5 0.605994 0.032917 0.072992
Si Si6 0.178189 0.516494 0.926408
Si Si7 0.434725 0.213093 0.280419
O O1 0.793455 0.666105 0.331444
O O2 0.861241 0.401723 0.171338
O O3 0.574296 0.388893 0.297223
O O4 0.855985 0.154145 0.328287
O O5 0.080459 0.791057 0.359833
O O6 0.799260 0.891045 0.490327
O O7 0.305516 0.632407 0.459090
O O8 0.243972 0.345103 0.328700
O O9 0.000000 0.500000 0.500000
O O10 0.500000 0.000000 0.500000
O O11 0.558019 0.045948 0.660683
O O12 0.708335 0.760761 0.085578
O O13 0.730144 0.255897 0.038382
O O14 0.468692 0.131321 0.171352
O O15 0.500000 0.000000 0.000000
O O16 0.000000 0.500000 0.000000
#
# Coordination Sequence:
#
# PCOD8035681 Si02
#       7
#     2   2   2   2   2   2   2
#     4  11  25  46  72 106 142 199 242 299 365 454
#     4  12  25  43  69 104 149 190 247 297 366 421
#     4  12  27  44  66 107 150 193 249 310 356 422
#     4  12  25  43  72  97 146 198 246 289 360 439
#     4  11  26  50  79 109 149 190 243 308 376 441
#     4  11  25  50  78 111 146 184 247 313 371 444
#     4  11  26  44  73 102 146 195 249 289 364 445
#
# _framework density 23.241288999999998
#
# number of rings (size 3 to 8) (size 9 to 14) (size 15 to 20)
#    0.000    0.571    2.857    4.714    6.000    2.286 
#    2.571    0.000    0.000    0.000    0.000    0.000 
#    0.000    0.000    0.000    0.000    0.000    0.000 
#
# Total GULP energy -173441.928931 kJ/mol
# GULP energy per Si atom -12388.709209 kJ/mol
# Density = 2.318839 g / cm^3
# Si number density = 23.241289 Si / 1000 Ang^3
#
#
#
# Elastic Constant Matrix: (Units=GPa)
#
#
# Indices 1 2 3 4 5 6 
#
# 1 93.7236 44.9709 77.1512 0.1239 -10.2954 1.6483
# 2 44.9709 120.9687 44.6157 4.5707 -9.2622 8.9095
# 3 77.1512 44.6157 165.5153 -3.7098 -18.7313 11.5033
# 4 0.1239 4.5707 -3.7098 35.4454 6.2532 -0.7778
# 5 -10.2954 -9.2622 -18.7313 6.2532 41.8580 7.7001
# 6 1.6483 8.9095 11.5033 -0.7778 7.7001 52.5573
#
#
#
# Elastic Compliance Matrix: (Units=1/GPa)
#
#
# Indices 1 2 3 4 5 6 
#
# 1 0.019267 -0.004365 -0.007952 -0.000279 -0.000090 0.001885
# 2 -0.004365 0.010390 -0.000502 -0.001695 0.001580 -0.001771
# 3 -0.007952 -0.000502 0.010393 0.000612 0.002926 -0.002360
# 4 -0.000279 -0.001695 0.000612 0.029371 -0.004796 0.001299
# 5 -0.000090 0.001580 0.002926 -0.004796 0.027155 -0.004955
# 6 0.001885 -0.001771 -0.002360 0.001299 -0.004955 0.020530
#
#
# Mechanical properties :
#
#
# Convention : Reuss Voigt Hill
#
# Bulk Modulus (GPa) = 69.38861 79.29813 74.34337
# Shear Modulus (GPa) = 33.88744 40.20346 37.04545
#
# Velocity S-wave (km/s) = 3.82261 4.16363 3.99676
# Velocity P-wave (km/s) = 7.02878 7.57021 7.30451
#
# Compressibility (1/GPa) = 0.01441159
#
# Stress axis : x y z
#
# Youngs Moduli (GPa) = 51.90159 96.24660 96.22273
#
# Poissons Ratio (x) = 0.42013 0.76515
# Poissons Ratio (y) = 0.22656 0.04831
# Poissons Ratio (z) = 0.41271 0.04833
#
# Static dielectric constant tensor:
#      x y z
#    x 4.385620 -0.100400 0.195510 
#    y -0.100400 4.484170 0.079840 
#    z 0.195510 0.079840 3.841600 
# 
# 
# High freq. dielectric constant tensor:
#      x y z
#    x 1.926310 0.004060 -0.006070 
#    y 0.004060 1.936570 0.004970 
#    z -0.006070 0.004970 1.916590 
# 
# From -- ./inp_files/488525.got.cif
#   From: 2010.06.25/outbox.cif.g09.slc.cpg/sg2_245_cif.got.tgz:488525.got - 2010.06.27 13:26:56.
