data_PCOD8035965
_publ_section_title
;
Structure prediction by ZEFSAII (Michael W. Deem and Ramdas Pophale) SiO2 
 PCOD8035965
Probable space group: P -1
;
_chemical_formula_sum "Si O2"
_cell_formula_units_Z 10
_cell_length_a 8.529599
_cell_length_b 10.623584
_cell_length_c 12.827891
_cell_angle_alpha 144.987917
_cell_angle_beta 145.913699
_cell_angle_gamma 39.977195
_cell_volume 359.508142
_symmetry_space_group_name_H-M "P -1"
_symmetry_group_IT_number 2
_symmetry_cell_setting 'triclinic'
loop_
_space_group_symop_operation_xyz
x,y,z
-x,-y,-z
loop_
_atom_site_type_symbol
_atom_site_label
_atom_site_fract_x
_atom_site_fract_y
_atom_site_fract_z
Si Si1 0.297288 0.861917 0.518245
Si Si2 0.726409 0.490762 0.269818
Si Si3 0.454214 0.369048 0.232171
Si Si4 0.329628 0.856012 0.157163
Si Si5 0.046092 0.054897 0.805709
O O1 0.413981 0.595837 0.436681
O O2 0.240936 0.852985 0.358017
O O3 0.552172 0.986996 0.753060
O O4 0.000000 0.000000 0.500000
O O5 0.484535 0.427764 0.167117
O O6 0.587387 0.726047 0.290195
O O7 0.000000 0.500000 0.500000
O O8 0.812112 0.305913 0.099334
O O9 0.742347 0.167804 0.285765
O O10 0.184457 0.267072 0.031921
O O11 0.058327 0.005245 0.178360
#
# Coordination Sequence:
#
# PCOD8035965 Si02
#       5
#     2   2   2   2   2
#     4  12  26  45  74 110 154 200 249 317 381 445
#     4  11  25  48  77 111 151 200 254 313 380 455
#     4  11  26  46  74 107 156 200 248 315 378 445
#     4  11  26  47  79 111 149 201 254 313 380 451
#     4  11  25  49  73 112 153 196 262 307 371 468
#
# _framework density 27.81578
#
# number of rings (size 3 to 8) (size 9 to 14) (size 15 to 20)
#    0.000    0.800    2.000    3.600    8.400    1.600 
#    7.200    0.000    0.000    0.000    0.000    0.000 
#    0.000    0.000    0.000    0.000    0.000    0.000 
#
# Total GULP energy -123942.385176 kJ/mol
# GULP energy per Si atom -12394.238518 kJ/mol
# Density = 2.775247 g / cm^3
# Si number density = 27.815780 Si / 1000 Ang^3
#
#
#
# Elastic Constant Matrix: (Units=GPa)
#
#
# Indices 1 2 3 4 5 6 
#
# 1 116.3783 25.1139 43.1949 12.6472 25.3156 -23.7461
# 2 25.1139 117.9789 78.2151 20.2181 -13.4016 1.2561
# 3 43.1949 78.2151 142.4805 17.2457 9.6682 -11.9773
# 4 12.6472 20.2181 17.2457 55.6622 12.4167 -11.1351
# 5 25.3156 -13.4016 9.6682 12.4167 40.1370 5.3331
# 6 -23.7461 1.2561 -11.9773 -11.1351 5.3331 56.2511
#
#
#
# Elastic Compliance Matrix: (Units=1/GPa)
#
#
# Indices 1 2 3 4 5 6 
#
# 1 0.013474 -0.004296 -0.000660 0.002747 -0.011592 0.007286
# 2 -0.004296 0.018902 -0.009758 -0.007581 0.014674 -0.007205
# 3 -0.000660 -0.009758 0.013140 0.001973 -0.007122 0.003803
# 4 0.002747 -0.007581 0.001973 0.023974 -0.013185 0.007745
# 5 -0.011592 0.014674 -0.007122 -0.013185 0.044726 -0.013588
# 6 0.007286 -0.007205 0.003803 0.007745 -0.013588 0.024645
#
#
# Mechanical properties :
#
#
# Convention : Reuss Voigt Hill
#
# Bulk Modulus (GPa) = 62.15562 74.43173 68.29367
# Shear Modulus (GPa) = 28.79315 45.76430 37.27872
#
# Velocity S-wave (km/s) = 3.22085 4.06059 3.66485
# Velocity P-wave (km/s) = 6.01878 6.98580 6.52024
#
# Compressibility (1/GPa) = 0.01608865
#
# Stress axis : x y z
#
# Youngs Moduli (GPa) = 74.21445 52.90306 76.10593
#
# Poissons Ratio (x) = 0.22725 0.05025
# Poissons Ratio (y) = 0.31879 0.74265
# Poissons Ratio (z) = 0.04900 0.51623
#
# Static dielectric constant tensor:
#      x y z
#    x 5.111400 0.213960 -0.079580 
#    y 0.213960 5.375490 0.218320 
#    z -0.079580 0.218320 4.898530 
# 
# 
# High freq. dielectric constant tensor:
#      x y z
#    x 2.132010 0.002030 -0.002460 
#    y 0.002030 2.143970 0.012160 
#    z -0.002460 0.012160 2.115940 
# 
# From -- ./inp_files/236978.got.cif
#   From: 2010.06.25/outbox.cif.g09.slc.cpg/sg2_119_cif.got.tgz:236978.got - 2010.06.27 13:26:56.
