data_PCOD8035862
_publ_section_title
;
Structure prediction by ZEFSAII (Michael W. Deem and Ramdas Pophale) SiO2 
 PCOD8035862
Probable space group: P -1
;
_chemical_formula_sum "Si O2"
_cell_formula_units_Z 14
_cell_length_a 8.086011
_cell_length_b 17.535488
_cell_length_c 9.077510
_cell_angle_alpha 31.954451
_cell_angle_beta 110.245684
_cell_angle_gamma 121.212194
_cell_volume 569.997615
_symmetry_space_group_name_H-M "P -1"
_symmetry_group_IT_number 2
_symmetry_cell_setting 'triclinic'
loop_
_space_group_symop_operation_xyz
x,y,z
-x,-y,-z
loop_
_atom_site_type_symbol
_atom_site_label
_atom_site_fract_x
_atom_site_fract_y
_atom_site_fract_z
Si Si1 0.697411 0.666533 0.792454
Si Si2 0.587057 0.841156 0.253487
Si Si3 0.130466 0.807590 0.685844
Si Si4 0.777701 0.831203 0.847083
Si Si5 0.061645 0.387056 0.605055
Si Si6 0.748685 0.168559 0.646890
Si Si7 0.608254 0.299335 0.868537
O O1 0.706758 0.749679 0.501518
O O2 0.907613 0.659188 0.873920
O O3 0.500000 0.500000 0.000000
O O4 0.685219 0.767469 0.763304
O O5 0.471599 0.861911 0.326166
O O6 0.419625 0.742134 0.244960
O O7 0.756491 0.004848 0.967854
O O8 0.226421 0.806403 0.560562
O O9 0.268827 0.787808 0.883251
O O10 0.112768 0.973461 0.438522
O O11 0.927031 0.756589 0.061035
O O12 0.603416 0.767193 0.015357
O O13 0.273708 0.506040 0.402417
O O14 0.000000 0.500000 0.500000
O O15 0.915298 0.319542 0.533788
#
# Coordination Sequence:
#
# PCOD8035862 Si02
#       7
#     2   2   2   2   2   2   2
#     4  12  29  46  71 109 151 193 250 310 369 435
#     4  11  25  47  75 107 148 195 249 306 363 447
#     4  12  28  49  78 110 150 202 248 309 373 445
#     4  12  27  49  75 108 154 196 253 304 374 448
#     4  12  26  46  74 110 153 199 243 307 378 444
#     4  11  26  45  78 104 149 192 255 298 374 439
#     4  12  26  47  77 111 152 195 249 305 380 440
#
# _framework density 24.561506000000001
#
# number of rings (size 3 to 8) (size 9 to 14) (size 15 to 20)
#    0.000    0.286    2.857    4.714   10.000    1.714 
#    0.000    0.000    0.000    0.000    0.000    0.000 
#    0.000    0.000    0.000    0.000    0.000    0.000 
#
# Total GULP energy -173613.524301 kJ/mol
# GULP energy per Si atom -12400.966022 kJ/mol
# Density = 2.450560 g / cm^3
# Si number density = 24.561506 Si / 1000 Ang^3
#
#
#
# Elastic Constant Matrix: (Units=GPa)
#
#
# Indices 1 2 3 4 5 6 
#
# 1 83.5037 24.6975 1.8987 7.9515 -1.7444 0.7286
# 2 24.6975 142.0694 31.7521 7.8728 3.3503 -4.4182
# 3 1.8987 31.7521 85.3949 7.9215 15.5322 2.8822
# 4 7.9515 7.8728 7.9215 46.2557 11.6141 -8.5604
# 5 -1.7444 3.3503 15.5322 11.6141 47.2500 0.7526
# 6 0.7286 -4.4182 2.8822 -8.5604 0.7526 27.7495
#
#
#
# Elastic Compliance Matrix: (Units=1/GPa)
#
#
# Indices 1 2 3 4 5 6 
#
# 1 0.012924 -0.002333 0.000672 -0.002499 0.001061 -0.001580
# 2 -0.002333 0.008191 -0.003094 -0.000266 0.000390 0.001594
# 3 0.000672 -0.003094 0.013760 -0.001384 -0.003903 -0.002260
# 4 -0.002499 -0.000266 -0.001384 0.025339 -0.005977 0.008146
# 5 0.001061 0.000390 -0.003903 -0.005977 0.023960 -0.002054
# 6 -0.001580 0.001594 -0.002260 0.008146 -0.002054 0.039135
#
#
# Mechanical properties :
#
#
# Convention : Reuss Voigt Hill
#
# Bulk Modulus (GPa) = 39.42197 47.51828 43.47012
# Shear Modulus (GPa) = 35.39224 41.09235 38.24230
#
# Velocity S-wave (km/s) = 3.80012 4.09472 3.95017
# Velocity P-wave (km/s) = 5.94472 6.46098 6.20822
#
# Compressibility (1/GPa) = 0.02536656
#
# Stress axis : x y z
#
# Youngs Moduli (GPa) = 77.37536 122.08667 72.67297
#
# Poissons Ratio (x) = 0.28478 -0.04884
# Poissons Ratio (y) = 0.18049 0.22484
# Poissons Ratio (z) = -0.05201 0.37771
#
# Static dielectric constant tensor:
#      x y z
#    x 4.295400 0.018060 -0.157290 
#    y 0.018060 4.468270 -0.040940 
#    z -0.157290 -0.040940 4.793130 
# 
# 
# High freq. dielectric constant tensor:
#      x y z
#    x 1.976740 0.007030 -0.013320 
#    y 0.007030 1.986430 0.006540 
#    z -0.013320 0.006540 1.985740 
# 
# From -- ./inp_files/216365.got.cif
#   From: 2010.06.25/outbox.cif.g09.slc.cpg/sg2_109_cif.got.tgz:216365.got - 2010.06.27 13:26:56.
