data_PCOD8035414
_publ_section_title
;
Structure prediction by ZEFSAII (Michael W. Deem and Ramdas Pophale) SiO2 
 PCOD8035414
Probable space group: P -1
;
_chemical_formula_sum "Si O2"
_cell_formula_units_Z 16
_cell_length_a 9.056644
_cell_length_b 5.802843
_cell_length_c 13.526847
_cell_angle_alpha 90.634857
_cell_angle_beta 69.580434
_cell_angle_gamma 80.908721
_cell_volume 656.168191
_symmetry_space_group_name_H-M "P -1"
_symmetry_group_IT_number 2
_symmetry_cell_setting 'triclinic'
loop_
_space_group_symop_operation_xyz
x,y,z
-x,-y,-z
loop_
_atom_site_type_symbol
_atom_site_label
_atom_site_fract_x
_atom_site_fract_y
_atom_site_fract_z
Si Si1 0.135007 0.722580 0.060080
Si Si2 0.483224 0.756357 0.560861
Si Si3 0.167283 0.669598 0.718531
Si Si4 0.201724 0.338748 0.894732
Si Si5 0.330189 0.258453 0.284944
Si Si6 0.887114 0.055936 0.738268
Si Si7 0.009198 0.576080 0.387370
Si Si8 0.418192 0.939263 0.918006
O O1 0.170496 0.737508 0.168487
O O2 0.944003 0.804128 0.089408
O O3 0.178389 0.457109 0.009546
O O4 0.244819 0.876540 0.978430
O O5 0.500000 0.500000 0.500000
O O6 0.310246 0.803139 0.654170
O O7 0.616825 0.728604 0.614349
O O8 0.500000 0.000000 0.500000
O O9 0.208885 0.532576 0.810015
O O10 0.141281 0.488454 0.636916
O O11 0.000874 0.848758 0.769018
O O12 0.372426 0.165147 0.857770
O O13 0.181075 0.461788 0.301466
O O14 0.268092 0.014870 0.276557
O O15 0.470644 0.265499 0.171212
O O16 0.992120 0.147800 0.626280
O O17 0.000000 0.500000 0.500000
O O18 0.500000 0.000000 0.000000
#
# Coordination Sequence:
#
# PCOD8035414 Si02
#       8
#     2   2   2   2   2   2   2   2
#     4  11  25  44  73 106 150 202 266 317 387 471
#     4  12  31  52  82 116 163 208 271 336 415 484
#     4  11  27  47  73 112 147 202 265 325 401 471
#     4  11  27  43  75 107 153 204 261 323 390 476
#     4  11  28  47  75 113 153 204 260 325 408 474
#     4  11  26  45  78 106 151 199 268 325 392 479
#     4  11  26  48  79 105 149 199 265 331 395 468
#     4  12  27  47  73 111 161 203 253 320 406 482
#
# _framework density 24.383993
#
# number of rings (size 3 to 8) (size 9 to 14) (size 15 to 20)
#    0.000    0.750    2.500    1.875   17.500    2.500 
#    0.000    0.000    0.000    0.000    0.000    0.000 
#    0.000    0.000    0.000    0.000    0.000    0.000 
#
# Total GULP energy -198253.393406 kJ/mol
# GULP energy per Si atom -12390.837088 kJ/mol
# Density = 2.432849 g / cm^3
# Si number density = 24.383993 Si / 1000 Ang^3
#
#
#
# Elastic Constant Matrix: (Units=GPa)
#
#
# Indices 1 2 3 4 5 6 
#
# 1 138.2173 47.4785 44.3820 -8.6499 7.2803 15.0139
# 2 47.4785 89.6861 47.8958 -17.1157 7.5662 7.1225
# 3 44.3820 47.8958 118.1790 -10.4426 6.6831 6.1815
# 4 -8.6499 -17.1157 -10.4426 44.4896 11.5998 3.4705
# 5 7.2803 7.5662 6.6831 11.5998 49.0473 8.2719
# 6 15.0139 7.1225 6.1815 3.4705 8.2719 44.4919
#
#
#
# Elastic Compliance Matrix: (Units=1/GPa)
#
#
# Indices 1 2 3 4 5 6 
#
# 1 0.009389 -0.003741 -0.001862 0.000185 -0.000222 -0.002284
# 2 -0.003741 0.017018 -0.004830 0.005413 -0.002568 -0.000736
# 3 -0.001862 -0.004830 0.011210 0.000582 -0.000629 -0.000084
# 4 0.000185 0.005413 0.000582 0.026684 -0.006949 -0.001799
# 5 -0.000222 -0.002568 -0.000629 -0.006949 0.023082 -0.003176
# 6 -0.002284 -0.000736 -0.000084 -0.001799 -0.003176 0.024107
#
#
# Mechanical properties :
#
#
# Convention : Reuss Voigt Hill
#
# Bulk Modulus (GPa) = 59.69573 69.51055 64.60314
# Shear Modulus (GPa) = 36.24766 41.36083 38.80425
#
# Velocity S-wave (km/s) = 3.85974 4.12300 3.99354
# Velocity P-wave (km/s) = 6.66319 7.15779 6.91492
#
# Compressibility (1/GPa) = 0.01675162
#
# Stress axis : x y z
#
# Youngs Moduli (GPa) = 106.50605 58.76168 89.20726
#
# Poissons Ratio (x) = 0.21982 0.16607
# Poissons Ratio (y) = 0.39842 0.43089
# Poissons Ratio (z) = 0.19827 0.28383
#
# Static dielectric constant tensor:
#      x y z
#    x 4.643030 0.273910 -0.022040 
#    y 0.273910 4.420920 0.183300 
#    z -0.022040 0.183300 4.476410 
# 
# 
# High freq. dielectric constant tensor:
#      x y z
#    x 1.987500 0.010950 0.004610 
#    y 0.010950 1.960980 0.000300 
#    z 0.004610 0.000300 1.969690 
# 
# From -- ./inp_files/488381.got.cif
#   From: 2010.06.25/outbox.cif.g09.slc.cpg/sg2_245_cif.got.tgz:488381.got - 2010.06.27 13:26:56.
