data_PCOD8035588
_publ_section_title
;
Structure prediction by ZEFSAII (Michael W. Deem and Ramdas Pophale) SiO2 
 PCOD8035588
Probable space group: P -1
;
_chemical_formula_sum "Si O2"
_cell_formula_units_Z 14
_cell_length_a 7.177448
_cell_length_b 21.298496
_cell_length_c 8.929743
_cell_angle_alpha 30.240873
_cell_angle_beta 115.681890
_cell_angle_gamma 125.599305
_cell_volume 550.899856
_symmetry_space_group_name_H-M "P -1"
_symmetry_group_IT_number 2
_symmetry_cell_setting 'triclinic'
loop_
_space_group_symop_operation_xyz
x,y,z
-x,-y,-z
loop_
_atom_site_type_symbol
_atom_site_label
_atom_site_fract_x
_atom_site_fract_y
_atom_site_fract_z
Si Si1 0.492421 0.858782 0.851275
Si Si2 0.321830 0.356195 0.111921
Si Si3 0.615303 0.862487 0.231251
Si Si4 0.877980 0.841775 0.831609
Si Si5 0.143871 0.838486 0.196217
Si Si6 0.821748 0.544440 0.775762
Si Si7 0.926124 0.420117 0.794046
O O1 0.667325 0.814012 0.924449
O O2 0.500000 0.000000 0.500000
O O3 0.555693 0.866821 0.029949
O O4 0.235999 0.741291 0.967383
O O5 0.322859 0.261882 0.446921
O O6 0.220235 0.260932 0.128611
O O7 0.423199 0.517420 0.094809
O O8 0.153444 0.426652 0.946541
O O9 0.388692 0.834957 0.309013
O O10 0.830003 0.012911 0.039862
O O11 0.000000 0.000000 0.500000
O O12 0.072446 0.817043 0.040200
O O13 0.939004 0.713751 0.473893
O O14 0.796863 0.488598 0.709772
O O15 0.000000 0.500000 0.000000
O O16 0.000000 0.500000 0.500000
#
# Coordination Sequence:
#
# PCOD8035588 Si02
#       7
#     2   2   2   2   2   2   2
#     4  12  28  47  76 111 155 196 259 312 379 454
#     4  12  26  50  80 110 155 196 260 313 381 450
#     4  11  25  48  76 114 144 200 251 323 373 446
#     4  12  24  47  75 110 146 202 248 314 384 446
#     4  11  25  45  77 104 156 192 258 303 387 447
#     4  12  27  48  76 111 150 204 248 313 382 447
#     4  12  29  51  76 113 156 202 252 310 382 463
#
# _framework density 25.412969
#
# number of rings (size 3 to 8) (size 9 to 14) (size 15 to 20)
#    0.000    0.286    4.286    4.286    6.000    3.429 
#    0.000    0.000    0.000    0.000    0.000    0.000 
#    0.000    0.000    0.000    0.000    0.000    0.000 
#
# Total GULP energy -173654.891373 kJ/mol
# GULP energy per Si atom -12403.920812 kJ/mol
# Density = 2.535513 g / cm^3
# Si number density = 25.412969 Si / 1000 Ang^3
#
#
#
# Elastic Constant Matrix: (Units=GPa)
#
#
# Indices 1 2 3 4 5 6 
#
# 1 102.0151 25.0986 47.1943 -4.2338 -6.4671 7.4061
# 2 25.0986 117.4538 43.9929 -10.2067 -16.3314 21.6830
# 3 47.1943 43.9929 175.5388 -7.1635 -21.1881 27.7157
# 4 -4.2338 -10.2067 -7.1635 54.5898 13.0799 -4.2754
# 5 -6.4671 -16.3314 -21.1881 13.0799 39.5749 -0.3255
# 6 7.4061 21.6830 27.7157 -4.2754 -0.3255 44.3468
#
#
#
# Elastic Compliance Matrix: (Units=1/GPa)
#
#
# Indices 1 2 3 4 5 6 
#
# 1 0.011428 -0.001524 -0.002823 0.000374 -0.000391 0.000634
# 2 -0.001524 0.010534 -0.001170 0.000602 0.003239 -0.004083
# 3 -0.002823 -0.001170 0.007733 -0.000521 0.003337 -0.003815
# 4 0.000374 0.000602 -0.000521 0.020120 -0.006604 0.001860
# 5 -0.000391 0.003239 0.003337 -0.006604 0.030477 -0.004017
# 6 0.000634 -0.004083 -0.003815 0.001860 -0.004017 0.026974
#
#
# Mechanical properties :
#
#
# Convention : Reuss Voigt Hill
#
# Bulk Modulus (GPa) = 53.58454 69.73103 61.65778
# Shear Modulus (GPa) = 40.15426 46.28373 43.21899
#
# Velocity S-wave (km/s) = 3.97932 4.27226 4.12839
# Velocity P-wave (km/s) = 6.49959 7.19965 6.85856
#
# Compressibility (1/GPa) = 0.01866210
#
# Stress axis : x y z
#
# Youngs Moduli (GPa) = 87.50557 94.92742 129.32076
#
# Poissons Ratio (x) = 0.14463 0.36501
# Poissons Ratio (y) = 0.13333 0.15134
# Poissons Ratio (z) = 0.24699 0.11109
#
# Static dielectric constant tensor:
#      x y z
#    x 12.191210 -8.910360 13.095230 
#    y -8.910360 16.274120 -16.655140 
#    z 13.095230 -16.655140 28.715940 
# 
# 
# High freq. dielectric constant tensor:
#      x y z
#    x 2.023740 0.001420 -0.004870 
#    y 0.001420 2.036720 -0.002770 
#    z -0.004870 -0.002770 2.024070 
# 
# From -- ./inp_files/222898.got.cif
#   From: 2010.06.25/outbox.cif.g09.slc.cpg/sg2_112_cif.got.tgz:222898.got - 2010.06.27 13:26:56.
