data_PCOD8035960
_publ_section_title
;
Structure prediction by ZEFSAII (Michael W. Deem and Ramdas Pophale) SiO2 
 PCOD8035960
Probable space group: P -1
;
_chemical_formula_sum "Si O2"
_cell_formula_units_Z 12
_cell_length_a 8.640397
_cell_length_b 8.449466
_cell_length_c 9.797674
_cell_angle_alpha 99.419691
_cell_angle_beta 137.479459
_cell_angle_gamma 87.136212
_cell_volume 474.231336
_symmetry_space_group_name_H-M "P -1"
_symmetry_group_IT_number 2
_symmetry_cell_setting 'triclinic'
loop_
_space_group_symop_operation_xyz
x,y,z
-x,-y,-z
loop_
_atom_site_type_symbol
_atom_site_label
_atom_site_fract_x
_atom_site_fract_y
_atom_site_fract_z
Si Si1 0.124277 0.303899 0.685054
Si Si2 0.417751 0.810436 0.071000
Si Si3 0.928551 0.780416 0.653301
Si Si4 0.386960 0.337558 0.341545
Si Si5 0.804817 0.496879 0.985633
Si Si6 0.308412 0.926541 0.552570
O O1 0.367805 0.245787 0.882178
O O2 0.142059 0.340752 0.538209
O O3 0.914321 0.164283 0.532030
O O4 0.094775 0.452275 0.789492
O O5 0.342179 0.677014 0.120926
O O6 0.500664 0.985787 0.209965
O O7 0.202888 0.829383 0.835366
O O8 0.856640 0.699568 0.740952
O O9 0.791101 0.938291 0.585403
O O10 0.500000 0.500000 0.500000
O O11 0.349182 0.368471 0.159170
O O12 0.557056 0.200600 0.461058
O O13 0.000000 0.500000 0.000000
#
# Coordination Sequence:
#
# PCOD8035960 Si02
#       6
#     2   2   2   2   2   2
#     4  11  27  47  76 109 149 195 247 306 365 440
#     4  11  25  49  76 110 149 192 251 303 369 440
#     4  11  25  48  77 106 149 195 247 304 370 436
#     4  12  26  48  77 107 152 194 247 307 366 439
#     4  12  26  50  73 111 148 192 250 304 366 437
#     4  11  27  47  75 111 149 194 248 304 370 437
#
# _framework density 25.304106999999998
#
# number of rings (size 3 to 8) (size 9 to 14) (size 15 to 20)
#    0.000    0.667    1.667    6.000    4.667    4.000 
#    0.000    0.000    0.000    0.000    0.000    0.000 
#    0.000    0.000    0.000    0.000    0.000    0.000 
#
# Total GULP energy -148700.382197 kJ/mol
# GULP energy per Si atom -12391.698516 kJ/mol
# Density = 2.524651 g / cm^3
# Si number density = 25.304107 Si / 1000 Ang^3
#
#
#
# Elastic Constant Matrix: (Units=GPa)
#
#
# Indices 1 2 3 4 5 6 
#
# 1 126.6591 41.2773 50.4614 8.5209 5.8945 -11.5867
# 2 41.2773 55.9531 32.4865 14.5937 -8.9861 -12.0993
# 3 50.4614 32.4865 155.4875 1.7791 11.2146 -13.8201
# 4 8.5209 14.5937 1.7791 43.9413 8.3111 3.6052
# 5 5.8945 -8.9861 11.2146 8.3111 50.1707 -4.0446
# 6 -11.5867 -12.0993 -13.8201 3.6052 -4.0446 43.0543
#
#
#
# Elastic Compliance Matrix: (Units=1/GPa)
#
#
# Indices 1 2 3 4 5 6 
#
# 1 0.011246 -0.007918 -0.001836 0.001006 -0.002505 -0.000107
# 2 -0.007918 0.032420 -0.004132 -0.011615 0.010196 0.007584
# 3 -0.001836 -0.004132 0.008105 0.001847 -0.002598 0.000548
# 4 0.001006 -0.011615 0.001847 0.028259 -0.007736 -0.005494
# 5 -0.002505 0.010196 -0.002598 -0.007736 0.024260 0.004284
# 6 -0.000107 0.007584 0.000548 -0.005494 0.004284 0.026367
#
#
# Mechanical properties :
#
#
# Convention : Reuss Voigt Hill
#
# Bulk Modulus (GPa) = 41.66924 65.17224 53.42074
# Shear Modulus (GPa) = 30.04268 41.69157 35.86713
#
# Velocity S-wave (km/s) = 3.44941 4.06349 3.76898
# Velocity P-wave (km/s) = 5.68926 6.91574 6.33227
#
# Compressibility (1/GPa) = 0.02399852
#
# Stress axis : x y z
#
# Youngs Moduli (GPa) = 88.91889 30.84553 123.37359
#
# Poissons Ratio (x) = 0.24425 0.22649
# Poissons Ratio (y) = 0.70410 0.50980
# Poissons Ratio (z) = 0.16324 0.12746
#
# Static dielectric constant tensor:
#      x y z
#    x 4.632170 0.236940 0.082100 
#    y 0.236940 4.901430 -0.421650 
#    z 0.082100 -0.421650 4.948990 
# 
# 
# High freq. dielectric constant tensor:
#      x y z
#    x 2.011350 0.001250 0.020050 
#    y 0.001250 2.010280 -0.008080 
#    z 0.020050 -0.008080 2.020220 
# 
# From -- ./inp_files/374672.got.cif
#   From: 2010.06.25/outbox.cif.g09.slc.cpg/sg2_188_cif.got.tgz:374672.got - 2010.06.27 13:26:56.
