data_PCOD8035561
_publ_section_title
;
Structure prediction by ZEFSAII (Michael W. Deem and Ramdas Pophale) SiO2 
 PCOD8035561
Probable space group: P -1
;
_chemical_formula_sum "Si O2"
_cell_formula_units_Z 14
_cell_length_a 18.273964
_cell_length_b 8.818638
_cell_length_c 8.801797
_cell_angle_alpha 114.354013
_cell_angle_beta 126.016120
_cell_angle_gamma 30.647486
_cell_volume 569.600451
_symmetry_space_group_name_H-M "P -1"
_symmetry_group_IT_number 2
_symmetry_cell_setting 'triclinic'
loop_
_space_group_symop_operation_xyz
x,y,z
-x,-y,-z
loop_
_atom_site_type_symbol
_atom_site_label
_atom_site_fract_x
_atom_site_fract_y
_atom_site_fract_z
Si Si1 0.598184 0.336950 0.702505
Si Si2 0.881371 0.999324 0.298006
Si Si3 0.594441 0.216137 0.090471
Si Si4 0.709061 0.682938 0.966309
Si Si5 0.459130 0.932088 0.546987
Si Si6 0.789687 0.481664 0.328671
Si Si7 0.034229 0.116933 0.996387
O O1 0.500000 0.500000 0.500000
O O2 0.492729 0.631704 0.791822
O O3 0.579920 0.168915 0.646395
O O4 0.791026 0.080424 0.818111
O O5 0.013222 0.809518 0.516930
O O6 0.787487 0.971663 0.207733
O O7 0.745526 0.362002 0.284354
O O8 0.967968 0.883714 0.190003
O O9 0.585635 0.033952 0.962216
O O10 0.500000 0.500000 0.000000
O O11 0.750565 0.552839 0.131401
O O12 0.880371 0.471320 0.004584
O O13 0.614250 0.684408 0.754304
O O14 0.500000 0.000000 0.500000
O O15 0.297958 0.235146 0.571092
O O16 0.000000 0.000000 0.000000
#
# Coordination Sequence:
#
# PCOD8035561 Si02
#       7
#     2   2   2   2   2   2   2
#     4  12  28  46  77 111 156 198 255 315 383 454
#     4  11  25  45  76 106 159 195 257 316 388 449
#     4  12  26  49  76 112 151 203 258 317 383 456
#     4  12  27  46  81 109 157 199 261 312 386 457
#     4  12  26  47  74 109 155 197 256 310 386 453
#     4  11  25  45  74 111 146 207 253 317 379 457
#     4  12  26  48  77 114 155 202 257 320 388 454
#
# _framework density 24.578631999999999
#
# number of rings (size 3 to 8) (size 9 to 14) (size 15 to 20)
#    0.000    0.286    2.857    5.571    4.000    2.286 
#    0.000    0.000    0.000    0.000    0.000    0.000 
#    0.000    0.000    0.000    0.000    0.000    0.000 
#
# Total GULP energy -173433.698259 kJ/mol
# GULP energy per Si atom -12388.121304 kJ/mol
# Density = 2.452269 g / cm^3
# Si number density = 24.578632 Si / 1000 Ang^3
#
#
#
# Elastic Constant Matrix: (Units=GPa)
#
#
# Indices 1 2 3 4 5 6 
#
# 1 92.0368 23.6085 29.3924 -9.5275 20.0257 -11.7502
# 2 23.6085 131.1392 28.9722 0.6318 4.3413 -12.8054
# 3 29.3924 28.9722 122.2310 -21.0649 2.6664 -3.0714
# 4 -9.5275 0.6318 -21.0649 41.3798 10.7867 -7.2179
# 5 20.0257 4.3413 2.6664 10.7867 40.0779 4.1456
# 6 -11.7502 -12.8054 -3.0714 -7.2179 4.1456 41.5142
#
#
#
# Elastic Compliance Matrix: (Units=1/GPa)
#
#
# Indices 1 2 3 4 5 6 
#
# 1 0.015309 -0.001480 -0.001932 0.006066 -0.009588 0.005746
# 2 -0.001480 0.008474 -0.001790 -0.001063 0.000033 0.001875
# 3 -0.001932 -0.001790 0.009966 0.004998 -0.000911 0.000599
# 4 0.006066 -0.001063 0.004998 0.033065 -0.013059 0.008812
# 5 -0.009588 0.000033 -0.000911 -0.013059 0.034188 -0.008456
# 6 0.005746 0.001875 0.000599 0.008812 -0.008456 0.028713
#
#
# Mechanical properties :
#
#
# Convention : Reuss Voigt Hill
#
# Bulk Modulus (GPa) = 42.83158 56.59479 49.71319
# Shear Modulus (GPa) = 33.80637 42.15665 37.98151
#
# Velocity S-wave (km/s) = 3.71271 4.14596 3.93530
# Velocity P-wave (km/s) = 5.98692 6.78194 6.39679
#
# Compressibility (1/GPa) = 0.02334726
#
# Stress axis : x y z
#
# Youngs Moduli (GPa) = 65.31965 118.00275 100.33985
#
# Poissons Ratio (x) = 0.17465 0.19383
# Poissons Ratio (y) = 0.09668 0.17956
# Poissons Ratio (z) = 0.12618 0.21117
#
# Static dielectric constant tensor:
#      x y z
#    x 6.027670 -0.656920 0.064240 
#    y -0.656920 5.272670 -0.080800 
#    z 0.064240 -0.080800 4.513850 
# 
# 
# High freq. dielectric constant tensor:
#      x y z
#    x 1.982450 0.001050 -0.000350 
#    y 0.001050 1.990770 -0.005800 
#    z -0.000350 -0.005800 1.990780 
# 
# From -- ./inp_files/329329.got.cif
#   From: 2010.06.25/outbox.cif.g09.slc.cpg/sg2_165_cif.got.tgz:329329.got - 2010.06.27 13:26:56.
