data_PCOD8035697
_publ_section_title
;
Structure prediction by ZEFSAII (Michael W. Deem and Ramdas Pophale) SiO2 
 PCOD8035697
Probable space group: P -1
;
_chemical_formula_sum "Si O2"
_cell_formula_units_Z 14
_cell_length_a 8.412934
_cell_length_b 9.854198
_cell_length_c 17.451669
_cell_angle_alpha 59.433060
_cell_angle_beta 30.433338
_cell_angle_gamma 62.283540
_cell_volume 629.834378
_symmetry_space_group_name_H-M "P -1"
_symmetry_group_IT_number 2
_symmetry_cell_setting 'triclinic'
loop_
_space_group_symop_operation_xyz
x,y,z
-x,-y,-z
loop_
_atom_site_type_symbol
_atom_site_label
_atom_site_fract_x
_atom_site_fract_y
_atom_site_fract_z
Si Si1 0.148999 0.393630 0.905059
Si Si2 0.734107 0.920181 0.726361
Si Si3 0.889617 0.782208 0.305122
Si Si4 0.308389 0.396025 0.429738
Si Si5 0.623820 0.942303 0.587800
Si Si6 0.313993 0.663605 0.019997
Si Si7 0.460094 0.880221 0.120392
O O1 0.412597 0.486160 0.725398
O O2 0.265691 0.253282 0.953472
O O3 0.894793 0.330867 0.970744
O O4 0.000000 0.500000 0.000000
O O5 0.663563 0.912600 0.669138
O O6 0.523578 0.056191 0.817788
O O7 0.618753 0.764768 0.858549
O O8 0.096784 0.949294 0.586616
O O9 0.694778 0.646126 0.465372
O O10 0.080031 0.718579 0.170204
O O11 0.125409 0.809210 0.269068
O O12 0.694716 0.948616 0.323844
O O13 0.376045 0.229777 0.402867
O O14 0.000000 0.500000 0.500000
O O15 0.500000 0.500000 0.000000
O O16 0.500000 0.000000 0.000000
#
# Coordination Sequence:
#
# PCOD8035697 Si02
#       7
#     2   2   2   2   2   2   2
#     4  12  28  47  72 105 144 192 234 293 358 419
#     4  11  25  46  72  99 146 182 240 288 355 419
#     4  12  26  45  75 106 138 188 241 293 357 417
#     4  12  26  47  73 105 148 182 237 294 357 422
#     4  11  26  45  75 107 137 189 239 295 351 423
#     4  12  29  47  71 106 146 187 239 296 359 423
#     4  12  25  45  73 105 143 186 240 288 355 427
#
# _framework density 22.228065999999998
#
# number of rings (size 3 to 8) (size 9 to 14) (size 15 to 20)
#    0.000    0.286    4.286    3.000    8.000    2.857 
#    0.000    0.000    0.000    0.000    0.000    0.000 
#    0.000    0.000    0.000    0.000    0.000    0.000 
#
# Total GULP energy -173438.768193 kJ/mol
# GULP energy per Si atom -12388.483442 kJ/mol
# Density = 2.217747 g / cm^3
# Si number density = 22.228066 Si / 1000 Ang^3
#
#
#
# Elastic Constant Matrix: (Units=GPa)
#
#
# Indices 1 2 3 4 5 6 
#
# 1 81.9575 49.6181 22.3752 9.1861 1.5141 2.0484
# 2 49.6181 161.8386 51.0885 24.2338 1.4008 -16.0988
# 3 22.3752 51.0885 105.2217 3.4846 15.9159 3.9204
# 4 9.1861 24.2338 3.4846 40.7490 0.7781 -2.8318
# 5 1.5141 1.4008 15.9159 0.7781 41.1946 6.7407
# 6 2.0484 -16.0988 3.9204 -2.8318 6.7407 44.0953
#
#
#
# Elastic Compliance Matrix: (Units=1/GPa)
#
#
# Indices 1 2 3 4 5 6 
#
# 1 0.015351 -0.004492 -0.001025 -0.000874 0.000390 -0.002378
# 2 -0.004492 0.009792 -0.003922 -0.004232 0.000816 0.003736
# 3 -0.001025 -0.003922 0.012295 0.001475 -0.004326 -0.001721
# 4 -0.000874 -0.004232 0.001475 0.027164 -0.000949 0.000254
# 5 0.000390 0.000816 -0.004326 -0.000949 0.026486 -0.003445
# 6 -0.002378 0.003736 -0.001721 0.000254 -0.003445 0.024849
#
#
# Mechanical properties :
#
#
# Convention : Reuss Voigt Hill
#
# Bulk Modulus (GPa) = 53.87460 66.13125 60.00293
# Shear Modulus (GPa) = 35.46065 40.27017 37.86541
#
# Velocity S-wave (km/s) = 3.99847 4.26100 4.13182
# Velocity P-wave (km/s) = 6.75328 7.35010 7.05800
#
# Compressibility (1/GPa) = 0.01856162
#
# Stress axis : x y z
#
# Youngs Moduli (GPa) = 65.14274 102.11995 81.33097
#
# Poissons Ratio (x) = 0.45871 0.08335
# Poissons Ratio (y) = 0.29261 0.31897
# Poissons Ratio (z) = 0.06676 0.40050
#
# Static dielectric constant tensor:
#      x y z
#    x 4.159000 0.263030 -0.289500 
#    y 0.263030 4.080990 0.152450 
#    z -0.289500 0.152450 4.158120 
# 
# 
# High freq. dielectric constant tensor:
#      x y z
#    x 1.876700 0.002560 0.006490 
#    y 0.002560 1.890170 -0.000270 
#    z 0.006490 -0.000270 1.899990 
# 
# From -- ./inp_files/157450.got.cif
#   From: 2010.06.25/outbox.cif.g09.slc.cpg/sg2_79_cif.got.tgz:157450.got - 2010.06.27 13:26:56.
