data_PCOD8035090
_publ_section_title
;
Structure prediction by ZEFSAII (Michael W. Deem and Ramdas Pophale) SiO2 
 PCOD8035090
Probable space group: P -1
;
_chemical_formula_sum "Si O2"
_cell_formula_units_Z 16
_cell_length_a 15.218838
_cell_length_b 9.618625
_cell_length_c 9.383442
_cell_angle_alpha 73.348898
_cell_angle_beta 73.897923
_cell_angle_gamma 130.225080
_cell_volume 778.568679
_symmetry_space_group_name_H-M "P -1"
_symmetry_group_IT_number 2
_symmetry_cell_setting 'triclinic'
loop_
_space_group_symop_operation_xyz
x,y,z
-x,-y,-z
loop_
_atom_site_type_symbol
_atom_site_label
_atom_site_fract_x
_atom_site_fract_y
_atom_site_fract_z
Si Si1 0.597598 0.696191 0.780010
Si Si2 0.611499 0.022244 0.777563
Si Si3 0.100484 0.047422 0.828517
Si Si4 0.910332 0.534486 0.009548
Si Si5 0.715683 0.338611 0.885162
Si Si6 0.408292 0.484261 0.649550
Si Si7 0.153351 0.216915 0.447768
Si Si8 0.643715 0.250217 0.431129
O O1 0.483551 0.588438 0.737347
O O2 0.733214 0.768516 0.647275
O O3 0.668250 0.933007 0.738463
O O4 0.500000 0.500000 0.000000
O O5 0.677505 0.149820 0.863205
O O6 0.674211 0.213512 0.578719
O O7 0.432192 0.793684 0.928168
O O8 0.249974 0.206039 0.804505
O O9 0.128179 0.184592 0.638446
O O10 0.000000 0.000000 0.000000
O O11 0.031709 0.812184 0.875240
O O12 0.787709 0.406751 0.222959
O O13 0.836082 0.439914 0.915946
O O14 0.000000 0.500000 0.000000
O O15 0.777590 0.543656 0.698031
O O16 0.500000 0.500000 0.500000
O O17 0.387608 0.620954 0.560398
O O18 0.000000 0.000000 0.500000
O O19 0.500000 0.000000 0.500000
#
# Coordination Sequence:
#
# PCOD8035090 Si02
#       8
#     2   2   2   2   2   2   2   2
#     4  12  26  44  70 108 140 181 240 288 345 423
#     4  11  25  44  75 102 139 182 234 290 350 410
#     4  12  27  48  72 102 143 190 234 291 357 419
#     4  12  28  47  69 104 144 187 234 287 354 425
#     4  11  24  48  69 102 140 183 231 288 353 414
#     4  12  26  45  73 106 138 185 246 292 347 419
#     4  12  26  47  74 101 146 187 229 293 360 416
#     4  12  24  45  74 101 143 184 233 293 352 414
#
# _framework density 20.550530999999999
#
# number of rings (size 3 to 8) (size 9 to 14) (size 15 to 20)
#    0.000    0.250    7.500    0.750    5.250    1.000 
#    0.000    1.250    0.000    0.000    0.000    0.000 
#    0.000    0.000    0.000    0.000    0.000    0.000 
#
# Total GULP energy -198458.180412 kJ/mol
# GULP energy per Si atom -12403.636276 kJ/mol
# Density = 2.050376 g / cm^3
# Si number density = 20.550531 Si / 1000 Ang^3
#
#
#
# Elastic Constant Matrix: (Units=GPa)
#
#
# Indices 1 2 3 4 5 6 
#
# 1 139.4408 67.4897 63.9524 2.0531 -2.2459 -11.6946
# 2 67.4897 137.9921 40.3750 -3.9367 -0.7910 -1.4888
# 3 63.9524 40.3750 141.0932 2.4733 3.3478 -14.7185
# 4 2.0531 -3.9367 2.4733 37.7653 -0.6865 -8.6349
# 5 -2.2459 -0.7910 3.3478 -0.6865 38.5332 -4.5521
# 6 -11.6946 -1.4888 -14.7185 -8.6349 -4.5521 32.0313
#
#
#
# Elastic Compliance Matrix: (Units=1/GPa)
#
#
# Indices 1 2 3 4 5 6 
#
# 1 0.011151 -0.004383 -0.003582 -0.000280 0.001139 0.002308
# 2 -0.004383 0.009678 -0.000936 0.001003 -0.000114 -0.001326
# 3 -0.003582 -0.000936 0.009291 0.000129 -0.000696 0.002854
# 4 -0.000280 0.001003 0.000129 0.028415 0.001429 0.007867
# 5 0.001139 -0.000114 -0.000696 0.001429 0.026604 0.004257
# 6 0.002308 -0.001326 0.002854 0.007867 0.004257 0.036037
#
#
# Mechanical properties :
#
#
# Convention : Reuss Voigt Hill
#
# Bulk Modulus (GPa) = 81.17462 84.68447 82.92955
# Shear Modulus (GPa) = 34.94434 38.11322 36.52878
#
# Velocity S-wave (km/s) = 4.12808 4.31119 4.22063
# Velocity P-wave (km/s) = 7.89349 8.12891 8.01206
#
# Compressibility (1/GPa) = 0.01231912
#
# Stress axis : x y z
#
# Youngs Moduli (GPa) = 89.67448 103.32932 107.63292
#
# Poissons Ratio (x) = 0.45285 0.38552
# Poissons Ratio (y) = 0.39300 0.10076
# Poissons Ratio (z) = 0.32119 0.09673
#
# Static dielectric constant tensor:
#      x y z
#    x 3.729580 0.086640 -0.012730 
#    y 0.086640 3.816080 -0.007980 
#    z -0.012730 -0.007980 3.806470 
# 
# 
# High freq. dielectric constant tensor:
#      x y z
#    x 1.801850 0.000630 -0.000920 
#    y 0.000630 1.826170 0.000050 
#    z -0.000920 0.000050 1.818240 
# 
# From -- ./inp_files/206249.got.cif
#   From: 2010.06.25/outbox.cif.g09.slc.cpg/sg2_104_cif.got.tgz:206249.got - 2010.06.27 13:26:56.
