data_PCOD8035206
_publ_section_title
;
Structure prediction by ZEFSAII (Michael W. Deem and Ramdas Pophale) SiO2 
 PCOD8035206
Probable space group: P -1
;
_chemical_formula_sum "Si O2"
_cell_formula_units_Z 14
_cell_length_a 9.468976
_cell_length_b 6.926405
_cell_length_c 17.889312
_cell_angle_alpha 124.107634
_cell_angle_beta 45.491181
_cell_angle_gamma 125.839291
_cell_volume 654.976608
_symmetry_space_group_name_H-M "P -1"
_symmetry_group_IT_number 2
_symmetry_cell_setting 'triclinic'
loop_
_space_group_symop_operation_xyz
x,y,z
-x,-y,-z
loop_
_atom_site_type_symbol
_atom_site_label
_atom_site_fract_x
_atom_site_fract_y
_atom_site_fract_z
Si Si1 0.536964 0.224913 0.138437
Si Si2 0.260129 0.869342 0.276073
Si Si3 0.932000 0.044637 0.952735
Si Si4 0.501581 0.143867 0.384262
Si Si5 0.289795 0.261703 0.754680
Si Si6 0.368445 0.406021 0.102035
Si Si7 0.208641 0.323691 0.634096
O O1 0.548967 0.463700 0.235346
O O2 0.487069 0.265421 0.079702
O O3 0.349091 0.997583 0.192195
O O4 0.753786 0.170468 0.051068
O O5 0.333646 0.631160 0.208793
O O6 0.009714 0.782123 0.351319
O O7 0.350639 0.059503 0.350618
O O8 0.130629 0.221616 0.874131
O O9 0.854196 0.785148 0.881547
O O10 0.000000 0.000000 0.000000
O O11 0.372721 0.205778 0.513076
O O12 0.700572 0.380047 0.340965
O O13 0.583428 0.928266 0.334631
O O14 0.168766 0.242039 0.717188
O O15 0.500000 0.500000 0.000000
#
# Coordination Sequence:
#
# PCOD8035206 Si02
#       7
#     2   2   2   2   2   2   2
#     4  12  25  44  66 100 141 182 217 281 339 406
#     4  12  24  45  71 100 138 178 229 276 347 404
#     4  12  26  43  69 102 138 183 230 274 338 413
#     4  11  24  50  67 101 137 174 233 287 343 398
#     4  12  24  44  69  98 141 178 225 280 344 402
#     4  12  25  42  66  94 139 181 221 275 335 403
#     4  11  26  43  76  99 131 183 228 288 341 401
#
# _framework density 21.374808000000002
#
# number of rings (size 3 to 8) (size 9 to 14) (size 15 to 20)
#    0.000    0.286    4.286    5.143    4.000    0.000 
#    0.000    0.714    0.000    0.000    0.000    0.000 
#    0.000    0.000    0.000    0.000    0.000    0.000 
#
# Total GULP energy -173704.263971 kJ/mol
# GULP energy per Si atom -12407.447426 kJ/mol
# Density = 2.132616 g / cm^3
# Si number density = 21.374808 Si / 1000 Ang^3
#
#
#
# Elastic Constant Matrix: (Units=GPa)
#
#
# Indices 1 2 3 4 5 6 
#
# 1 126.0672 47.2156 25.5004 -5.5256 0.9530 -2.7123
# 2 47.2156 117.4813 38.0975 9.2108 -9.1740 0.2994
# 3 25.5004 38.0975 77.9473 1.9926 -5.1486 -8.4252
# 4 -5.5256 9.2108 1.9926 37.7082 -0.6811 5.4566
# 5 0.9530 -9.1740 -5.1486 -0.6811 40.5184 -1.7699
# 6 -2.7123 0.2994 -8.4252 5.4566 -1.7699 42.0422
#
#
#
# Elastic Compliance Matrix: (Units=1/GPa)
#
#
# Indices 1 2 3 4 5 6 
#
# 1 0.009741 -0.003705 -0.001519 0.002392 -0.001221 -0.000011
# 2 -0.003705 0.011848 -0.004439 -0.003059 0.002123 -0.000727
# 3 -0.001519 -0.004439 0.015934 -0.000427 0.001189 0.003232
# 4 0.002392 -0.003059 -0.000427 0.028150 -0.000486 -0.003583
# 5 -0.001221 0.002123 0.001189 -0.000486 0.025388 0.001276
# 6 -0.000011 -0.000727 0.003232 -0.003583 0.001276 0.024957
#
#
# Mechanical properties :
#
#
# Convention : Reuss Voigt Hill
#
# Bulk Modulus (GPa) = 54.95220 60.34700 57.64960
# Shear Modulus (GPa) = 35.35829 38.09924 36.72876
#
# Velocity S-wave (km/s) = 4.07160 4.22647 4.14976
# Velocity P-wave (km/s) = 6.91871 7.21883 7.07036
#
# Compressibility (1/GPa) = 0.01819763
#
# Stress axis : x y z
#
# Youngs Moduli (GPa) = 102.65792 84.40238 62.75727
#
# Poissons Ratio (x) = 0.31274 0.09532
# Poissons Ratio (y) = 0.38038 0.27857
# Poissons Ratio (z) = 0.15592 0.37464
#
# Static dielectric constant tensor:
#      x y z
#    x 3.862370 0.018520 0.085740 
#    y 0.018520 4.345720 0.150700 
#    z 0.085740 0.150700 3.734510 
# 
# 
# High freq. dielectric constant tensor:
#      x y z
#    x 1.847690 0.000180 0.006340 
#    y 0.000180 1.857140 0.008650 
#    z 0.006340 0.008650 1.836050 
# 
# From -- ./inp_files/27248.got.cif
#   From: 2010.06.25/outbox.cif.g09.slc.cpg/sg2_14_cif.got.tgz:27248.got - 2010.06.27 13:26:56.
