data_PCOD8035066
_publ_section_title
;
Structure prediction by ZEFSAII (Michael W. Deem and Ramdas Pophale) SiO2 
 PCOD8035066
Probable space group: P -1
;
_chemical_formula_sum "Si O2"
_cell_formula_units_Z 14
_cell_length_a 9.114503
_cell_length_b 23.135744
_cell_length_c 5.018713
_cell_angle_alpha 100.825942
_cell_angle_beta 101.111748
_cell_angle_gamma 33.678678
_cell_volume 575.129174
_symmetry_space_group_name_H-M "P -1"
_symmetry_group_IT_number 2
_symmetry_cell_setting 'triclinic'
loop_
_space_group_symop_operation_xyz
x,y,z
-x,-y,-z
loop_
_atom_site_type_symbol
_atom_site_label
_atom_site_fract_x
_atom_site_fract_y
_atom_site_fract_z
Si Si1 0.898558 0.471333 0.828416
Si Si2 0.361254 0.989023 0.814455
Si Si3 0.301733 0.672599 0.788438
Si Si4 0.980878 0.678663 0.933134
Si Si5 0.619292 0.733651 0.483558
Si Si6 0.813724 0.217942 0.638323
Si Si7 0.450607 0.136346 0.742871
O O1 0.602066 0.572205 0.694803
O O2 0.103343 0.387520 0.598834
O O3 0.000000 0.500000 0.000000
O O4 0.879955 0.425140 0.999300
O O5 0.477202 0.084927 0.452659
O O6 0.068179 0.098868 0.712103
O O7 0.500000 0.000000 0.000000
O O8 0.353525 0.944616 0.015594
O O9 0.123954 0.760660 0.573760
O O10 0.184948 0.645512 0.780934
O O11 0.305818 0.708025 0.091976
O O12 0.702575 0.751306 0.759863
O O13 0.863320 0.763013 0.186710
O O14 0.407439 0.755381 0.524313
O O15 0.488986 0.815271 0.272977
#
# Coordination Sequence:
#
# PCOD8035066 Si02
#       7
#     2   2   2   2   2   2   2
#     4  11  24  47  77 109 149 198 245 300 368 439
#     4  12  26  46  77 109 149 193 248 302 375 431
#     4  12  28  47  74 110 154 190 246 306 361 436
#     4  11  26  46  77 111 148 196 246 303 370 433
#     4  11  26  47  77 107 153 195 246 298 376 436
#     4  12  29  47  74 111 148 197 247 302 368 437
#     4  11  25  47  74 107 148 193 242 308 363 435
#
# _framework density 24.342355000000001
#
# number of rings (size 3 to 8) (size 9 to 14) (size 15 to 20)
#    0.000    0.571    2.857    3.429   10.000    2.857 
#    0.000    0.000    0.000    0.000    0.000    0.000 
#    0.000    0.000    0.000    0.000    0.000    0.000 
#
# Total GULP energy -173578.266619 kJ/mol
# GULP energy per Si atom -12398.447616 kJ/mol
# Density = 2.428695 g / cm^3
# Si number density = 24.342355 Si / 1000 Ang^3
#
#
#
# Elastic Constant Matrix: (Units=GPa)
#
#
# Indices 1 2 3 4 5 6 
#
# 1 107.0507 42.1150 35.3027 3.3806 2.5068 -2.0906
# 2 42.1150 124.0884 43.0504 -1.0902 -1.8842 9.4078
# 3 35.3027 43.0504 123.9972 -0.6248 -4.3691 6.8052
# 4 3.3806 -1.0902 -0.6248 42.8400 6.0537 -5.3798
# 5 2.5068 -1.8842 -4.3691 6.0537 37.9185 -6.7538
# 6 -2.0906 9.4078 6.8052 -5.3798 -6.7538 29.3820
#
#
#
# Elastic Compliance Matrix: (Units=1/GPa)
#
#
# Indices 1 2 3 4 5 6 
#
# 1 0.011457 -0.003278 -0.002268 -0.000657 -0.000701 0.002109
# 2 -0.003278 0.010250 -0.002467 0.000128 -0.000103 -0.002944
# 3 -0.002268 -0.002467 0.009676 -0.000047 0.000898 -0.001415
# 4 -0.000657 0.000128 -0.000047 0.024305 -0.003187 0.003641
# 5 -0.000701 -0.000103 0.000898 -0.003187 0.028029 0.005634
# 6 0.002109 -0.002944 -0.001415 0.003641 0.005634 0.037416
#
#
# Mechanical properties :
#
#
# Convention : Reuss Voigt Hill
#
# Bulk Modulus (GPa) = 65.11266 66.23030 65.67148
# Shear Modulus (GPa) = 35.14258 37.67264 36.40761
#
# Velocity S-wave (km/s) = 3.80370 3.93824 3.87156
# Velocity P-wave (km/s) = 6.78952 6.92435 6.85727
#
# Compressibility (1/GPa) = 0.01535800
#
# Stress axis : x y z
#
# Youngs Moduli (GPa) = 87.28198 97.56184 103.35112
#
# Poissons Ratio (x) = 0.31982 0.23435
# Poissons Ratio (y) = 0.28612 0.25494
# Poissons Ratio (z) = 0.19791 0.24066
#
# Static dielectric constant tensor:
#      x y z
#    x 4.248660 0.190550 -0.112360 
#    y 0.190550 4.376510 0.347520 
#    z -0.112360 0.347520 4.398990 
# 
# 
# High freq. dielectric constant tensor:
#      x y z
#    x 1.960420 0.016650 -0.008180 
#    y 0.016650 1.982260 -0.000660 
#    z -0.008180 -0.000660 1.974560 
# 
# From -- ./inp_files/34076.got.cif
#   From: 2010.06.25/outbox.cif.g09.slc.cpg/sg2_18_cif.got.tgz:34076.got - 2010.06.27 13:26:56.
