data_PCOD8035567
_publ_section_title
;
Structure prediction by ZEFSAII (Michael W. Deem and Ramdas Pophale) SiO2 
 PCOD8035567
Probable space group: P -1
;
_chemical_formula_sum "Si O2"
_cell_formula_units_Z 14
_cell_length_a 26.229191
_cell_length_b 28.779538
_cell_length_c 5.127860
_cell_angle_alpha 75.537331
_cell_angle_beta 75.744063
_cell_angle_gamma 9.344031
_cell_volume 608.560936
_symmetry_space_group_name_H-M "P -1"
_symmetry_group_IT_number 2
_symmetry_cell_setting 'triclinic'
loop_
_space_group_symop_operation_xyz
x,y,z
-x,-y,-z
loop_
_atom_site_type_symbol
_atom_site_label
_atom_site_fract_x
_atom_site_fract_y
_atom_site_fract_z
Si Si1 0.322669 0.792666 0.627323
Si Si2 0.118220 0.421338 0.211350
Si Si3 0.152923 0.231501 0.862088
Si Si4 0.789649 0.918393 0.827561
Si Si5 0.433175 0.377414 0.946891
Si Si6 0.595538 0.443817 0.708460
Si Si7 0.459823 0.248008 0.267159
O O1 0.367661 0.784941 0.325752
O O2 0.402755 0.666406 0.629297
O O3 0.539395 0.612035 0.854403
O O4 0.965151 0.120956 0.704409
O O5 0.000000 0.500000 0.500000
O O6 0.964315 0.612005 0.107109
O O7 0.493140 0.083702 0.243244
O O8 0.000000 0.500000 0.000000
O O9 0.910778 0.429496 0.665611
O O10 0.125150 0.214457 0.143330
O O11 0.075543 0.695589 0.858516
O O12 0.650006 0.065459 0.538676
O O13 0.547849 0.135113 0.069907
O O14 0.549425 0.221335 0.116231
O O15 0.500000 0.500000 0.500000
O O16 0.500000 0.500000 0.000000
#
# Coordination Sequence:
#
# PCOD8035567 Si02
#       7
#     2   2   2   2   2   2   2
#     4  12  26  45  76 104 148 185 234 302 352 416
#     4  12  28  48  74 104 142 184 242 304 354 416
#     4  11  26  50  74 106 142 192 236 289 366 420
#     4  11  25  45  75 103 149 186 235 287 348 450
#     4  11  26  43  70 114 144 187 234 289 366 420
#     4  12  26  48  72 104 140 190 246 292 350 416
#     4  11  25  45  75 103 149 186 235 287 348 450
#
# _framework density 23.005089000000002
#
# number of rings (size 3 to 8) (size 9 to 14) (size 15 to 20)
#    0.000    0.571    1.429    5.143    8.000    5.714 
#    0.000    0.000    0.000    0.000    0.000    0.000 
#    0.000    0.000    0.000    0.000    0.000    0.000 
#
# Total GULP energy -173586.222701 kJ/mol
# GULP energy per Si atom -12399.015907 kJ/mol
# Density = 2.295273 g / cm^3
# Si number density = 23.005089 Si / 1000 Ang^3
#
#
#
# Elastic Constant Matrix: (Units=GPa)
#
#
# Indices 1 2 3 4 5 6 
#
# 1 134.2429 51.3457 81.5222 -0.3800 -10.7527 -3.2366
# 2 51.3457 135.8901 64.0626 -9.1676 -1.6526 -8.4461
# 3 81.5222 64.0626 201.1971 -18.0188 8.7423 -13.2845
# 4 -0.3800 -9.1676 -18.0188 40.5048 0.9755 0.1408
# 5 -10.7527 -1.6526 8.7423 0.9755 39.4300 -6.2777
# 6 -3.2366 -8.4461 -13.2845 0.1408 -6.2777 43.4635
#
#
#
# Elastic Compliance Matrix: (Units=1/GPa)
#
#
# Indices 1 2 3 4 5 6 
#
# 1 0.011201 -0.002396 -0.004181 -0.002390 0.003886 -0.000340
# 2 -0.002396 0.009274 -0.001808 0.001262 0.000281 0.001108
# 3 -0.004181 -0.001808 0.007719 0.003048 -0.002799 0.001283
# 4 -0.002390 0.001262 0.003048 0.026349 -0.001823 0.000650
# 5 0.003886 0.000281 -0.002799 -0.001823 0.027654 0.003489
# 6 -0.000340 0.001108 0.001283 0.000650 0.003489 0.024092
#
#
# Mechanical properties :
#
#
# Convention : Reuss Voigt Hill
#
# Bulk Modulus (GPa) = 87.53623 96.13236 91.83429
# Shear Modulus (GPa) = 39.41123 42.97295 41.19209
#
# Velocity S-wave (km/s) = 4.14352 4.32670 4.23610
# Velocity P-wave (km/s) = 7.81185 8.17549 7.99574
#
# Compressibility (1/GPa) = 0.01142384
#
# Stress axis : x y z
#
# Youngs Moduli (GPa) = 89.27843 107.82698 129.54668
#
# Poissons Ratio (x) = 0.25840 0.54160
# Poissons Ratio (y) = 0.21395 0.23423
# Poissons Ratio (z) = 0.37325 0.19496
#
# Static dielectric constant tensor:
#      x y z
#    x 4.428670 -0.010270 -0.142830 
#    y -0.010270 4.476850 -0.003090 
#    z -0.142830 -0.003090 4.092460 
# 
# 
# High freq. dielectric constant tensor:
#      x y z
#    x 1.926850 -0.005680 -0.011160 
#    y -0.005680 1.927280 -0.006170 
#    z -0.011160 -0.006170 1.912880 
# 
# From -- ./inp_files/125298.got.cif
#   From: 2010.06.25/outbox.cif.g09.slc.cpg/sg2_63_cif.got.tgz:125298.got - 2010.06.27 13:26:56.
