data_PCOD8035860
_publ_section_title
;
Structure prediction by ZEFSAII (Michael W. Deem and Ramdas Pophale) SiO2 
 PCOD8035860
Probable space group: P -1
;
_chemical_formula_sum "Si O2"
_cell_formula_units_Z 14
_cell_length_a 13.997031
_cell_length_b 14.713140
_cell_length_c 8.473941
_cell_angle_alpha 109.347780
_cell_angle_beta 50.725057
_cell_angle_gamma 150.294248
_cell_volume 550.182362
_symmetry_space_group_name_H-M "P -1"
_symmetry_group_IT_number 2
_symmetry_cell_setting 'triclinic'
loop_
_space_group_symop_operation_xyz
x,y,z
-x,-y,-z
loop_
_atom_site_type_symbol
_atom_site_label
_atom_site_fract_x
_atom_site_fract_y
_atom_site_fract_z
Si Si1 0.998312 0.221068 0.550232
Si Si2 0.510189 0.491773 0.300316
Si Si3 0.884536 0.018748 0.062998
Si Si4 0.052560 0.451261 0.152745
Si Si5 0.347806 0.177900 0.156798
Si Si6 0.130874 0.700653 0.062162
Si Si7 0.694553 0.050602 0.474012
O O1 0.969633 0.227954 0.401759
O O2 0.337514 0.458564 0.376698
O O3 0.845740 0.012491 0.622942
O O4 0.820250 0.169177 0.816176
O O5 0.500000 0.500000 0.500000
O O6 0.345244 0.283923 0.285325
O O7 0.843947 0.719362 0.046873
O O8 0.650587 0.920018 0.343028
O O9 0.785151 0.928423 0.938148
O O10 0.000000 0.000000 0.000000
O O11 0.096361 0.438441 0.922075
O O12 0.769285 0.200551 0.380684
O O13 0.327998 0.632200 0.077470
O O14 0.007330 0.533687 0.216960
O O15 0.421113 0.872311 0.768789
#
# Coordination Sequence:
#
# PCOD8035860 Si02
#       7
#     2   2   2   2   2   2   2
#     4  12  26  46  79 110 151 201 255 311 381 452
#     4  12  26  48  78 110 152 197 250 313 381 454
#     4  12  29  47  75 114 154 200 252 315 381 448
#     4  11  25  47  75 106 152 196 254 309 380 441
#     4  12  25  50  76 113 151 196 256 307 385 453
#     4  11  26  52  73 109 153 204 254 310 379 453
#     4  12  26  49  74 111 153 196 256 317 371 453
#
# _framework density 25.446107999999999
#
# number of rings (size 3 to 8) (size 9 to 14) (size 15 to 20)
#    0.000    0.286    4.286    3.857    4.000    4.000 
#    0.000    0.000    0.000    0.000    0.000    0.000 
#    0.000    0.000    0.000    0.000    0.000    0.000 
#
# Total GULP energy -173495.246361 kJ/mol
# GULP energy per Si atom -12392.517597 kJ/mol
# Density = 2.538819 g / cm^3
# Si number density = 25.446108 Si / 1000 Ang^3
#
#
#
# Elastic Constant Matrix: (Units=GPa)
#
#
# Indices 1 2 3 4 5 6 
#
# 1 111.7246 52.7346 30.6870 -0.6316 15.6170 -5.7234
# 2 52.7346 147.5029 49.7375 17.7608 2.5939 1.5296
# 3 30.6870 49.7375 87.5569 12.8541 -8.7410 -0.5742
# 4 -0.6316 17.7608 12.8541 43.9759 1.9711 -2.7199
# 5 15.6170 2.5939 -8.7410 1.9711 33.4930 -1.7874
# 6 -5.7234 1.5296 -0.5742 -2.7199 -1.7874 36.4127
#
#
#
# Elastic Compliance Matrix: (Units=1/GPa)
#
#
# Indices 1 2 3 4 5 6 
#
# 1 0.012661 -0.003631 -0.003474 0.003083 -0.006604 0.001994
# 2 -0.003631 0.009736 -0.003829 -0.002945 0.000046 -0.001258
# 3 -0.003474 -0.003829 0.015947 -0.003451 0.006277 -0.000083
# 4 0.003083 -0.002945 -0.003451 0.025278 -0.003477 0.002271
# 5 -0.006604 0.000046 0.006277 -0.003477 0.034803 0.000508
# 6 0.001994 -0.001258 -0.000083 0.002271 0.000508 0.028022
#
#
# Mechanical properties :
#
#
# Convention : Reuss Voigt Hill
#
# Bulk Modulus (GPa) = 60.69587 68.12251 64.40919
# Shear Modulus (GPa) = 32.50836 37.01801 34.76319
#
# Velocity S-wave (km/s) = 3.57814 3.81827 3.70016
# Velocity P-wave (km/s) = 6.40120 6.80208 6.60468
#
# Compressibility (1/GPa) = 0.01647558
#
# Stress axis : x y z
#
# Youngs Moduli (GPa) = 78.98107 102.71483 62.70955
#
# Poissons Ratio (x) = 0.37296 0.21783
# Poissons Ratio (y) = 0.28678 0.24013
# Poissons Ratio (z) = 0.27436 0.39332
#
# Static dielectric constant tensor:
#      x y z
#    x 5.204660 0.364550 -0.270930 
#    y 0.364550 5.130630 -0.490330 
#    z -0.270930 -0.490330 4.795110 
# 
# 
# High freq. dielectric constant tensor:
#      x y z
#    x 2.037970 0.011900 -0.005910 
#    y 0.011900 2.029980 -0.000680 
#    z -0.005910 -0.000680 2.003650 
# 
# From -- ./inp_files/315544.got.cif
#   From: 2010.06.25/outbox.cif.g09.slc.cpg/sg2_158_cif.got.tgz:315544.got - 2010.06.27 13:26:56.
