data_PCOD8035962
_publ_section_title
;
Structure prediction by ZEFSAII (Michael W. Deem and Ramdas Pophale) SiO2 
 PCOD8035962
Probable space group: P -1
;
_chemical_formula_sum "Si O2"
_cell_formula_units_Z 14
_cell_length_a 18.081843
_cell_length_b 11.483689
_cell_length_c 8.818058
_cell_angle_alpha 143.895911
_cell_angle_beta 44.644302
_cell_angle_gamma 150.723616
_cell_volume 527.485191
_symmetry_space_group_name_H-M "P -1"
_symmetry_group_IT_number 2
_symmetry_cell_setting 'triclinic'
loop_
_space_group_symop_operation_xyz
x,y,z
-x,-y,-z
loop_
_atom_site_type_symbol
_atom_site_label
_atom_site_fract_x
_atom_site_fract_y
_atom_site_fract_z
Si Si1 0.125768 0.778235 0.293179
Si Si2 0.343457 0.403290 0.623997
Si Si3 0.307162 0.470722 0.412155
Si Si4 0.291089 0.719469 0.204724
Si Si5 0.211891 0.755454 0.816390
Si Si6 0.839496 0.763150 0.908959
Si Si7 0.625465 0.813163 0.238049
O O1 0.169059 0.644665 0.188209
O O2 0.945871 0.552673 0.335980
O O3 0.207391 0.088039 0.562774
O O4 0.180467 0.830997 0.095778
O O5 0.500000 0.500000 0.500000
O O6 0.285277 0.364349 0.498966
O O7 0.374453 0.651383 0.926008
O O8 0.330776 0.739723 0.658955
O O9 0.442567 0.533191 0.188440
O O10 0.158798 0.225028 0.265361
O O11 0.396000 0.037817 0.448368
O O12 0.215643 0.527972 0.264750
O O13 0.285238 0.004467 0.851674
O O14 0.718311 0.768151 0.144395
O O15 0.000000 0.000000 0.000000
#
# Coordination Sequence:
#
# PCOD8035962 Si02
#       7
#     2   2   2   2   2   2   2
#     4  11  26  48  74 107 153 197 251 315 379 450
#     4  12  28  48  76 111 156 201 256 310 378 459
#     4  12  26  50  78 109 152 203 251 315 382 445
#     4  12  26  44  73 109 151 196 253 309 378 439
#     4  11  25  48  77 108 145 202 254 311 382 449
#     4  12  28  47  76 113 151 198 254 312 382 452
#     4  12  27  49  77 108 155 196 256 316 376 450
#
# _framework density 26.541028000000001
#
# number of rings (size 3 to 8) (size 9 to 14) (size 15 to 20)
#    0.000    0.286    2.857    5.143    6.000    4.000 
#    0.000    0.000    0.000    0.000    0.000    0.000 
#    0.000    0.000    0.000    0.000    0.000    0.000 
#
# Total GULP energy -173563.943786 kJ/mol
# GULP energy per Si atom -12397.424556 kJ/mol
# Density = 2.648062 g / cm^3
# Si number density = 26.541028 Si / 1000 Ang^3
#
#
#
# Elastic Constant Matrix: (Units=GPa)
#
#
# Indices 1 2 3 4 5 6 
#
# 1 180.6231 50.9250 50.4063 6.9922 3.0906 5.0724
# 2 50.9250 107.5344 20.0450 8.0129 -3.2418 8.0411
# 3 50.4063 20.0450 98.2878 -5.4724 -5.4543 2.8414
# 4 6.9922 8.0129 -5.4724 41.8672 -2.5176 -2.6045
# 5 3.0906 -3.2418 -5.4543 -2.5176 61.4943 -4.6317
# 6 5.0724 8.0411 2.8414 -2.6045 -4.6317 45.3744
#
#
#
# Elastic Compliance Matrix: (Units=1/GPa)
#
#
# Indices 1 2 3 4 5 6 
#
# 1 0.007301 -0.002762 -0.003288 -0.001191 -0.000874 -0.000278
# 2 -0.002762 0.011043 -0.000866 -0.001842 0.000444 -0.001654
# 3 -0.003288 -0.000866 0.012242 0.002395 0.001305 0.000025
# 4 -0.001191 -0.001842 0.002395 0.024947 0.001338 0.001878
# 5 -0.000874 0.000444 0.001305 0.001338 0.016628 0.001711
# 6 -0.000278 -0.001654 0.000025 0.001878 0.001711 0.022644
#
#
# Mechanical properties :
#
#
# Convention : Reuss Voigt Hill
#
# Bulk Modulus (GPa) = 59.68239 69.91088 64.79664
# Shear Modulus (GPa) = 43.77443 47.41846 45.59645
#
# Velocity S-wave (km/s) = 4.06558 4.23142 4.14933
# Velocity P-wave (km/s) = 6.67639 7.09021 6.88641
#
# Compressibility (1/GPa) = 0.01675536
#
# Stress axis : x y z
#
# Youngs Moduli (GPa) = 136.95901 90.55574 81.68531
#
# Poissons Ratio (x) = 0.25008 0.26858
# Poissons Ratio (y) = 0.37823 0.07073
# Poissons Ratio (z) = 0.45032 0.07841
#
# Static dielectric constant tensor:
#      x y z
#    x 5.132080 -0.030230 -0.088420 
#    y -0.030230 4.487970 0.117680 
#    z -0.088420 0.117680 5.321500 
# 
# 
# High freq. dielectric constant tensor:
#      x y z
#    x 2.094010 -0.001320 0.001730 
#    y -0.001320 2.037570 0.000330 
#    z 0.001730 0.000330 2.109110 
# 
# From -- ./inp_files/333888.got.cif
#   From: 2010.06.25/outbox.cif.g09.slc.cpg/sg2_167_cif.got.tgz:333888.got - 2010.06.27 13:26:56.
