data_PCOD8035204
_publ_section_title
;
Structure prediction by ZEFSAII (Michael W. Deem and Ramdas Pophale) SiO2 
 PCOD8035204
Probable space group: P -1
;
_chemical_formula_sum "Si O2"
_cell_formula_units_Z 10
_cell_length_a 13.964607
_cell_length_b 12.056392
_cell_length_c 8.505335
_cell_angle_alpha 131.714851
_cell_angle_beta 149.728832
_cell_angle_gamma 31.944468
_cell_volume 369.520404
_symmetry_space_group_name_H-M "P -1"
_symmetry_group_IT_number 2
_symmetry_cell_setting 'triclinic'
loop_
_space_group_symop_operation_xyz
x,y,z
-x,-y,-z
loop_
_atom_site_type_symbol
_atom_site_label
_atom_site_fract_x
_atom_site_fract_y
_atom_site_fract_z
Si Si1 0.259226 0.456878 0.847368
Si Si2 0.399624 0.296956 0.238135
Si Si3 0.671353 0.045255 0.842536
Si Si4 0.033629 0.701746 0.299989
Si Si5 0.974615 0.131008 0.244827
O O1 0.469144 0.284069 0.849407
O O2 0.156680 0.683200 0.892413
O O3 0.000000 0.500000 0.500000
O O4 0.402641 0.369967 0.139520
O O5 0.310555 0.463574 0.404647
O O6 0.693007 0.058966 0.472058
O O7 0.175193 0.293898 0.910469
O O8 0.500000 0.000000 0.500000
O O9 0.846161 0.036599 0.946480
O O10 0.894501 0.864518 0.112378
O O11 0.122092 0.767196 0.620351
#
# Coordination Sequence:
#
# PCOD8035204 Si02
#       5
#     2   2   2   2   2
#     4  12  24  49  80 113 157 199 251 320 384 454
#     4  11  25  48  81 116 153 198 255 313 387 457
#     4  12  28  50  77 114 159 201 260 319 379 449
#     4  11  24  49  80 113 155 200 251 317 382 457
#     4  12  26  52  81 112 155 205 254 316 380 456
#
# _framework density 27.062104000000001
#
# number of rings (size 3 to 8) (size 9 to 14) (size 15 to 20)
#    0.000    0.400    4.000    4.200    2.800    0.800 
#    3.600    6.000    0.000    0.000    0.000    0.000 
#    0.000    0.000    0.000    0.000    0.000    0.000 
#
# Total GULP energy -124048.047459 kJ/mol
# GULP energy per Si atom -12404.804746 kJ/mol
# Density = 2.700051 g / cm^3
# Si number density = 27.062104 Si / 1000 Ang^3
#
#
#
# Elastic Constant Matrix: (Units=GPa)
#
#
# Indices 1 2 3 4 5 6 
#
# 1 67.2938 44.2771 31.6679 -15.8650 0.2727 30.0098
# 2 44.2771 182.7382 51.8682 -19.7004 2.5738 -0.3885
# 3 31.6679 51.8682 81.9306 7.4170 7.6900 8.3462
# 4 -15.8650 -19.7004 7.4170 47.0772 -2.5151 -3.6114
# 5 0.2727 2.5738 7.6900 -2.5151 44.9096 -6.1871
# 6 30.0098 -0.3885 8.3462 -3.6114 -6.1871 65.5812
#
#
#
# Elastic Compliance Matrix: (Units=1/GPa)
#
#
# Indices 1 2 3 4 5 6 
#
# 1 0.028164 -0.003605 -0.008242 0.008428 0.000354 -0.011363
# 2 -0.003605 0.007840 -0.004162 0.002953 0.000790 0.002463
# 3 -0.008242 -0.004162 0.018966 -0.007638 -0.003304 0.000601
# 4 0.008428 0.002953 -0.007638 0.026560 0.002413 -0.001177
# 5 0.000354 0.000790 -0.003304 0.002413 0.023278 0.002592
# 6 -0.011363 0.002463 0.000601 -0.001177 0.002592 0.020566
#
#
# Mechanical properties :
#
#
# Convention : Reuss Voigt Hill
#
# Bulk Modulus (GPa) = 43.57074 65.28766 54.42920
# Shear Modulus (GPa) = 30.29542 45.12355 37.70948
#
# Velocity S-wave (km/s) = 3.34949 4.08782 3.73693
# Velocity P-wave (km/s) = 5.57620 6.81600 6.22703
#
# Compressibility (1/GPa) = 0.02295118
#
# Stress axis : x y z
#
# Youngs Moduli (GPa) = 35.50658 127.55872 52.72475
#
# Poissons Ratio (x) = 0.45985 0.43458
# Poissons Ratio (y) = 0.12800 0.21944
# Poissons Ratio (z) = 0.29266 0.53089
#
# Static dielectric constant tensor:
#      x y z
#    x 5.038200 0.185940 -0.129610 
#    y 0.185940 5.022440 0.185850 
#    z -0.129610 0.185850 4.798160 
# 
# 
# High freq. dielectric constant tensor:
#      x y z
#    x 2.107480 -0.004680 0.002020 
#    y -0.004680 2.110760 -0.002490 
#    z 0.002020 -0.002490 2.098640 
# 
# From -- ./inp_files/148148.got.cif
#   From: 2010.06.25/outbox.cif.g09.slc.cpg/sg2_75_cif.got.tgz:148148.got - 2010.06.27 13:26:56.
