data_PCOD8035269
_publ_section_title
;
Structure prediction by ZEFSAII (Michael W. Deem and Ramdas Pophale) SiO2 
 PCOD8035269
Probable space group: P -1
;
_chemical_formula_sum "Si O2"
_cell_formula_units_Z 16
_cell_length_a 26.350821
_cell_length_b 8.216392
_cell_length_c 26.347638
_cell_angle_alpha 40.169535
_cell_angle_beta 168.967012
_cell_angle_gamma 139.546559
_cell_volume 701.438194
_symmetry_space_group_name_H-M "P -1"
_symmetry_group_IT_number 2
_symmetry_cell_setting 'triclinic'
loop_
_space_group_symop_operation_xyz
x,y,z
-x,-y,-z
loop_
_atom_site_type_symbol
_atom_site_label
_atom_site_fract_x
_atom_site_fract_y
_atom_site_fract_z
Si Si1 0.274385 0.567870 0.726303
Si Si2 0.405267 0.429891 0.782432
Si Si3 0.968472 0.740742 0.060691
Si Si4 0.577781 0.345405 0.400146
Si Si5 0.051456 0.217633 0.233644
Si Si6 0.919379 0.158270 0.333865
Si Si7 0.153637 0.109658 0.471165
Si Si8 0.449394 0.054455 0.240469
O O1 0.297171 0.383558 0.744393
O O2 0.000000 0.500000 0.500000
O O3 0.315860 0.864172 0.681483
O O4 0.500000 0.500000 0.000000
O O5 0.146155 0.396981 0.499463
O O6 0.534426 0.714503 0.838115
O O7 0.620390 0.232434 0.028112
O O8 0.662560 0.673471 0.791505
O O9 0.159823 0.759526 0.293266
O O10 0.054019 0.520798 0.159497
O O11 0.000000 0.000000 0.000000
O O12 0.641657 0.641340 0.377221
O O13 0.484282 0.169741 0.303098
O O14 0.989739 0.144656 0.249714
O O15 0.339202 0.143436 0.517344
O O16 0.840777 0.087024 0.018511
O O17 0.951462 0.044591 0.335899
O O18 0.000000 0.000000 0.500000
#
# Coordination Sequence:
#
# PCOD8035269 Si02
#       8
#     2   2   2   2   2   2   2   2
#     4  12  27  44  64  94 135 181 233 296 356 407
#     4  12  25  43  65  92 135 177 223 296 344 398
#     4  11  25  48  75 111 145 178 225 276 341 414
#     4  11  25  45  75 104 140 190 224 284 340 409
#     4  11  25  42  73 101 137 183 225 284 336 408
#     4  12  26  44  65  95 135 180 233 295 356 407
#     4  11  25  45  70 101 133 183 248 283 348 420
#     4  12  24  45  68 104 137 174 236 275 334 404
#
# _framework density 22.810278
#
# number of rings (size 3 to 8) (size 9 to 14) (size 15 to 20)
#    0.000    0.500    2.500    6.000    5.250    3.000 
#    0.000    3.750    0.000    0.000    0.000    0.000 
#    0.000    0.000    0.000    0.000    0.000    0.000 
#
# Total GULP energy -198390.204817 kJ/mol
# GULP energy per Si atom -12399.387801 kJ/mol
# Density = 2.275836 g / cm^3
# Si number density = 22.810278 Si / 1000 Ang^3
#
#
#
# Elastic Constant Matrix: (Units=GPa)
#
#
# Indices 1 2 3 4 5 6 
#
# 1 79.1864 23.0389 18.6725 1.0223 4.4326 -17.5130
# 2 23.0389 102.4252 21.6031 -10.1251 -8.6745 0.9644
# 3 18.6725 21.6031 108.4888 3.1468 1.3205 -3.0752
# 4 1.0223 -10.1251 3.1468 35.7469 -9.6636 -3.1303
# 5 4.4326 -8.6745 1.3205 -9.6636 46.8003 4.7430
# 6 -17.5130 0.9644 -3.0752 -3.1303 4.7430 41.5095
#
#
#
# Elastic Compliance Matrix: (Units=1/GPa)
#
#
# Indices 1 2 3 4 5 6 
#
# 1 0.015823 -0.003689 -0.001709 -0.001600 -0.003161 0.006875
# 2 -0.003689 0.011775 -0.001942 0.004434 0.003711 -0.002064
# 3 -0.001709 -0.001942 0.009955 -0.001594 -0.000812 0.000034
# 4 -0.001600 0.004434 -0.001594 0.031487 0.007456 0.000627
# 5 -0.003161 0.003711 -0.000812 0.007456 0.024292 -0.003693
# 6 0.006875 -0.002064 0.000034 0.000627 -0.003693 0.027511
#
#
# Mechanical properties :
#
#
# Convention : Reuss Voigt Hill
#
# Bulk Modulus (GPa) = 43.72015 46.30327 45.01171
# Shear Modulus (GPa) = 34.92888 39.93040 37.42964
#
# Velocity S-wave (km/s) = 3.91740 4.18849 4.05521
# Velocity P-wave (km/s) = 6.29840 6.61322 6.45773
#
# Compressibility (1/GPa) = 0.02287275
#
# Stress axis : x y z
#
# Youngs Moduli (GPa) = 63.19918 84.92749 100.44735
#
# Poissons Ratio (x) = 0.31332 0.17166
# Poissons Ratio (y) = 0.23316 0.19507
# Poissons Ratio (z) = 0.10801 0.16493
#
# Static dielectric constant tensor:
#      x y z
#    x 4.137810 -0.200930 -0.000410 
#    y -0.200930 4.223540 0.023640 
#    z -0.000410 0.023640 4.128280 
# 
# 
# High freq. dielectric constant tensor:
#      x y z
#    x 1.900210 -0.019520 0.002270 
#    y -0.019520 1.903400 0.002270 
#    z 0.002270 0.002270 1.906570 
# 
# From -- ./inp_files/621147.got.cif
#   From: 2010.06.25/outbox.cif.g09.slc.cpg/sg2_311_cif.got.tgz:621147.got - 2010.06.27 13:26:56.
