data_PCOD8035732
_publ_section_title
;
Structure prediction by ZEFSAII (Michael W. Deem and Ramdas Pophale) SiO2 
 PCOD8035732
Probable space group: P -1
;
_chemical_formula_sum "Si O2"
_cell_formula_units_Z 16
_cell_length_a 17.514216
_cell_length_b 9.942648
_cell_length_c 12.616153
_cell_angle_alpha 26.689139
_cell_angle_beta 136.992545
_cell_angle_gamma 134.588787
_cell_volume 664.517270
_symmetry_space_group_name_H-M "P -1"
_symmetry_group_IT_number 2
_symmetry_cell_setting 'triclinic'
loop_
_space_group_symop_operation_xyz
x,y,z
-x,-y,-z
loop_
_atom_site_type_symbol
_atom_site_label
_atom_site_fract_x
_atom_site_fract_y
_atom_site_fract_z
Si Si1 0.111304 0.248660 0.918440
Si Si2 0.873152 0.960012 0.148453
Si Si3 0.891720 0.049797 0.539542
Si Si4 0.666759 0.286348 0.705167
Si Si5 0.603493 0.246625 0.894787
Si Si6 0.293283 0.151339 0.342088
Si Si7 0.490582 0.843467 0.716367
Si Si8 0.790903 0.868227 0.351433
O O1 0.148482 0.246376 0.833772
O O2 0.087220 0.583194 0.688566
O O3 0.214203 0.156932 0.155520
O O4 0.000000 0.000000 0.000000
O O5 0.846967 0.779466 0.360589
O O6 0.007450 0.086082 0.202791
O O7 0.797157 0.225216 0.890482
O O8 0.776759 0.898914 0.585358
O O9 0.884307 0.925216 0.499358
O O10 0.589924 0.321639 0.705116
O O11 0.681605 0.609287 0.437405
O O12 0.599572 0.016160 0.762699
O O13 0.613438 0.541877 0.771974
O O14 0.500000 0.000000 0.000000
O O15 0.730021 0.162002 0.083949
O O16 0.365546 0.878582 0.604116
O O17 0.500000 0.000000 0.500000
O O18 0.500000 0.500000 0.000000
#
# Coordination Sequence:
#
# PCOD8035732 Si02
#       8
#     2   2   2   2   2   2   2   2
#     4  12  27  47  73 111 153 205 257 319 390 472
#     4  11  27  45  74 107 155 202 256 313 394 472
#     4  12  26  47  76 112 151 201 262 323 393 469
#     4  11  27  48  75 108 154 204 260 327 394 474
#     4  11  25  47  78 112 147 199 263 327 396 464
#     4  12  27  48  81 109 153 200 263 327 394 473
#     4  12  32  51  77 114 157 209 261 331 408 483
#     4  11  25  46  74 112 152 200 261 323 392 470
#
# _framework density 24.077628000000001
#
# number of rings (size 3 to 8) (size 9 to 14) (size 15 to 20)
#    0.000    0.500    3.750    2.250   12.250    1.500 
#    0.000    0.000    0.000    0.000    0.000    0.000 
#    0.000    0.000    0.000    0.000    0.000    0.000 
#
# Total GULP energy -198256.045237 kJ/mol
# GULP energy per Si atom -12391.002827 kJ/mol
# Density = 2.402283 g / cm^3
# Si number density = 24.077628 Si / 1000 Ang^3
#
#
#
# Elastic Constant Matrix: (Units=GPa)
#
#
# Indices 1 2 3 4 5 6 
#
# 1 142.4284 54.3560 48.1658 4.3247 -7.4968 -9.3803
# 2 54.3560 160.0094 58.6218 -6.6095 -13.4716 -9.3341
# 3 48.1658 58.6218 110.0328 -0.8450 1.7064 -2.0115
# 4 4.3247 -6.6095 -0.8450 36.0747 6.6277 -6.7208
# 5 -7.4968 -13.4716 1.7064 6.6277 50.3791 9.6705
# 6 -9.3803 -9.3341 -2.0115 -6.7208 9.6705 43.0917
#
#
#
# Elastic Compliance Matrix: (Units=1/GPa)
#
#
# Indices 1 2 3 4 5 6 
#
# 1 0.008873 -0.001883 -0.002889 -0.001469 0.000925 0.000952
# 2 -0.001883 0.008524 -0.003710 0.001600 0.001697 0.001132
# 3 -0.002889 -0.003710 0.012351 0.000205 -0.001786 -0.000423
# 4 -0.001469 0.001600 0.000205 0.030181 -0.004889 0.005841
# 5 0.000925 0.001697 -0.001786 -0.004889 0.022152 -0.005248
# 6 0.000952 0.001132 -0.000423 0.005841 -0.005248 0.025728
#
#
# Mechanical properties :
#
#
# Convention : Reuss Voigt Hill
#
# Bulk Modulus (GPa) = 78.22857 81.63977 79.93417
# Shear Modulus (GPa) = 38.74984 42.66423 40.70703
#
# Velocity S-wave (km/s) = 4.01605 4.21401 4.11622
# Velocity P-wave (km/s) = 7.35293 7.59327 7.47406
#
# Compressibility (1/GPa) = 0.01278305
#
# Stress axis : x y z
#
# Youngs Moduli (GPa) = 112.70598 117.32255 80.96498
#
# Poissons Ratio (x) = 0.22091 0.23391
# Poissons Ratio (y) = 0.21222 0.30039
# Poissons Ratio (z) = 0.32561 0.43529
#
# Static dielectric constant tensor:
#      x y z
#    x 4.573420 -0.123820 -0.060940 
#    y -0.123820 4.321350 0.123730 
#    z -0.060940 0.123730 4.357650 
# 
# 
# High freq. dielectric constant tensor:
#      x y z
#    x 1.969110 0.001430 0.002610 
#    y 0.001430 1.964210 0.011580 
#    z 0.002610 0.011580 1.957780 
# 
# From -- ./inp_files/461762.got.cif
#   From: 2010.06.25/outbox.cif.g09.slc.cpg/sg2_231_cif.got.tgz:461762.got - 2010.06.27 13:26:56.
