data_PCOD8035231
_publ_section_title
;
Structure prediction by ZEFSAII (Michael W. Deem and Ramdas Pophale) SiO2 
 PCOD8035231
Probable space group: P -1
;
_chemical_formula_sum "Si O2"
_cell_formula_units_Z 16
_cell_length_a 8.593734
_cell_length_b 6.698646
_cell_length_c 20.689694
_cell_angle_alpha 54.984603
_cell_angle_beta 116.518170
_cell_angle_gamma 79.982447
_cell_volume 706.658627
_symmetry_space_group_name_H-M "P -1"
_symmetry_group_IT_number 2
_symmetry_cell_setting 'triclinic'
loop_
_space_group_symop_operation_xyz
x,y,z
-x,-y,-z
loop_
_atom_site_type_symbol
_atom_site_label
_atom_site_fract_x
_atom_site_fract_y
_atom_site_fract_z
Si Si1 0.308045 0.733072 0.965511
Si Si2 0.725293 0.872272 0.597880
Si Si3 0.930035 0.167771 0.524348
Si Si4 0.283394 0.152018 0.669391
Si Si5 0.693912 0.661205 0.768593
Si Si6 0.570531 0.269757 0.865814
Si Si7 0.100475 0.424463 0.964053
Si Si8 0.823010 0.704796 0.234588
O O1 0.135690 0.682811 0.917114
O O2 0.217274 0.076110 0.871962
O O3 0.500000 0.500000 0.000000
O O4 0.369402 0.667877 0.064714
O O5 0.683031 0.830659 0.671006
O O6 0.923864 0.557037 0.663544
O O7 0.500000 0.000000 0.500000
O O8 0.790386 0.100511 0.555981
O O9 0.778627 0.521419 0.418135
O O10 0.146344 0.071301 0.618240
O O11 0.000000 0.000000 0.500000
O O12 0.253739 0.115803 0.745813
O O13 0.533515 0.914726 0.743389
O O14 0.632771 0.423274 0.795157
O O15 0.939241 0.465644 0.872164
O O16 0.314906 0.425368 0.783874
O O17 0.687516 0.917335 0.938656
O O18 0.000000 0.500000 0.000000
#
# Coordination Sequence:
#
# PCOD8035231 Si02
#       8
#     2   2   2   2   2   2   2   2
#     4  12  26  46  74 109 149 188 253 301 362 448
#     4  12  29  46  73 111 147 189 244 311 368 420
#     4  11  24  51  77  99 146 191 245 308 361 428
#     4  11  26  48  77 104 138 200 248 289 366 445
#     4  12  27  45  74 111 150 194 242 303 376 432
#     4  12  26  50  73 104 155 198 241 301 370 449
#     4  12  26  47  72 111 150 194 238 304 378 438
#     4  12  26  46  79 107 143 201 248 295 364 445
#
# _framework density 22.641766000000001
#
# number of rings (size 3 to 8) (size 9 to 14) (size 15 to 20)
#    0.000    0.250    3.750    4.500    8.750    1.500 
#    0.000    0.000    0.000    0.000    0.000    0.000 
#    0.000    0.000    0.000    0.000    0.000    0.000 
#
# Total GULP energy -198367.461879 kJ/mol
# GULP energy per Si atom -12397.966367 kJ/mol
# Density = 2.259023 g / cm^3
# Si number density = 22.641766 Si / 1000 Ang^3
#
#
#
# Elastic Constant Matrix: (Units=GPa)
#
#
# Indices 1 2 3 4 5 6 
#
# 1 156.5393 48.0816 57.7594 2.9973 -4.8633 17.0767
# 2 48.0816 105.7464 34.3740 0.1818 0.7826 6.8113
# 3 57.7594 34.3740 101.5843 2.3944 3.8060 4.3438
# 4 2.9973 0.1818 2.3944 30.9369 -3.5814 -1.1023
# 5 -4.8633 0.7826 3.8060 -3.5814 50.8831 -3.8718
# 6 17.0767 6.8113 4.3438 -1.1023 -3.8718 51.6018
#
#
#
# Elastic Compliance Matrix: (Units=1/GPa)
#
#
# Indices 1 2 3 4 5 6 
#
# 1 0.009011 -0.002604 -0.004174 -0.000497 0.001009 -0.002222
# 2 -0.002604 0.011442 -0.002369 0.000322 -0.000260 -0.000462
# 3 -0.004174 -0.002369 0.013066 -0.000733 -0.001355 0.000477
# 4 -0.000497 0.000322 -0.000733 0.032741 0.002388 0.001062
# 5 0.001009 -0.000260 -0.001355 0.002388 0.020127 0.001376
# 6 -0.002222 -0.000462 0.000477 0.001062 0.001376 0.020261
#
#
# Mechanical properties :
#
#
# Convention : Reuss Voigt Hill
#
# Bulk Modulus (GPa) = 65.67769 71.58890 68.63330
# Shear Modulus (GPa) = 38.45612 41.59469 40.02540
#
# Velocity S-wave (km/s) = 4.12571 4.29076 4.20905
# Velocity P-wave (km/s) = 7.19483 7.49895 7.34846
#
# Compressibility (1/GPa) = 0.01522587
#
# Stress axis : x y z
#
# Youngs Moduli (GPa) = 110.97219 87.39825 76.53211
#
# Poissons Ratio (x) = 0.22760 0.31941
# Poissons Ratio (y) = 0.28899 0.18131
# Poissons Ratio (z) = 0.46315 0.20706
#
# Static dielectric constant tensor:
#      x y z
#    x 5.453650 0.230620 -1.658650 
#    y 0.230620 4.035140 -0.366260 
#    z -1.658650 -0.366260 6.283920 
# 
# 
# High freq. dielectric constant tensor:
#      x y z
#    x 1.911490 0.003910 -0.001970 
#    y 0.003910 1.891520 -0.005200 
#    z -0.001970 -0.005200 1.907250 
# 
# From -- ./inp_files/585126.got.cif
#   From: 2010.06.25/outbox.cif.g09.slc.cpg/sg2_293_cif.got.tgz:585126.got - 2010.06.27 13:26:56.
