data_PCOD8035623
_publ_section_title
;
Structure prediction by ZEFSAII (Michael W. Deem and Ramdas Pophale) SiO2 
 PCOD8035623
Probable space group: P -1
;
_chemical_formula_sum "Si O2"
_cell_formula_units_Z 16
_cell_length_a 15.061270
_cell_length_b 8.419531
_cell_length_c 8.732732
_cell_angle_alpha 84.861943
_cell_angle_beta 134.139345
_cell_angle_gamma 110.252840
_cell_volume 726.456395
_symmetry_space_group_name_H-M "P -1"
_symmetry_group_IT_number 2
_symmetry_cell_setting 'triclinic'
loop_
_space_group_symop_operation_xyz
x,y,z
-x,-y,-z
loop_
_atom_site_type_symbol
_atom_site_label
_atom_site_fract_x
_atom_site_fract_y
_atom_site_fract_z
Si Si1 0.909730 0.853700 0.518268
Si Si2 0.901134 0.045651 0.983471
Si Si3 0.136463 0.634990 0.220954
Si Si4 0.356879 0.281737 0.185401
Si Si5 0.622908 0.363757 0.678179
Si Si6 0.363361 0.147554 0.872380
Si Si7 0.617451 0.208977 0.989353
Si Si8 0.132159 0.521770 0.568634
O O1 0.774116 0.887147 0.385098
O O2 0.857483 0.662416 0.404485
O O3 0.000000 0.000000 0.500000
O O4 0.002555 0.852325 0.771574
O O5 0.843766 0.169709 0.815045
O O6 0.778367 0.874255 0.907201
O O7 0.000000 0.000000 0.000000
O O8 0.257172 0.592264 0.302039
O O9 0.136997 0.614131 0.404815
O O10 0.000000 0.500000 0.000000
O O11 0.485473 0.278501 0.427129
O O12 0.351822 0.464828 0.206277
O O13 0.373674 0.265618 0.024390
O O14 0.618537 0.217336 0.806127
O O15 0.371057 0.969714 0.946676
O O16 0.487477 0.235586 0.898332
O O17 0.744950 0.362472 0.193134
O O18 0.000000 0.500000 0.500000
#
# Coordination Sequence:
#
# PCOD8035623 Si02
#       8
#     2   2   2   2   2   2   2   2
#     4  12  26  46  71 103 143 184 230 287 341 418
#     4  12  28  44  72 103 142 186 231 285 349 410
#     4  12  25  47  71 103 142 181 233 286 344 415
#     4  11  25  47  70 101 140 184 231 288 344 415
#     4  11  26  45  72 103 139 181 233 287 351 408
#     4  11  25  46  70 101 142 181 235 282 346 413
#     4  11  26  44  72 104 137 185 231 287 347 412
#     4  12  27  45  74 104 140 184 231 287 346 413
#
# _framework density 22.024722000000001
#
# number of rings (size 3 to 8) (size 9 to 14) (size 15 to 20)
#    0.000    0.500    2.500    4.500    5.250    6.000 
#    0.000    0.000    0.000    0.000    0.000    0.000 
#    0.000    0.000    0.000    0.000    0.000    0.000 
#
# Total GULP energy -198434.537651 kJ/mol
# GULP energy per Si atom -12402.158603 kJ/mol
# Density = 2.197459 g / cm^3
# Si number density = 22.024722 Si / 1000 Ang^3
#
#
#
# Elastic Constant Matrix: (Units=GPa)
#
#
# Indices 1 2 3 4 5 6 
#
# 1 146.6701 22.7604 51.8790 0.5876 15.3920 11.1177
# 2 22.7604 54.7845 23.5593 -2.7388 0.5092 1.4476
# 3 51.8790 23.5593 128.2727 0.8475 16.3977 9.5239
# 4 0.5876 -2.7388 0.8475 42.5461 6.1424 -0.7244
# 5 15.3920 0.5092 16.3977 6.1424 44.8177 -1.6610
# 6 11.1177 1.4476 9.5239 -0.7244 -1.6610 35.5540
#
#
#
# Elastic Compliance Matrix: (Units=1/GPa)
#
#
# Indices 1 2 3 4 5 6 
#
# 1 0.008453 -0.002326 -0.002591 0.000042 -0.002007 -0.001948
# 2 -0.002326 0.020580 -0.003109 0.001207 0.001567 0.000820
# 3 -0.002591 -0.003109 0.009906 0.000007 -0.002768 -0.001846
# 4 0.000042 0.001207 0.000007 0.024065 -0.003319 0.000271
# 5 -0.002007 0.001567 -0.002768 -0.003319 0.024540 0.002384
# 6 -0.001948 0.000820 -0.001846 0.000271 0.002384 0.029313
#
#
# Mechanical properties :
#
#
# Convention : Reuss Voigt Hill
#
# Bulk Modulus (GPa) = 43.68855 58.45831 51.07343
# Shear Modulus (GPa) = 35.57778 40.01879 37.79828
#
# Velocity S-wave (km/s) = 4.02351 4.26725 4.14717
# Velocity P-wave (km/s) = 6.43926 7.13295 6.79496
#
# Compressibility (1/GPa) = 0.02288929
#
# Stress axis : x y z
#
# Youngs Moduli (GPa) = 118.29560 48.58991 100.95288
#
# Poissons Ratio (x) = 0.11300 0.26156
# Poissons Ratio (y) = 0.27511 0.31381
# Poissons Ratio (z) = 0.30650 0.15104
#
# Static dielectric constant tensor:
#      x y z
#    x 4.010760 -0.224240 0.972030 
#    y -0.224240 3.859360 0.799010 
#    z 0.972030 0.799010 0.798400 
# 
# 
# High freq. dielectric constant tensor:
#      x y z
#    x 1.879290 0.002460 0.007390 
#    y 0.002460 1.878740 -0.001250 
#    z 0.007390 -0.001250 1.885930 
# 
# From -- ./inp_files/223208.got.cif
#   From: 2010.06.25/outbox.cif.g09.slc.cpg/sg2_112_cif.got.tgz:223208.got - 2010.06.27 13:26:56.
