data_PCOD8035006
_publ_section_title
;
Structure prediction by ZEFSAII (Michael W. Deem and Ramdas Pophale) SiO2 
 PCOD8035006
Probable space group: P -1
;
_chemical_formula_sum "Si O2"
_cell_formula_units_Z 12
_cell_length_a 15.177944
_cell_length_b 6.846659
_cell_length_c 23.816396
_cell_angle_alpha 124.190344
_cell_angle_beta 19.421974
_cell_angle_gamma 134.562374
_cell_volume 531.786390
_symmetry_space_group_name_H-M "P -1"
_symmetry_group_IT_number 2
_symmetry_cell_setting 'triclinic'
loop_
_space_group_symop_operation_xyz
x,y,z
-x,-y,-z
loop_
_atom_site_type_symbol
_atom_site_label
_atom_site_fract_x
_atom_site_fract_y
_atom_site_fract_z
Si Si1 0.210693 0.257165 0.867884
Si Si2 0.665885 0.362107 0.850246
Si Si3 0.429951 0.687191 0.638371
Si Si4 0.114951 0.650835 0.516976
Si Si5 0.301324 0.671893 0.591367
Si Si6 0.826201 0.260891 0.002633
O O1 0.549903 0.300705 0.655214
O O2 0.938402 0.132821 0.961171
O O3 0.368534 0.609014 0.840610
O O4 0.000000 0.000000 0.000000
O O5 0.816871 0.471601 0.713817
O O6 0.947493 0.431928 0.735206
O O7 0.500000 0.500000 0.000000
O O8 0.385676 0.999915 0.958466
O O9 0.255238 0.694168 0.688448
O O10 0.469843 0.430105 0.569313
O O11 0.160912 0.580708 0.831113
O O12 0.780459 0.015231 0.495695
O O13 0.000000 0.500000 0.500000
O O14 0.500000 0.000000 0.500000
#
# Coordination Sequence:
#
# PCOD8035006 Si02
#       6
#     2   2   2   2   2   2
#     4  11  24  48  73 104 151 192 238 300 366 435
#     4  12  28  46  74 108 149 190 244 304 359 436
#     4  11  25  45  74 104 140 197 243 292 371 431
#     4  12  27  46  76 109 148 192 243 301 363 435
#     4  11  24  47  72 100 146 193 240 299 363 432
#     4  11  26  44  73 108 141 193 245 294 368 431
#
# _framework density 22.565452000000001
#
# number of rings (size 3 to 8) (size 9 to 14) (size 15 to 20)
#    0.000    0.667    3.333    3.000    9.333    2.667 
#    0.000    0.000    0.000    0.000    0.000    0.000 
#    0.000    0.000    0.000    0.000    0.000    0.000 
#
# Total GULP energy -148724.173565 kJ/mol
# GULP energy per Si atom -12393.681130 kJ/mol
# Density = 2.251409 g / cm^3
# Si number density = 22.565452 Si / 1000 Ang^3
#
#
#
# Elastic Constant Matrix: (Units=GPa)
#
#
# Indices 1 2 3 4 5 6 
#
# 1 150.5042 53.4211 33.5828 -8.1764 -3.4319 4.6788
# 2 53.4211 133.9420 27.3047 -7.3214 -8.1150 5.4312
# 3 33.5828 27.3047 92.7821 2.5463 9.0463 -4.8454
# 4 -8.1764 -7.3214 2.5463 36.8028 2.7444 -4.5841
# 5 -3.4319 -8.1150 9.0463 2.7444 40.4494 -4.5725
# 6 4.6788 5.4312 -4.8454 -4.5841 -4.5725 48.3490
#
#
#
# Elastic Compliance Matrix: (Units=1/GPa)
#
#
# Indices 1 2 3 4 5 6 
#
# 1 0.008210 -0.002679 -0.002300 0.001343 0.000520 -0.000547
# 2 -0.002679 0.009140 -0.001972 0.001134 0.001894 -0.000679
# 3 -0.002300 -0.001972 0.012604 -0.001380 -0.003172 0.001276
# 4 0.001343 0.001134 -0.001380 0.028138 -0.001013 0.002176
# 5 0.000520 0.001894 -0.003172 -0.001013 0.026127 0.001794
# 6 -0.000547 -0.000679 0.001276 0.002176 0.001794 0.021316
#
#
# Mechanical properties :
#
#
# Convention : Reuss Voigt Hill
#
# Bulk Modulus (GPa) = 62.28502 67.31616 64.80059
# Shear Modulus (GPa) = 40.06822 42.64821 41.35822
#
# Velocity S-wave (km/s) = 4.21841 4.35210 4.28578
# Velocity P-wave (km/s) = 7.16858 7.42635 7.29860
#
# Compressibility (1/GPa) = 0.01605522
#
# Stress axis : x y z
#
# Youngs Moduli (GPa) = 121.80181 109.40474 79.33818
#
# Poissons Ratio (x) = 0.29304 0.18245
# Poissons Ratio (y) = 0.32625 0.15642
# Poissons Ratio (z) = 0.28010 0.21570
#
# Static dielectric constant tensor:
#      x y z
#    x 2.276570 0.723650 1.242770 
#    y 0.723650 4.010980 -0.332510 
#    z 1.242770 -0.332510 3.424460 
# 
# 
# High freq. dielectric constant tensor:
#      x y z
#    x 1.896010 0.003560 0.005440 
#    y 0.003560 1.912220 0.005080 
#    z 0.005440 0.005080 1.884580 
# 
# From -- ./inp_files/24056.got.cif
#   From: 2010.06.25/outbox.cif.g09.slc.cpg/sg2_13_cif.got.tgz:24056.got - 2010.06.27 13:26:56.
