data_PCOD8035438
_publ_section_title
;
Structure prediction by ZEFSAII (Michael W. Deem and Ramdas Pophale) SiO2 
 PCOD8035438
Probable space group: P -1
;
_chemical_formula_sum "Si O2"
_cell_formula_units_Z 12
_cell_length_a 23.407572
_cell_length_b 24.004351
_cell_length_c 10.413842
_cell_angle_alpha 24.450462
_cell_angle_beta 156.923790
_cell_angle_gamma 167.997808
_cell_volume 472.992463
_symmetry_space_group_name_H-M "P -1"
_symmetry_group_IT_number 2
_symmetry_cell_setting 'triclinic'
loop_
_space_group_symop_operation_xyz
x,y,z
-x,-y,-z
loop_
_atom_site_type_symbol
_atom_site_label
_atom_site_fract_x
_atom_site_fract_y
_atom_site_fract_z
Si Si1 0.293824 0.464582 0.153375
Si Si2 0.913666 0.589024 0.692327
Si Si3 0.581940 0.338539 0.275089
Si Si4 0.094966 0.145570 0.761153
Si Si5 0.509795 0.035706 0.109487
Si Si6 0.289067 0.049691 0.827243
O O1 0.500000 0.500000 0.500000
O O2 0.964701 0.166808 0.137628
O O3 0.421515 0.666483 0.100668
O O4 0.263009 0.513143 0.851155
O O5 0.825050 0.544317 0.456593
O O6 0.793044 0.613426 0.480690
O O7 0.269284 0.867471 0.850416
O O8 0.796467 0.353261 0.000522
O O9 0.418979 0.064117 0.515300
O O10 0.346708 0.266957 0.956609
O O11 0.817223 0.929730 0.544812
O O12 0.000000 0.000000 0.000000
O O13 0.368743 0.973174 0.083069
#
# Coordination Sequence:
#
# PCOD8035438 Si02
#       6
#     2   2   2   2   2   2
#     4  12  27  45  72 102 142 186 233 294 332 421
#     4  11  25  48  70 106 146 182 228 296 358 408
#     4  12  26  43  75 107 139 188 243 277 354 421
#     4  11  25  44  77 105 139 185 238 295 348 414
#     4  11  26  47  74 103 145 185 226 300 349 418
#     4  11  25  48  67 100 148 180 231 287 357 398
#
# _framework density 25.370383
#
# number of rings (size 3 to 8) (size 9 to 14) (size 15 to 20)
#    0.000    0.667    1.667    6.000    2.333    5.333 
#    0.000    0.000    0.000    0.000    0.000    0.000 
#    0.000    0.000    0.000    0.000    0.000    0.000 
#
# Total GULP energy -148880.809856 kJ/mol
# GULP energy per Si atom -12406.734155 kJ/mol
# Density = 2.531264 g / cm^3
# Si number density = 25.370383 Si / 1000 Ang^3
#
#
#
# Elastic Constant Matrix: (Units=GPa)
#
#
# Indices 1 2 3 4 5 6 
#
# 1 111.8297 20.0476 40.5096 0.7626 -20.7375 -11.1608
# 2 20.0476 92.9348 21.3535 -4.0050 0.4534 -2.2550
# 3 40.5096 21.3535 112.7476 -8.1834 8.4156 -13.8701
# 4 0.7626 -4.0050 -8.1834 30.5206 5.8596 0.1035
# 5 -20.7375 0.4534 8.4156 5.8596 55.0269 -11.2441
# 6 -11.1608 -2.2550 -13.8701 0.1035 -11.2441 43.8633
#
#
#
# Elastic Compliance Matrix: (Units=1/GPa)
#
#
# Indices 1 2 3 4 5 6 
#
# 1 0.012370 -0.001736 -0.004397 -0.002943 0.006336 0.003299
# 2 -0.001736 0.011520 -0.001469 0.001311 -0.000769 -0.000514
# 3 -0.004397 -0.001469 0.011438 0.003645 -0.003471 0.001524
# 4 -0.002943 0.001311 0.003645 0.035072 -0.005628 -0.001054
# 5 0.006336 -0.000769 -0.003471 -0.005628 0.023002 0.006385
# 6 0.003299 -0.000514 0.001524 -0.001054 0.006385 0.025732
#
#
# Mechanical properties :
#
#
# Convention : Reuss Voigt Hill
#
# Bulk Modulus (GPa) = 49.68680 53.48151 51.58415
# Shear Modulus (GPa) = 35.44948 41.58892 38.51920
#
# Velocity S-wave (km/s) = 3.74207 4.05318 3.90073
# Velocity P-wave (km/s) = 6.18853 6.55976 6.37685
#
# Compressibility (1/GPa) = 0.02012607
#
# Stress axis : x y z
#
# Youngs Moduli (GPa) = 80.83879 86.80595 87.42515
#
# Poissons Ratio (x) = 0.15070 0.38436
# Poissons Ratio (y) = 0.14034 0.12841
# Poissons Ratio (z) = 0.35541 0.12750
#
# Static dielectric constant tensor:
#      x y z
#    x 5.144820 -0.200130 0.316210 
#    y -0.200130 4.504230 -0.051400 
#    z 0.316210 -0.051400 4.797570 
# 
# 
# High freq. dielectric constant tensor:
#      x y z
#    x 2.044710 -0.001450 0.012970 
#    y -0.001450 2.011910 -0.001780 
#    z 0.012970 -0.001780 2.012880 
# 
# From -- ./inp_files/68161.got.cif
#   From: 2010.06.25/outbox.cif.g09.slc.cpg/sg2_35_cif.got.tgz:68161.got - 2010.06.27 13:26:56.
