data_PCOD8035022
_publ_section_title
;
Structure prediction by ZEFSAII (Michael W. Deem and Ramdas Pophale) SiO2 
 PCOD8035022
Probable space group: P -1
;
_chemical_formula_sum "Si O2"
_cell_formula_units_Z 16
_cell_length_a 7.961900
_cell_length_b 8.039018
_cell_length_c 12.232182
_cell_angle_alpha 79.217241
_cell_angle_beta 80.861785
_cell_angle_gamma 56.804450
_cell_volume 642.078509
_symmetry_space_group_name_H-M "P -1"
_symmetry_group_IT_number 2
_symmetry_cell_setting 'triclinic'
loop_
_space_group_symop_operation_xyz
x,y,z
-x,-y,-z
loop_
_atom_site_type_symbol
_atom_site_label
_atom_site_fract_x
_atom_site_fract_y
_atom_site_fract_z
Si Si1 0.339202 0.847049 0.038635
Si Si2 0.309298 0.000716 0.642797
Si Si3 0.214450 0.283901 0.026290
Si Si4 0.285736 0.724819 0.833637
Si Si5 0.645176 0.364409 0.734462
Si Si6 0.934848 0.740070 0.743366
Si Si7 0.025498 0.571092 0.371305
Si Si8 0.356556 0.898090 0.413409
O O1 0.585933 0.722738 0.031868
O O2 0.274194 0.749736 0.962510
O O3 0.248978 0.821541 0.166489
O O4 0.232277 0.085368 0.995826
O O5 0.450266 0.087413 0.615951
O O6 0.085729 0.191524 0.651134
O O7 0.354227 0.868162 0.760451
O O8 0.322230 0.876952 0.547753
O O9 0.232444 0.250965 0.159624
O O10 0.000000 0.500000 0.000000
O O11 0.443476 0.503207 0.805343
O O12 0.073775 0.780095 0.800608
O O13 0.749425 0.488473 0.677808
O O14 0.603331 0.295426 0.631796
O O15 0.051521 0.523589 0.698458
O O16 0.837224 0.902421 0.637693
O O17 0.000000 0.500000 0.500000
#
# Coordination Sequence:
#
# PCOD8035022 Si02
#       8
#     2   2   2   2   2   2   2   2
#     4  11  26  50  75 112 158 197 249 314 373 447
#     4  11  26  45  73 108 144 193 248 311 374 444
#     4  11  25  46  81 111 151 203 250 308 376 450
#     4  12  28  45  76 110 149 196 250 305 371 447
#     4  12  26  48  76 106 149 196 247 309 374 447
#     4  12  25  48  71 107 146 195 248 302 377 445
#     4  12  27  46  75 103 144 194 249 310 374 441
#     4  11  24  47  73 103 149 190 247 310 372 442
#
# _framework density 24.919070000000001
#
# number of rings (size 3 to 8) (size 9 to 14) (size 15 to 20)
#    0.000    0.500    2.500    4.875    7.000    3.000 
#    2.250    0.000    0.000    0.000    0.000    0.000 
#    0.000    0.000    0.000    0.000    0.000    0.000 
#
# Total GULP energy -198328.711138 kJ/mol
# GULP energy per Si atom -12395.544446 kJ/mol
# Density = 2.486235 g / cm^3
# Si number density = 24.919070 Si / 1000 Ang^3
#
#
#
# Elastic Constant Matrix: (Units=GPa)
#
#
# Indices 1 2 3 4 5 6 
#
# 1 83.6822 21.8388 49.8890 9.0725 6.0640 2.2206
# 2 21.8388 109.3565 16.2444 17.5029 5.4348 3.2664
# 3 49.8890 16.2444 101.4054 14.9562 0.8879 11.7926
# 4 9.0725 17.5029 14.9562 47.9464 13.2319 6.5829
# 5 6.0640 5.4348 0.8879 13.2319 42.8664 3.7092
# 6 2.2206 3.2664 11.7926 6.5829 3.7092 35.0246
#
#
#
# Elastic Compliance Matrix: (Units=1/GPa)
#
#
# Indices 1 2 3 4 5 6 
#
# 1 0.017791 -0.002294 -0.008697 0.000550 -0.002403 0.002165
# 2 -0.002294 0.010125 0.000009 -0.003255 0.000062 -0.000197
# 3 -0.008697 0.000009 0.015062 -0.003100 0.002235 -0.004175
# 4 0.000550 -0.003255 -0.003100 0.025252 -0.007164 -0.002675
# 5 -0.002403 0.000062 0.002235 -0.007164 0.026000 -0.002013
# 6 0.002165 -0.000197 -0.004175 -0.002675 -0.002013 0.030554
#
#
# Mechanical properties :
#
#
# Convention : Reuss Voigt Hill
#
# Bulk Modulus (GPa) = 47.58875 52.26541 49.92708
# Shear Modulus (GPa) = 32.52005 38.93227 35.72616
#
# Velocity S-wave (km/s) = 3.61643 3.95694 3.79051
# Velocity P-wave (km/s) = 6.04788 6.47272 6.26391
#
# Compressibility (1/GPa) = 0.02101337
#
# Stress axis : x y z
#
# Youngs Moduli (GPa) = 56.20947 98.76577 66.39363
#
# Poissons Ratio (x) = 0.22659 0.57742
# Poissons Ratio (y) = 0.12896 -0.00061
# Poissons Ratio (z) = 0.48885 -0.00091
#
# Static dielectric constant tensor:
#      x y z
#    x 4.262330 -0.038000 -0.004440 
#    y -0.038000 4.767170 0.153400 
#    z -0.004440 0.153400 4.844030 
# 
# 
# High freq. dielectric constant tensor:
#      x y z
#    x 1.983470 0.007480 -0.008560 
#    y 0.007480 2.004450 0.011370 
#    z -0.008560 0.011370 2.004090 
# 
# From -- ./inp_files/381963.got.cif
#   From: 2010.06.25/outbox.cif.g09.slc.cpg/sg2_191_cif.got.tgz:381963.got - 2010.06.27 13:26:56.
