data_PCOD8035576
_publ_section_title
;
Structure prediction by ZEFSAII (Michael W. Deem and Ramdas Pophale) SiO2 
 PCOD8035576
Probable space group: P -1
;
_chemical_formula_sum "Si O2"
_cell_formula_units_Z 16
_cell_length_a 7.560314
_cell_length_b 20.692089
_cell_length_c 14.415178
_cell_angle_alpha 158.401771
_cell_angle_beta 126.889682
_cell_angle_gamma 54.146871
_cell_volume 660.980084
_symmetry_space_group_name_H-M "P -1"
_symmetry_group_IT_number 2
_symmetry_cell_setting 'triclinic'
loop_
_space_group_symop_operation_xyz
x,y,z
-x,-y,-z
loop_
_atom_site_type_symbol
_atom_site_label
_atom_site_fract_x
_atom_site_fract_y
_atom_site_fract_z
Si Si1 0.296993 0.045773 0.099096
Si Si2 0.162851 0.979184 0.329988
Si Si3 0.243969 0.407197 0.447273
Si Si4 0.731307 0.474644 0.092299
Si Si5 0.124208 0.220802 0.808940
Si Si6 0.527881 0.348113 0.038826
Si Si7 0.935749 0.830978 0.628128
Si Si8 0.722385 0.834764 0.016231
O O1 0.270413 0.232608 0.288105
O O2 0.203464 0.057003 0.188749
O O3 0.555859 0.986114 0.118133
O O4 0.185998 0.888606 0.797980
O O5 0.106208 0.049097 0.510206
O O6 0.159515 0.129923 0.452795
O O7 0.966819 0.858941 0.085839
O O8 0.394741 0.858954 0.230759
O O9 0.403482 0.559497 0.722394
O O10 0.000000 0.500000 0.500000
O O11 0.314895 0.353646 0.292679
O O12 0.643860 0.458823 0.146771
O O13 0.901219 0.624894 0.349988
O O14 0.500000 0.500000 0.000000
O O15 0.878342 0.302835 0.869636
O O16 0.281821 0.170060 0.879821
O O17 0.258880 0.353647 0.964858
#
# Coordination Sequence:
#
# PCOD8035576 Si02
#       8
#     2   2   2   2   2   2   2   2
#     4  11  25  45  75 111 150 198 250 315 379 464
#     4  12  25  49  77 107 154 203 260 307 379 462
#     4  12  23  46  76 108 154 196 250 316 382 447
#     4  12  28  49  74 112 153 202 254 318 378 448
#     4  12  29  49  77 110 154 205 258 310 382 456
#     4  12  26  49  75 109 150 198 253 316 378 451
#     4  11  25  47  75 108 153 196 254 307 387 446
#     4  12  26  45  76 112 148 201 256 310 381 452
#
# _framework density 24.206475999999999
#
# number of rings (size 3 to 8) (size 9 to 14) (size 15 to 20)
#    0.000    0.250    5.000    2.625    3.500    3.500 
#    0.000    0.000    0.000    0.000    0.000    0.000 
#    0.000    0.000    0.000    0.000    0.000    0.000 
#
# Total GULP energy -198265.592271 kJ/mol
# GULP energy per Si atom -12391.599517 kJ/mol
# Density = 2.415138 g / cm^3
# Si number density = 24.206476 Si / 1000 Ang^3
#
#
#
# Elastic Constant Matrix: (Units=GPa)
#
#
# Indices 1 2 3 4 5 6 
#
# 1 78.4068 25.2628 16.2704 -3.5282 -10.7361 -4.6907
# 2 25.2628 124.7857 41.3167 -1.4224 -20.6548 -2.3564
# 3 16.2704 41.3167 131.1663 -14.3485 -16.6248 0.2986
# 4 -3.5282 -1.4224 -14.3485 33.6611 9.4077 -3.0570
# 5 -10.7361 -20.6548 -16.6248 9.4077 41.7782 -5.0230
# 6 -4.6907 -2.3564 0.2986 -3.0570 -5.0230 44.6091
#
#
#
# Elastic Compliance Matrix: (Units=1/GPa)
#
#
# Indices 1 2 3 4 5 6 
#
# 1 0.014048 -0.002191 -0.000698 0.000586 0.002317 0.001667
# 2 -0.002191 0.009936 -0.002585 -0.001926 0.003828 0.000611
# 3 -0.000698 -0.002585 0.009065 0.003295 0.001422 0.000115
# 4 0.000586 -0.001926 0.003295 0.033117 -0.006774 0.001445
# 5 0.002317 0.003828 0.001422 -0.006774 0.028903 0.003227
# 6 0.001667 0.000611 0.000115 0.001445 0.003227 0.023086
#
#
# Mechanical properties :
#
#
# Convention : Reuss Voigt Hill
#
# Bulk Modulus (GPa) = 45.24705 55.56205 50.40455
# Shear Modulus (GPa) = 36.63757 40.77693 38.70725
#
# Velocity S-wave (km/s) = 3.89465 4.10878 4.00314
# Velocity P-wave (km/s) = 6.24156 6.74630 6.49883
#
# Compressibility (1/GPa) = 0.02210089
#
# Stress axis : x y z
#
# Youngs Moduli (GPa) = 71.18279 100.63989 110.31215
#
# Poissons Ratio (x) = 0.22051 0.07704
# Poissons Ratio (y) = 0.15597 0.28516
# Poissons Ratio (z) = 0.04971 0.26016
#
# Static dielectric constant tensor:
#      x y z
#    x 4.587230 0.610250 -0.117970 
#    y 0.610250 6.434180 -0.621730 
#    z -0.117970 -0.621730 4.617650 
# 
# 
# High freq. dielectric constant tensor:
#      x y z
#    x 1.974290 0.007550 -0.001200 
#    y 0.007550 1.953760 -0.019910 
#    z -0.001200 -0.019910 1.971810 
# 
# From -- ./inp_files/508225.got.cif
#   From: 2010.06.25/outbox.cif.g09.slc.cpg/sg2_255_cif.got.tgz:508225.got - 2010.06.27 13:26:56.
