data_PCOD8035162
_publ_section_title
;
Structure prediction by ZEFSAII (Michael W. Deem and Ramdas Pophale) SiO2 
 PCOD8035162
Probable space group: P -1
;
_chemical_formula_sum "Si O2"
_cell_formula_units_Z 10
_cell_length_a 9.069993
_cell_length_b 8.728450
_cell_length_c 11.351112
_cell_angle_alpha 126.517771
_cell_angle_beta 52.684568
_cell_angle_gamma 84.469402
_cell_volume 401.464646
_symmetry_space_group_name_H-M "P -1"
_symmetry_group_IT_number 2
_symmetry_cell_setting 'triclinic'
loop_
_space_group_symop_operation_xyz
x,y,z
-x,-y,-z
loop_
_atom_site_type_symbol
_atom_site_label
_atom_site_fract_x
_atom_site_fract_y
_atom_site_fract_z
Si Si1 0.118422 0.160616 0.899869
Si Si2 0.184642 0.934969 0.531974
Si Si3 0.265660 0.453423 0.043326
Si Si4 0.790274 0.502222 0.644320
Si Si5 0.639931 0.278302 0.230483
O O1 0.283823 0.974267 0.619257
O O2 0.207437 0.006529 0.910543
O O3 0.129020 0.380112 0.005587
O O4 0.823543 0.294993 0.078922
O O5 0.078815 0.804518 0.560882
O O6 0.443746 0.712786 0.223552
O O7 0.943510 0.218267 0.712028
O O8 0.310302 0.366525 0.117531
O O9 0.549187 0.684111 0.753185
O O10 0.000000 0.500000 0.500000
O O11 0.500000 0.500000 0.500000
#
# Coordination Sequence:
#
# PCOD8035162 Si02
#       5
#     2   2   2   2   2
#     4  11  26  47  81 113 149 209 256 322 382 464
#     4  12  27  53  78 115 160 203 257 320 388 468
#     4  12  29  50  81 117 158 201 259 321 396 455
#     4  12  28  51  81 113 155 208 257 323 384 461
#     4  11  24  48  77 113 155 196 268 318 381 456
#
# _framework density 24.908794
#
# number of rings (size 3 to 8) (size 9 to 14) (size 15 to 20)
#    0.000    0.400    2.000    4.800    8.400    2.400 
#    0.000    0.000    0.000    0.000    0.000    0.000 
#    0.000    0.000    0.000    0.000    0.000    0.000 
#
# Total GULP energy -124033.728108 kJ/mol
# GULP energy per Si atom -12403.372811 kJ/mol
# Density = 2.485210 g / cm^3
# Si number density = 24.908794 Si / 1000 Ang^3
#
#
#
# Elastic Constant Matrix: (Units=GPa)
#
#
# Indices 1 2 3 4 5 6 
#
# 1 166.8462 52.9828 46.3890 -14.2929 -13.0937 -2.3884
# 2 52.9828 113.0082 56.4348 -8.3728 -16.6796 13.3572
# 3 46.3890 56.4348 139.1858 -3.0567 -10.3976 1.6283
# 4 -14.2929 -8.3728 -3.0567 35.7669 -2.2313 8.6184
# 5 -13.0937 -16.6796 -10.3976 -2.2313 49.0009 -5.0740
# 6 -2.3884 13.3572 1.6283 8.6184 -5.0740 54.5348
#
#
#
# Elastic Compliance Matrix: (Units=1/GPa)
#
#
# Indices 1 2 3 4 5 6 
#
# 1 0.007465 -0.002632 -0.001309 0.002133 0.000998 0.000766
# 2 -0.002632 0.013148 -0.004157 0.002652 0.002661 -0.003383
# 3 -0.001309 -0.004157 0.009296 -0.000890 0.000255 0.000848
# 4 0.002133 0.002652 -0.000890 0.030740 0.002146 -0.005188
# 5 0.000998 0.002661 0.000255 0.002146 0.021843 0.001078
# 6 0.000766 -0.003383 0.000848 -0.005188 0.001078 0.020094
#
#
# Mechanical properties :
#
#
# Convention : Reuss Voigt Hill
#
# Bulk Modulus (GPa) = 72.91927 81.18370 77.05149
# Shear Modulus (GPa) = 40.53420 45.40942 42.97181
#
# Velocity S-wave (km/s) = 4.03836 4.27432 4.15802
# Velocity P-wave (km/s) = 7.14721 7.55135 7.35206
#
# Compressibility (1/GPa) = 0.01371380
#
# Stress axis : x y z
#
# Youngs Moduli (GPa) = 133.95732 76.05755 107.57346
#
# Poissons Ratio (x) = 0.20017 0.14076
# Poissons Ratio (y) = 0.35254 0.44722
# Poissons Ratio (z) = 0.17529 0.31619
#
# Static dielectric constant tensor:
#      x y z
#    x 4.660990 -0.107560 0.187060 
#    y -0.107560 4.806150 -0.148890 
#    z 0.187060 -0.148890 4.435710 
# 
# 
# High freq. dielectric constant tensor:
#      x y z
#    x 2.013550 -0.004850 0.015470 
#    y -0.004850 2.005110 -0.007290 
#    z 0.015470 -0.007290 1.988640 
# 
# From -- ./inp_files/15638.got.cif
#   From: 2010.06.25/outbox.cif.g09.slc.cpg/sg2_8_cif.got.tgz:15638.got - 2010.06.27 13:26:56.
