data_PCOD8035522
_publ_section_title
;
Structure prediction by ZEFSAII (Michael W. Deem and Ramdas Pophale) SiO2 
 PCOD8035522
Probable space group: P -1
;
_chemical_formula_sum "Si O2"
_cell_formula_units_Z 14
_cell_length_a 5.303097
_cell_length_b 17.384559
_cell_length_c 8.903120
_cell_angle_alpha 124.830429
_cell_angle_beta 124.664787
_cell_angle_gamma 64.829550
_cell_volume 547.984318
_symmetry_space_group_name_H-M "P -1"
_symmetry_group_IT_number 2
_symmetry_cell_setting 'triclinic'
loop_
_space_group_symop_operation_xyz
x,y,z
-x,-y,-z
loop_
_atom_site_type_symbol
_atom_site_label
_atom_site_fract_x
_atom_site_fract_y
_atom_site_fract_z
Si Si1 0.234639 0.075093 0.780350
Si Si2 0.913792 0.133755 0.045582
Si Si3 0.805824 0.783587 0.309349
Si Si4 0.532808 0.874898 0.589780
Si Si5 0.633469 0.490696 0.869149
Si Si6 0.405424 0.696152 0.525311
Si Si7 0.556089 0.325404 0.147881
O O1 0.037459 0.142608 0.661986
O O2 0.268238 0.965661 0.620390
O O3 0.068774 0.085962 0.895250
O O4 0.569653 0.110886 0.936492
O O5 0.133269 0.093934 0.215291
O O6 0.869491 0.249745 0.146573
O O7 0.527013 0.843830 0.377770
O O8 0.035628 0.730212 0.451321
O O9 0.712705 0.704271 0.080469
O O10 0.528074 0.787904 0.603993
O O11 0.547338 0.391792 0.669575
O O12 0.421156 0.568782 0.781246
O O13 0.500000 0.500000 0.000000
O O14 0.000000 0.500000 0.000000
O O15 0.546267 0.669771 0.706825
#
# Coordination Sequence:
#
# PCOD8035522 Si02
#       7
#     2   2   2   2   2   2   2
#     4  11  27  44  74 107 154 200 251 310 368 434
#     4  11  25  46  74 109 147 202 249 307 372 442
#     4  11  25  45  72 108 151 195 253 305 369 435
#     4  12  25  45  72 110 152 199 255 307 367 440
#     4  12  28  51  83 114 149 191 246 307 375 449
#     4  12  27  48  78 110 150 199 246 305 376 444
#     4  11  25  52  75 110 153 192 248 309 374 442
#
# _framework density 25.548175000000001
#
# number of rings (size 3 to 8) (size 9 to 14) (size 15 to 20)
#    0.000    0.571    2.857    4.286    8.000    1.714 
#    0.000    2.143    0.000    0.000    0.000    0.000 
#    0.000    0.000    0.000    0.000    0.000    0.000 
#
# Total GULP energy -173542.012466 kJ/mol
# GULP energy per Si atom -12395.858033 kJ/mol
# Density = 2.549003 g / cm^3
# Si number density = 25.548175 Si / 1000 Ang^3
#
#
#
# Elastic Constant Matrix: (Units=GPa)
#
#
# Indices 1 2 3 4 5 6 
#
# 1 95.1605 9.8089 29.0480 -0.5467 -29.8320 3.1375
# 2 9.8089 118.8336 22.7600 6.1852 -5.0888 5.2827
# 3 29.0480 22.7600 116.1789 2.0409 -40.1311 4.2926
# 4 -0.5467 6.1852 2.0409 49.7397 -4.2962 -8.5387
# 5 -29.8320 -5.0888 -40.1311 -4.2962 39.9383 -1.7332
# 6 3.1375 5.2827 4.2926 -8.5387 -1.7332 37.4942
#
#
#
# Elastic Compliance Matrix: (Units=1/GPa)
#
#
# Indices 1 2 3 4 5 6 
#
# 1 0.013859 -0.000802 0.000401 0.001106 0.010756 -0.000343
# 2 -0.000802 0.008940 -0.002086 -0.001421 -0.001769 -0.001359
# 3 0.000401 -0.002086 0.013714 0.000817 0.013881 -0.000482
# 4 0.001106 -0.001421 0.000817 0.021479 0.003998 0.005090
# 5 0.010756 -0.001769 0.013881 0.003998 0.047263 0.000855
# 6 -0.000343 -0.001359 -0.000482 0.005090 0.000855 0.028145
#
#
# Mechanical properties :
#
#
# Convention : Reuss Voigt Hill
#
# Bulk Modulus (GPa) = 31.70918 50.37853 41.04386
# Shear Modulus (GPa) = 33.58242 43.33819 38.46031
#
# Velocity S-wave (km/s) = 3.62950 4.12312 3.88416
# Velocity P-wave (km/s) = 5.47748 6.51373 6.01795
#
# Compressibility (1/GPa) = 0.03153661
#
# Stress axis : x y z
#
# Youngs Moduli (GPa) = 72.15744 111.86188 72.91691
#
# Poissons Ratio (x) = 0.08976 -0.02923
# Poissons Ratio (y) = 0.05790 0.15214
# Poissons Ratio (z) = -0.02893 0.23339
#
# Static dielectric constant tensor:
#      x y z
#    x 4.379760 -0.176880 0.176330 
#    y -0.176880 5.210480 -0.011680 
#    z 0.176330 -0.011680 4.758300 
# 
# 
# High freq. dielectric constant tensor:
#      x y z
#    x 2.011220 -0.008040 0.002520 
#    y -0.008040 2.040070 -0.000210 
#    z 0.002520 -0.000210 2.041540 
# 
# From -- ./inp_files/139638.got.cif
#   From: 2010.06.25/outbox.cif.g09.slc.cpg/sg2_70_cif.got.tgz:139638.got - 2010.06.27 13:26:56.
