data_PCOD8035046
_publ_section_title
;
Structure prediction by ZEFSAII (Michael W. Deem and Ramdas Pophale) SiO2 
 PCOD8035046
Probable space group: P -1
;
_chemical_formula_sum "Si O2"
_cell_formula_units_Z 14
_cell_length_a 11.919684
_cell_length_b 11.069939
_cell_length_c 8.888484
_cell_angle_alpha 60.758852
_cell_angle_beta 141.335341
_cell_angle_gamma 127.188623
_cell_volume 583.417685
_symmetry_space_group_name_H-M "P -1"
_symmetry_group_IT_number 2
_symmetry_cell_setting 'triclinic'
loop_
_space_group_symop_operation_xyz
x,y,z
-x,-y,-z
loop_
_atom_site_type_symbol
_atom_site_label
_atom_site_fract_x
_atom_site_fract_y
_atom_site_fract_z
Si Si1 0.502166 0.884148 0.706853
Si Si2 0.140861 0.662834 0.110497
Si Si3 0.084484 0.767247 0.307920
Si Si4 0.547207 0.644480 0.558154
Si Si5 0.659054 0.635639 0.993289
Si Si6 0.150609 0.034341 0.418009
Si Si7 0.225760 0.945334 0.861734
O O1 0.281450 0.750444 0.579512
O O2 0.641496 0.796794 0.878906
O O3 0.500000 0.000000 0.500000
O O4 0.571665 0.975694 0.879437
O O5 0.057928 0.729488 0.123712
O O6 0.353534 0.672576 0.377214
O O7 0.156374 0.765959 0.919148
O O8 0.000000 0.500000 0.000000
O O9 0.135794 0.943786 0.300575
O O10 0.885384 0.663136 0.253894
O O11 0.500000 0.500000 0.500000
O O12 0.628269 0.587126 0.819700
O O13 0.718641 0.789291 0.576723
O O14 0.500000 0.500000 0.000000
O O15 0.257305 0.981643 0.695948
O O16 0.932869 0.999966 0.267125
#
# Coordination Sequence:
#
# PCOD8035046 Si02
#       7
#     2   2   2   2   2   2   2
#     4  12  24  46  78 110 148 194 255 312 373 459
#     4  12  26  47  72 108 152 196 256 313 384 461
#     4  12  25  48  77 109 147 204 251 315 382 448
#     4  12  27  48  71 106 152 201 246 314 394 445
#     4  12  28  48  74 108 152 199 258 315 382 457
#     4  11  26  45  78 109 151 200 250 316 377 455
#     4  11  24  47  74 113 150 193 258 307 375 463
#
# _framework density 23.99653
#
# number of rings (size 3 to 8) (size 9 to 14) (size 15 to 20)
#    0.000    0.286    4.286    4.286    2.000    5.714 
#    2.571    0.000    0.000    0.000    0.000    0.000 
#    0.000    0.000    0.000    0.000    0.000    0.000 
#
# Total GULP energy -173445.010020 kJ/mol
# GULP energy per Si atom -12388.929287 kJ/mol
# Density = 2.394191 g / cm^3
# Si number density = 23.996530 Si / 1000 Ang^3
#
#
#
# Elastic Constant Matrix: (Units=GPa)
#
#
# Indices 1 2 3 4 5 6 
#
# 1 122.6207 68.9060 45.7300 12.0223 2.3346 2.4920
# 2 68.9060 154.0564 56.1468 17.6338 -32.0938 4.8532
# 3 45.7300 56.1468 127.9190 16.3391 -7.6321 21.5538
# 4 12.0223 17.6338 16.3391 40.2904 5.4056 0.4573
# 5 2.3346 -32.0938 -7.6321 5.4056 42.6805 8.3043
# 6 2.4920 4.8532 21.5538 0.4573 8.3043 53.8405
#
#
#
# Elastic Compliance Matrix: (Units=1/GPa)
#
#
# Indices 1 2 3 4 5 6 
#
# 1 0.012573 -0.006127 -0.002614 0.000806 -0.006249 0.001974
# 2 -0.006127 0.012628 -0.001907 -0.004295 0.010355 -0.001652
# 3 -0.002614 -0.001907 0.010801 -0.002965 0.001851 -0.004291
# 4 0.000806 -0.004295 -0.002965 0.028697 -0.007928 0.002516
# 5 -0.006249 0.010355 0.001851 -0.007928 0.034175 -0.006589
# 6 0.001974 -0.001652 -0.004291 0.002516 -0.006589 0.021344
#
#
# Mechanical properties :
#
#
# Convention : Reuss Voigt Hill
#
# Bulk Modulus (GPa) = 68.00198 82.90686 75.45442
# Shear Modulus (GPa) = 34.14922 42.94983 38.54953
#
# Velocity S-wave (km/s) = 3.77648 4.23523 4.01242
# Velocity P-wave (km/s) = 6.88589 7.65120 7.27861
#
# Compressibility (1/GPa) = 0.01470545
#
# Stress axis : x y z
#
# Youngs Moduli (GPa) = 79.53588 79.19058 92.58181
#
# Poissons Ratio (x) = 0.48522 0.24198
# Poissons Ratio (y) = 0.48733 0.17659
# Poissons Ratio (z) = 0.20788 0.15105
#
# Static dielectric constant tensor:
#      x y z
#    x 4.269710 -0.015920 -0.122180 
#    y -0.015920 4.149530 0.367620 
#    z -0.122180 0.367620 4.144870 
# 
# 
# High freq. dielectric constant tensor:
#      x y z
#    x 1.960960 -0.009110 0.016670 
#    y -0.009110 1.944880 0.023850 
#    z 0.016670 0.023850 1.962980 
# 
# From -- ./inp_files/262233.got.cif
#   From: 2010.06.25/outbox.cif.g09.slc.cpg/sg2_132_cif.got.tgz:262233.got - 2010.06.27 13:26:56.
