data_PCOD8035571
_publ_section_title
;
Structure prediction by ZEFSAII (Michael W. Deem and Ramdas Pophale) SiO2 
 PCOD8035571
Probable space group: P -1
;
_chemical_formula_sum "Si O2"
_cell_formula_units_Z 16
_cell_length_a 14.349726
_cell_length_b 8.638459
_cell_length_c 19.557202
_cell_angle_alpha 126.733975
_cell_angle_beta 158.442308
_cell_angle_gamma 52.427761
_cell_volume 702.009621
_symmetry_space_group_name_H-M "P -1"
_symmetry_group_IT_number 2
_symmetry_cell_setting 'triclinic'
loop_
_space_group_symop_operation_xyz
x,y,z
-x,-y,-z
loop_
_atom_site_type_symbol
_atom_site_label
_atom_site_fract_x
_atom_site_fract_y
_atom_site_fract_z
Si Si1 0.213235 0.303792 0.096374
Si Si2 0.210269 0.907843 0.920993
Si Si3 0.790055 0.861048 0.804222
Si Si4 0.021285 0.172766 0.473431
Si Si5 0.763432 0.819842 0.228174
Si Si6 0.825320 0.415272 0.085652
Si Si7 0.545396 0.466847 0.261283
Si Si8 0.708711 0.847250 0.483496
O O1 0.288270 0.249217 0.211052
O O2 0.461112 0.333613 0.229161
O O3 0.000000 0.500000 0.000000
O O4 0.117301 0.116088 0.949151
O O5 0.297204 0.730439 0.987194
O O6 0.966065 0.880050 0.703593
O O7 0.455323 0.902950 0.036542
O O8 0.892569 0.698923 0.773946
O O9 0.531177 0.977608 0.623962
O O10 0.000000 0.000000 0.000000
O O11 0.777506 0.345988 0.344136
O O12 0.155648 0.199079 0.643247
O O13 0.238179 0.187777 0.569982
O O14 0.922682 0.968352 0.340605
O O15 0.841196 0.614507 0.188337
O O16 0.678602 0.455606 0.924535
O O17 0.629760 0.649272 0.406252
#
# Coordination Sequence:
#
# PCOD8035571 Si02
#       8
#     2   2   2   2   2   2   2   2
#     4  12  24  46  76 105 144 191 243 292 361 428
#     4  12  26  48  73 108 147 187 242 300 357 426
#     4  12  24  50  72 103 143 193 236 292 363 427
#     4  11  25  45  75 104 149 183 246 295 364 425
#     4  11  25  46  72 111 141 192 236 305 357 424
#     4  12  25  45  77 100 148 187 241 293 357 429
#     4  12  24  45  75 108 139 194 239 291 362 424
#     4  12  27  46  75 108 144 191 241 294 361 431
#
# _framework density 22.791709999999998
#
# number of rings (size 3 to 8) (size 9 to 14) (size 15 to 20)
#    0.000    0.250    5.000    3.750    3.500    1.500 
#    2.250    1.250    0.000    0.000    0.000    0.000 
#    0.000    0.000    0.000    0.000    0.000    0.000 
#
# Total GULP energy -198455.407174 kJ/mol
# GULP energy per Si atom -12403.462948 kJ/mol
# Density = 2.273983 g / cm^3
# Si number density = 22.791710 Si / 1000 Ang^3
#
#
#
# Elastic Constant Matrix: (Units=GPa)
#
#
# Indices 1 2 3 4 5 6 
#
# 1 16908.2045******************** -702.8443 314.0351**********
# 2 **********18598.105221713.9402 749.4960 -327.899516602.6786
# 3 **********21713.940225569.5185 875.7834 -376.908619528.7710
# 4 -702.8443 749.4960 875.7834 70.4731 -24.9860 670.5042
# 5 314.0351 -327.8995 -376.9086 -24.9860 28.1000 -294.1552
# 6 **********16602.678619528.7710 670.5042 -294.155215045.4003
#
#
#
# Elastic Compliance Matrix: (Units=1/GPa)
#
#
# Indices 1 2 3 4 5 6 
#
# 1 0.010090 0.001538 0.001032 -0.002736 -0.002926 0.007688
# 2 0.001538 0.006751 -0.004698 -0.000763 0.001397 0.000334
# 3 0.001032 -0.004698 0.008301 -0.001102 -0.003250 -0.004515
# 4 -0.002736 -0.000763 -0.001102 0.030186 0.016570 -0.001640
# 5 -0.002926 0.001397 -0.003250 0.016570 0.054897 -0.000079
# 6 0.007688 0.000334 -0.004515 -0.001640 -0.000079 0.013753
#
#
# Mechanical properties :
#
#
# Convention : Reuss Voigt Hill
#
# Bulk Modulus (GPa) = 47.87584 3106.04177 1576.95880
# Shear Modulus (GPa) = 36.98344 8204.56497 4120.77421
#
# Velocity S-wave (km/s) = 4.03261 60.06344 42.56688
# Velocity P-wave (km/s) = 6.53712 78.58695 55.76129
#
# Compressibility (1/GPa) = 0.02088736
#
# Stress axis : x y z
#
# Youngs Moduli (GPa) = 99.10544 148.12806 120.46098
#
# Poissons Ratio (x) = -0.22781 -0.12433
# Poissons Ratio (y) = -0.15242 0.56589
# Poissons Ratio (z) = -0.10229 0.69586
#
# Static dielectric constant tensor:
#      x y z
#    x 4.361870 0.006700 0.283130 
#    y 0.006700 4.382650 -0.011810 
#    z 0.283130 -0.011810 3.983720 
# 
# 
# High freq. dielectric constant tensor:
#      x y z
#    x 1.904910 -0.000670 0.009090 
#    y -0.000670 1.920100 -0.003150 
#    z 0.009090 -0.003150 1.892820 
# 
# From -- ./inp_files/347500.got.cif
#   From: 2010.06.25/outbox.cif.g09.slc.cpg/sg2_174_cif.got.tgz:347500.got - 2010.06.27 13:26:56.
