data_PCOD8035578
_publ_section_title
;
Structure prediction by ZEFSAII (Michael W. Deem and Ramdas Pophale) SiO2 
 PCOD8035578
Probable space group: P -1
;
_chemical_formula_sum "Si O2"
_cell_formula_units_Z 14
_cell_length_a 20.527354
_cell_length_b 12.042781
_cell_length_c 14.447031
_cell_angle_alpha 38.761268
_cell_angle_beta 19.619204
_cell_angle_gamma 29.044809
_cell_volume 560.849755
_symmetry_space_group_name_H-M "P -1"
_symmetry_group_IT_number 2
_symmetry_cell_setting 'triclinic'
loop_
_space_group_symop_operation_xyz
x,y,z
-x,-y,-z
loop_
_atom_site_type_symbol
_atom_site_label
_atom_site_fract_x
_atom_site_fract_y
_atom_site_fract_z
Si Si1 0.289074 0.083621 0.305267
Si Si2 0.197009 0.475277 0.432852
Si Si3 0.569624 0.617746 0.463907
Si Si4 0.842763 0.207580 0.242775
Si Si5 0.324549 0.045632 0.622120
Si Si6 0.623638 0.090670 0.987198
Si Si7 0.183805 0.692929 0.494609
O O1 0.020924 0.343594 0.468949
O O2 0.235450 0.907346 0.509901
O O3 0.409954 0.083969 0.238393
O O4 0.500000 0.000000 0.000000
O O5 0.142277 0.314596 0.653990
O O6 0.203936 0.613253 0.414776
O O7 0.483308 0.292993 0.122166
O O8 0.817538 0.409213 0.204697
O O9 0.331712 0.670683 0.694685
O O10 0.605989 0.527302 0.578453
O O11 0.498366 0.868177 0.416995
O O12 0.134803 0.010611 0.941753
O O13 0.500000 0.000000 0.500000
O O14 0.736396 0.148172 0.716739
O O15 0.889877 0.837303 0.833473
#
# Coordination Sequence:
#
# PCOD8035578 Si02
#       7
#     2   2   2   2   2   2   2
#     4  12  26  51  79 110 150 198 258 306 375 451
#     4  12  27  46  76 110 153 193 252 313 376 448
#     4  11  26  48  77 105 156 197 254 301 378 446
#     4  11  29  50  78 109 150 203 250 310 378 448
#     4  12  28  49  74 115 151 194 250 308 379 452
#     4  11  26  45  73 113 152 198 249 309 384 437
#     4  11  25  45  75 112 151 197 251 314 372 448
#
# _framework density 24.962122000000001
#
# number of rings (size 3 to 8) (size 9 to 14) (size 15 to 20)
#    0.000    0.571    2.857    3.000   12.000    1.714 
#    0.000    0.000    0.000    0.000    0.000    0.000 
#    0.000    0.000    0.000    0.000    0.000    0.000 
#
# Total GULP energy -173506.933186 kJ/mol
# GULP energy per Si atom -12393.352370 kJ/mol
# Density = 2.490531 g / cm^3
# Si number density = 24.962122 Si / 1000 Ang^3
#
#
#
# Elastic Constant Matrix: (Units=GPa)
#
#
# Indices 1 2 3 4 5 6 
#
# 1 126.0659 44.9084 45.6711 18.4576 -5.4793 -3.0246
# 2 44.9084 127.0009 39.1558 19.6963 -2.1844 1.5615
# 3 45.6711 39.1558 127.5983 16.7582 11.0695 -4.1420
# 4 18.4576 19.6963 16.7582 37.0566 4.9801 7.7642
# 5 -5.4793 -2.1844 11.0695 4.9801 28.4244 6.0085
# 6 -3.0246 1.5615 -4.1420 7.7642 6.0085 49.4853
#
#
#
# Elastic Compliance Matrix: (Units=1/GPa)
#
#
# Indices 1 2 3 4 5 6 
#
# 1 0.010416 -0.002233 -0.002892 -0.003271 0.003416 0.000563
# 2 -0.002233 0.009819 -0.001926 -0.003410 0.001731 -0.000283
# 3 -0.002892 -0.001926 0.010162 -0.001836 -0.004677 0.001591
# 4 -0.003271 -0.003410 -0.001836 0.032929 -0.004929 -0.004814
# 5 0.003416 0.001731 -0.004677 -0.004929 0.039560 -0.004267
# 6 0.000563 -0.000283 0.001591 -0.004814 -0.004267 0.021658
#
#
# Mechanical properties :
#
#
# Convention : Reuss Voigt Hill
#
# Bulk Modulus (GPa) = 61.36020 71.12618 66.24319
# Shear Modulus (GPa) = 34.70402 39.72191 37.21297
#
# Velocity S-wave (km/s) = 3.73267 3.99342 3.86525
# Velocity P-wave (km/s) = 6.57357 7.05824 6.82021
#
# Compressibility (1/GPa) = 0.01629721
#
# Stress axis : x y z
#
# Youngs Moduli (GPa) = 96.00446 101.84168 98.41001
#
# Poissons Ratio (x) = 0.22737 0.28457
# Poissons Ratio (y) = 0.21434 0.18950
# Poissons Ratio (z) = 0.27761 0.19611
#
# Static dielectric constant tensor:
#      x y z
#    x 4.623300 0.048890 0.032950 
#    y 0.048890 4.693770 0.179280 
#    z 0.032950 0.179280 4.412010 
# 
# 
# High freq. dielectric constant tensor:
#      x y z
#    x 2.007990 -0.002150 0.003340 
#    y -0.002150 2.004310 0.012560 
#    z 0.003340 0.012560 1.984380 
# 
# From -- ./inp_files/541084.got.cif
#   From: 2010.06.25/outbox.cif.g09.slc.cpg/sg2_271_cif.got.tgz:541084.got - 2010.06.27 13:26:56.
