data_PCOD8035074
_publ_section_title
;
Structure prediction by ZEFSAII (Michael W. Deem and Ramdas Pophale) SiO2 
 PCOD8035074
Probable space group: P -1
;
_chemical_formula_sum "Si O2"
_cell_formula_units_Z 16
_cell_length_a 8.798738
_cell_length_b 14.495582
_cell_length_c 10.676232
_cell_angle_alpha 117.040265
_cell_angle_beta 71.889998
_cell_angle_gamma 56.095579
_cell_volume 650.045180
_symmetry_space_group_name_H-M "P -1"
_symmetry_group_IT_number 2
_symmetry_cell_setting 'triclinic'
loop_
_space_group_symop_operation_xyz
x,y,z
-x,-y,-z
loop_
_atom_site_type_symbol
_atom_site_label
_atom_site_fract_x
_atom_site_fract_y
_atom_site_fract_z
Si Si1 0.554627 0.097393 0.906839
Si Si2 0.200606 0.619382 0.111170
Si Si3 0.808331 0.003912 0.528117
Si Si4 0.735055 0.598231 0.200282
Si Si5 0.325932 0.312083 0.449257
Si Si6 0.762759 0.523452 0.749710
Si Si7 0.584581 0.372352 0.297080
Si Si8 0.221747 0.076451 0.990960
O O1 0.741023 0.981708 0.662610
O O2 0.278804 0.169324 0.023619
O O3 0.455448 0.268352 0.035438
O O4 0.751747 0.971042 0.899421
O O5 0.104363 0.589113 0.224047
O O6 0.500000 0.500000 0.000000
O O7 0.256066 0.529514 0.911064
O O8 0.969191 0.834952 0.292871
O O9 0.531275 0.192439 0.646499
O O10 0.000000 0.000000 0.500000
O O11 0.748877 0.595736 0.343515
O O12 0.000000 0.500000 0.000000
O O13 0.474669 0.316353 0.325317
O O14 0.030664 0.423033 0.538173
O O15 0.545948 0.100046 0.267402
O O16 0.586690 0.523915 0.726246
O O17 0.500000 0.500000 0.500000
O O18 0.921093 0.200435 0.089132
#
# Coordination Sequence:
#
# PCOD8035074 Si02
#       8
#     2   2   2   2   2   2   2   2
#     4  11  24  47  78 105 157 192 256 307 390 452
#     4  12  26  48  75 112 148 200 254 310 375 454
#     4  12  26  48  81 110 148 206 252 318 382 445
#     4  12  27  51  75 113 149 196 257 311 379 453
#     4  12  26  49  73 107 152 191 251 313 375 451
#     4  12  25  50  74 103 153 199 243 313 381 450
#     4  12  29  44  73 110 146 197 251 311 379 446
#     4  11  27  46  73 115 146 201 249 314 380 457
#
# _framework density 24.613672999999999
#
# number of rings (size 3 to 8) (size 9 to 14) (size 15 to 20)
#    0.000    0.250    5.000    2.250    8.750    1.500 
#    2.250    0.000    0.000    0.000    0.000    0.000 
#    0.000    0.000    0.000    0.000    0.000    0.000 
#
# Total GULP energy -198384.962092 kJ/mol
# GULP energy per Si atom -12399.060131 kJ/mol
# Density = 2.455765 g / cm^3
# Si number density = 24.613673 Si / 1000 Ang^3
#
#
#
# Elastic Constant Matrix: (Units=GPa)
#
#
# Indices 1 2 3 4 5 6 
#
# 1 131.1846 10.9608 35.4936 13.2783 -8.6696 -13.8378
# 2 10.9608 55.3953 12.1210 7.5673 -1.7884 0.5235
# 3 35.4936 12.1210 129.5617 23.0341 8.4822 -11.9787
# 4 13.2783 7.5673 23.0341 44.2950 3.5445 0.2610
# 5 -8.6696 -1.7884 8.4822 3.5445 61.6903 4.6663
# 6 -13.8378 0.5235 -11.9787 0.2610 4.6663 40.3147
#
#
#
# Elastic Compliance Matrix: (Units=1/GPa)
#
#
# Indices 1 2 3 4 5 6 
#
# 1 0.008714 -0.001075 -0.001885 -0.001572 0.001369 0.002297
# 2 -0.001075 0.018882 -0.001205 -0.002333 0.000775 -0.001047
# 3 -0.001885 -0.001205 0.009377 -0.003996 -0.001538 0.002359
# 4 -0.001572 -0.002333 -0.003996 0.025620 -0.001080 -0.001737
# 5 0.001369 0.000775 -0.001538 -0.001080 0.016845 -0.001940
# 6 0.002297 -0.001047 0.002359 -0.001737 -0.001940 0.026543
#
#
# Mechanical properties :
#
#
# Convention : Reuss Voigt Hill
#
# Bulk Modulus (GPa) = 34.91060 48.14359 41.52710
# Shear Modulus (GPa) = 40.36875 46.43107 43.39991
#
# Velocity S-wave (km/s) = 4.05420 4.34798 4.20366
# Velocity P-wave (km/s) = 6.01079 6.69393 6.36154
#
# Compressibility (1/GPa) = 0.02864459
#
# Stress axis : x y z
#
# Youngs Moduli (GPa) = 114.75246 52.96061 106.64931
#
# Poissons Ratio (x) = 0.05692 0.20099
# Poissons Ratio (y) = 0.12332 0.12849
# Poissons Ratio (z) = 0.21627 0.06381
#
# Static dielectric constant tensor:
#      x y z
#    x 5.277310 0.012400 0.114500 
#    y 0.012400 5.465710 -1.206940 
#    z 0.114500 -1.206940 5.685400 
# 
# 
# High freq. dielectric constant tensor:
#      x y z
#    x 1.998620 0.005710 0.000910 
#    y 0.005710 1.972250 -0.004210 
#    z 0.000910 -0.004210 1.989960 
# 
# From -- ./inp_files/399424.got.cif
#   From: 2010.06.25/outbox.cif.g09.slc.cpg/sg2_200_cif.got.tgz:399424.got - 2010.06.27 13:26:56.
