data_PCOD8035477
_publ_section_title
;
Structure prediction by ZEFSAII (Michael W. Deem and Ramdas Pophale) SiO2 
 PCOD8035477
Probable space group: P -1
;
_chemical_formula_sum "Si O2"
_cell_formula_units_Z 16
_cell_length_a 9.938606
_cell_length_b 6.968236
_cell_length_c 20.090679
_cell_angle_alpha 126.753435
_cell_angle_beta 128.341917
_cell_angle_gamma 43.557940
_cell_volume 722.921907
_symmetry_space_group_name_H-M "P -1"
_symmetry_group_IT_number 2
_symmetry_cell_setting 'triclinic'
loop_
_space_group_symop_operation_xyz
x,y,z
-x,-y,-z
loop_
_atom_site_type_symbol
_atom_site_label
_atom_site_fract_x
_atom_site_fract_y
_atom_site_fract_z
Si Si1 0.261153 0.639188 0.448518
Si Si2 0.043194 0.283711 0.526257
Si Si3 0.145367 0.632143 0.869063
Si Si4 0.726820 0.689538 0.738787
Si Si5 0.583924 0.542810 0.786733
Si Si6 0.338557 0.322149 0.724813
Si Si7 0.362934 0.107650 0.913822
Si Si8 0.989450 0.769568 0.085335
O O1 0.500000 0.500000 0.500000
O O2 0.216017 0.463964 0.346643
O O3 0.175994 0.622950 0.490596
O O4 0.150369 0.970387 0.460252
O O5 0.183303 0.276526 0.627176
O O6 0.000000 0.500000 0.500000
O O7 0.226675 0.520511 0.796140
O O8 0.308980 0.412545 0.929920
O O9 0.928780 0.667038 0.823315
O O10 0.113572 0.944021 0.933810
O O11 0.661582 0.517319 0.730033
O O12 0.536266 0.019030 0.745430
O O13 0.412901 0.471469 0.727799
O O14 0.780713 0.319885 0.846355
O O15 0.486444 0.872331 0.846263
O O16 0.147701 0.142850 0.871802
O O17 0.500000 0.000000 0.000000
O O18 0.000000 0.500000 0.000000
#
# Coordination Sequence:
#
# PCOD8035477 Si02
#       8
#     2   2   2   2   2   2   2   2
#     4  11  25  45  70 105 150 187 234 291 352 421
#     4  11  27  44  70 110 147 187 238 292 356 418
#     4  12  26  46  75 102 141 191 237 295 361 427
#     4  12  25  45  74 103 141 191 241 294 352 422
#     4  12  26  44  72 106 139 185 241 297 358 421
#     4  12  25  45  72 104 144 186 242 293 352 426
#     4  12  26  46  70 105 145 180 235 302 363 425
#     4  12  26  46  69 106 144 178 237 299 358 436
#
# _framework density 22.132404000000001
#
# number of rings (size 3 to 8) (size 9 to 14) (size 15 to 20)
#    0.000    0.250    8.750    0.000    1.750    4.500 
#    2.250    0.000    0.000    0.000    0.000    0.000 
#    0.000    0.000    0.000    0.000    0.000    0.000 
#
# Total GULP energy -198421.665100 kJ/mol
# GULP energy per Si atom -12401.354069 kJ/mol
# Density = 2.208203 g / cm^3
# Si number density = 22.132404 Si / 1000 Ang^3
#
#
#
# Elastic Constant Matrix: (Units=GPa)
#
#
# Indices 1 2 3 4 5 6 
#
# 1 130.2665 50.7933 8.9734 -0.2749 3.3615 2.2156
# 2 50.7933 159.6684 27.9455 3.1539 -2.1165 13.4310
# 3 8.9734 27.9455 59.2089 5.2023 2.4569 -3.0416
# 4 -0.2749 3.1539 5.2023 29.0794 0.9853 0.4600
# 5 3.3615 -2.1165 2.4569 0.9853 29.1296 -0.1018
# 6 2.2156 13.4310 -3.0416 0.4600 -0.1018 45.5176
#
#
#
# Elastic Compliance Matrix: (Units=1/GPa)
#
#
# Indices 1 2 3 4 5 6 
#
# 1 0.008820 -0.002875 0.000056 0.000421 -0.001244 0.000416
# 2 -0.002875 0.008018 -0.003501 -0.000273 0.001210 -0.002455
# 3 0.000056 -0.003501 0.018989 -0.002994 -0.001753 0.002326
# 4 0.000421 -0.000273 -0.002994 0.035000 -0.001001 -0.000496
# 5 -0.001244 0.001210 -0.001753 -0.001001 0.034742 -0.000326
# 6 0.000416 -0.002455 0.002326 -0.000496 -0.000326 0.022833
#
#
# Mechanical properties :
#
#
# Convention : Reuss Voigt Hill
#
# Bulk Modulus (GPa) = 43.12827 58.28537 50.70682
# Shear Modulus (GPa) = 33.60895 38.17409 35.89152
#
# Velocity S-wave (km/s) = 3.90107 4.15758 4.03137
# Velocity P-wave (km/s) = 6.31030 7.03131 6.68054
#
# Compressibility (1/GPa) = 0.02318665
#
# Stress axis : x y z
#
# Youngs Moduli (GPa) = 113.38157 124.71364 52.66333
#
# Poissons Ratio (x) = 0.35860 -0.00297
# Poissons Ratio (y) = 0.32602 0.18438
# Poissons Ratio (z) = -0.00640 0.43664
#
# Static dielectric constant tensor:
#      x y z
#    x 4.243600 -0.209980 0.120640 
#    y -0.209980 4.128290 -0.082080 
#    z 0.120640 -0.082080 2.901310 
# 
# 
# High freq. dielectric constant tensor:
#      x y z
#    x 1.893660 -0.008130 0.002070 
#    y -0.008130 1.888490 0.006220 
#    z 0.002070 0.006220 1.847710 
# 
# From -- ./inp_files/48049.got.cif
#   From: 2010.06.25/outbox.cif.g09.slc.cpg/sg2_25_cif.got.tgz:48049.got - 2010.06.27 13:26:56.
