data_PCOD8035651
_publ_section_title
;
Structure prediction by ZEFSAII (Michael W. Deem and Ramdas Pophale) SiO2 
 PCOD8035651
Probable space group: P -1
;
_chemical_formula_sum "Si O2"
_cell_formula_units_Z 14
_cell_length_a 18.383412
_cell_length_b 8.503594
_cell_length_c 13.696170
_cell_angle_alpha 126.757329
_cell_angle_beta 147.779316
_cell_angle_gamma 34.618867
_cell_volume 613.817964
_symmetry_space_group_name_H-M "P -1"
_symmetry_group_IT_number 2
_symmetry_cell_setting 'triclinic'
loop_
_space_group_symop_operation_xyz
x,y,z
-x,-y,-z
loop_
_atom_site_type_symbol
_atom_site_label
_atom_site_fract_x
_atom_site_fract_y
_atom_site_fract_z
Si Si1 0.714497 0.711796 0.681608
Si Si2 0.166771 0.073626 0.585029
Si Si3 0.850560 0.667321 0.028250
Si Si4 0.615232 0.217304 0.089681
Si Si5 0.821907 0.298998 0.963905
Si Si6 0.575232 0.432841 0.449546
Si Si7 0.791772 0.515019 0.210421
O O1 0.709679 0.482838 0.604781
O O2 0.903800 0.574376 0.777640
O O3 0.500000 0.000000 0.500000
O O4 0.754889 0.779406 0.853824
O O5 0.183835 0.282860 0.711200
O O6 0.926311 0.297427 0.374838
O O7 0.252448 0.851408 0.690705
O O8 0.287164 0.895619 0.554805
O O9 0.770818 0.553030 0.943294
O O10 0.768185 0.943758 0.091844
O O11 0.500000 0.500000 0.000000
O O12 0.444997 0.256163 0.954100
O O13 0.875178 0.295305 0.133728
O O14 0.630332 0.355241 0.769237
O O15 0.000000 0.000000 0.000000
O O16 0.500000 0.500000 0.500000
#
# Coordination Sequence:
#
# PCOD8035651 Si02
#       7
#     2   2   2   2   2   2   2
#     4  11  27  46  71 102 148 186 236 296 364 432
#     4  11  25  46  71 104 138 184 246 298 352 434
#     4  11  26  48  70 105 146 189 239 299 363 434
#     4  12  27  45  72 101 149 192 236 294 362 430
#     4  12  23  44  76 104 140 185 241 301 366 421
#     4  12  24  43  72 105 140 181 240 298 351 432
#     4  11  25  46  73 101 141 186 242 300 358 428
#
# _framework density 22.808064999999999
#
# number of rings (size 3 to 8) (size 9 to 14) (size 15 to 20)
#    0.000    0.571    4.286    3.000    4.000    2.857 
#    0.000    0.000    0.000    0.000    0.000    0.000 
#    0.000    0.000    0.000    0.000    0.000    0.000 
#
# Total GULP energy -173559.845204 kJ/mol
# GULP energy per Si atom -12397.131800 kJ/mol
# Density = 2.275615 g / cm^3
# Si number density = 22.808065 Si / 1000 Ang^3
#
#
#
# Elastic Constant Matrix: (Units=GPa)
#
#
# Indices 1 2 3 4 5 6 
#
# 1 77.5363 27.9759 41.3363 1.4661 -13.2938 -12.6482
# 2 27.9759 99.6383 40.3820 0.3883 -17.6553 -27.6985
# 3 41.3363 40.3820 143.9822 -13.1851 -12.0808 -15.4868
# 4 1.4661 0.3883 -13.1851 43.1260 2.8324 -4.3957
# 5 -13.2938 -17.6553 -12.0808 2.8324 42.3005 -3.8359
# 6 -12.6482 -27.6985 -15.4868 -4.3957 -3.8359 42.5761
#
#
#
# Elastic Compliance Matrix: (Units=1/GPa)
#
#
# Indices 1 2 3 4 5 6 
#
# 1 0.016682 -0.001721 -0.003869 -0.001718 0.003769 0.002591
# 2 -0.001721 0.014956 -0.002274 -0.000251 0.005875 0.008895
# 3 -0.003869 -0.002274 0.009108 0.003020 0.000327 0.001026
# 4 -0.001718 -0.000251 0.003020 0.024539 -0.001166 0.002853
# 5 0.003769 0.005875 0.000327 -0.001166 0.028127 0.007475
# 6 0.002591 0.008895 0.001026 0.002853 0.007475 0.031385
#
#
# Mechanical properties :
#
#
# Convention : Reuss Voigt Hill
#
# Bulk Modulus (GPa) = 39.97019 60.06058 50.01538
# Shear Modulus (GPa) = 33.58775 39.69801 36.64288
#
# Velocity S-wave (km/s) = 3.84164 4.17649 4.01256
# Velocity P-wave (km/s) = 6.10248 7.04610 6.59120
#
# Compressibility (1/GPa) = 0.02501864
#
# Stress axis : x y z
#
# Youngs Moduli (GPa) = 59.94398 66.86389 109.79269
#
# Poissons Ratio (x) = 0.11507 0.42479
# Poissons Ratio (y) = 0.10316 0.24964
# Poissons Ratio (z) = 0.23193 0.15203
#
# Static dielectric constant tensor:
#      x y z
#    x 4.123280 -0.131590 0.012210 
#    y -0.131590 3.967790 0.001460 
#    z 0.012210 0.001460 4.692470 
# 
# 
# High freq. dielectric constant tensor:
#      x y z
#    x 1.888370 -0.017630 -0.001820 
#    y -0.017630 1.902850 0.000570 
#    z -0.001820 0.000570 1.923270 
# 
# From -- ./inp_files/540564.got.cif
#   From: 2010.06.25/outbox.cif.g09.slc.cpg/sg2_271_cif.got.tgz:540564.got - 2010.06.27 13:26:56.
