data_PCOD8035360
_publ_section_title
;
Structure prediction by ZEFSAII (Michael W. Deem and Ramdas Pophale) SiO2 
 PCOD8035360
Probable space group: P -1
;
_chemical_formula_sum "Si O2"
_cell_formula_units_Z 16
_cell_length_a 18.069174
_cell_length_b 9.822260
_cell_length_c 10.185265
_cell_angle_alpha 118.131604
_cell_angle_beta 149.591090
_cell_angle_gamma 50.971294
_cell_volume 698.914166
_symmetry_space_group_name_H-M "P -1"
_symmetry_group_IT_number 2
_symmetry_cell_setting 'triclinic'
loop_
_space_group_symop_operation_xyz
x,y,z
-x,-y,-z
loop_
_atom_site_type_symbol
_atom_site_label
_atom_site_fract_x
_atom_site_fract_y
_atom_site_fract_z
Si Si1 0.173042 0.594533 0.298476
Si Si2 0.769086 0.474290 0.150433
Si Si3 0.431964 0.655781 0.567001
Si Si4 0.204976 0.225754 0.142540
Si Si5 0.290810 0.031646 0.906777
Si Si6 0.689438 0.342406 0.211179
Si Si7 0.643586 0.977170 0.466369
Si Si8 0.884074 0.739290 0.512646
O O1 0.270386 0.677190 0.407029
O O2 0.233841 0.394570 0.249524
O O3 0.208870 0.600309 0.509268
O O4 0.972650 0.716208 0.032218
O O5 0.757273 0.334766 0.165382
O O6 0.836018 0.586053 0.383161
O O7 0.911336 0.353523 0.205162
O O8 0.585610 0.616324 0.880410
O O9 0.500000 0.500000 0.500000
O O10 0.381732 0.827355 0.481045
O O11 0.342331 0.086205 0.390734
O O12 0.222344 0.135545 0.986969
O O13 0.178805 0.157490 0.674787
O O14 0.281601 0.852118 0.802839
O O15 0.484498 0.976802 0.156098
O O16 0.500000 0.500000 0.000000
O O17 0.808449 0.862995 0.578886
#
# Coordination Sequence:
#
# PCOD8035360 Si02
#       8
#     2   2   2   2   2   2   2   2
#     4  11  25  47  71 102 141 182 229 284 348 413
#     4  11  25  44  70 101 138 179 226 281 348 406
#     4  12  27  44  69  98 142 182 230 279 344 412
#     4  11  27  46  72 103 140 184 230 287 346 411
#     4  12  25  45  74 104 140 177 235 288 346 408
#     4  12  24  43  72 103 135 178 231 285 344 409
#     4  12  26  45  73 102 138 183 233 283 345 411
#     4  11  25  45  73 101 137 180 230 286 342 411
#
# _framework density 22.892655000000001
#
# number of rings (size 3 to 8) (size 9 to 14) (size 15 to 20)
#    0.000    0.500    2.500    5.250    3.500    5.500 
#    0.000    0.000    0.000    0.000    0.000    0.000 
#    0.000    0.000    0.000    0.000    0.000    0.000 
#
# Total GULP energy -198444.364796 kJ/mol
# GULP energy per Si atom -12402.772800 kJ/mol
# Density = 2.284055 g / cm^3
# Si number density = 22.892655 Si / 1000 Ang^3
#
#
#
# Elastic Constant Matrix: (Units=GPa)
#
#
# Indices 1 2 3 4 5 6 
#
# 1 93.9954 29.8905 8.9029 -0.9345 6.2467 -3.7785
# 2 29.8905 119.0004 18.4105 1.9079 6.3264 -1.6742
# 3 8.9029 18.4105 74.1327 3.0432 16.1477 8.8299
# 4 -0.9345 1.9079 3.0432 26.9179 0.9013 -6.0852
# 5 6.2467 6.3264 16.1477 0.9013 42.9035 1.1912
# 6 -3.7785 -1.6742 8.8299 -6.0852 1.1912 44.9519
#
#
#
# Elastic Compliance Matrix: (Units=1/GPa)
#
#
# Indices 1 2 3 4 5 6 
#
# 1 0.011716 -0.002782 -0.000656 0.000980 -0.001102 0.001172
# 2 -0.002782 0.009437 -0.001994 -0.000428 -0.000240 0.000458
# 3 -0.000656 -0.001994 0.015732 -0.002244 -0.005391 -0.003381
# 4 0.000980 -0.000428 -0.002244 0.038778 -0.000210 0.005762
# 5 -0.001102 -0.000240 -0.005391 -0.000210 0.025530 0.000252
# 6 0.001172 0.000458 -0.003381 0.005762 0.000252 0.023799
#
#
# Mechanical properties :
#
#
# Convention : Reuss Voigt Hill
#
# Bulk Modulus (GPa) = 38.43107 44.61512 41.52309
# Shear Modulus (GPa) = 34.59515 38.28297 36.43906
#
# Velocity S-wave (km/s) = 3.89162 4.09379 3.99398
# Velocity P-wave (km/s) = 6.08415 6.47122 6.28067
#
# Compressibility (1/GPa) = 0.02602062
#
# Stress axis : x y z
#
# Youngs Moduli (GPa) = 85.35579 105.96971 63.56348
#
# Poissons Ratio (x) = 0.29480 0.04169
# Poissons Ratio (y) = 0.23745 0.12676
# Poissons Ratio (z) = 0.05599 0.21132
#
# Static dielectric constant tensor:
#      x y z
#    x 3.763920 -0.264550 0.089240 
#    y -0.264550 3.920080 0.033410 
#    z 0.089240 0.033410 4.315190 
# 
# 
# High freq. dielectric constant tensor:
#      x y z
#    x 1.913110 0.001620 0.010080 
#    y 0.001620 1.912120 -0.004750 
#    z 0.010080 -0.004750 1.909710 
# 
# From -- ./inp_files/462381.got.cif
#   From: 2010.06.25/outbox.cif.g09.slc.cpg/sg2_232_cif.got.tgz:462381.got - 2010.06.27 13:26:56.
