data_PCOD8035428
_publ_section_title
;
Structure prediction by ZEFSAII (Michael W. Deem and Ramdas Pophale) SiO2 
 PCOD8035428
Probable space group: P -1
;
_chemical_formula_sum "Si O2"
_cell_formula_units_Z 16
_cell_length_a 24.322757
_cell_length_b 8.851034
_cell_length_c 14.220489
_cell_angle_alpha 149.904961
_cell_angle_beta 149.802052
_cell_angle_gamma 50.943487
_cell_volume 682.914722
_symmetry_space_group_name_H-M "P -1"
_symmetry_group_IT_number 2
_symmetry_cell_setting 'triclinic'
loop_
_space_group_symop_operation_xyz
x,y,z
-x,-y,-z
loop_
_atom_site_type_symbol
_atom_site_label
_atom_site_fract_x
_atom_site_fract_y
_atom_site_fract_z
Si Si1 0.744372 0.554156 0.178114
Si Si2 0.502175 0.205289 0.902919
Si Si3 0.250900 0.529876 0.212729
Si Si4 0.516190 0.671242 0.866826
Si Si5 0.996871 0.902880 0.835236
Si Si6 0.075464 0.301605 0.990484
Si Si7 0.098606 0.390919 0.729943
Si Si8 0.365747 0.079783 0.188191
O O1 0.863829 0.828665 0.557947
O O2 0.781154 0.479368 0.089341
O O3 0.652082 0.716282 0.117568
O O4 0.691050 0.205672 0.970219
O O5 0.368578 0.889289 0.558548
O O6 0.582940 0.051534 0.891938
O O7 0.500000 0.500000 0.000000
O O8 0.562334 0.428747 0.206363
O O9 0.275071 0.199770 0.068474
O O10 0.204483 0.537919 0.255335
O O11 0.144392 0.461242 0.942644
O O12 0.469806 0.410778 0.572207
O O13 0.500000 0.000000 0.000000
O O14 0.018351 0.577675 0.685877
O O15 0.096931 0.185027 0.063937
O O16 0.000000 0.000000 0.000000
O O17 0.995929 0.998921 0.637808
O O18 0.000000 0.500000 0.000000
#
# Coordination Sequence:
#
# PCOD8035428 Si02
#       8
#     2   2   2   2   2   2   2   2
#     4  11  25  47  73 105 146 193 239 301 377 427
#     4  12  28  48  72 106 146 192 256 304 365 448
#     4  12  26  46  73 106 149 193 240 303 377 426
#     4  12  27  47  73 104 148 190 249 307 367 437
#     4  11  25  47  74 107 146 190 244 298 359 448
#     4  11  25  45  70 107 145 184 244 302 359 441
#     4  11  25  44  75 103 144 192 242 295 366 442
#     4  12  26  48  72 108 152 190 248 308 364 443
#
# _framework density 23.428986999999999
#
# number of rings (size 3 to 8) (size 9 to 14) (size 15 to 20)
#    0.000    0.500    2.500    5.625    8.750    1.000 
#    2.250    0.000    0.000    0.000    0.000    0.000 
#    0.000    0.000    0.000    0.000    0.000    0.000 
#
# Total GULP energy -198240.339314 kJ/mol
# GULP energy per Si atom -12390.021207 kJ/mol
# Density = 2.337566 g / cm^3
# Si number density = 23.428987 Si / 1000 Ang^3
#
#
#
# Elastic Constant Matrix: (Units=GPa)
#
#
# Indices 1 2 3 4 5 6 
#
# 1 159.7342 43.5478 24.1250 -0.1317 5.6385 -1.6825
# 2 43.5478 165.6333 31.6276 5.3553 11.0730 -6.9738
# 3 24.1250 31.6276 47.0082 7.5559 12.1128 2.9112
# 4 -0.1317 5.3553 7.5559 37.3670 10.9706 -5.0917
# 5 5.6385 11.0730 12.1128 10.9706 45.0214 4.2372
# 6 -1.6825 -6.9738 2.9112 -5.0917 4.2372 54.4175
#
#
#
# Elastic Compliance Matrix: (Units=1/GPa)
#
#
# Indices 1 2 3 4 5 6 
#
# 1 0.007060 -0.001320 -0.002884 0.000840 -0.000015 0.000283
# 2 -0.001320 0.007263 -0.004137 0.000143 -0.000654 0.001176
# 3 -0.002884 -0.004137 0.027543 -0.003829 -0.004904 -0.002069
# 4 0.000840 0.000143 -0.003829 0.029989 -0.006755 0.003581
# 5 -0.000015 -0.000654 -0.004904 -0.006755 0.025570 -0.002445
# 6 0.000283 0.001176 -0.002069 0.003581 -0.002445 0.019172
#
#
# Mechanical properties :
#
#
# Convention : Reuss Voigt Hill
#
# Bulk Modulus (GPa) = 39.70541 63.44184 51.57363
# Shear Modulus (GPa) = 35.29248 45.56621 40.42935
#
# Velocity S-wave (km/s) = 3.88540 4.41485 4.15856
# Velocity P-wave (km/s) = 6.09199 7.28869 6.71704
#
# Compressibility (1/GPa) = 0.02518548
#
# Stress axis : x y z
#
# Youngs Moduli (GPa) = 141.64345 137.68696 36.30640
#
# Poissons Ratio (x) = 0.18171 0.10471
# Poissons Ratio (y) = 0.18693 0.15019
# Poissons Ratio (z) = 0.40851 0.56956
#
# Static dielectric constant tensor:
#      x y z
#    x 4.947380 0.171110 0.101120 
#    y 0.171110 4.412790 -0.243280 
#    z 0.101120 -0.243280 3.491760 
# 
# 
# High freq. dielectric constant tensor:
#      x y z
#    x 1.954060 0.002720 -0.001510 
#    y 0.002720 1.955340 0.012570 
#    z -0.001510 0.012570 1.904680 
# 
# From -- ./inp_files/542696.got.cif
#   From: 2010.06.25/outbox.cif.g09.slc.cpg/sg2_272_cif.got.tgz:542696.got - 2010.06.27 13:26:56.
