data_PCOD8035440
_publ_section_title
;
Structure prediction by ZEFSAII (Michael W. Deem and Ramdas Pophale) SiO2 
 PCOD8035440
Probable space group: P -1
;
_chemical_formula_sum "Si O2"
_cell_formula_units_Z 16
_cell_length_a 8.723103
_cell_length_b 8.409681
_cell_length_c 12.785444
_cell_angle_alpha 101.535030
_cell_angle_beta 115.453399
_cell_angle_gamma 58.269688
_cell_volume 719.886179
_symmetry_space_group_name_H-M "P -1"
_symmetry_group_IT_number 2
_symmetry_cell_setting 'triclinic'
loop_
_space_group_symop_operation_xyz
x,y,z
-x,-y,-z
loop_
_atom_site_type_symbol
_atom_site_label
_atom_site_fract_x
_atom_site_fract_y
_atom_site_fract_z
Si Si1 0.880644 0.986456 0.179672
Si Si2 0.182848 0.346750 0.177885
Si Si3 0.409545 0.719824 0.009666
Si Si4 0.066973 0.126585 0.594544
Si Si5 0.308522 0.482723 0.426118
Si Si6 0.208550 0.320270 0.946199
Si Si7 0.383401 0.172007 0.565073
Si Si8 0.732096 0.064675 0.799023
O O1 0.859187 0.833141 0.085738
O O2 0.821930 0.979531 0.281270
O O3 0.101728 0.945755 0.230385
O O4 0.731879 0.191455 0.119489
O O5 0.311958 0.390393 0.302724
O O6 0.951170 0.496501 0.139537
O O7 0.217795 0.141850 0.182027
O O8 0.243358 0.368614 0.080783
O O9 0.586879 0.764965 0.066398
O O10 0.281359 0.812674 0.087727
O O11 0.500000 0.500000 0.000000
O O12 0.881034 0.317107 0.599537
O O13 0.208285 0.160244 0.566495
O O14 0.000000 0.000000 0.500000
O O15 0.500000 0.500000 0.500000
O O16 0.290031 0.362112 0.497470
O O17 0.527079 0.175660 0.694354
O O18 0.500000 0.000000 0.500000
#
# Coordination Sequence:
#
# PCOD8035440 Si02
#       8
#     2   2   2   2   2   2   2   2
#     4  12  25  47  72 103 146 186 245 294 365 433
#     4  11  25  44  77  99 147 182 242 289 374 421
#     4  12  28  44  70 106 146 186 243 293 365 428
#     4  12  28  47  72 106 144 192 245 304 367 435
#     4  12  26  48  76 109 143 191 246 303 366 439
#     4  11  25  45  73 108 141 188 234 303 361 434
#     4  12  26  47  73 104 145 190 243 300 367 431
#     4  12  26  45  71 103 145 191 235 297 364 435
#
# _framework density 22.225736999999999
#
# number of rings (size 3 to 8) (size 9 to 14) (size 15 to 20)
#    0.000    0.250    3.750    4.875    5.250    1.000 
#    0.000    0.000    0.000    0.000    0.000    0.000 
#    0.000    0.000    0.000    0.000    0.000    0.000 
#
# Total GULP energy -198509.883550 kJ/mol
# GULP energy per Si atom -12406.867722 kJ/mol
# Density = 2.217515 g / cm^3
# Si number density = 22.225737 Si / 1000 Ang^3
#
#
#
# Elastic Constant Matrix: (Units=GPa)
#
#
# Indices 1 2 3 4 5 6 
#
# 1 123.4385 21.7927 48.4366 6.3764 4.5347 6.3515
# 2 21.7927 131.3809 55.9183 0.0652 -4.8214 10.6033
# 3 48.4366 55.9183 155.4317 -8.1572 -4.2312 15.7859
# 4 6.3764 0.0652 -8.1572 39.6355 2.0194 0.8647
# 5 4.5347 -4.8214 -4.2312 2.0194 35.1086 0.3584
# 6 6.3515 10.6033 15.7859 0.8647 0.3584 31.2024
#
#
#
# Elastic Compliance Matrix: (Units=1/GPa)
#
#
# Indices 1 2 3 4 5 6 
#
# 1 0.009498 -0.000351 -0.002958 -0.002054 -0.001511 -0.000243
# 2 -0.000351 0.009113 -0.003022 -0.000598 0.000982 -0.001491
# 3 -0.002958 -0.003022 0.008889 0.002327 0.000934 -0.002943
# 4 -0.002054 -0.000598 0.002327 0.026120 -0.001026 -0.001268
# 5 -0.001511 0.000982 0.000934 -0.001026 0.028993 -0.000804
# 6 -0.000243 -0.001491 -0.002943 -0.001268 -0.000804 0.034138
#
#
# Mechanical properties :
#
#
# Convention : Reuss Voigt Hill
#
# Bulk Modulus (GPa) = 67.39697 73.61623 70.50660
# Shear Modulus (GPa) = 37.21371 40.12954 38.67162
#
# Velocity S-wave (km/s) = 4.09632 4.25378 4.17579
# Velocity P-wave (km/s) = 7.26380 7.57101 7.41900
#
# Compressibility (1/GPa) = 0.01483746
#
# Stress axis : x y z
#
# Youngs Moduli (GPa) = 105.28655 109.73716 112.49782
#
# Poissons Ratio (x) = 0.03857 0.33272
# Poissons Ratio (y) = 0.03700 0.33998
# Poissons Ratio (z) = 0.31139 0.33164
#
# Static dielectric constant tensor:
#      x y z
#    x 4.027110 -0.017310 -0.044020 
#    y -0.017310 4.204050 -0.128000 
#    z -0.044020 -0.128000 4.296210 
# 
# 
# High freq. dielectric constant tensor:
#      x y z
#    x 1.877320 0.002160 0.001310 
#    y 0.002160 1.887050 -0.008360 
#    z 0.001310 -0.008360 1.890400 
# 
# From -- ./inp_files/218980.got.cif
#   From: 2010.06.25/outbox.cif.g09.slc.cpg/sg2_110_cif.got.tgz:218980.got - 2010.06.27 13:26:56.
