data_PCOD8035669
_publ_section_title
;
Structure prediction by ZEFSAII (Michael W. Deem and Ramdas Pophale) SiO2 
 PCOD8035669
Probable space group: P -1
;
_chemical_formula_sum "Si O2"
_cell_formula_units_Z 16
_cell_length_a 9.142494
_cell_length_b 9.568767
_cell_length_c 14.700514
_cell_angle_alpha 113.984408
_cell_angle_beta 95.407435
_cell_angle_gamma 132.402067
_cell_volume 726.928901
_symmetry_space_group_name_H-M "P -1"
_symmetry_group_IT_number 2
_symmetry_cell_setting 'triclinic'
loop_
_space_group_symop_operation_xyz
x,y,z
-x,-y,-z
loop_
_atom_site_type_symbol
_atom_site_label
_atom_site_fract_x
_atom_site_fract_y
_atom_site_fract_z
Si Si1 0.277977 0.996732 0.522523
Si Si2 0.967502 0.851774 0.879149
Si Si3 0.247831 0.775400 0.879956
Si Si4 0.752391 0.719154 0.119071
Si Si5 0.766113 0.437060 0.341063
Si Si6 0.524775 0.947738 0.635142
Si Si7 0.975067 0.356478 0.882310
Si Si8 0.585194 0.586465 0.279332
O O1 0.448843 0.050069 0.618012
O O2 0.028662 0.711583 0.437928
O O3 0.366171 0.062588 0.441958
O O4 0.268820 0.167896 0.591165
O O5 0.690492 0.593967 0.782506
O O6 0.090304 0.793718 0.898351
O O7 0.102573 0.015141 0.838145
O O8 0.000000 0.000000 0.000000
O O9 0.259110 0.741574 0.765331
O O10 0.125160 0.526600 0.848808
O O11 0.500000 0.000000 0.000000
O O12 0.708745 0.688617 0.215480
O O13 0.917139 0.714041 0.095276
O O14 0.500000 0.500000 0.000000
O O15 0.686868 0.326765 0.408864
O O16 0.603648 0.436171 0.287194
O O17 0.703913 0.117922 0.774364
O O18 0.000000 0.500000 0.000000
#
# Coordination Sequence:
#
# PCOD8035669 Si02
#       8
#     2   2   2   2   2   2   2   2
#     4  11  26  46  73 102 142 182 235 288 343 417
#     4  12  25  43  67 100 142 183 232 287 347 414
#     4  12  24  43  69 103 140 181 232 288 346 416
#     4  12  25  44  68 101 146 183 231 289 349 416
#     4  12  25  47  70 102 141 179 237 287 347 414
#     4  11  25  46  72 103 139 181 236 288 345 414
#     4  12  24  44  72 102 141 186 228 289 352 411
#     4  12  26  45  72 103 140 188 232 287 350 416
#
# _framework density 22.010404999999999
#
# number of rings (size 3 to 8) (size 9 to 14) (size 15 to 20)
#    0.000    0.250    3.750    5.250    5.250    1.500 
#    0.000    0.000    0.000    0.000    0.000    0.000 
#    0.000    0.000    0.000    0.000    0.000    0.000 
#
# Total GULP energy -198472.279481 kJ/mol
# GULP energy per Si atom -12404.517468 kJ/mol
# Density = 2.196031 g / cm^3
# Si number density = 22.010405 Si / 1000 Ang^3
#
#
#
# Elastic Constant Matrix: (Units=GPa)
#
#
# Indices 1 2 3 4 5 6 
#
# 1 111.9729 10.3747 57.3584 10.4323 2.7133 4.9866
# 2 10.3747 123.1770 26.7229 -4.4725 -14.3641 21.3449
# 3 57.3584 26.7229 124.0952 7.1681 -11.5117 7.2040
# 4 10.4323 -4.4725 7.1681 33.4155 0.7085 1.1238
# 5 2.7133 -14.3641 -11.5117 0.7085 38.1979 2.3040
# 6 4.9866 21.3449 7.2040 1.1238 2.3040 35.3172
#
#
#
# Elastic Compliance Matrix: (Units=1/GPa)
#
#
# Indices 1 2 3 4 5 6 
#
# 1 0.012155 -0.000147 -0.005665 -0.002537 -0.002565 -0.000224
# 2 -0.000147 0.009989 -0.001502 0.001830 0.003642 -0.006005
# 3 -0.005665 -0.001502 0.011410 -0.000924 0.003342 -0.000808
# 4 -0.002537 0.001830 -0.000924 0.031212 0.000105 -0.001559
# 5 -0.002565 0.003642 0.003342 0.000105 0.029003 -0.004416
# 6 -0.000224 -0.006005 -0.000808 -0.001559 -0.004416 0.032479
#
#
# Mechanical properties :
#
#
# Convention : Reuss Voigt Hill
#
# Bulk Modulus (GPa) = 52.83915 60.90634 56.87274
# Shear Modulus (GPa) = 33.97118 39.03875 36.50496
#
# Velocity S-wave (km/s) = 3.93289 4.21604 4.07693
# Velocity P-wave (km/s) = 6.68447 7.17159 6.93231
#
# Compressibility (1/GPa) = 0.01892536
#
# Stress axis : x y z
#
# Youngs Moduli (GPa) = 82.27276 100.11492 87.63898
#
# Poissons Ratio (x) = 0.01475 0.49645
# Poissons Ratio (y) = 0.01212 0.13164
# Poissons Ratio (z) = 0.46606 0.15038
#
# Static dielectric constant tensor:
#      x y z
#    x 4.064960 0.005000 0.061180 
#    y 0.005000 4.072940 -0.044300 
#    z 0.061180 -0.044300 3.882550 
# 
# 
# High freq. dielectric constant tensor:
#      x y z
#    x 1.876770 0.004800 0.003520 
#    y 0.004800 1.883230 0.000430 
#    z 0.003520 0.000430 1.867250 
# 
# From -- ./inp_files/225888.got.cif
#   From: 2010.06.25/outbox.cif.g09.slc.cpg/sg2_113_cif.got.tgz:225888.got - 2010.06.27 13:26:56.
