data_PCOD8035371
_publ_section_title
;
Structure prediction by ZEFSAII (Michael W. Deem and Ramdas Pophale) SiO2 
 PCOD8035371
Probable space group: P -1
;
_chemical_formula_sum "Si O2"
_cell_formula_units_Z 16
_cell_length_a 11.904201
_cell_length_b 8.610002
_cell_length_c 14.035969
_cell_angle_alpha 85.413107
_cell_angle_beta 73.874096
_cell_angle_gamma 32.711675
_cell_volume 713.362521
_symmetry_space_group_name_H-M "P -1"
_symmetry_group_IT_number 2
_symmetry_cell_setting 'triclinic'
loop_
_space_group_symop_operation_xyz
x,y,z
-x,-y,-z
loop_
_atom_site_type_symbol
_atom_site_label
_atom_site_fract_x
_atom_site_fract_y
_atom_site_fract_z
Si Si1 0.274496 0.164674 0.064310
Si Si2 0.659027 0.199728 0.426317
Si Si3 0.861304 0.136793 0.123288
Si Si4 0.110472 0.831049 0.271973
Si Si5 0.165650 0.175904 0.885182
Si Si6 0.378184 0.835319 0.233152
Si Si7 0.745351 0.832159 0.566704
Si Si8 0.534090 0.776689 0.690363
O O1 0.082195 0.511275 0.115269
O O2 0.300375 0.008781 0.147222
O O3 0.181922 0.180022 0.993402
O O4 0.500000 0.000000 0.000000
O O5 0.500000 0.500000 0.500000
O O6 0.562903 0.261358 0.343076
O O7 0.666822 0.032528 0.491545
O O8 0.889410 0.034504 0.372891
O O9 0.649620 0.494645 0.175718
O O10 0.753374 0.090022 0.144823
O O11 0.048297 0.933648 0.171988
O O12 0.000000 0.000000 0.000000
O O13 0.229691 0.850047 0.283236
O O14 0.276609 0.495830 0.265781
O O15 0.342878 0.076653 0.787346
O O16 0.310852 0.023441 0.326524
O O17 0.617752 0.812311 0.595634
O O18 0.000000 0.500000 0.500000
#
# Coordination Sequence:
#
# PCOD8035371 Si02
#       8
#     2   2   2   2   2   2   2   2
#     4  11  26  45  73 105 150 192 239 304 370 442
#     4  12  27  48  76 108 144 194 249 308 369 436
#     4  12  26  45  74 108 148 193 247 296 370 445
#     4  12  25  47  74 105 151 189 243 311 365 440
#     4  11  25  44  70 108 140 193 241 292 372 438
#     4  12  28  47  72 113 145 195 250 305 368 443
#     4  12  28  48  74 108 146 197 247 304 373 433
#     4  12  26  47  76 106 147 191 247 302 369 444
#
# _framework density 22.428989999999999
#
# number of rings (size 3 to 8) (size 9 to 14) (size 15 to 20)
#    0.000    0.250    3.750    4.125    8.750    6.000 
#    0.000    0.000    0.000    0.000    0.000    0.000 
#    0.000    0.000    0.000    0.000    0.000    0.000 
#
# Total GULP energy -198348.922038 kJ/mol
# GULP energy per Si atom -12396.807627 kJ/mol
# Density = 2.237794 g / cm^3
# Si number density = 22.428990 Si / 1000 Ang^3
#
#
#
# Elastic Constant Matrix: (Units=GPa)
#
#
# Indices 1 2 3 4 5 6 
#
# 1 84.3711 38.5318 32.9174 7.4254 -9.8772 -2.3245
# 2 38.5318 174.8777 82.2616 7.7635 0.5388 -3.4267
# 3 32.9174 82.2616 146.1667 14.1839 -11.7151 -3.0090
# 4 7.4254 7.7635 14.1839 53.4258 0.1038 -1.6906
# 5 -9.8772 0.5388 -11.7151 0.1038 41.9216 2.9904
# 6 -2.3245 -3.4267 -3.0090 -1.6906 2.9904 33.7482
#
#
#
# Elastic Compliance Matrix: (Units=1/GPa)
#
#
# Indices 1 2 3 4 5 6 
#
# 1 0.013943 -0.002328 -0.001476 -0.001205 0.002886 0.000276
# 2 -0.002328 0.008251 -0.004288 0.000282 -0.001888 0.000476
# 3 -0.001476 -0.004288 0.009965 -0.001821 0.002494 0.000039
# 4 -0.001205 0.000282 -0.001821 0.019356 -0.000904 0.000833
# 5 0.002886 -0.001888 0.002494 -0.000904 0.025405 -0.002067
# 6 0.000276 0.000476 0.000039 0.000833 -0.002067 0.029927
#
#
# Mechanical properties :
#
#
# Convention : Reuss Voigt Hill
#
# Bulk Modulus (GPa) = 62.60015 79.20416 70.90215
# Shear Modulus (GPa) = 38.95461 42.59943 40.77702
#
# Velocity S-wave (km/s) = 4.17201 4.36283 4.26849
# Velocity P-wave (km/s) = 7.15392 7.79544 7.48156
#
# Compressibility (1/GPa) = 0.01597440
#
# Stress axis : x y z
#
# Youngs Moduli (GPa) = 71.72146 121.19817 100.35493
#
# Poissons Ratio (x) = 0.28212 0.14813
# Poissons Ratio (y) = 0.16695 0.43034
# Poissons Ratio (z) = 0.10587 0.51972
#
# Static dielectric constant tensor:
#      x y z
#    x 4.033840 -0.005670 -0.075540 
#    y -0.005670 4.331160 -0.026460 
#    z -0.075540 -0.026460 4.453690 
# 
# 
# High freq. dielectric constant tensor:
#      x y z
#    x 1.885760 0.000140 -0.010320 
#    y 0.000140 1.898220 0.000960 
#    z -0.010320 0.000960 1.905840 
# 
# From -- ./inp_files/49030.got.cif
#   From: 2010.06.25/outbox.cif.g09.slc.cpg/sg2_25_cif.got.tgz:49030.got - 2010.06.27 13:26:56.
