data_PCOD8035349
_publ_section_title
;
Structure prediction by ZEFSAII (Michael W. Deem and Ramdas Pophale) SiO2 
 PCOD8035349
Probable space group: P -1
;
_chemical_formula_sum "Si O2"
_cell_formula_units_Z 16
_cell_length_a 6.709286
_cell_length_b 24.738791
_cell_length_c 10.973705
_cell_angle_alpha 33.489618
_cell_angle_beta 113.302596
_cell_angle_gamma 127.951919
_cell_volume 763.142638
_symmetry_space_group_name_H-M "P -1"
_symmetry_group_IT_number 2
_symmetry_cell_setting 'triclinic'
loop_
_space_group_symop_operation_xyz
x,y,z
-x,-y,-z
loop_
_atom_site_type_symbol
_atom_site_label
_atom_site_fract_x
_atom_site_fract_y
_atom_site_fract_z
Si Si1 0.098223 0.445832 0.533120
Si Si2 0.249416 0.015383 0.088614
Si Si3 0.347749 0.400424 0.253068
Si Si4 0.765615 0.212662 0.489666
Si Si5 0.510282 0.430214 0.807138
Si Si6 0.260854 0.011722 0.386792
Si Si7 0.627695 0.264812 0.605316
Si Si8 0.697708 0.828382 0.698942
O O1 0.265692 0.408267 0.714487
O O2 0.259828 0.538988 0.289217
O O3 0.000000 0.500000 0.500000
O O4 0.850767 0.329193 0.637930
O O5 0.239338 0.901082 0.258741
O O6 0.259437 0.031303 0.206489
O O7 0.487028 0.130746 0.865656
O O8 0.000000 0.000000 0.000000
O O9 0.379642 0.464366 0.267976
O O10 0.452585 0.317685 0.455346
O O11 0.041972 0.312749 0.304237
O O12 0.500000 0.500000 0.000000
O O13 0.747246 0.279150 0.474811
O O14 0.511947 0.157591 0.446932
O O15 0.416889 0.309025 0.078129
O O16 0.981033 0.894878 0.577685
O O17 0.500000 0.000000 0.500000
O O18 0.284737 0.122488 0.253013
#
# Coordination Sequence:
#
# PCOD8035349 Si02
#       8
#     2   2   2   2   2   2   2   2
#     4  11  25  44  69 100 142 183 238 294 358 420
#     4  12  26  46  76 103 143 188 242 302 358 423
#     4  12  27  45  71 105 146 188 240 290 359 435
#     4  12  26  48  69 106 144 187 242 301 353 432
#     4  11  26  44  70 105 139 186 238 292 353 439
#     4  11  26  49  70 107 144 185 242 292 359 432
#     4  12  26  45  73 103 139 189 241 294 364 423
#     4  11  27  44  75 102 144 188 235 293 365 424
#
# _framework density 20.965935999999999
#
# number of rings (size 3 to 8) (size 9 to 14) (size 15 to 20)
#    0.000    0.500    5.000    1.875    7.000    2.000 
#    0.000    0.000    0.000    0.000    0.000    0.000 
#    0.000    0.000    0.000    0.000    0.000    0.000 
#
# Total GULP energy -198421.628328 kJ/mol
# GULP energy per Si atom -12401.351770 kJ/mol
# Density = 2.091822 g / cm^3
# Si number density = 20.965936 Si / 1000 Ang^3
#
#
#
# Elastic Constant Matrix: (Units=GPa)
#
#
# Indices 1 2 3 4 5 6 
#
# 1 129.9111 49.0434 48.4270 -6.2525 -5.3922 6.5278
# 2 49.0434 121.5112 26.7379 1.3055 0.2785 14.7639
# 3 48.4270 26.7379 112.9210 -11.7727 0.7890 11.8197
# 4 -6.2525 1.3055 -11.7727 42.3480 -2.3799 -2.7451
# 5 -5.3922 0.2785 0.7890 -2.3799 32.4793 -4.7413
# 6 6.5278 14.7639 11.8197 -2.7451 -4.7413 52.5226
#
#
#
# Elastic Compliance Matrix: (Units=1/GPa)
#
#
# Indices 1 2 3 4 5 6 
#
# 1 0.010482 -0.003526 -0.003668 0.000798 0.002026 0.000739
# 2 -0.003526 0.010128 -0.000758 -0.001261 -0.001097 -0.002403
# 3 -0.003668 -0.000758 0.011050 0.002385 -0.000956 -0.001779
# 4 0.000798 -0.001261 0.002385 0.024627 0.002064 0.001192
# 5 0.002026 -0.001097 -0.000956 0.002064 0.031783 0.003249
# 6 0.000739 -0.002403 -0.001779 0.001192 0.003249 0.020379
#
#
# Mechanical properties :
#
#
# Convention : Reuss Voigt Hill
#
# Bulk Modulus (GPa) = 63.47655 68.08443 65.78049
# Shear Modulus (GPa) = 38.57863 41.47899 40.02881
#
# Velocity S-wave (km/s) = 4.29425 4.45275 4.37421
# Velocity P-wave (km/s) = 7.41142 7.67986 7.54684
#
# Compressibility (1/GPa) = 0.01575385
#
# Stress axis : x y z
#
# Youngs Moduli (GPa) = 95.40475 98.73823 90.49753
#
# Poissons Ratio (x) = 0.34818 0.33198
# Poissons Ratio (y) = 0.33642 0.06861
# Poissons Ratio (z) = 0.34999 0.07485
#
# Static dielectric constant tensor:
#      x y z
#    x 3.375230 -0.529600 -0.317460 
#    y -0.529600 3.328940 -0.211100 
#    z -0.317460 -0.211100 3.522260 
# 
# 
# High freq. dielectric constant tensor:
#      x y z
#    x 1.839760 0.001920 -0.000140 
#    y 0.001920 1.844440 -0.004900 
#    z -0.000140 -0.004900 1.820270 
# 
# From -- ./inp_files/70789.got.cif
#   From: 2010.06.25/outbox.cif.g09.slc.cpg/sg2_36_cif.got.tgz:70789.got - 2010.06.27 13:26:56.
