data_PCOD8035160
_publ_section_title
;
Structure prediction by ZEFSAII (Michael W. Deem and Ramdas Pophale) SiO2 
 PCOD8035160
Probable space group: P -1
;
_chemical_formula_sum "Si O2"
_cell_formula_units_Z 16
_cell_length_a 10.672513
_cell_length_b 12.248795
_cell_length_c 11.630329
_cell_angle_alpha 33.126591
_cell_angle_beta 61.641656
_cell_angle_gamma 69.179600
_cell_volume 728.323972
_symmetry_space_group_name_H-M "P -1"
_symmetry_group_IT_number 2
_symmetry_cell_setting 'triclinic'
loop_
_space_group_symop_operation_xyz
x,y,z
-x,-y,-z
loop_
_atom_site_type_symbol
_atom_site_label
_atom_site_fract_x
_atom_site_fract_y
_atom_site_fract_z
Si Si1 0.196709 0.124013 0.443780
Si Si2 0.858078 0.605372 0.966666
Si Si3 0.986215 0.769779 0.175451
Si Si4 0.356759 0.863035 0.212637
Si Si5 0.433921 0.364765 0.253657
Si Si6 0.754751 0.447360 0.647977
Si Si7 0.080127 0.076567 0.159503
Si Si8 0.330196 0.772531 0.569195
O O1 0.184283 0.330926 0.198056
O O2 0.326588 0.178992 0.423705
O O3 0.223960 0.930610 0.524542
O O4 0.051007 0.087327 0.611872
O O5 0.871022 0.813359 0.843472
O O6 0.739411 0.453327 0.208592
O O7 0.000000 0.500000 0.000000
O O8 0.841168 0.654661 0.388867
O O9 0.130180 0.685022 0.229083
O O10 0.972092 0.761646 0.050541
O O11 0.000000 0.000000 0.000000
O O12 0.335285 0.660296 0.323941
O O13 0.374695 0.823676 0.374677
O O14 0.215069 0.970150 0.148290
O O15 0.500000 0.000000 0.000000
O O16 0.360261 0.514139 0.238831
O O17 0.540982 0.237031 0.390269
O O18 0.500000 0.500000 0.000000
#
# Coordination Sequence:
#
# PCOD8035160 Si02
#       8
#     2   2   2   2   2   2   2   2
#     4  12  26  48  74 110 146 189 249 308 366 443
#     4  12  24  44  73 108 146 186 243 305 369 431
#     4  11  24  48  77 106 143 193 245 314 364 435
#     4  12  29  48  77 107 154 201 246 304 369 449
#     4  12  29  48  76 106 150 195 245 307 376 441
#     4  11  28  49  74 110 145 194 260 297 375 448
#     4  12  25  45  76 108 147 190 248 306 368 431
#     4  12  27  50  75 106 149 201 243 305 376 436
#
# _framework density 21.968247000000002
#
# number of rings (size 3 to 8) (size 9 to 14) (size 15 to 20)
#    0.000    0.250    5.000    3.000   10.500    1.500 
#    0.000    0.000    0.000    0.000    0.000    0.000 
#    0.000    0.000    0.000    0.000    0.000    0.000 
#
# Total GULP energy -198390.551271 kJ/mol
# GULP energy per Si atom -12399.409454 kJ/mol
# Density = 2.191825 g / cm^3
# Si number density = 21.968247 Si / 1000 Ang^3
#
#
#
# Elastic Constant Matrix: (Units=GPa)
#
#
# Indices 1 2 3 4 5 6 
#
# 1 130.8932 39.8468 69.4402 12.2141 -3.7260 6.3816
# 2 39.8468 108.5070 44.7743 9.1137 -7.5925 -3.6689
# 3 69.4402 44.7743 152.5932 13.5731 -6.8788 -3.9082
# 4 12.2141 9.1137 13.5731 41.1629 6.6924 -2.9902
# 5 -3.7260 -7.5925 -6.8788 6.6924 49.5130 3.1560
# 6 6.3816 -3.6689 -3.9082 -2.9902 3.1560 37.1425
#
#
#
# Elastic Compliance Matrix: (Units=1/GPa)
#
#
# Indices 1 2 3 4 5 6 
#
# 1 0.010815 -0.002177 -0.004198 -0.001582 0.000281 -0.002666
# 2 -0.002177 0.011106 -0.002067 -0.001277 0.001359 0.001035
# 3 -0.004198 -0.002067 0.009260 -0.001378 0.000756 0.001316
# 4 -0.001582 -0.001277 -0.001378 0.026368 -0.004229 0.002483
# 5 0.000281 0.001359 0.000756 -0.004229 0.021229 -0.001979
# 6 -0.002666 0.001035 0.001316 0.002483 -0.001979 0.027990
#
#
# Mechanical properties :
#
#
# Convention : Reuss Voigt Hill
#
# Bulk Modulus (GPa) = 69.93815 77.79067 73.86441
# Shear Modulus (GPa) = 38.93565 41.42581 40.18073
#
# Velocity S-wave (km/s) = 4.21451 4.34719 4.28136
# Velocity P-wave (km/s) = 7.45573 7.79005 7.62472
#
# Compressibility (1/GPa) = 0.01429835
#
# Stress axis : x y z
#
# Youngs Moduli (GPa) = 92.46327 90.04495 107.98761
#
# Poissons Ratio (x) = 0.19604 0.45330
# Poissons Ratio (y) = 0.20130 0.22316
# Poissons Ratio (z) = 0.38813 0.18608
#
# Static dielectric constant tensor:
#      x y z
#    x 4.222870 0.026770 0.351960 
#    y 0.026770 3.850100 0.203940 
#    z 0.351960 0.203940 4.008410 
# 
# 
# High freq. dielectric constant tensor:
#      x y z
#    x 1.884400 0.010360 0.000610 
#    y 0.010360 1.866260 0.001380 
#    z 0.000610 0.001380 1.875910 
# 
# From -- ./inp_files/69930.got.cif
#   From: 2010.06.25/outbox.cif.g09.slc.cpg/sg2_35_cif.got.tgz:69930.got - 2010.06.27 13:26:56.
