data_PCOD8035002
_publ_section_title
;
Structure prediction by ZEFSAII (Michael W. Deem and Ramdas Pophale) SiO2 
 PCOD8035002
Probable space group: P -1
;
_chemical_formula_sum "Si O2"
_cell_formula_units_Z 16
_cell_length_a 14.088596
_cell_length_b 9.138646
_cell_length_c 14.958617
_cell_angle_alpha 98.950411
_cell_angle_beta 147.684729
_cell_angle_gamma 103.035940
_cell_volume 749.320301
_symmetry_space_group_name_H-M "P -1"
_symmetry_group_IT_number 2
_symmetry_cell_setting 'triclinic'
loop_
_space_group_symop_operation_xyz
x,y,z
-x,-y,-z
loop_
_atom_site_type_symbol
_atom_site_label
_atom_site_fract_x
_atom_site_fract_y
_atom_site_fract_z
Si Si1 0.070241 0.299096 0.298202
Si Si2 0.744286 0.287472 0.791500
Si Si3 0.202931 0.895965 0.515780
Si Si4 0.438132 0.311252 0.686564
Si Si5 0.839010 0.023065 0.926798
Si Si6 0.599479 0.120501 0.000172
Si Si7 0.326740 0.717763 0.466404
Si Si8 0.668734 0.499257 0.072066
O O1 0.314378 0.378929 0.545148
O O2 0.121953 0.481537 0.303886
O O3 0.980498 0.127886 0.140496
O O4 0.862531 0.203217 0.196779
O O5 0.605272 0.308350 0.754896
O O6 0.778439 0.139869 0.837399
O O7 0.617092 0.224488 0.587924
O O8 0.000000 0.500000 0.000000
O O9 0.246285 0.829596 0.453138
O O10 0.938923 0.709959 0.324938
O O11 0.225933 0.084373 0.533048
O O12 0.411008 0.969533 0.758676
O O13 0.598708 0.471103 0.909046
O O14 0.578389 0.802769 0.717855
O O15 0.000000 0.000000 0.000000
O O16 0.635479 0.314174 0.060566
O O17 0.500000 0.000000 0.000000
O O18 0.500000 0.500000 0.000000
#
# Coordination Sequence:
#
# PCOD8035002 Si02
#       8
#     2   2   2   2   2   2   2   2
#     4  12  26  46  66 106 139 175 230 288 336 404
#     4  12  24  44  69  96 140 186 228 277 336 401
#     4  11  24  47  71  98 137 183 223 280 344 408
#     4  11  27  45  69 101 141 181 229 282 337 406
#     4  12  26  43  66 103 139 180 234 279 336 400
#     4  11  26  46  72 101 138 175 225 290 345 402
#     4  12  24  44  71  95 140 184 227 279 338 404
#     4  11  26  47  72 102 134 181 230 278 347 409
#
# _framework density 21.352684
#
# number of rings (size 3 to 8) (size 9 to 14) (size 15 to 20)
#    0.000    0.500    5.000    2.625    7.000    4.500 
#    0.000    0.000    0.000    0.000    0.000    0.000 
#    0.000    0.000    0.000    0.000    0.000    0.000 
#
# Total GULP energy -198429.726323 kJ/mol
# GULP energy per Si atom -12401.857895 kJ/mol
# Density = 2.130408 g / cm^3
# Si number density = 21.352684 Si / 1000 Ang^3
#
#
#
# Elastic Constant Matrix: (Units=GPa)
#
#
# Indices 1 2 3 4 5 6 
#
# 1 142.4723 46.7695 33.7392 -0.1262 13.5212 -9.3314
# 2 46.7695 80.6372 37.1494 -7.9832 4.1678 4.9386
# 3 33.7392 37.1494 103.9890 9.8887 13.8658 -2.9197
# 4 -0.1262 -7.9832 9.8887 39.4333 2.4687 2.6342
# 5 13.5212 4.1678 13.8658 2.4687 42.1229 -3.5322
# 6 -9.3314 4.9386 -2.9197 2.6342 -3.5322 38.5068
#
#
#
# Elastic Compliance Matrix: (Units=1/GPa)
#
#
# Indices 1 2 3 4 5 6 
#
# 1 0.009258 -0.005190 -0.000729 -0.000900 -0.001936 0.002738
# 2 -0.005190 0.018861 -0.005838 0.005495 0.001030 -0.004401
# 3 -0.000729 -0.005838 0.012794 -0.004308 -0.003017 0.001560
# 4 -0.000900 0.005495 -0.004308 0.027810 -0.000737 -0.003220
# 5 -0.001936 0.001030 -0.003017 -0.000737 0.025426 0.001553
# 6 0.002738 -0.004401 0.001560 -0.003220 0.001553 0.027678
#
#
# Mechanical properties :
#
#
# Convention : Reuss Voigt Hill
#
# Bulk Modulus (GPa) = 57.47334 62.49055 59.98194
# Shear Modulus (GPa) = 33.08175 37.97528 35.52852
#
# Velocity S-wave (km/s) = 3.94039 4.22178 4.08351
# Velocity P-wave (km/s) = 6.90484 7.28656 7.09827
#
# Compressibility (1/GPa) = 0.01739937
#
# Stress axis : x y z
#
# Youngs Moduli (GPa) = 108.01961 53.01861 78.16166
#
# Poissons Ratio (x) = 0.27519 0.05696
# Poissons Ratio (y) = 0.56066 0.45628
# Poissons Ratio (z) = 0.07873 0.30950
#
# Static dielectric constant tensor:
#      x y z
#    x 4.178100 0.281520 0.022260 
#    y 0.281520 4.029260 0.266550 
#    z 0.022260 0.266550 4.089420 
# 
# 
# High freq. dielectric constant tensor:
#      x y z
#    x 1.845840 -0.002540 0.000530 
#    y -0.002540 1.835120 0.012870 
#    z 0.000530 0.012870 1.856840 
# 
# From -- ./inp_files/381965.got.cif
#   From: 2010.06.25/outbox.cif.g09.slc.cpg/sg2_191_cif.got.tgz:381965.got - 2010.06.27 13:26:56.
