data_PCOD8035008
_publ_section_title
;
Structure prediction by ZEFSAII (Michael W. Deem and Ramdas Pophale) SiO2 
 PCOD8035008
Probable space group: P -1
;
_chemical_formula_sum "Si O2"
_cell_formula_units_Z 16
_cell_length_a 8.333391
_cell_length_b 5.619509
_cell_length_c 17.846047
_cell_angle_alpha 86.015275
_cell_angle_beta 95.161054
_cell_angle_gamma 126.294647
_cell_volume 670.710540
_symmetry_space_group_name_H-M "P -1"
_symmetry_group_IT_number 2
_symmetry_cell_setting 'triclinic'
loop_
_space_group_symop_operation_xyz
x,y,z
-x,-y,-z
loop_
_atom_site_type_symbol
_atom_site_label
_atom_site_fract_x
_atom_site_fract_y
_atom_site_fract_z
Si Si1 0.891874 0.660230 0.985543
Si Si2 0.607921 0.913196 0.451610
Si Si3 0.713724 0.712647 0.595827
Si Si4 0.759734 0.098103 0.715481
Si Si5 0.697070 0.708334 0.846145
Si Si6 0.557350 0.191340 0.071828
Si Si7 0.918557 0.257016 0.338081
Si Si8 0.581023 0.897292 0.218048
O O1 0.723544 0.522955 0.045416
O O2 0.816823 0.603622 0.896515
O O3 0.000000 0.500000 0.000000
O O4 0.000000 0.000000 0.000000
O O5 0.717272 0.806179 0.508346
O O6 0.445815 0.643401 0.396125
O O7 0.500000 0.000000 0.500000
O O8 0.773693 0.195157 0.403191
O O9 0.931811 0.817730 0.627401
O O10 0.654747 0.878224 0.644860
O O11 0.593488 0.124508 0.742556
O O12 0.960043 0.406201 0.691083
O O13 0.826736 0.959194 0.783285
O O14 0.635103 0.837875 0.905744
O O15 0.502609 0.433994 0.801922
O O16 0.642407 0.094299 0.141970
O O17 0.500000 0.000000 0.000000
O O18 0.782423 0.036801 0.270373
#
# Coordination Sequence:
#
# PCOD8035008 Si02
#       8
#     2   2   2   2   2   2   2   2
#     4  12  28  44  74 110 147 187 256 327 384 458
#     4  11  25  47  75 107 145 192 234 298 365 438
#     4  11  25  45  72 104 149 183 245 294 368 436
#     4  11  26  46  69 104 145 192 241 306 362 448
#     4  11  25  48  71  98 147 195 245 309 381 454
#     4  11  24  47  72 102 141 199 249 310 386 455
#     4  12  25  44  72 107 144 189 244 296 365 446
#     4  11  26  46  73  99 148 194 246 306 376 447
#
# _framework density 23.855297
#
# number of rings (size 3 to 8) (size 9 to 14) (size 15 to 20)
#    0.000    0.750    1.250    5.250    5.250    8.000 
#    0.000    0.000    0.000    0.000    0.000    0.000 
#    0.000    0.000    0.000    0.000    0.000    0.000 
#
# Total GULP energy -198405.374559 kJ/mol
# GULP energy per Si atom -12400.335910 kJ/mol
# Density = 2.380100 g / cm^3
# Si number density = 23.855297 Si / 1000 Ang^3
#
#
#
# Elastic Constant Matrix: (Units=GPa)
#
#
# Indices 1 2 3 4 5 6 
#
# 1 88.8904 48.3389 57.6443 6.4070 20.2376 6.9147
# 2 48.3389 181.4756 79.8231 -6.6543 -5.6612 9.8724
# 3 57.6443 79.8231 157.0933 -5.1357 7.8572 15.3752
# 4 6.4070 -6.6543 -5.1357 58.9890 -2.7464 -7.1508
# 5 20.2376 -5.6612 7.8572 -2.7464 49.1930 1.8923
# 6 6.9147 9.8724 15.3752 -7.1508 1.8923 34.2990
#
#
#
# Elastic Compliance Matrix: (Units=1/GPa)
#
#
# Indices 1 2 3 4 5 6 
#
# 1 0.017802 -0.002966 -0.004687 -0.003113 -0.007056 -0.000894
# 2 -0.002966 0.007711 -0.002904 0.001032 0.002639 -0.000250
# 3 -0.004687 -0.002904 0.009819 0.000744 0.000162 -0.002475
# 4 -0.003113 0.001032 0.000744 0.018012 0.002146 0.003634
# 5 -0.007056 0.002639 0.000162 0.002146 0.023639 -0.000266
# 6 -0.000894 -0.000250 -0.002475 0.003634 -0.000266 0.031289
#
#
# Mechanical properties :
#
#
# Convention : Reuss Voigt Hill
#
# Bulk Modulus (GPa) = 70.32295 88.78578 79.55437
# Shear Modulus (GPa) = 37.27829 44.60640 40.94235
#
# Velocity S-wave (km/s) = 3.95737 4.32890 4.14729
# Velocity P-wave (km/s) = 7.10098 7.89209 7.50696
#
# Compressibility (1/GPa) = 0.01422011
#
# Stress axis : x y z
#
# Youngs Moduli (GPa) = 56.17223 129.67739 101.84056
#
# Poissons Ratio (x) = 0.38464 0.47729
# Poissons Ratio (y) = 0.16661 0.29572
# Poissons Ratio (z) = 0.26326 0.37655
#
# Static dielectric constant tensor:
#      x y z
#    x 5.575620 1.193090 -1.332250 
#    y 1.193090 5.424850 -1.415130 
#    z -1.332250 -1.415130 6.403990 
# 
# 
# High freq. dielectric constant tensor:
#      x y z
#    x 1.930680 -0.006280 0.009600 
#    y -0.006280 1.952930 -0.009560 
#    z 0.009600 -0.009560 1.973290 
# 
# From -- ./inp_files/553537.got.cif
#   From: 2010.06.25/outbox.cif.g09.slc.cpg/sg2_277_cif.got.tgz:553537.got - 2010.06.27 13:26:56.
