data_PCOD8035218
_publ_section_title
;
Structure prediction by ZEFSAII (Michael W. Deem and Ramdas Pophale) SiO2 
 PCOD8035218
Probable space group: P -1
;
_chemical_formula_sum "Si O2"
_cell_formula_units_Z 16
_cell_length_a 16.626857
_cell_length_b 9.411594
_cell_length_c 11.655719
_cell_angle_alpha 50.876635
_cell_angle_beta 31.662661
_cell_angle_gamma 64.209428
_cell_volume 719.085704
_symmetry_space_group_name_H-M "P -1"
_symmetry_group_IT_number 2
_symmetry_cell_setting 'triclinic'
loop_
_space_group_symop_operation_xyz
x,y,z
-x,-y,-z
loop_
_atom_site_type_symbol
_atom_site_label
_atom_site_fract_x
_atom_site_fract_y
_atom_site_fract_z
Si Si1 0.895754 0.409766 0.964724
Si Si2 0.875190 0.821494 0.784036
Si Si3 0.653018 0.632020 0.795721
Si Si4 0.163691 0.637379 0.191885
Si Si5 0.432978 0.679488 0.471865
Si Si6 0.863138 0.815691 0.230648
Si Si7 0.720965 0.930572 0.122084
Si Si8 0.434742 0.179367 0.980618
O O1 0.749172 0.344174 0.262082
O O2 0.939772 0.636156 0.780487
O O3 0.841422 0.309046 0.961506
O O4 0.051719 0.340483 0.847086
O O5 0.723581 0.828976 0.891671
O O6 0.840874 0.839705 0.950679
O O7 0.000000 0.000000 0.500000
O O8 0.717199 0.492084 0.869928
O O9 0.772453 0.739355 0.498082
O O10 0.591399 0.773394 0.880733
O O11 0.500000 0.500000 0.000000
O O12 0.000000 0.500000 0.500000
O O13 0.222522 0.840796 0.079724
O O14 0.500000 0.500000 0.500000
O O15 0.543013 0.853474 0.325054
O O16 0.431952 0.690553 0.328751
O O17 0.738035 0.862918 0.267072
O O18 0.000000 0.000000 0.000000
O O19 0.500000 0.000000 0.000000
#
# Coordination Sequence:
#
# PCOD8035218 Si02
#       8
#     2   2   2   2   2   2   2   2
#     4  12  24  45  76 100 145 195 228 308 357 421
#     4  11  25  44  72 101 140 190 241 286 359 424
#     4  12  29  45  74 105 145 187 239 298 358 429
#     4  12  23  47  72 101 147 189 238 289 361 432
#     4  11  24  50  72 101 144 187 242 289 361 424
#     4  12  28  46  70 113 147 182 240 299 367 428
#     4  11  26  44  72 105 143 190 238 291 356 437
#     4  11  27  46  71 102 140 184 238 300 349 419
#
# _framework density 22.250477
#
# number of rings (size 3 to 8) (size 9 to 14) (size 15 to 20)
#    0.000    0.500    6.250    0.750   10.500    1.000 
#    0.000    0.000    0.000    0.000    0.000    0.000 
#    0.000    0.000    0.000    0.000    0.000    0.000 
#
# Total GULP energy -198228.558666 kJ/mol
# GULP energy per Si atom -12389.284917 kJ/mol
# Density = 2.219983 g / cm^3
# Si number density = 22.250477 Si / 1000 Ang^3
#
#
#
# Elastic Constant Matrix: (Units=GPa)
#
#
# Indices 1 2 3 4 5 6 
#
# 1 57.1002 24.5090 32.8622 3.9607 18.6006 3.9390
# 2 24.5090 160.5123 51.7736 -0.5473 0.1759 -1.5061
# 3 32.8622 51.7736 161.3670 6.6810 13.1320 7.4528
# 4 3.9607 -0.5473 6.6810 44.1955 8.4163 1.7042
# 5 18.6006 0.1759 13.1320 8.4163 34.3356 -2.0229
# 6 3.9390 -1.5061 7.4528 1.7042 -2.0229 37.5671
#
#
#
# Elastic Compliance Matrix: (Units=1/GPa)
#
#
# Indices 1 2 3 4 5 6 
#
# 1 0.024679 -0.002810 -0.003003 0.000705 -0.012545 -0.002812
# 2 -0.002810 0.007319 -0.002020 0.000171 0.002280 0.001104
# 3 -0.003003 -0.002020 0.007642 -0.000630 -0.001209 -0.001319
# 4 0.000705 0.000171 -0.000630 0.023869 -0.006072 -0.001352
# 5 -0.012545 0.002280 -0.001209 -0.006072 0.038093 0.003973
# 6 -0.002812 0.001104 -0.001319 -0.001352 0.003973 0.027495
#
#
# Mechanical properties :
#
#
# Convention : Reuss Voigt Hill
#
# Bulk Modulus (GPa) = 41.70966 66.36322 54.03644
# Shear Modulus (GPa) = 32.73234 41.20862 36.97048
#
# Velocity S-wave (km/s) = 3.83963 4.30819 4.08064
# Velocity P-wave (km/s) = 6.20026 7.39173 6.82206
#
# Compressibility (1/GPa) = 0.02397526
#
# Stress axis : x y z
#
# Youngs Moduli (GPa) = 40.52035 136.63079 130.85745
#
# Poissons Ratio (x) = 0.38393 0.39292
# Poissons Ratio (y) = 0.11386 0.26428
# Poissons Ratio (z) = 0.12167 0.27594
#
# Static dielectric constant tensor:
#      x y z
#    x 4.194800 -0.035940 -0.089440 
#    y -0.035940 4.394350 0.116310 
#    z -0.089440 0.116310 4.137950 
# 
# 
# High freq. dielectric constant tensor:
#      x y z
#    x 1.874640 -0.003220 0.010240 
#    y -0.003220 1.891640 0.000590 
#    z 0.010240 0.000590 1.885690 
# 
# From -- ./inp_files/461885.got.cif
#   From: 2010.06.25/outbox.cif.g09.slc.cpg/sg2_231_cif.got.tgz:461885.got - 2010.06.27 13:26:56.
