data_PCOD8035482
_publ_section_title
;
Structure prediction by ZEFSAII (Michael W. Deem and Ramdas Pophale) SiO2 
 PCOD8035482
Probable space group: P -1
;
_chemical_formula_sum "Si O2"
_cell_formula_units_Z 16
_cell_length_a 9.759914
_cell_length_b 12.103850
_cell_length_c 19.227338
_cell_angle_alpha 45.791355
_cell_angle_beta 27.647829
_cell_angle_gamma 52.285673
_cell_volume 755.391770
_symmetry_space_group_name_H-M "P -1"
_symmetry_group_IT_number 2
_symmetry_cell_setting 'triclinic'
loop_
_space_group_symop_operation_xyz
x,y,z
-x,-y,-z
loop_
_atom_site_type_symbol
_atom_site_label
_atom_site_fract_x
_atom_site_fract_y
_atom_site_fract_z
Si Si1 0.960842 0.059780 0.305730
Si Si2 0.698289 0.649521 0.020385
Si Si3 0.415268 0.607038 0.427193
Si Si4 0.691501 0.876327 0.383884
Si Si5 0.239470 0.948238 0.361862
Si Si6 0.021712 0.567799 0.383530
Si Si7 0.938135 0.623093 0.077702
Si Si8 0.782200 0.070098 0.121327
O O1 0.652730 0.128380 0.439514
O O2 0.902349 0.969195 0.301145
O O3 0.100590 0.942598 0.349772
O O4 0.212243 0.190214 0.125938
O O5 0.347600 0.624559 0.191224
O O6 0.821945 0.660881 0.037263
O O7 0.838348 0.516957 0.968404
O O8 0.500000 0.500000 0.500000
O O9 0.388330 0.784649 0.384436
O O10 0.663114 0.582320 0.268071
O O11 0.091667 0.562434 0.562108
O O12 0.789500 0.701940 0.418769
O O13 0.734007 0.949679 0.257805
O O14 0.485302 0.082941 0.203584
O O15 0.000000 0.000000 0.500000
O O16 0.000000 0.500000 0.500000
O O17 0.121702 0.765411 0.964417
O O18 0.000000 0.000000 0.000000
#
# Coordination Sequence:
#
# PCOD8035482 Si02
#       8
#     2   2   2   2   2   2   2   2
#     4  11  25  45  72 102 140 184 238 294 354 420
#     4  11  26  44  73 105 140 185 240 299 345 425
#     4  12  27  48  71 101 149 191 230 289 363 425
#     4  11  25  45  71 101 138 188 236 291 358 423
#     4  12  27  45  71 107 143 189 238 295 355 428
#     4  12  26  43  71 102 137 181 240 288 349 420
#     4  11  25  47  70 103 143 189 235 293 357 420
#     4  12  25  46  71 101 141 185 233 289 359 419
#
# _framework density 21.181062000000001
#
# number of rings (size 3 to 8) (size 9 to 14) (size 15 to 20)
#    0.000    0.500    5.000    2.250    7.000    0.500 
#    0.000    1.250    0.000    0.000    0.000    0.000 
#    0.000    0.000    0.000    0.000    0.000    0.000 
#
# Total GULP energy -198399.836718 kJ/mol
# GULP energy per Si atom -12399.989795 kJ/mol
# Density = 2.113285 g / cm^3
# Si number density = 21.181062 Si / 1000 Ang^3
#
#
#
# Elastic Constant Matrix: (Units=GPa)
#
#
# Indices 1 2 3 4 5 6 
#
# 1 105.6177 27.6274 32.4842 -3.8678 -14.4747 10.0655
# 2 27.6274 99.2046 33.5667 0.9427 -3.3724 10.8967
# 3 32.4842 33.5667 131.3302 1.4760 -17.1185 12.4866
# 4 -3.8678 0.9427 1.4760 38.2783 3.5843 1.2092
# 5 -14.4747 -3.3724 -17.1185 3.5843 47.5764 -3.3621
# 6 10.0655 10.8967 12.4866 1.2092 -3.3621 37.9240
#
#
#
# Elastic Compliance Matrix: (Units=1/GPa)
#
#
# Indices 1 2 3 4 5 6 
#
# 1 0.011107 -0.002270 -0.001718 0.001068 0.002410 -0.001551
# 2 -0.002270 0.011704 -0.002339 -0.000285 -0.000826 -0.002054
# 3 -0.001718 -0.002339 0.009130 -0.000653 0.002530 -0.001633
# 4 0.001068 -0.000285 -0.000653 0.026483 -0.001997 -0.001008
# 5 0.002410 -0.000826 0.002530 -0.001997 0.022815 0.000851
# 6 -0.001551 -0.002054 -0.001633 -0.001008 0.000851 0.028016
#
#
# Mechanical properties :
#
#
# Convention : Reuss Voigt Hill
#
# Bulk Modulus (GPa) = 51.84697 58.16766 55.00732
# Shear Modulus (GPa) = 38.95988 40.92069 39.94028
#
# Velocity S-wave (km/s) = 4.29344 4.40016 4.34713
# Velocity P-wave (km/s) = 7.00781 7.30321 7.15703
#
# Compressibility (1/GPa) = 0.01928753
#
# Stress axis : x y z
#
# Youngs Moduli (GPa) = 90.03021 85.44016 109.53501
#
# Poissons Ratio (x) = 0.19395 0.18813
# Poissons Ratio (y) = 0.20437 0.25622
# Poissons Ratio (z) = 0.15463 0.19986
#
# Static dielectric constant tensor:
#      x y z
#    x 3.962100 -0.108810 -0.154190 
#    y -0.108810 3.804880 0.032150 
#    z -0.154190 0.032150 4.122010 
# 
# 
# High freq. dielectric constant tensor:
#      x y z
#    x 1.847080 0.010120 -0.006650 
#    y 0.010120 1.833670 -0.000580 
#    z -0.006650 -0.000580 1.847040 
# 
# From -- ./inp_files/559738.got.cif
#   From: 2010.06.25/outbox.cif.g09.slc.cpg/sg2_280_cif.got.tgz:559738.got - 2010.06.27 13:26:56.
