data_PCOD8035102
_publ_section_title
;
Structure prediction by ZEFSAII (Michael W. Deem and Ramdas Pophale) SiO2 
 PCOD8035102
Probable space group: P -1
;
_chemical_formula_sum "Si O2"
_cell_formula_units_Z 14
_cell_length_a 11.866963
_cell_length_b 20.686730
_cell_length_c 19.909318
_cell_angle_alpha 18.638024
_cell_angle_beta 22.780064
_cell_angle_gamma 31.047034
_cell_volume 599.127274
_symmetry_space_group_name_H-M "P -1"
_symmetry_group_IT_number 2
_symmetry_cell_setting 'triclinic'
loop_
_space_group_symop_operation_xyz
x,y,z
-x,-y,-z
loop_
_atom_site_type_symbol
_atom_site_label
_atom_site_fract_x
_atom_site_fract_y
_atom_site_fract_z
Si Si1 0.484801 0.148830 0.774787
Si Si2 0.936398 0.169570 0.613507
Si Si3 0.148760 0.147391 0.214900
Si Si4 0.175696 0.482542 0.286086
Si Si5 0.486995 0.905012 0.674102
Si Si6 0.411483 0.457930 0.396319
Si Si7 0.441723 0.745471 0.614588
O O1 0.656556 0.231994 0.666188
O O2 0.459916 0.346985 0.549116
O O3 0.654545 0.978570 0.814525
O O4 0.164541 0.033082 0.086164
O O5 0.085651 0.346280 0.405503
O O6 0.178057 0.136323 0.456910
O O7 0.905633 0.243762 0.209425
O O8 0.349183 0.343915 0.943366
O O9 0.000000 0.000000 0.500000
O O10 0.472849 0.432686 0.208324
O O11 0.907276 0.466365 0.502562
O O12 0.243238 0.710804 0.997891
O O13 0.500000 0.000000 0.500000
O O14 0.397706 0.046594 0.644408
O O15 0.429748 0.288008 0.496573
#
# Coordination Sequence:
#
# PCOD8035102 Si02
#       7
#     2   2   2   2   2   2   2
#     4  11  25  47  76 105 148 189 249 300 357 432
#     4  11  24  48  71 109 144 193 242 299 357 429
#     4  12  26  49  74 106 146 190 246 300 358 436
#     4  12  28  47  73 110 150 188 245 300 364 438
#     4  12  26  46  72 104 150 194 237 295 362 433
#     4  12  28  48  75 107 147 192 243 300 368 428
#     4  12  28  45  76 108 144 192 240 304 367 425
#
# _framework density 23.367322000000001
#
# number of rings (size 3 to 8) (size 9 to 14) (size 15 to 20)
#    0.000    0.286    5.714    2.143    4.000    1.143 
#    0.000    0.000    0.000    0.000    0.000    0.000 
#    0.000    0.000    0.000    0.000    0.000    0.000 
#
# Total GULP energy -173592.863933 kJ/mol
# GULP energy per Si atom -12399.490281 kJ/mol
# Density = 2.331414 g / cm^3
# Si number density = 23.367322 Si / 1000 Ang^3
#
#
#
# Elastic Constant Matrix: (Units=GPa)
#
#
# Indices 1 2 3 4 5 6 
#
# 1 106.2966 25.7446 54.8602 -14.2297 -4.1768 0.4860
# 2 25.7446 102.4861 32.4210 3.1113 -5.3823 0.3555
# 3 54.8602 32.4210 155.6273 -18.3900 4.2916 -0.2017
# 4 -14.2297 3.1113 -18.3900 24.8470 -1.8956 5.1670
# 5 -4.1768 -5.3823 4.2916 -1.8956 30.0416 1.8234
# 6 0.4860 0.3555 -0.2017 5.1670 1.8234 34.7980
#
#
#
# Elastic Compliance Matrix: (Units=1/GPa)
#
#
# Indices 1 2 3 4 5 6 
#
# 1 0.012469 -0.002096 -0.003398 0.005283 0.002242 -0.001074
# 2 -0.002096 0.011170 -0.002123 -0.004127 0.001727 0.000425
# 3 -0.003398 -0.002123 0.008669 0.004703 -0.001765 -0.000486
# 4 0.005283 -0.004127 0.004703 0.049035 0.002869 -0.007436
# 5 0.002242 0.001727 -0.001765 0.002869 0.034481 -0.002292
# 6 -0.001074 0.000425 -0.000486 -0.007436 -0.002292 0.029969
#
#
# Mechanical properties :
#
#
# Convention : Reuss Voigt Hill
#
# Bulk Modulus (GPa) = 58.56537 65.60683 62.08610
# Shear Modulus (GPa) = 29.99067 34.69625 32.34346
#
# Velocity S-wave (km/s) = 3.58641 3.85752 3.72443
# Velocity P-wave (km/s) = 6.50131 6.92660 6.71733
#
# Compressibility (1/GPa) = 0.01707494
#
# Stress axis : x y z
#
# Youngs Moduli (GPa) = 80.19755 89.52510 115.34913
#
# Poissons Ratio (x) = 0.18768 0.39192
# Poissons Ratio (y) = 0.16812 0.24486
# Poissons Ratio (z) = 0.27249 0.19004
#
# Static dielectric constant tensor:
#      x y z
#    x 4.171070 -0.114310 -0.141130 
#    y -0.114310 4.765740 0.304160 
#    z -0.141130 0.304160 4.230560 
# 
# 
# High freq. dielectric constant tensor:
#      x y z
#    x 1.927980 -0.000980 -0.011560 
#    y -0.000980 1.938980 0.004490 
#    z -0.011560 0.004490 1.921670 
# 
# From -- ./inp_files/118061.got.cif
#   From: 2010.06.25/outbox.cif.g09.slc.cpg/sg2_60_cif.got.tgz:118061.got - 2010.06.27 13:26:56.
