data_PCOD8035070
_publ_section_title
;
Structure prediction by ZEFSAII (Michael W. Deem and Ramdas Pophale) SiO2 
 PCOD8035070
Probable space group: P -1
;
_chemical_formula_sum "Si O2"
_cell_formula_units_Z 14
_cell_length_a 9.628917
_cell_length_b 8.957734
_cell_length_c 15.903081
_cell_angle_alpha 55.222723
_cell_angle_beta 35.201335
_cell_angle_gamma 75.909650
_cell_volume 573.200148
_symmetry_space_group_name_H-M "P -1"
_symmetry_group_IT_number 2
_symmetry_cell_setting 'triclinic'
loop_
_space_group_symop_operation_xyz
x,y,z
-x,-y,-z
loop_
_atom_site_type_symbol
_atom_site_label
_atom_site_fract_x
_atom_site_fract_y
_atom_site_fract_z
Si Si1 0.099537 0.202920 0.263485
Si Si2 0.122411 0.858486 0.241978
Si Si3 0.428563 0.646856 0.884576
Si Si4 0.509010 0.057097 0.680497
Si Si5 0.721306 0.497411 0.163850
Si Si6 0.529289 0.823265 0.158339
Si Si7 0.412440 0.330267 0.526514
O O1 0.302004 0.246405 0.227267
O O2 0.797748 0.107458 0.480125
O O3 0.118777 0.042831 0.240032
O O4 0.192593 0.426617 0.103343
O O5 0.248577 0.732216 0.271502
O O6 0.830916 0.687609 0.407370
O O7 0.295800 0.949878 0.041210
O O8 0.505381 0.626386 0.756441
O O9 0.321321 0.817611 0.875438
O O10 0.558943 0.187752 0.698120
O O11 0.341983 0.114931 0.675817
O O12 0.721293 0.715285 0.094357
O O13 0.658716 0.390260 0.320100
O O14 0.000000 0.500000 0.000000
O O15 0.500000 0.500000 0.500000
#
# Coordination Sequence:
#
# PCOD8035070 Si02
#       7
#     2   2   2   2   2   2   2
#     4  11  24  47  77 116 151 203 265 321 372 478
#     4  11  26  50  77 112 159 197 264 316 389 466
#     4  11  25  44  81 109 153 207 262 312 388 454
#     4  12  26  47  76 114 154 204 257 321 391 449
#     4  12  27  49  74 110 154 204 255 318 389 459
#     4  11  26  49  77 111 151 205 254 323 385 449
#     4  12  29  49  74 115 153 202 261 322 387 467
#
# _framework density 24.424278000000001
#
# number of rings (size 3 to 8) (size 9 to 14) (size 15 to 20)
#    0.000    0.571    4.286    2.143    4.000    5.714 
#    0.000    0.000    0.000    0.000    0.000    0.000 
#    0.000    0.000    0.000    0.000    0.000    0.000 
#
# Total GULP energy -173471.353457 kJ/mol
# GULP energy per Si atom -12390.810961 kJ/mol
# Density = 2.436869 g / cm^3
# Si number density = 24.424278 Si / 1000 Ang^3
#
#
#
# Elastic Constant Matrix: (Units=GPa)
#
#
# Indices 1 2 3 4 5 6 
#
# 1 136.5539 57.5872 48.2919 6.1262 30.1104 -0.3307
# 2 57.5872 112.4177 49.5409 0.1626 7.2464 -10.3697
# 3 48.2919 49.5409 83.4118 16.3607 9.7848 2.6186
# 4 6.1262 0.1626 16.3607 41.3823 -0.5711 6.2152
# 5 30.1104 7.2464 9.7848 -0.5711 42.4211 -1.9446
# 6 -0.3307 -10.3697 2.6186 6.2152 -1.9446 57.2334
#
#
#
# Elastic Compliance Matrix: (Units=1/GPa)
#
#
# Indices 1 2 3 4 5 6 
#
# 1 0.011852 -0.004151 -0.003492 -0.000345 -0.006936 -0.000722
# 2 -0.004151 0.014170 -0.006940 0.002941 0.002286 0.002619
# 3 -0.003492 -0.006940 0.019679 -0.007032 -0.001036 -0.001449
# 4 -0.000345 0.002941 -0.007032 0.027316 0.001638 -0.002058
# 5 -0.006936 0.002286 -0.001036 0.001638 0.028422 0.001209
# 6 -0.000722 0.002619 -0.001449 -0.002058 0.001209 0.018274
#
#
# Mechanical properties :
#
#
# Convention : Reuss Voigt Hill
#
# Bulk Modulus (GPa) = 60.48188 71.46927 65.97558
# Shear Modulus (GPa) = 32.38526 40.00493 36.19509
#
# Velocity S-wave (km/s) = 3.64530 4.05151 3.85376
# Velocity P-wave (km/s) = 6.52184 7.15621 6.84638
#
# Compressibility (1/GPa) = 0.01653388
#
# Stress axis : x y z
#
# Youngs Moduli (GPa) = 84.37522 70.57027 50.81601
#
# Poissons Ratio (x) = 0.29296 0.17746
# Poissons Ratio (y) = 0.35027 0.35266
# Poissons Ratio (z) = 0.29466 0.48976
#
# Static dielectric constant tensor:
#      x y z
#    x 5.185120 0.148490 0.351780 
#    y 0.148490 4.768670 0.057510 
#    z 0.351780 0.057510 4.253960 
# 
# 
# High freq. dielectric constant tensor:
#      x y z
#    x 2.000000 -0.000490 0.021510 
#    y -0.000490 1.967880 0.004170 
#    z 0.021510 0.004170 1.962450 
# 
# From -- ./inp_files/494443.got.cif
#   From: 2010.06.25/outbox.cif.g09.slc.cpg/sg2_248_cif.got.tgz:494443.got - 2010.06.27 13:26:56.
