data_PCOD8035999
_publ_section_title
;
Structure prediction by ZEFSAII (Michael W. Deem and Ramdas Pophale) SiO2 
 PCOD8035999
Probable space group: P -1
;
_chemical_formula_sum "Si O2"
_cell_formula_units_Z 10
_cell_length_a 15.113231
_cell_length_b 5.220226
_cell_length_c 12.049272
_cell_angle_alpha 116.424145
_cell_angle_beta 150.826277
_cell_angle_gamma 56.607696
_cell_volume 385.415723
_symmetry_space_group_name_H-M "P -1"
_symmetry_group_IT_number 2
_symmetry_cell_setting 'triclinic'
loop_
_space_group_symop_operation_xyz
x,y,z
-x,-y,-z
loop_
_atom_site_type_symbol
_atom_site_label
_atom_site_fract_x
_atom_site_fract_y
_atom_site_fract_z
Si Si1 0.772599 0.568265 0.747732
Si Si2 0.191227 0.400284 0.459000
Si Si3 0.774533 0.543947 0.093346
Si Si4 0.713877 0.247581 0.186441
Si Si5 0.478105 0.787623 0.640384
O O1 0.724596 0.626546 0.577618
O O2 0.638075 0.831422 0.736386
O O3 0.687486 0.296272 0.625580
O O4 0.000000 0.500000 0.000000
O O5 0.176442 0.698760 0.572716
O O6 0.975080 0.394669 0.215519
O O7 0.357741 0.099259 0.636882
O O8 0.809633 0.316907 0.192647
O O9 0.728718 0.898907 0.144384
O O10 0.599226 0.542716 0.820540
O O11 0.500000 0.500000 0.000000
#
# Coordination Sequence:
#
# PCOD8035999 Si02
#       5
#     2   2   2   2   2
#     4  11  25  49  73 108 148 198 258 312 376 443
#     4  12  26  45  77 104 154 196 249 311 380 445
#     4  12  27  48  76 116 148 201 248 310 379 456
#     4  12  26  47  78 109 156 195 249 308 382 450
#     4  11  26  47  76 108 148 200 253 313 377 449
#
# _framework density 25.946010000000001
#
# number of rings (size 3 to 8) (size 9 to 14) (size 15 to 20)
#    0.000    0.400    4.000    3.600    5.600    0.800 
#    0.000    0.000    0.000    0.000    0.000    0.000 
#    0.000    0.000    0.000    0.000    0.000    0.000 
#
# Total GULP energy -123886.404139 kJ/mol
# GULP energy per Si atom -12388.640414 kJ/mol
# Density = 2.588696 g / cm^3
# Si number density = 25.946010 Si / 1000 Ang^3
#
#
#
# Elastic Constant Matrix: (Units=GPa)
#
#
# Indices 1 2 3 4 5 6 
#
# 1 102.1945 23.9262 37.9577 -1.9899 7.1544 -9.3287
# 2 23.9262 52.8800 23.8109 6.4293 8.2494 -17.9627
# 3 37.9577 23.8109 158.0822 4.7936 18.0249 -13.4035
# 4 -1.9899 6.4293 4.7936 34.8268 -7.7125 6.4568
# 5 7.1544 8.2494 18.0249 -7.7125 57.5246 -6.3895
# 6 -9.3287 -17.9627 -13.4035 6.4568 -6.3895 33.6168
#
#
#
# Elastic Compliance Matrix: (Units=1/GPa)
#
#
# Indices 1 2 3 4 5 6 
#
# 1 0.011698 -0.004731 -0.002214 0.001970 0.000124 -0.000520
# 2 -0.004731 0.027891 -0.001314 -0.008437 -0.002553 0.014202
# 3 -0.002214 -0.001314 0.007459 -0.001633 -0.001914 0.001607
# 4 0.001970 -0.008437 -0.001633 0.033562 0.004850 -0.010137
# 5 0.000124 -0.002553 -0.001914 0.004850 0.019051 0.000596
# 6 -0.000520 0.014202 0.001607 -0.010137 0.000596 0.039892
#
#
# Mechanical properties :
#
#
# Convention : Reuss Voigt Hill
#
# Bulk Modulus (GPa) = 32.75473 53.83848 43.29660
# Shear Modulus (GPa) = 30.07555 40.35779 35.21667
#
# Velocity S-wave (km/s) = 3.40834 3.94820 3.68816
# Velocity P-wave (km/s) = 5.30477 6.44823 5.90425
#
# Compressibility (1/GPa) = 0.03052995
#
# Stress axis : x y z
#
# Youngs Moduli (GPa) = 85.48806 35.85352 134.05943
#
# Poissons Ratio (x) = 0.16963 0.29681
# Poissons Ratio (y) = 0.40445 0.17615
# Poissons Ratio (z) = 0.18927 0.04711
#
# Static dielectric constant tensor:
#      x y z
#    x 5.635540 0.061780 -0.366030 
#    y 0.061780 4.671160 -0.074770 
#    z -0.366030 -0.074770 4.976260 
# 
# 
# High freq. dielectric constant tensor:
#      x y z
#    x 2.046510 -0.024730 0.009350 
#    y -0.024730 2.019510 -0.001790 
#    z 0.009350 -0.001790 2.056370 
# 
# From -- ./inp_files/4724.got.cif
#   From: 2010.06.25/outbox.cif.g09.slc.cpg/sg2_3_cif.got.tgz:4724.got - 2010.06.27 13:26:56.
