data_PCOD8035799
_publ_section_title
;
Structure prediction by ZEFSAII (Michael W. Deem and Ramdas Pophale) SiO2 
 PCOD8035799
Probable space group: P -1
;
_chemical_formula_sum "Si O2"
_cell_formula_units_Z 16
_cell_length_a 20.574487
_cell_length_b 5.109563
_cell_length_c 8.647770
_cell_angle_alpha 86.471303
_cell_angle_beta 122.328209
_cell_angle_gamma 68.445666
_cell_volume 674.876205
_symmetry_space_group_name_H-M "P -1"
_symmetry_group_IT_number 2
_symmetry_cell_setting 'triclinic'
loop_
_space_group_symop_operation_xyz
x,y,z
-x,-y,-z
loop_
_atom_site_type_symbol
_atom_site_label
_atom_site_fract_x
_atom_site_fract_y
_atom_site_fract_z
Si Si1 0.868420 0.694768 0.948104
Si Si2 0.322093 0.306400 0.686352
Si Si3 0.853738 0.253674 0.424656
Si Si4 0.040617 0.116401 0.170323
Si Si5 0.897956 0.692847 0.317507
Si Si6 0.405121 0.660992 0.942170
Si Si7 0.312011 0.286081 0.320162
Si Si8 0.402352 0.656020 0.303200
O O1 0.874237 0.873311 0.797453
O O2 0.792208 0.602854 0.827648
O O3 0.862554 0.853446 0.099830
O O4 0.965456 0.431954 0.114577
O O5 0.219770 0.517761 0.563635
O O6 0.357722 0.518604 0.789205
O O7 0.345388 0.207875 0.541710
O O8 0.358788 0.014068 0.847824
O O9 0.864063 0.449242 0.295995
O O10 0.936960 0.102238 0.648075
O O11 0.844904 0.975218 0.353500
O O12 0.000000 0.000000 0.000000
O O13 0.000000 0.500000 0.500000
O O14 0.500000 0.500000 0.000000
O O15 0.406562 0.603083 0.128038
O O16 0.337786 0.537386 0.292445
O O17 0.361447 0.000729 0.284156
O O18 0.500000 0.500000 0.500000
#
# Coordination Sequence:
#
# PCOD8035799 Si02
#       8
#     2   2   2   2   2   2   2   2
#     4  11  28  44  73 107 151 195 263 308 381 437
#     4  12  27  48  74 112 148 196 246 306 374 451
#     4  12  28  45  73 101 151 190 253 302 375 439
#     4  11  25  47  71 102 147 207 250 310 371 450
#     4  12  26  47  69 103 142 202 246 314 365 440
#     4  12  27  51  81 110 150 196 242 304 380 463
#     4  12  28  47  78 113 152 194 253 316 373 447
#     4  12  28  52  79 113 151 194 244 308 383 459
#
# _framework density 23.708051999999999
#
# number of rings (size 3 to 8) (size 9 to 14) (size 15 to 20)
#    0.000    0.250    1.250    6.375   15.750    0.000 
#    0.000    0.000    0.000    0.000    0.000    0.000 
#    0.000    0.000    0.000    0.000    0.000    0.000 
#
# Total GULP energy -198273.371703 kJ/mol
# GULP energy per Si atom -12392.085731 kJ/mol
# Density = 2.365409 g / cm^3
# Si number density = 23.708052 Si / 1000 Ang^3
#
#
#
# Elastic Constant Matrix: (Units=GPa)
#
#
# Indices 1 2 3 4 5 6 
#
# 1 106.7325 25.0373 36.1739 5.4289 1.8851 5.9113
# 2 25.0373 119.2685 29.8386 4.6203 7.7626 7.3836
# 3 36.1739 29.8386 123.2096 21.7264 0.6256 2.8920
# 4 5.4289 4.6203 21.7264 47.4334 5.2292 0.9572
# 5 1.8851 7.7626 0.6256 5.2292 32.2569 13.4369
# 6 5.9113 7.3836 2.8920 0.9572 13.4369 44.5574
#
#
#
# Elastic Compliance Matrix: (Units=1/GPa)
#
#
# Indices 1 2 3 4 5 6 
#
# 1 0.010714 -0.001506 -0.002792 0.000199 0.000197 -0.001054
# 2 -0.001506 0.009314 -0.001847 0.000334 -0.001897 -0.000659
# 3 -0.002792 -0.001847 0.010136 -0.004272 0.001210 -0.000254
# 4 0.000199 0.000334 -0.004272 0.023428 -0.004207 0.000961
# 5 0.000197 -0.001897 0.001210 -0.004207 0.036574 -0.010729
# 6 -0.001054 -0.000659 -0.000254 0.000961 -0.010729 0.025923
#
#
# Mechanical properties :
#
#
# Convention : Reuss Voigt Hill
#
# Bulk Modulus (GPa) = 55.94831 59.03446 57.49138
# Shear Modulus (GPa) = 37.21960 42.06025 39.63993
#
# Velocity S-wave (km/s) = 3.96651 4.21657 4.09345
# Velocity P-wave (km/s) = 6.68040 6.97571 6.82965
#
# Compressibility (1/GPa) = 0.01787364
#
# Stress axis : x y z
#
# Youngs Moduli (GPa) = 93.33974 107.36474 98.65388
#
# Poissons Ratio (x) = 0.16167 0.27545
# Poissons Ratio (y) = 0.14055 0.18224
# Poissons Ratio (z) = 0.26062 0.19834
#
# Static dielectric constant tensor:
#      x y z
#    x 4.193780 -0.012920 0.005250 
#    y -0.012920 4.384840 0.124910 
#    z 0.005250 0.124910 4.267800 
# 
# 
# High freq. dielectric constant tensor:
#      x y z
#    x 1.945800 -0.005520 -0.006190 
#    y -0.005520 1.954210 0.009470 
#    z -0.006190 0.009470 1.951020 
# 
# From -- ./inp_files/339731.got.cif
#   From: 2010.06.25/outbox.cif.g09.slc.cpg/sg2_170_cif.got.tgz:339731.got - 2010.06.27 13:26:56.
