data_PCOD8035159
_publ_section_title
;
Structure prediction by ZEFSAII (Michael W. Deem and Ramdas Pophale) SiO2 
 PCOD8035159
Probable space group: P -1
;
_chemical_formula_sum "Si O2"
_cell_formula_units_Z 10
_cell_length_a 11.640222
_cell_length_b 10.578102
_cell_length_c 16.316128
_cell_angle_alpha 26.426238
_cell_angle_beta 25.676785
_cell_angle_gamma 36.600894
_cell_volume 387.316891
_symmetry_space_group_name_H-M "P -1"
_symmetry_group_IT_number 2
_symmetry_cell_setting 'triclinic'
loop_
_space_group_symop_operation_xyz
x,y,z
-x,-y,-z
loop_
_atom_site_type_symbol
_atom_site_label
_atom_site_fract_x
_atom_site_fract_y
_atom_site_fract_z
Si Si1 0.507056 0.714530 0.214077
Si Si2 0.273488 0.715467 0.986171
Si Si3 0.704189 0.117567 0.396014
Si Si4 0.093763 0.096047 0.016824
Si Si5 0.046935 0.151058 0.466533
O O1 0.614120 0.442181 0.254407
O O2 0.200881 0.651773 0.468847
O O3 0.677183 0.747837 0.168313
O O4 0.500000 0.000000 0.000000
O O5 0.001933 0.708148 0.110263
O O6 0.467538 0.901509 0.696117
O O7 0.313489 0.367419 0.170366
O O8 0.222254 0.824894 0.047760
O O9 0.845563 0.009129 0.285822
O O10 0.917217 0.097628 0.345027
O O11 0.000000 0.000000 0.500000
#
# Coordination Sequence:
#
# PCOD8035159 Si02
#       5
#     2   2   2   2   2
#     4  12  26  47  75 110 145 195 252 297 361 444
#     4  11  26  47  74 114 146 192 249 305 367 440
#     4  12  26  49  76 108 149 199 245 302 369 438
#     4  11  24  48  77 105 152 195 243 305 366 436
#     4  12  27  48  77 108 149 195 245 308 372 437
#
# _framework density 25.818652
#
# number of rings (size 3 to 8) (size 9 to 14) (size 15 to 20)
#    0.000    0.400    2.000    6.600    2.800    3.200 
#    3.600    0.000    0.000    0.000    0.000    0.000 
#    0.000    0.000    0.000    0.000    0.000    0.000 
#
# Total GULP energy -123952.930555 kJ/mol
# GULP energy per Si atom -12395.293055 kJ/mol
# Density = 2.575989 g / cm^3
# Si number density = 25.818652 Si / 1000 Ang^3
#
#
#
# Elastic Constant Matrix: (Units=GPa)
#
#
# Indices 1 2 3 4 5 6 
#
# 1 103.0253 29.4683 21.6432 1.5320 11.2240 10.6148
# 2 29.4683 127.8722 77.5588 21.7639 2.4963 -3.1636
# 3 21.6432 77.5588 154.8302 -1.9885 4.4840 6.3684
# 4 1.5320 21.7639 -1.9885 43.8449 1.0333 6.9095
# 5 11.2240 2.4963 4.4840 1.0333 35.6737 -2.8250
# 6 10.6148 -3.1636 6.3684 6.9095 -2.8250 45.4952
#
#
#
# Elastic Compliance Matrix: (Units=1/GPa)
#
#
# Indices 1 2 3 4 5 6 
#
# 1 0.011247 -0.003026 0.000210 0.001734 -0.003669 -0.003355
# 2 -0.003026 0.014164 -0.006976 -0.007897 0.001379 0.003952
# 3 0.000210 -0.006976 0.010125 0.004366 -0.001190 -0.002688
# 4 0.001734 -0.007897 0.004366 0.027838 -0.001816 -0.005905
# 5 -0.003669 0.001379 -0.001190 -0.001816 0.029548 0.003229
# 6 -0.003355 0.003952 -0.002688 -0.005905 0.003229 0.024512
#
#
# Mechanical properties :
#
#
# Convention : Reuss Voigt Hill
#
# Bulk Modulus (GPa) = 62.68636 71.45205 67.06920
# Shear Modulus (GPa) = 35.12855 42.13992 38.63424
#
# Velocity S-wave (km/s) = 3.69262 4.04437 3.87249
# Velocity P-wave (km/s) = 6.52018 7.03874 6.78442
#
# Compressibility (1/GPa) = 0.01595243
#
# Stress axis : x y z
#
# Youngs Moduli (GPa) = 88.90979 70.60357 98.76664
#
# Poissons Ratio (x) = 0.21363 -0.02074
# Poissons Ratio (y) = 0.26902 0.68899
# Poissons Ratio (z) = -0.01867 0.49252
#
# Static dielectric constant tensor:
#      x y z
#    x 5.388580 -0.711990 -0.281130 
#    y -0.711990 4.997540 0.376780 
#    z -0.281130 0.376780 4.810500 
# 
# 
# High freq. dielectric constant tensor:
#      x y z
#    x 2.068630 -0.020210 -0.006530 
#    y -0.020210 2.031200 0.011130 
#    z -0.006530 0.011130 2.042900 
# 
# From -- ./inp_files/324332.got.cif
#   From: 2010.06.25/outbox.cif.g09.slc.cpg/sg2_163_cif.got.tgz:324332.got - 2010.06.27 13:26:56.
