data_PCOD8035615
_publ_section_title
;
Structure prediction by ZEFSAII (Michael W. Deem and Ramdas Pophale) SiO2 
 PCOD8035615
Probable space group: P -1
;
_chemical_formula_sum "Si O2"
_cell_formula_units_Z 14
_cell_length_a 8.970892
_cell_length_b 14.689287
_cell_length_c 16.083490
_cell_angle_alpha 154.209059
_cell_angle_beta 44.189569
_cell_angle_gamma 121.621426
_cell_volume 589.100577
_symmetry_space_group_name_H-M "P -1"
_symmetry_group_IT_number 2
_symmetry_cell_setting 'triclinic'
loop_
_space_group_symop_operation_xyz
x,y,z
-x,-y,-z
loop_
_atom_site_type_symbol
_atom_site_label
_atom_site_fract_x
_atom_site_fract_y
_atom_site_fract_z
Si Si1 0.994981 0.768132 0.943763
Si Si2 0.915418 0.889441 0.697371
Si Si3 0.249127 0.699805 0.262645
Si Si4 0.156680 0.401732 0.717133
Si Si5 0.625863 0.316576 0.064618
Si Si6 0.464361 0.911495 0.238400
Si Si7 0.181521 0.486009 0.486139
O O1 0.141599 0.543942 0.755343
O O2 0.088852 0.714086 0.767417
O O3 0.719797 0.832800 0.110568
O O4 0.032706 0.987512 0.142317
O O5 0.785846 0.731758 0.649180
O O6 0.151389 0.745010 0.432977
O O7 0.748877 0.060793 0.838139
O O8 0.283461 0.920111 0.391887
O O9 0.082031 0.636538 0.213830
O O10 0.500000 0.500000 0.000000
O O11 0.194704 0.555583 0.903403
O O12 0.376444 0.156221 0.429467
O O13 0.421098 0.464723 0.331364
O O14 0.527262 0.292991 0.994963
O O15 0.000000 0.500000 0.500000
#
# Coordination Sequence:
#
# PCOD8035615 Si02
#       7
#     2   2   2   2   2   2   2
#     4  11  25  47  70 106 142 185 234 286 353 416
#     4  11  26  47  69 104 141 184 237 286 357 414
#     4  12  24  47  75  99 146 186 231 294 348 416
#     4  11  25  46  68 106 139 179 241 279 346 423
#     4  11  26  45  72 104 140 185 232 290 350 412
#     4  12  24  45  73 102 144 186 228 290 350 409
#     4  12  24  44  73 102 141 182 236 292 344 415
#
# _framework density 23.765042000000001
#
# number of rings (size 3 to 8) (size 9 to 14) (size 15 to 20)
#    0.000    0.571    5.714    0.857    2.000    5.143 
#    2.571    0.000    0.000    0.000    0.000    0.000 
#    0.000    0.000    0.000    0.000    0.000    0.000 
#
# Total GULP energy -173571.125716 kJ/mol
# GULP energy per Si atom -12397.937551 kJ/mol
# Density = 2.371095 g / cm^3
# Si number density = 23.765042 Si / 1000 Ang^3
#
#
#
# Elastic Constant Matrix: (Units=GPa)
#
#
# Indices 1 2 3 4 5 6 
#
# 1 101.6464 9.0686 21.4541 17.6641 13.7790 2.0240
# 2 9.0686 48.5309 19.7416 6.4043 0.6854 7.5293
# 3 21.4541 19.7416 83.6113 10.5626 -1.1363 -3.6895
# 4 17.6641 6.4043 10.5626 28.4657 0.3646 0.7462
# 5 13.7790 0.6854 -1.1363 0.3646 43.7191 1.4167
# 6 2.0240 7.5293 -3.6895 0.7462 1.4167 27.5000
#
#
#
# Elastic Compliance Matrix: (Units=1/GPa)
#
#
# Indices 1 2 3 4 5 6 
#
# 1 0.011991 -0.000295 -0.002274 -0.006463 -0.003756 -0.000738
# 2 -0.000295 0.024505 -0.005653 -0.003037 -0.000174 -0.007355
# 3 -0.002274 -0.005653 0.014405 -0.002772 0.001084 0.003667
# 4 -0.006463 -0.003037 -0.002772 0.040838 0.001680 -0.000259
# 5 -0.003756 -0.000174 0.001084 0.001680 0.024100 -0.000818
# 6 -0.000738 -0.007355 0.003667 -0.000259 -0.000818 0.038973
#
#
# Mechanical properties :
#
#
# Convention : Reuss Voigt Hill
#
# Bulk Modulus (GPa) = 29.02272 37.14633 33.08453
# Shear Modulus (GPa) = 27.36081 32.17192 29.76636
#
# Velocity S-wave (km/s) = 3.39677 3.68333 3.54295
# Velocity P-wave (km/s) = 5.25575 5.80980 5.53971
#
# Compressibility (1/GPa) = 0.03445576
#
# Stress axis : x y z
#
# Youngs Moduli (GPa) = 83.39271 40.80882 69.41913
#
# Poissons Ratio (x) = 0.01204 0.15788
# Poissons Ratio (y) = 0.02461 0.39245
# Poissons Ratio (z) = 0.18966 0.23070
#
# Static dielectric constant tensor:
#      x y z
#    x 4.484730 0.158940 -0.088840 
#    y 0.158940 4.754180 -0.269580 
#    z -0.088840 -0.269580 4.658470 
# 
# 
# High freq. dielectric constant tensor:
#      x y z
#    x 1.957920 -0.000050 0.000200 
#    y -0.000050 1.935480 0.011970 
#    z 0.000200 0.011970 1.937220 
# 
# From -- ./inp_files/236895.got.cif
#   From: 2010.06.25/outbox.cif.g09.slc.cpg/sg2_119_cif.got.tgz:236895.got - 2010.06.27 13:26:56.
