data_PCOD8035837
_publ_section_title
;
Structure prediction by ZEFSAII (Michael W. Deem and Ramdas Pophale) SiO2 
 PCOD8035837
Probable space group: P -1
;
_chemical_formula_sum "Si O2"
_cell_formula_units_Z 14
_cell_length_a 11.918403
_cell_length_b 14.043124
_cell_length_c 7.504926
_cell_angle_alpha 61.191598
_cell_angle_beta 93.930994
_cell_angle_gamma 44.999253
_cell_volume 584.270134
_symmetry_space_group_name_H-M "P -1"
_symmetry_group_IT_number 2
_symmetry_cell_setting 'triclinic'
loop_
_space_group_symop_operation_xyz
x,y,z
-x,-y,-z
loop_
_atom_site_type_symbol
_atom_site_label
_atom_site_fract_x
_atom_site_fract_y
_atom_site_fract_z
Si Si1 0.998075 0.946566 0.737010
Si Si2 0.410975 0.614233 0.570314
Si Si3 0.420898 0.327650 0.287683
Si Si4 0.635987 0.948146 0.819321
Si Si5 0.317028 0.028628 0.805693
Si Si6 0.592811 0.268040 0.016709
Si Si7 0.964191 0.737569 0.775676
O O1 0.972469 0.839588 0.804255
O O2 0.221131 0.804318 0.967943
O O3 0.000000 0.000000 0.500000
O O4 0.816506 0.141607 0.672417
O O5 0.500000 0.500000 0.500000
O O6 0.588602 0.555077 0.704214
O O7 0.394582 0.515122 0.776220
O O8 0.482769 0.173710 0.550443
O O9 0.607038 0.199698 0.275897
O O10 0.196052 0.493095 0.016739
O O11 0.495925 0.954601 0.798801
O O12 0.810994 0.785400 0.832906
O O13 0.743954 0.875820 0.091855
O O14 0.115637 0.185619 0.507535
O O15 0.414401 0.828208 0.031680
#
# Coordination Sequence:
#
# PCOD8035837 Si02
#       7
#     2   2   2   2   2   2   2
#     4  12  21  42  68  95 138 184 225 274 345 420
#     4  12  25  39  64 105 143 180 230 289 344 413
#     4  12  24  44  70 104 140 180 235 293 337 425
#     4  11  25  50  67 100 140 178 241 286 347 412
#     4  11  25  47  73  95 138 189 227 291 347 419
#     4  12  24  41  70  99 137 186 231 274 355 413
#     4  12  24  44  73 101 137 182 231 288 353 408
#
# _framework density 23.96152
#
# number of rings (size 3 to 8) (size 9 to 14) (size 15 to 20)
#    0.000    0.286    7.143    2.571    0.000    2.286 
#    2.571    1.429    0.000    0.000    0.000    0.000 
#    0.000    0.000    0.000    0.000    0.000    0.000 
#
# Total GULP energy -173491.400527 kJ/mol
# GULP energy per Si atom -12392.242895 kJ/mol
# Density = 2.390698 g / cm^3
# Si number density = 23.961520 Si / 1000 Ang^3
#
#
#
# Elastic Constant Matrix: (Units=GPa)
#
#
# Indices 1 2 3 4 5 6 
#
# 1 107.8936 5.6158 40.0098 -2.3776 5.2253 8.8073
# 2 5.6158 79.7100 34.0390 4.0410 18.5301 -6.2789
# 3 40.0098 34.0390 109.7403 -5.0622 12.9513 -3.4431
# 4 -2.3776 4.0410 -5.0622 27.5177 -2.5518 1.4176
# 5 5.2253 18.5301 12.9513 -2.5518 29.6027 4.1035
# 6 8.8073 -6.2789 -3.4431 1.4176 4.1035 33.2595
#
#
#
# Elastic Compliance Matrix: (Units=1/GPa)
#
#
# Indices 1 2 3 4 5 6 
#
# 1 0.011130 0.000858 -0.004404 0.000182 -0.000111 -0.003235
# 2 0.000858 0.017280 -0.004585 -0.004429 -0.009894 0.003970
# 3 -0.004404 -0.004585 0.012523 0.002334 -0.001870 0.001728
# 4 0.000182 -0.004429 0.002334 0.038088 0.005409 -0.002933
# 5 -0.000111 -0.009894 -0.001870 0.005409 0.042315 -0.007484
# 6 -0.003235 0.003970 0.001728 -0.002933 -0.007484 0.032900
#
#
# Mechanical properties :
#
#
# Convention : Reuss Voigt Hill
#
# Bulk Modulus (GPa) = 40.53199 50.74143 45.63671
# Shear Modulus (GPa) = 27.97621 32.58794 30.28207
#
# Velocity S-wave (km/s) = 3.42065 3.69183 3.55882
# Velocity P-wave (km/s) = 5.70555 6.27655 5.99785
#
# Compressibility (1/GPa) = 0.02467187
#
# Stress axis : x y z
#
# Youngs Moduli (GPa) = 89.84389 57.86922 79.85395
#
# Poissons Ratio (x) = -0.04967 0.35170
# Poissons Ratio (y) = -0.07711 0.36612
# Poissons Ratio (z) = 0.39570 0.26533
#
# Static dielectric constant tensor:
#      x y z
#    x 25.537850 -5.582060 14.357850 
#    y -5.582060 5.589710 -3.512660 
#    z 14.357850 -3.512660 11.978160 
# 
# 
# High freq. dielectric constant tensor:
#      x y z
#    x 1.961430 0.005010 -0.003780 
#    y 0.005010 1.942250 0.003420 
#    z -0.003780 0.003420 1.945160 
# 
# From -- ./inp_files/269805.got.cif
#   From: 2010.06.25/outbox.cif.g09.slc.cpg/sg2_135_cif.got.tgz:269805.got - 2010.06.27 13:26:56.
