data_PCOD8035296
_publ_section_title
;
Structure prediction by ZEFSAII (Michael W. Deem and Ramdas Pophale) SiO2 
 PCOD8035296
Probable space group: P -1
;
_chemical_formula_sum "Si O2"
_cell_formula_units_Z 16
_cell_length_a 8.734618
_cell_length_b 14.276224
_cell_length_c 5.478328
_cell_angle_alpha 102.330046
_cell_angle_beta 89.510565
_cell_angle_gamma 89.587744
_cell_volume 667.322930
_symmetry_space_group_name_H-M "P -1"
_symmetry_group_IT_number 2
_symmetry_cell_setting 'triclinic'
loop_
_space_group_symop_operation_xyz
x,y,z
-x,-y,-z
loop_
_atom_site_type_symbol
_atom_site_label
_atom_site_fract_x
_atom_site_fract_y
_atom_site_fract_z
Si Si1 0.152877 0.184194 0.561975
Si Si2 0.631262 0.740865 0.030112
Si Si3 0.401706 0.872731 0.805150
Si Si4 0.205246 0.582868 0.611144
Si Si5 0.335071 0.665284 0.143303
Si Si6 0.856934 0.629630 0.625575
Si Si7 0.193131 0.846357 0.400596
Si Si8 0.673553 0.979150 0.711937
O O1 0.148337 0.294378 0.549035
O O2 0.986757 0.150408 0.623533
O O3 0.211146 0.112405 0.308374
O O4 0.274371 0.178399 0.779106
O O5 0.521733 0.797451 0.876454
O O6 0.518948 0.678579 0.172816
O O7 0.752285 0.667262 0.868649
O O8 0.268184 0.811017 0.638914
O O9 0.503489 0.937611 0.651028
O O10 0.317891 0.948659 0.021483
O O11 0.305709 0.606557 0.861649
O O12 0.209395 0.468439 0.529728
O O13 0.034011 0.619434 0.695703
O O14 0.267054 0.620270 0.368039
O O15 0.260231 0.771840 0.157950
O O16 0.257996 0.954577 0.465000
#
# Coordination Sequence:
#
# PCOD8035296 Si02
#       8
#     2   2   2   2   2   2   2   2
#     4  12  27  45  70 107 148 194 249 314 372 448
#     4  12  27  46  76 108 153 194 250 317 381 441
#     4  11  25  44  71 103 144 198 248 305 373 450
#     4  11  28  51  79 111 147 206 251 316 379 459
#     4  12  26  48  79 110 151 195 257 308 380 448
#     4  11  27  48  77 106 153 194 252 311 384 445
#     4  12  25  45  73 103 148 199 251 302 376 451
#     4  11  25  43  69 105 145 192 247 307 376 445
#
# _framework density 23.976396999999999
#
# number of rings (size 3 to 8) (size 9 to 14) (size 15 to 20)
#    0.000    0.500    3.750    3.000    7.000    3.500 
#    0.000    0.000    0.000    0.000    0.000    0.000 
#    0.000    0.000    0.000    0.000    0.000    0.000 
#
# Total GULP energy -198275.185825 kJ/mol
# GULP energy per Si atom -12392.199114 kJ/mol
# Density = 2.392183 g / cm^3
# Si number density = 23.976397 Si / 1000 Ang^3
#
#
#
# Elastic Constant Matrix: (Units=GPa)
#
#
# Indices 1 2 3 4 5 6 
#
# 1 166.8025 41.8048 67.6676 13.5145 -9.5513 14.6534
# 2 41.8048 117.8573 40.6505 20.2269 -1.0288 -0.5224
# 3 67.6676 40.6505 107.5330 12.5652 -6.0355 2.4418
# 4 13.5145 20.2269 12.5652 30.1072 -5.3994 -4.6294
# 5 -9.5513 -1.0288 -6.0355 -5.3994 46.4738 9.6875
# 6 14.6534 -0.5224 2.4418 -4.6294 9.6875 33.7645
#
#
#
# Elastic Compliance Matrix: (Units=1/GPa)
#
#
# Indices 1 2 3 4 5 6 
#
# 1 0.008817 -0.001257 -0.004699 -0.001466 0.001889 -0.004249
# 2 -0.001257 0.010840 -0.002712 -0.005720 -0.001129 0.000449
# 3 -0.004699 -0.002712 0.013464 -0.001508 0.000401 0.000702
# 4 -0.001466 -0.005720 -0.001508 0.039673 0.002887 0.005268
# 5 0.001889 -0.001129 0.000401 0.002887 0.023789 -0.007296
# 6 -0.004249 0.000449 0.000702 0.005268 -0.007296 0.034233
#
#
# Mechanical properties :
#
#
# Convention : Reuss Voigt Hill
#
# Bulk Modulus (GPa) = 63.35162 76.93762 70.14462
# Shear Modulus (GPa) = 32.59157 38.20709 35.39933
#
# Velocity S-wave (km/s) = 3.69089 3.99623 3.84660
# Velocity P-wave (km/s) = 6.68158 7.31107 7.00340
#
# Compressibility (1/GPa) = 0.01578492
#
# Stress axis : x y z
#
# Youngs Moduli (GPa) = 113.42040 92.25148 74.26995
#
# Poissons Ratio (x) = 0.11599 0.34899
# Poissons Ratio (y) = 0.14260 0.20141
# Poissons Ratio (z) = 0.53296 0.25017
#
# Static dielectric constant tensor:
#      x y z
#    x 4.530210 0.262150 -0.166830 
#    y 0.262150 4.588970 0.084300 
#    z -0.166830 0.084300 4.195090 
# 
# 
# High freq. dielectric constant tensor:
#      x y z
#    x 1.962920 0.011670 -0.011080 
#    y 0.011670 1.960720 0.013850 
#    z -0.011080 0.013850 1.946420 
# 
# From -- ./inp_files/39867.got.cif
#   From: 2010.06.25/outbox.cif.g09.slc.cpg/sg2_20_cif.got.tgz:39867.got - 2010.06.27 13:26:56.
