data_PCOD8035921
_publ_section_title
;
Structure prediction by ZEFSAII (Michael W. Deem and Ramdas Pophale) SiO2 
 PCOD8035921
Probable space group: P -1
;
_chemical_formula_sum "Si O2"
_cell_formula_units_Z 10
_cell_length_a 12.787463
_cell_length_b 5.329990
_cell_length_c 16.614755
_cell_angle_alpha 127.796416
_cell_angle_beta 26.345168
_cell_angle_gamma 122.215827
_cell_volume 396.684985
_symmetry_space_group_name_H-M "P -1"
_symmetry_group_IT_number 2
_symmetry_cell_setting 'triclinic'
loop_
_space_group_symop_operation_xyz
x,y,z
-x,-y,-z
loop_
_atom_site_type_symbol
_atom_site_label
_atom_site_fract_x
_atom_site_fract_y
_atom_site_fract_z
Si Si1 0.615761 0.385821 0.671827
Si Si2 0.640265 0.493687 0.985131
Si Si3 0.835635 0.081108 0.053734
Si Si4 0.686041 0.755795 0.283882
Si Si5 0.097954 0.161680 0.542064
O O1 0.381886 0.229605 0.763216
O O2 0.741191 0.559588 0.545878
O O3 0.779930 0.101765 0.537632
O O4 0.532327 0.636482 0.850376
O O5 0.887396 0.304557 0.770809
O O6 0.500000 0.500000 0.000000
O O7 0.678154 0.843064 0.064668
O O8 0.661118 0.387345 0.254683
O O9 0.046404 0.166477 0.862608
O O10 0.000000 0.000000 0.000000
O O11 0.500000 0.000000 0.500000
O O12 0.000000 0.000000 0.500000
#
# Coordination Sequence:
#
# PCOD8035921 Si02
#       5
#     2   2   2   2   2
#     4  12  27  50  75 115 154 202 269 320 396 466
#     4  12  27  49  80 109 161 208 252 330 395 463
#     4  11  25  48  71 112 148 196 266 314 384 474
#     4  11  26  46  79 106 151 203 258 330 392 460
#     4  12  28  48  75 115 155 206 267 317 390 483
#
# _framework density 25.208922000000001
#
# number of rings (size 3 to 8) (size 9 to 14) (size 15 to 20)
#    0.000    0.400    4.000    3.000    2.800    4.800 
#    0.000    0.000    0.000    0.000    0.000    0.000 
#    0.000    0.000    0.000    0.000    0.000    0.000 
#
# Total GULP energy -123895.607064 kJ/mol
# GULP energy per Si atom -12389.560706 kJ/mol
# Density = 2.515154 g / cm^3
# Si number density = 25.208922 Si / 1000 Ang^3
#
#
#
# Elastic Constant Matrix: (Units=GPa)
#
#
# Indices 1 2 3 4 5 6 
#
# 1 163.8439 44.6674 38.4044 14.0065 -6.2359 0.2616
# 2 44.6674 87.3067 34.3038 16.4562 -9.2864 -2.5576
# 3 38.4044 34.3038 207.6841 26.8346 -2.4795 -19.7189
# 4 14.0065 16.4562 26.8346 41.7487 2.5602 -3.0317
# 5 -6.2359 -9.2864 -2.4795 2.5602 43.2900 4.9241
# 6 0.2616 -2.5576 -19.7189 -3.0317 4.9241 48.0467
#
#
#
# Elastic Compliance Matrix: (Units=1/GPa)
#
#
# Indices 1 2 3 4 5 6 
#
# 1 0.007246 -0.003243 -0.000763 -0.000733 0.000418 -0.000614
# 2 -0.003243 0.014686 -0.001293 -0.004067 0.002882 -0.000283
# 3 -0.000763 -0.001293 0.005725 -0.002752 -0.000138 0.002126
# 4 -0.000733 -0.004067 -0.002752 0.027797 -0.002860 0.000705
# 5 0.000418 0.002882 -0.000138 -0.002860 0.024232 -0.002570
# 6 -0.000614 -0.000283 0.002126 0.000705 -0.002570 0.021982
#
#
# Mechanical properties :
#
#
# Convention : Reuss Voigt Hill
#
# Bulk Modulus (GPa) = 58.61874 77.06513 67.84194
# Shear Modulus (GPa) = 42.39042 49.38102 45.88572
#
# Velocity S-wave (km/s) = 4.10514 4.43071 4.27103
# Velocity P-wave (km/s) = 6.76559 7.53737 7.16188
#
# Compressibility (1/GPa) = 0.01705939
#
# Stress axis : x y z
#
# Youngs Moduli (GPa) = 138.01205 68.09309 174.66159
#
# Poissons Ratio (x) = 0.22081 0.13325
# Poissons Ratio (y) = 0.44754 0.22585
# Poissons Ratio (z) = 0.10529 0.08805
#
# Static dielectric constant tensor:
#      x y z
#    x 4.798340 0.417670 -0.045170 
#    y 0.417670 5.644890 -0.934790 
#    z -0.045170 -0.934790 5.360860 
# 
# 
# High freq. dielectric constant tensor:
#      x y z
#    x 2.024130 0.006890 -0.012620 
#    y 0.006890 2.007570 -0.012180 
#    z -0.012620 -0.012180 2.026310 
# 
# From -- ./inp_files/20623.got.cif
#   From: 2010.06.25/outbox.cif.g09.slc.cpg/sg2_11_cif.got.tgz:20623.got - 2010.06.27 13:26:56.
