data_PCOD8035385
_publ_section_title
;
Structure prediction by ZEFSAII (Michael W. Deem and Ramdas Pophale) SiO2 
 PCOD8035385
Probable space group: P -1
;
_chemical_formula_sum "Si O2"
_cell_formula_units_Z 14
_cell_length_a 5.400212
_cell_length_b 12.715349
_cell_length_c 13.078949
_cell_angle_alpha 60.185363
_cell_angle_beta 114.240687
_cell_angle_gamma 128.091243
_cell_volume 606.123328
_symmetry_space_group_name_H-M "P -1"
_symmetry_group_IT_number 2
_symmetry_cell_setting 'triclinic'
loop_
_space_group_symop_operation_xyz
x,y,z
-x,-y,-z
loop_
_atom_site_type_symbol
_atom_site_label
_atom_site_fract_x
_atom_site_fract_y
_atom_site_fract_z
Si Si1 0.293823 0.028727 0.376109
Si Si2 0.294188 0.457607 0.884682
Si Si3 0.440807 0.718200 0.090873
Si Si4 0.679850 0.704219 0.697410
Si Si5 0.351353 0.151128 0.722764
Si Si6 0.340443 0.863031 0.816694
Si Si7 0.369959 0.588064 0.490908
O O1 0.233194 0.135149 0.378597
O O2 0.447274 0.109970 0.258462
O O3 0.500000 0.000000 0.500000
O O4 0.981140 0.880049 0.366449
O O5 0.395799 0.369947 0.870623
O O6 0.379975 0.600271 0.768841
O O7 0.924405 0.377723 0.888778
O O8 0.500000 0.500000 0.000000
O O9 0.639564 0.817246 0.171224
O O10 0.479724 0.819952 0.955212
O O11 0.604648 0.643554 0.600487
O O12 0.996655 0.725312 0.795843
O O13 0.612478 0.287739 0.637716
O O14 0.361095 0.009047 0.779175
O O15 0.500000 0.500000 0.500000
O O16 0.000000 0.500000 0.500000
#
# Coordination Sequence:
#
# PCOD8035385 Si02
#       7
#     2   2   2   2   2   2   2
#     4  11  25  45  76 100 142 188 240 296 348 425
#     4  12  25  46  73 105 147 188 235 291 349 425
#     4  12  27  46  75 106 146 187 235 295 355 418
#     4  11  25  44  71 105 139 187 241 288 356 418
#     4  11  27  47  69 108 141 185 239 293 359 416
#     4  11  25  44  74 103 141 190 235 293 349 428
#     4  12  28  47  72 102 141 186 233 293 354 417
#
# _framework density 23.097611000000001
#
# number of rings (size 3 to 8) (size 9 to 14) (size 15 to 20)
#    0.000    0.571    1.429    5.143   12.000    2.857 
#    0.000    0.000    0.000    0.000    0.000    0.000 
#    0.000    0.000    0.000    0.000    0.000    0.000 
#
# Total GULP energy -173547.709909 kJ/mol
# GULP energy per Si atom -12396.264994 kJ/mol
# Density = 2.304504 g / cm^3
# Si number density = 23.097611 Si / 1000 Ang^3
#
#
#
# Elastic Constant Matrix: (Units=GPa)
#
#
# Indices 1 2 3 4 5 6 
#
# 1 104.3296 41.5706 14.5737 6.0476 -8.0253 8.7859
# 2 41.5706 128.8786 55.5721 19.2906 -4.9093 2.1893
# 3 14.5737 55.5721 153.0010 11.7271 -5.0131 7.4007
# 4 6.0476 19.2906 11.7271 52.7444 3.6515 -11.4775
# 5 -8.0253 -4.9093 -5.0131 3.6515 37.8088 0.7708
# 6 8.7859 2.1893 7.4007 -11.4775 0.7708 31.6937
#
#
#
# Elastic Compliance Matrix: (Units=1/GPa)
#
#
# Indices 1 2 3 4 5 6 
#
# 1 0.011482 -0.003645 0.000549 -0.001016 0.002206 -0.003481
# 2 -0.003645 0.010820 -0.003352 -0.002823 0.000459 0.000012
# 3 0.000549 -0.003352 0.007924 -0.001140 0.000887 -0.002205
# 4 -0.001016 -0.002823 -0.001140 0.022529 -0.003092 0.008977
# 5 0.002206 0.000459 0.000887 -0.003092 0.027447 -0.002638
# 6 -0.003481 0.000012 -0.002205 0.008977 -0.002638 0.036346
#
#
# Mechanical properties :
#
#
# Convention : Reuss Voigt Hill
#
# Bulk Modulus (GPa) = 57.70318 67.73800 62.72059
# Shear Modulus (GPa) = 36.97602 42.74888 39.86245
#
# Velocity S-wave (km/s) = 4.00541 4.30675 4.15881
# Velocity P-wave (km/s) = 6.81379 7.35672 7.09045
#
# Compressibility (1/GPa) = 0.01733007
#
# Stress axis : x y z
#
# Youngs Moduli (GPa) = 87.08919 92.41909 126.19467
#
# Poissons Ratio (x) = 0.33689 -0.06925
# Poissons Ratio (y) = 0.31746 0.42301
# Poissons Ratio (z) = -0.04779 0.30979
#
# Static dielectric constant tensor:
#      x y z
#    x 4.226610 0.075300 0.028000 
#    y 0.075300 4.486240 0.084320 
#    z 0.028000 0.084320 4.462120 
# 
# 
# High freq. dielectric constant tensor:
#      x y z
#    x 1.907460 0.002260 -0.006710 
#    y 0.002260 1.932530 0.005750 
#    z -0.006710 0.005750 1.935840 
# 
# From -- ./inp_files/47395.got.cif
#   From: 2010.06.25/outbox.cif.g09.slc.cpg/sg2_24_cif.got.tgz:47395.got - 2010.06.27 13:26:56.
