data_PCOD8035199
_publ_section_title
;
Structure prediction by ZEFSAII (Michael W. Deem and Ramdas Pophale) SiO2 
 PCOD8035199
Probable space group: P -1
;
_chemical_formula_sum "Si O2"
_cell_formula_units_Z 12
_cell_length_a 9.376889
_cell_length_b 7.949505
_cell_length_c 12.066214
_cell_angle_alpha 63.289791
_cell_angle_beta 142.558252
_cell_angle_gamma 99.096976
_cell_volume 454.573591
_symmetry_space_group_name_H-M "P -1"
_symmetry_group_IT_number 2
_symmetry_cell_setting 'triclinic'
loop_
_space_group_symop_operation_xyz
x,y,z
-x,-y,-z
loop_
_atom_site_type_symbol
_atom_site_label
_atom_site_fract_x
_atom_site_fract_y
_atom_site_fract_z
Si Si1 0.921581 0.975490 0.665089
Si Si2 0.795209 0.720082 0.060462
Si Si3 0.651120 0.320625 0.547813
Si Si4 0.456111 0.146259 0.671433
Si Si5 0.783203 0.447916 0.943138
Si Si6 0.807094 0.726211 0.307323
O O1 0.787739 0.889271 0.515392
O O2 0.719967 0.103519 0.594578
O O3 0.047937 0.117581 0.642604
O O4 0.129810 0.791065 0.912483
O O5 0.666269 0.746012 0.095225
O O6 0.097648 0.632181 0.288466
O O7 0.715891 0.565511 0.983936
O O8 0.700553 0.939915 0.879360
O O9 0.512124 0.314178 0.580485
O O10 0.465829 0.490691 0.302959
O O11 0.397609 0.227809 0.736046
O O12 0.000000 0.500000 0.000000
O O13 0.000000 0.500000 0.500000
#
# Coordination Sequence:
#
# PCOD8035199 Si02
#       6
#     2   2   2   2   2   2
#     4  11  24  49  77 112 153 199 255 317 374 450
#     4  11  26  48  74 115 152 203 253 311 376 457
#     4  11  25  49  77 115 158 194 254 317 373 454
#     4  12  22  48  79 109 159 202 251 314 384 452
#     4  12  24  47  81 115 152 199 252 312 387 441
#     4  11  27  51  73 109 155 204 259 312 378 453
#
# _framework density 26.398364999999998
#
# number of rings (size 3 to 8) (size 9 to 14) (size 15 to 20)
#    0.000    0.667    3.333    4.000    0.000    2.000 
#   27.000    1.667    0.000    0.000    0.000    0.000 
#    0.000    0.000    0.000    0.000    0.000    0.000 
#
# Total GULP energy -148887.183064 kJ/mol
# GULP energy per Si atom -12407.265255 kJ/mol
# Density = 2.633828 g / cm^3
# Si number density = 26.398365 Si / 1000 Ang^3
#
#
#
# Elastic Constant Matrix: (Units=GPa)
#
#
# Indices 1 2 3 4 5 6 
#
# 1 162.6882 54.4617 46.0611 9.0175 -18.9504 -13.3711
# 2 54.4617 121.7290 52.4618 -10.5906 -13.0902 3.8066
# 3 46.0611 52.4618 202.4950 -20.9293 -7.9395 3.9600
# 4 9.0175 -10.5906 -20.9293 46.2127 -5.2329 -12.0923
# 5 -18.9504 -13.0902 -7.9395 -5.2329 41.3482 0.7307
# 6 -13.3711 3.8066 3.9600 -12.0923 0.7307 53.5174
#
#
#
# Elastic Compliance Matrix: (Units=1/GPa)
#
#
# Indices 1 2 3 4 5 6 
#
# 1 0.008037 -0.003085 -0.001195 -0.002096 0.002180 0.001813
# 2 -0.003085 0.010793 -0.001766 0.002256 0.001966 -0.000925
# 3 -0.001195 -0.001766 0.005946 0.002551 0.000358 -0.000041
# 4 -0.002096 0.002256 0.002551 0.025361 0.003368 0.004812
# 5 0.002180 0.001966 0.000358 0.003368 0.026288 0.000780
# 6 0.001813 -0.000925 -0.000041 0.004812 0.000780 0.020284
#
#
# Mechanical properties :
#
#
# Convention : Reuss Voigt Hill
#
# Bulk Modulus (GPa) = 78.84508 88.09793 83.47151
# Shear Modulus (GPa) = 44.23613 50.47751 47.35682
#
# Velocity S-wave (km/s) = 4.09799 4.37755 4.24008
# Velocity P-wave (km/s) = 7.23351 7.68086 7.46054
#
# Compressibility (1/GPa) = 0.01268310
#
# Stress axis : x y z
#
# Youngs Moduli (GPa) = 124.42402 92.65261 168.16792
#
# Poissons Ratio (x) = 0.28585 0.20103
# Poissons Ratio (y) = 0.38387 0.29700
# Poissons Ratio (z) = 0.14874 0.16363
#
# Static dielectric constant tensor:
#      x y z
#    x 5.020190 -0.357030 -0.377750 
#    y -0.357030 4.831120 -0.159200 
#    z -0.377750 -0.159200 5.041630 
# 
# 
# High freq. dielectric constant tensor:
#      x y z
#    x 2.055340 -0.016490 -0.011430 
#    y -0.016490 2.082650 -0.010950 
#    z -0.011430 -0.010950 2.073060 
# 
# From -- ./inp_files/375739.got.cif
#   From: 2010.06.25/outbox.cif.g09.slc.cpg/sg2_188_cif.got.tgz:375739.got - 2010.06.27 13:26:56.
