data_PCOD8035978
_publ_section_title
;
Structure prediction by ZEFSAII (Michael W. Deem and Ramdas Pophale) SiO2 
 PCOD8035978
Probable space group: P -1
;
_chemical_formula_sum "Si O2"
_cell_formula_units_Z 10
_cell_length_a 12.105200
_cell_length_b 9.915006
_cell_length_c 15.494493
_cell_angle_alpha 37.163005
_cell_angle_beta 150.540901
_cell_angle_gamma 154.109014
_cell_volume 398.568144
_symmetry_space_group_name_H-M "P -1"
_symmetry_group_IT_number 2
_symmetry_cell_setting 'triclinic'
loop_
_space_group_symop_operation_xyz
x,y,z
-x,-y,-z
loop_
_atom_site_type_symbol
_atom_site_label
_atom_site_fract_x
_atom_site_fract_y
_atom_site_fract_z
Si Si1 0.259880 0.855443 0.024587
Si Si2 0.304987 0.859942 0.527291
Si Si3 0.157590 0.895415 0.122029
Si Si4 0.046515 0.726218 0.674221
Si Si5 0.992339 0.983429 0.651884
O O1 0.280378 0.064523 0.858383
O O2 0.138461 0.895955 0.006477
O O3 0.000000 0.500000 0.000000
O O4 0.591200 0.967942 0.212536
O O5 0.000000 0.500000 0.500000
O O6 0.500000 0.000000 0.500000
O O7 0.489947 0.868073 0.726108
O O8 0.240573 0.072105 0.406516
O O9 0.986305 0.558563 0.213762
O O10 0.000000 0.000000 0.000000
O O11 0.850285 0.692260 0.639886
O O12 0.915535 0.749853 0.485722
#
# Coordination Sequence:
#
# PCOD8035978 Si02
#       5
#     2   2   2   2   2
#     4  12  26  46  76 119 154 206 268 330 414 483
#     4  12  28  51  78 120 159 219 273 334 416 485
#     4  12  28  50  78 112 165 212 271 336 402 493
#     4  11  26  49  75 117 157 208 270 329 411 481
#     4  11  25  48  80 109 159 203 266 338 400 482
#
# _framework density 25.089812999999999
#
# number of rings (size 3 to 8) (size 9 to 14) (size 15 to 20)
#    0.000    0.400    4.000    3.000    2.800    7.200 
#    0.000    0.000    0.000    0.000    0.000    0.000 
#    0.000    0.000    0.000    0.000    0.000    0.000 
#
# Total GULP energy -123911.708841 kJ/mol
# GULP energy per Si atom -12391.170884 kJ/mol
# Density = 2.503271 g / cm^3
# Si number density = 25.089813 Si / 1000 Ang^3
#
#
#
# Elastic Constant Matrix: (Units=GPa)
#
#
# Indices 1 2 3 4 5 6 
#
# 1 173.5506 62.6043 42.6655 -10.3257 -11.2810 -31.3982
# 2 62.6043 151.5515 60.7851 2.2419 6.1425 -11.5964
# 3 42.6655 60.7851 179.9732 -8.6847 -22.4736 -7.2631
# 4 -10.3257 2.2419 -8.6847 45.6906 -5.2332 8.0909
# 5 -11.2810 6.1425 -22.4736 -5.2332 59.7639 -8.7970
# 6 -31.3982 -11.5964 -7.2631 8.0909 -8.7970 41.5838
#
#
#
# Elastic Compliance Matrix: (Units=1/GPa)
#
#
# Indices 1 2 3 4 5 6 
#
# 1 0.008163 -0.002938 -0.000325 0.001238 0.002654 0.005608
# 2 -0.002938 0.009050 -0.002813 -0.001888 -0.002767 -0.000404
# 3 -0.000325 -0.002813 0.007075 0.001670 0.003114 0.000539
# 4 0.001238 -0.001888 0.001670 0.023463 0.002623 -0.003310
# 5 0.002654 -0.002767 0.003114 0.002623 0.019719 0.005437
# 6 0.005608 -0.000404 0.000539 -0.003310 0.005437 0.030058
#
#
# Mechanical properties :
#
#
# Convention : Reuss Voigt Hill
#
# Bulk Modulus (GPa) = 82.41173 93.02056 87.71614
# Shear Modulus (GPa) = 43.96622 52.00901 47.98761
#
# Velocity S-wave (km/s) = 4.19065 4.55787 4.37811
# Velocity P-wave (km/s) = 7.50556 8.05322 7.78421
#
# Compressibility (1/GPa) = 0.01213420
#
# Stress axis : x y z
#
# Youngs Moduli (GPa) = 122.51056 110.50294 141.34868
#
# Poissons Ratio (x) = 0.32468 0.04596
# Poissons Ratio (y) = 0.35997 0.39759
# Poissons Ratio (z) = 0.03984 0.31083
#
# Static dielectric constant tensor:
#      x y z
#    x 4.840500 -0.400950 -0.172080 
#    y -0.400950 4.241210 0.048720 
#    z -0.172080 0.048720 5.203900 
# 
# 
# High freq. dielectric constant tensor:
#      x y z
#    x 2.025070 -0.027640 -0.009240 
#    y -0.027640 1.971730 -0.001390 
#    z -0.009240 -0.001390 2.020300 
# 
# From -- ./inp_files/57390.got.cif
#   From: 2010.06.25/outbox.cif.g09.slc.cpg/sg2_29_cif.got.tgz:57390.got - 2010.06.27 13:26:56.
