data_PCOD8035036
_publ_section_title
;
Structure prediction by ZEFSAII (Michael W. Deem and Ramdas Pophale) SiO2 
 PCOD8035036
Probable space group: P -1
;
_chemical_formula_sum "Si O2"
_cell_formula_units_Z 14
_cell_length_a 8.958387
_cell_length_b 11.521777
_cell_length_c 14.926510
_cell_angle_alpha 150.307905
_cell_angle_beta 130.368451
_cell_angle_gamma 61.357458
_cell_volume 567.095151
_symmetry_space_group_name_H-M "P -1"
_symmetry_group_IT_number 2
_symmetry_cell_setting 'triclinic'
loop_
_space_group_symop_operation_xyz
x,y,z
-x,-y,-z
loop_
_atom_site_type_symbol
_atom_site_label
_atom_site_fract_x
_atom_site_fract_y
_atom_site_fract_z
Si Si1 0.748145 0.758161 0.717187
Si Si2 0.241413 0.819634 0.344611
Si Si3 0.464853 0.361857 0.797947
Si Si4 0.155808 0.119396 0.839539
Si Si5 0.915678 0.226158 0.271203
Si Si6 0.355418 0.491903 0.307261
Si Si7 0.566249 0.165737 0.978971
O O1 0.594087 0.557969 0.464485
O O2 0.766822 0.636834 0.740190
O O3 0.967211 0.844469 0.816797
O O4 0.657224 0.994132 0.834195
O O5 0.341472 0.698670 0.219800
O O6 0.277604 0.719985 0.390386
O O7 0.000841 0.760381 0.193828
O O8 0.308295 0.108303 0.572336
O O9 0.500000 0.500000 0.000000
O O10 0.375047 0.551948 0.833122
O O11 0.326767 0.044077 0.794300
O O12 0.031570 0.902906 0.705342
O O13 0.313081 0.306858 0.085910
O O14 0.000000 0.500000 0.500000
O O15 0.676966 0.149861 0.107365
#
# Coordination Sequence:
#
# PCOD8035036 Si02
#       7
#     2   2   2   2   2   2   2
#     4  11  27  46  76 110 142 198 247 321 365 444
#     4  11  26  49  75 110 153 203 244 310 383 442
#     4  11  26  47  76 108 151 199 256 309 366 453
#     4  12  26  45  74 108 148 198 238 306 383 448
#     4  12  27  45  74 105 145 192 251 302 379 441
#     4  11  24  47  74 102 151 190 249 304 377 443
#     4  12  25  47  69 110 144 190 249 304 373 438
#
# _framework density 24.687214000000001
#
# number of rings (size 3 to 8) (size 9 to 14) (size 15 to 20)
#    0.000    0.571    2.857    3.857   10.000    0.000 
#    2.571    1.429    0.000    0.000    0.000    0.000 
#    0.000    0.000    0.000    0.000    0.000    0.000 
#
# Total GULP energy -173435.515573 kJ/mol
# GULP energy per Si atom -12388.251112 kJ/mol
# Density = 2.463102 g / cm^3
# Si number density = 24.687214 Si / 1000 Ang^3
#
#
#
# Elastic Constant Matrix: (Units=GPa)
#
#
# Indices 1 2 3 4 5 6 
#
# 1 122.0860 63.2267 25.9707 9.7060 3.7771 -16.5416
# 2 63.2267 156.2796 29.2995 7.0614 8.5607 5.3218
# 3 25.9707 29.2995 93.6301 12.3920 -14.8377 -11.7862
# 4 9.7060 7.0614 12.3920 52.0132 -1.1593 12.5293
# 5 3.7771 8.5607 -14.8377 -1.1593 38.4768 1.0637
# 6 -16.5416 5.3218 -11.7862 12.5293 1.0637 38.6024
#
#
#
# Elastic Compliance Matrix: (Units=1/GPa)
#
#
# Indices 1 2 3 4 5 6 
#
# 1 0.011951 -0.004753 -0.000709 -0.003010 -0.000661 0.006555
# 2 -0.004753 0.009036 -0.002619 0.001300 -0.002392 -0.004438
# 3 -0.000709 -0.002619 0.013808 -0.003977 0.005708 0.005407
# 4 -0.003010 0.001300 -0.003977 0.022986 -0.000555 -0.010129
# 5 -0.000661 -0.002392 0.005708 -0.000555 0.028739 0.001178
# 6 0.006555 -0.004438 0.005407 -0.010129 0.001178 0.034232
#
#
# Mechanical properties :
#
#
# Convention : Reuss Voigt Hill
#
# Bulk Modulus (GPa) = 53.66727 67.66549 60.66638
# Shear Modulus (GPa) = 34.93432 42.71840 38.82636
#
# Velocity S-wave (km/s) = 3.76583 4.16430 3.97007
# Velocity P-wave (km/s) = 6.37924 7.11270 6.75593
#
# Compressibility (1/GPa) = 0.01863333
#
# Stress axis : x y z
#
# Youngs Moduli (GPa) = 83.67262 110.66443 72.42173
#
# Poissons Ratio (x) = 0.52603 0.05133
# Poissons Ratio (y) = 0.39773 0.18968
# Poissons Ratio (z) = 0.05930 0.28984
#
# Static dielectric constant tensor:
#      x y z
#    x 3.447290 -0.139900 0.140770 
#    y -0.139900 4.803180 0.109340 
#    z 0.140770 0.109340 4.773610 
# 
# 
# High freq. dielectric constant tensor:
#      x y z
#    x 1.968710 -0.001410 0.002020 
#    y -0.001410 1.992220 0.012660 
#    z 0.002020 0.012660 2.000370 
# 
# From -- ./inp_files/501304.got.cif
#   From: 2010.06.25/outbox.cif.g09.slc.cpg/sg2_251_cif.got.tgz:501304.got - 2010.06.27 13:26:56.
