data_PCOD8035852
_publ_section_title
;
Structure prediction by ZEFSAII (Michael W. Deem and Ramdas Pophale) SiO2 
 PCOD8035852
Probable space group: P -1
;
_chemical_formula_sum "Si O2"
_cell_formula_units_Z 16
_cell_length_a 15.211365
_cell_length_b 9.078905
_cell_length_c 9.311984
_cell_angle_alpha 89.134778
_cell_angle_beta 38.421814
_cell_angle_gamma 79.768415
_cell_volume 770.123384
_symmetry_space_group_name_H-M "P -1"
_symmetry_group_IT_number 2
_symmetry_cell_setting 'triclinic'
loop_
_space_group_symop_operation_xyz
x,y,z
-x,-y,-z
loop_
_atom_site_type_symbol
_atom_site_label
_atom_site_fract_x
_atom_site_fract_y
_atom_site_fract_z
Si Si1 0.124961 0.061778 0.273270
Si Si2 0.840255 0.898922 0.276899
Si Si3 0.103314 0.392771 0.976475
Si Si4 0.837386 0.129719 0.044346
Si Si5 0.348511 0.525776 0.774091
Si Si6 0.630909 0.542437 0.915718
Si Si7 0.050618 0.599977 0.550382
Si Si8 0.653194 0.877899 0.789094
O O1 0.247879 0.055430 0.232823
O O2 0.050366 0.231801 0.323804
O O3 0.000000 0.000000 0.500000
O O4 0.196872 0.968974 0.042448
O O5 0.864288 0.780638 0.115829
O O6 0.714561 0.877464 0.547468
O O7 0.794504 0.065017 0.253125
O O8 0.990107 0.877523 0.175078
O O9 0.259984 0.420345 0.811422
O O10 0.000000 0.500000 0.000000
O O11 0.987830 0.455704 0.248675
O O12 0.742555 0.299804 0.131488
O O13 0.500000 0.500000 0.500000
O O14 0.383756 0.472118 0.894187
O O15 0.777172 0.414345 0.683335
O O16 0.642897 0.709867 0.851057
O O17 0.500000 0.500000 0.000000
O O18 0.000000 0.500000 0.500000
O O19 0.500000 0.000000 0.000000
#
# Coordination Sequence:
#
# PCOD8035852 Si02
#       8
#     2   2   2   2   2   2   2   2
#     4  12  24  44  76 105 139 191 238 301 366 429
#     4  11  25  47  74 111 145 188 244 300 367 444
#     4  12  24  44  76 105 139 191 238 301 366 429
#     4  11  25  47  74 111 145 188 244 300 367 444
#     4  12  29  48  72 107 152 192 244 303 373 443
#     4  12  30  48  73 104 146 197 252 309 365 432
#     4  12  24  48  74 102 141 188 255 304 355 444
#     4  12  29  48  72 107 152 192 244 303 373 443
#
# _framework density 20.775891000000001
#
# number of rings (size 3 to 8) (size 9 to 14) (size 15 to 20)
#    0.000    0.250    6.250    1.500    8.750    0.000 
#    0.000    1.250    0.000    0.000    0.000    0.000 
#    0.000    0.000    0.000    0.000    0.000    0.000 
#
# Total GULP energy -198326.593677 kJ/mol
# GULP energy per Si atom -12395.412105 kJ/mol
# Density = 2.072860 g / cm^3
# Si number density = 20.775891 Si / 1000 Ang^3
#
#
#
# Elastic Constant Matrix: (Units=GPa)
#
#
# Indices 1 2 3 4 5 6 
#
# 1 145.4570 31.6048 50.0816 -12.0576 1.3496 12.1510
# 2 31.6048 89.5150 22.0794 -5.7604 15.7093 -4.3592
# 3 50.0816 22.0794 142.0661 -15.8756 10.9509 -4.8701
# 4 -12.0576 -5.7604 -15.8756 39.5551 -2.2322 4.0900
# 5 1.3496 15.7093 10.9509 -2.2322 41.4708 -3.1377
# 6 12.1510 -4.3592 -4.8701 4.0900 -3.1377 43.5163
#
#
#
# Elastic Compliance Matrix: (Units=1/GPa)
#
#
# Indices 1 2 3 4 5 6 
#
# 1 0.008769 -0.002707 -0.002699 0.001587 0.001305 -0.003077
# 2 -0.002707 0.013198 -0.000641 0.000411 -0.004596 0.001636
# 3 -0.002699 -0.000641 0.008520 0.002272 -0.001698 0.001307
# 4 0.001587 0.000411 0.002272 0.027037 0.000447 -0.002657
# 5 0.001305 -0.004596 -0.001698 0.000447 0.026348 0.000843
# 6 -0.003077 0.001636 0.001307 -0.002657 0.000843 0.024460
#
#
# Mechanical properties :
#
#
# Convention : Reuss Voigt Hill
#
# Bulk Modulus (GPa) = 54.36914 64.95219 59.66067
# Shear Modulus (GPa) = 39.50830 43.12660 41.31745
#
# Velocity S-wave (km/s) = 4.36551 4.56104 4.46435
# Velocity P-wave (km/s) = 7.18585 7.68561 7.43992
#
# Compressibility (1/GPa) = 0.01839279
#
# Stress axis : x y z
#
# Youngs Moduli (GPa) = 114.03899 75.77013 117.37486
#
# Poissons Ratio (x) = 0.20511 0.31683
# Poissons Ratio (y) = 0.30871 0.07518
# Poissons Ratio (z) = 0.30782 0.04853
#
# Static dielectric constant tensor:
#      x y z
#    x 3.768520 -0.313110 -0.083540 
#    y -0.313110 3.382930 -0.489860 
#    z -0.083540 -0.489860 3.564800 
# 
# 
# High freq. dielectric constant tensor:
#      x y z
#    x 1.831510 -0.003490 0.010710 
#    y -0.003490 1.829530 -0.005870 
#    z 0.010710 -0.005870 1.819290 
# 
# From -- ./inp_files/298480.got.cif
#   From: 2010.06.25/outbox.cif.g09.slc.cpg/sg2_150_cif.got.tgz:298480.got - 2010.06.27 13:26:56.
