data_PCOD8035355
_publ_section_title
;
Structure prediction by ZEFSAII (Michael W. Deem and Ramdas Pophale) SiO2 
 PCOD8035355
Probable space group: P -1
;
_chemical_formula_sum "Si O2"
_cell_formula_units_Z 16
_cell_length_a 13.127261
_cell_length_b 19.151390
_cell_length_c 9.932853
_cell_angle_alpha 33.350752
_cell_angle_beta 146.162822
_cell_angle_gamma 147.597308
_cell_volume 665.737843
_symmetry_space_group_name_H-M "P -1"
_symmetry_group_IT_number 2
_symmetry_cell_setting 'triclinic'
loop_
_space_group_symop_operation_xyz
x,y,z
-x,-y,-z
loop_
_atom_site_type_symbol
_atom_site_label
_atom_site_fract_x
_atom_site_fract_y
_atom_site_fract_z
Si Si1 0.095912 0.110412 0.806064
Si Si2 0.954062 0.689534 0.078068
Si Si3 0.165551 0.532039 0.941297
Si Si4 0.145505 0.068671 0.423806
Si Si5 0.811996 0.577142 0.587328
Si Si6 0.328522 0.503424 0.712601
Si Si7 0.488080 0.845427 0.709693
Si Si8 0.421960 0.813030 0.382364
O O1 0.053561 0.247052 0.540948
O O2 0.343108 0.168157 0.990245
O O3 0.997943 0.024633 0.703360
O O4 0.000000 0.000000 0.000000
O O5 0.867860 0.573341 0.050188
O O6 0.904016 0.605586 0.302511
O O7 0.202337 0.817828 0.133553
O O8 0.808982 0.765629 0.799849
O O9 0.276366 0.702135 0.750337
O O10 0.940681 0.499256 0.801495
O O11 0.279264 0.492259 0.253393
O O12 0.374356 0.073367 0.667139
O O13 0.000000 0.000000 0.500000
O O14 0.642405 0.539072 0.340739
O O15 0.342402 0.657470 0.481000
O O16 0.500000 0.500000 0.000000
O O17 0.522065 0.834461 0.605979
O O18 0.500000 0.000000 0.500000
#
# Coordination Sequence:
#
# PCOD8035355 Si02
#       8
#     2   2   2   2   2   2   2   2
#     4  12  24  46  70 100 140 193 244 297 362 441
#     4  12  24  46  74 105 142 189 249 299 359 442
#     4  11  25  45  70 108 146 185 239 307 371 437
#     4  12  28  47  69 104 145 192 242 301 370 438
#     4  11  25  44  69 105 148 184 239 307 371 426
#     4  12  22  43  74 105 138 183 243 302 356 435
#     4  12  25  45  73 107 142 193 246 298 368 453
#     4  12  24  45  72 103 140 188 248 301 358 431
#
# _framework density 24.033481999999999
#
# number of rings (size 3 to 8) (size 9 to 14) (size 15 to 20)
#    0.000    0.250    5.000    4.875    0.000    2.000 
#    0.000    0.000    0.000    0.000    0.000    0.000 
#    0.000    0.000    0.000    0.000    0.000    0.000 
#
# Total GULP energy -198236.582819 kJ/mol
# GULP energy per Si atom -12389.786426 kJ/mol
# Density = 2.397878 g / cm^3
# Si number density = 24.033482 Si / 1000 Ang^3
#
#
#
# Elastic Constant Matrix: (Units=GPa)
#
#
# Indices 1 2 3 4 5 6 
#
# 1 109.9908 54.9056 28.8928 10.7014 -25.1005 -4.7293
# 2 54.9056 124.5555 35.6930 1.1999 -14.4692 -21.3539
# 3 28.8928 35.6930 69.8961 9.4773 -9.0721 -13.6802
# 4 10.7014 1.1999 9.4773 44.1198 4.0538 13.2738
# 5 -25.1005 -14.4692 -9.0721 4.0538 46.7818 4.0408
# 6 -4.7293 -21.3539 -13.6802 13.2738 4.0408 53.3531
#
#
#
# Elastic Compliance Matrix: (Units=1/GPa)
#
#
# Indices 1 2 3 4 5 6 
#
# 1 0.013649 -0.004861 -0.002217 -0.002925 0.005731 -0.001011
# 2 -0.004861 0.011698 -0.003417 0.000625 0.000015 0.003218
# 3 -0.002217 -0.003417 0.018645 -0.004799 0.001413 0.004303
# 4 -0.002925 0.000625 -0.004799 0.027063 -0.003989 -0.007670
# 5 0.005731 0.000015 0.001413 -0.003989 0.025078 -0.000030
# 6 -0.001011 0.003218 0.004303 -0.007670 -0.000030 0.022956
#
#
# Mechanical properties :
#
#
# Convention : Reuss Voigt Hill
#
# Bulk Modulus (GPa) = 43.47561 60.38057 51.92809
# Shear Modulus (GPa) = 33.84163 41.18101 37.51132
#
# Velocity S-wave (km/s) = 3.75654 4.14392 3.95497
# Velocity P-wave (km/s) = 6.07819 6.93355 6.51991
#
# Compressibility (1/GPa) = 0.02300140
#
# Stress axis : x y z
#
# Youngs Moduli (GPa) = 73.26277 85.48482 53.63359
#
# Poissons Ratio (x) = 0.41552 0.11893
# Poissons Ratio (y) = 0.35611 0.18328
# Poissons Ratio (z) = 0.16246 0.29213
#
# Static dielectric constant tensor:
#      x y z
#    x 4.748440 -0.162730 0.144500 
#    y -0.162730 4.452690 0.380600 
#    z 0.144500 0.380600 4.541500 
# 
# 
# High freq. dielectric constant tensor:
#      x y z
#    x 1.962860 -0.008250 0.000960 
#    y -0.008250 1.964230 0.005930 
#    z 0.000960 0.005930 1.947320 
# 
# From -- ./inp_files/278897.got.cif
#   From: 2010.06.25/outbox.cif.g09.slc.cpg/sg2_140_cif.got.tgz:278897.got - 2010.06.27 13:26:56.
