data_PCOD8035391
_publ_section_title
;
Structure prediction by ZEFSAII (Michael W. Deem and Ramdas Pophale) SiO2 
 PCOD8035391
Probable space group: P -1
;
_chemical_formula_sum "Si O2"
_cell_formula_units_Z 16
_cell_length_a 13.487921
_cell_length_b 10.861483
_cell_length_c 9.461937
_cell_angle_alpha 114.316075
_cell_angle_beta 105.532771
_cell_angle_gamma 128.906938
_cell_volume 658.637920
_symmetry_space_group_name_H-M "P -1"
_symmetry_group_IT_number 2
_symmetry_cell_setting 'triclinic'
loop_
_space_group_symop_operation_xyz
x,y,z
-x,-y,-z
loop_
_atom_site_type_symbol
_atom_site_label
_atom_site_fract_x
_atom_site_fract_y
_atom_site_fract_z
Si Si1 0.065216 0.030411 0.882141
Si Si2 0.158105 0.834641 0.835199
Si Si3 0.509925 0.831973 0.706757
Si Si4 0.287231 0.480333 0.986885
Si Si5 0.032820 0.664440 0.186792
Si Si6 0.686670 0.577680 0.351116
Si Si7 0.219014 0.731998 0.549803
Si Si8 0.404099 0.222854 0.554236
O O1 0.196851 0.288246 0.984309
O O2 0.186937 0.027181 0.933949
O O3 0.892368 0.813475 0.608957
O O4 0.000000 0.000000 0.000000
O O5 0.262984 0.877323 0.765951
O O6 0.935231 0.555388 0.613749
O O7 0.265176 0.896116 0.046057
O O8 0.425329 0.670979 0.740529
O O9 0.413420 0.868979 0.650578
O O10 0.477727 0.697868 0.498841
O O11 0.291957 0.416584 0.806141
O O12 0.169600 0.489183 0.935888
O O13 0.502047 0.742277 0.252089
O O14 0.133239 0.731744 0.399110
O O15 0.183433 0.938529 0.311028
O O16 0.000000 0.500000 0.000000
O O17 0.574642 0.592897 0.342444
#
# Coordination Sequence:
#
# PCOD8035391 Si02
#       8
#     2   2   2   2   2   2   2   2
#     4  12  24  45  78 104 143 186 234 295 360 421
#     4  11  25  44  72 103 141 184 237 294 348 419
#     4  12  25  46  73 106 143 185 240 288 355 425
#     4  12  28  47  76 107 145 186 238 297 361 420
#     4  12  28  47  73 102 147 191 239 290 356 423
#     4  12  25  47  75 109 145 185 237 299 361 418
#     4  11  26  45  70 102 142 189 240 286 351 420
#     4  12  27  47  74 106 146 186 239 295 358 424
#
# _framework density 24.292559000000001
#
# number of rings (size 3 to 8) (size 9 to 14) (size 15 to 20)
#    0.000    0.250    2.500    6.000    7.000    3.000 
#    0.000    0.000    0.000    0.000    0.000    0.000 
#    0.000    0.000    0.000    0.000    0.000    0.000 
#
# Total GULP energy -198451.553290 kJ/mol
# GULP energy per Si atom -12403.222081 kJ/mol
# Density = 2.423727 g / cm^3
# Si number density = 24.292559 Si / 1000 Ang^3
#
#
#
# Elastic Constant Matrix: (Units=GPa)
#
#
# Indices 1 2 3 4 5 6 
#
# 1 176.5478 5.0995 38.9296 -10.9211 1.3011 -3.8339
# 2 5.0995 46.5073 -4.9149 -16.2093 -16.6753 2.8379
# 3 38.9296 -4.9149 137.8029 -12.5108 3.1117 8.8101
# 4 -10.9211 -16.2093 -12.5108 36.0858 0.0563 -4.6538
# 5 1.3011 -16.6753 3.1117 0.0563 52.4437 -11.3439
# 6 -3.8339 2.8379 8.8101 -4.6538 -11.3439 36.1615
#
#
#
# Elastic Compliance Matrix: (Units=1/GPa)
#
#
# Indices 1 2 3 4 5 6 
#
# 1 0.006163 -0.000490 -0.001733 0.001211 0.000073 0.001293
# 2 -0.000490 0.030253 0.002175 0.014440 0.009923 0.002015
# 3 -0.001733 0.002175 0.008235 0.003046 -0.000196 -0.002030
# 4 0.001211 0.014440 0.003046 0.036204 0.005334 0.004585
# 5 0.000073 0.009923 -0.000196 0.005334 0.023837 0.007441
# 6 0.001293 0.002015 -0.002030 0.004585 0.007441 0.031052
#
#
# Mechanical properties :
#
#
# Convention : Reuss Voigt Hill
#
# Bulk Modulus (GPa) = 22.44341 48.78741 35.61541
# Shear Modulus (GPa) = 33.18090 46.38778 39.78434
#
# Velocity S-wave (km/s) = 3.69980 4.37458 4.05126
# Velocity P-wave (km/s) = 5.24502 6.75594 6.04785
#
# Compressibility (1/GPa) = 0.04455651
#
# Stress axis : x y z
#
# Youngs Moduli (GPa) = 162.26189 33.05435 121.43827
#
# Poissons Ratio (x) = 0.01619 0.21043
# Poissons Ratio (y) = 0.07946 -0.26418
# Poissons Ratio (z) = 0.28117 -0.07191
#
# Static dielectric constant tensor:
#      x y z
#    x 4.414360 0.040390 0.149780 
#    y 0.040390 4.247040 0.258470 
#    z 0.149780 0.258470 4.657060 
# 
# 
# High freq. dielectric constant tensor:
#      x y z
#    x 1.977460 -0.003080 0.005370 
#    y -0.003080 1.954140 -0.002100 
#    z 0.005370 -0.002100 1.992010 
# 
# From -- ./inp_files/308139.got.cif
#   From: 2010.06.25/outbox.cif.g09.slc.cpg/sg2_155_cif.got.tgz:308139.got - 2010.06.27 13:26:56.
