data_PCOD8035407
_publ_section_title
;
Structure prediction by ZEFSAII (Michael W. Deem and Ramdas Pophale) SiO2 
 PCOD8035407
Probable space group: P -1
;
_chemical_formula_sum "Si O2"
_cell_formula_units_Z 14
_cell_length_a 8.905012
_cell_length_b 8.337033
_cell_length_c 11.523631
_cell_angle_alpha 107.200264
_cell_angle_beta 60.232224
_cell_angle_gamma 69.922520
_cell_volume 572.250458
_symmetry_space_group_name_H-M "P -1"
_symmetry_group_IT_number 2
_symmetry_cell_setting 'triclinic'
loop_
_space_group_symop_operation_xyz
x,y,z
-x,-y,-z
loop_
_atom_site_type_symbol
_atom_site_label
_atom_site_fract_x
_atom_site_fract_y
_atom_site_fract_z
Si Si1 0.692206 0.776795 0.331188
Si Si2 0.883748 0.342431 0.244284
Si Si3 0.328344 0.155969 0.908048
Si Si4 0.607745 0.255073 0.193832
Si Si5 0.172398 0.705808 0.486548
Si Si6 0.958728 0.870566 0.375740
Si Si7 0.376269 0.740694 0.074702
O O1 0.702801 0.590587 0.350459
O O2 0.692471 0.742937 0.186919
O O3 0.908058 0.755108 0.278347
O O4 0.500000 0.000000 0.500000
O O5 0.788435 0.225890 0.203121
O O6 0.931574 0.287492 0.349688
O O7 0.098817 0.272373 0.081768
O O8 0.480181 0.179589 0.936051
O O9 0.433535 0.914138 0.791881
O O10 0.389302 0.482359 0.334158
O O11 0.697972 0.207746 0.018758
O O12 0.001786 0.760490 0.461259
O O13 0.224667 0.877875 0.496404
O O14 0.166014 0.860941 0.259349
O O15 0.500000 0.500000 0.000000
#
# Coordination Sequence:
#
# PCOD8035407 Si02
#       7
#     2   2   2   2   2   2   2
#     4  12  26  46  74 106 139 179 238 289 353 416
#     4  12  25  46  73 104 143 185 230 294 349 415
#     4  12  27  46  71 106 140 185 236 288 349 419
#     4  12  24  46  72 104 143 183 236 289 350 412
#     4  11  25  44  73 102 141 184 236 283 355 407
#     4  11  25  47  71 102 143 186 229 289 353 414
#     4  12  24  46  71 101 141 185 234 283 346 414
#
# _framework density 24.464812999999999
#
# number of rings (size 3 to 8) (size 9 to 14) (size 15 to 20)
#    0.000    0.286    1.429    7.714    4.000    0.571 
#    0.000    0.000    0.000    0.000    0.000    0.000 
#    0.000    0.000    0.000    0.000    0.000    0.000 
#
# Total GULP energy -173674.031404 kJ/mol
# GULP energy per Si atom -12405.287957 kJ/mol
# Density = 2.440913 g / cm^3
# Si number density = 24.464813 Si / 1000 Ang^3
#
#
#
# Elastic Constant Matrix: (Units=GPa)
#
#
# Indices 1 2 3 4 5 6 
#
# 1 107.4801 38.0161 38.3009 3.8207 8.2313 11.7615
# 2 38.0161 136.6885 38.0720 -0.5053 6.2227 -6.6693
# 3 38.3009 38.0720 116.2513 -10.4991 10.4686 -13.1591
# 4 3.8207 -0.5053 -10.4991 48.0772 -5.7209 15.0686
# 5 8.2313 6.2227 10.4686 -5.7209 29.6400 -3.1864
# 6 11.7615 -6.6693 -13.1591 15.0686 -3.1864 44.8914
#
#
#
# Elastic Compliance Matrix: (Units=1/GPa)
#
#
# Indices 1 2 3 4 5 6 
#
# 1 0.012146 -0.002513 -0.003550 -0.000602 -0.002197 -0.004550
# 2 -0.002513 0.008621 -0.001837 -0.000660 -0.000419 0.001593
# 3 -0.003550 -0.001837 0.011044 0.001419 -0.001902 0.003283
# 4 -0.000602 -0.000660 0.001419 0.023863 0.003628 -0.007277
# 5 -0.002197 -0.000419 -0.001902 0.003628 0.035947 0.001289
# 6 -0.004550 0.001593 0.003283 -0.007277 0.001289 0.027201
#
#
# Mechanical properties :
#
#
# Convention : Reuss Voigt Hill
#
# Bulk Modulus (GPa) = 62.45933 65.46644 63.96288
# Shear Modulus (GPa) = 35.72459 40.92381 38.32420
#
# Velocity S-wave (km/s) = 3.82546 4.09438 3.96220
# Velocity P-wave (km/s) = 6.71550 7.01209 6.86540
#
# Compressibility (1/GPa) = 0.01601042
#
# Stress axis : x y z
#
# Youngs Moduli (GPa) = 82.33389 115.99728 90.54389
#
# Poissons Ratio (x) = 0.29155 0.32144
# Poissons Ratio (y) = 0.20694 0.16631
# Poissons Ratio (z) = 0.29229 0.21306
#
# Static dielectric constant tensor:
#      x y z
#    x 4.565790 -0.126510 0.151590 
#    y -0.126510 4.813010 0.119810 
#    z 0.151590 0.119810 4.548520 
# 
# 
# High freq. dielectric constant tensor:
#      x y z
#    x 1.973970 -0.007070 0.014640 
#    y -0.007070 1.991870 0.007840 
#    z 0.014640 0.007840 1.979490 
# 
# From -- ./inp_files/382839.got.cif
#   From: 2010.06.25/outbox.cif.g09.slc.cpg/sg2_192_cif.got.tgz:382839.got - 2010.06.27 13:26:56.
