data_PCOD8035939
_publ_section_title
;
Structure prediction by ZEFSAII (Michael W. Deem and Ramdas Pophale) SiO2 
 PCOD8035939
Probable space group: P -1
;
_chemical_formula_sum "Si O2"
_cell_formula_units_Z 16
_cell_length_a 10.463646
_cell_length_b 13.036477
_cell_length_c 12.158870
_cell_angle_alpha 97.137309
_cell_angle_beta 81.746108
_cell_angle_gamma 157.025288
_cell_volume 640.544357
_symmetry_space_group_name_H-M "P -1"
_symmetry_group_IT_number 2
_symmetry_cell_setting 'triclinic'
loop_
_space_group_symop_operation_xyz
x,y,z
-x,-y,-z
loop_
_atom_site_type_symbol
_atom_site_label
_atom_site_fract_x
_atom_site_fract_y
_atom_site_fract_z
Si Si1 0.325753 0.952494 0.939453
Si Si2 0.308748 0.389988 0.401802
Si Si3 0.355973 0.241136 0.221689
Si Si4 0.730745 0.068941 0.515642
Si Si5 0.419338 0.627124 0.023395
Si Si6 0.193850 0.561959 0.658453
Si Si7 0.357348 0.235900 0.751038
Si Si8 0.502623 0.892822 0.289790
O O1 0.956134 0.679514 0.990167
O O2 0.506152 0.195734 0.959057
O O3 0.353507 0.934114 0.806119
O O4 0.500000 0.000000 0.000000
O O5 0.500000 0.500000 0.500000
O O6 0.428535 0.401465 0.293482
O O7 0.396631 0.563360 0.354919
O O8 0.925056 0.112481 0.446176
O O9 0.598246 0.331561 0.251341
O O10 0.392019 0.281706 0.091996
O O11 0.971396 0.938836 0.254235
O O12 0.020141 0.345710 0.576899
O O13 0.443665 0.815741 0.593808
O O14 0.564912 0.999033 0.414433
O O15 0.520694 0.644612 0.125850
O O16 0.892133 0.410530 0.719671
O O17 0.305406 0.074059 0.734322
#
# Coordination Sequence:
#
# PCOD8035939 Si02
#       8
#     2   2   2   2   2   2   2   2
#     4  11  25  49  77 109 153 194 242 306 373 447
#     4  12  25  45  76 106 151 197 248 302 377 436
#     4  12  27  46  74 109 150 194 248 309 363 443
#     4  12  25  46  70 106 148 192 247 299 365 440
#     4  11  27  46  76 114 144 194 253 302 369 431
#     4  12  28  45  73 108 146 193 245 307 362 439
#     4  11  26  48  75 106 150 197 245 304 370 443
#     4  11  25  48  74 108 144 196 242 307 372 436
#
# _framework density 24.978756000000001
#
# number of rings (size 3 to 8) (size 9 to 14) (size 15 to 20)
#    0.000    0.500    2.500    4.500    3.500    7.500 
#    0.000    0.000    0.000    0.000    0.000    0.000 
#    0.000    0.000    0.000    0.000    0.000    0.000 
#
# Total GULP energy -198306.489808 kJ/mol
# GULP energy per Si atom -12394.155613 kJ/mol
# Density = 2.492190 g / cm^3
# Si number density = 24.978756 Si / 1000 Ang^3
#
#
#
# Elastic Constant Matrix: (Units=GPa)
#
#
# Indices 1 2 3 4 5 6 
#
# 1 74.2515 35.0677 36.2003 -1.1718 23.2812 13.9805
# 2 35.0677 109.4325 23.0181 -15.2590 4.8869 10.8239
# 3 36.2003 23.0181 149.5235 -4.3770 8.9735 -7.3725
# 4 -1.1718 -15.2590 -4.3770 45.4209 8.0263 5.0070
# 5 23.2812 4.8869 8.9735 8.0263 41.0987 -1.5084
# 6 13.9805 10.8239 -7.3725 5.0070 -1.5084 44.9707
#
#
#
# Elastic Compliance Matrix: (Units=1/GPa)
#
#
# Indices 1 2 3 4 5 6 
#
# 1 0.023208 -0.005043 -0.004433 0.001424 -0.012125 -0.007293
# 2 -0.005043 0.011525 -0.000577 0.003727 0.000823 -0.001688
# 3 -0.004433 -0.000577 0.007932 -0.000027 0.000958 0.002852
# 4 0.001424 0.003727 -0.000027 0.024886 -0.006262 -0.004325
# 5 -0.012125 0.000823 0.000958 -0.006262 0.032318 0.005510
# 6 -0.007293 -0.001688 0.002852 -0.004325 0.005510 0.026044
#
#
# Mechanical properties :
#
#
# Convention : Reuss Voigt Hill
#
# Bulk Modulus (GPa) = 44.32574 57.97552 51.15063
# Shear Modulus (GPa) = 32.56486 42.22613 37.39549
#
# Velocity S-wave (km/s) = 3.61460 4.11601 3.87342
# Velocity P-wave (km/s) = 5.93332 6.77119 6.36606
#
# Compressibility (1/GPa) = 0.02256026
#
# Stress axis : x y z
#
# Youngs Moduli (GPa) = 43.08852 86.76476 126.06803
#
# Poissons Ratio (x) = 0.43758 0.55881
# Poissons Ratio (y) = 0.21731 0.07271
# Poissons Ratio (z) = 0.19100 0.05004
#
# Static dielectric constant tensor:
#      x y z
#    x 4.173290 -0.350790 0.822270 
#    y -0.350790 3.365880 2.593430 
#    z 0.822270 2.593430 8.762600 
# 
# 
# High freq. dielectric constant tensor:
#      x y z
#    x 1.995650 0.020980 0.001710 
#    y 0.020980 2.000510 -0.001620 
#    z 0.001710 -0.001620 2.021890 
# 
# From -- ./inp_files/434126.got.cif
#   From: 2010.06.25/outbox.cif.g09.slc.cpg/sg2_218_cif.got.tgz:434126.got - 2010.06.27 13:26:56.
