data_PCOD8035984
_publ_section_title
;
Structure prediction by ZEFSAII (Michael W. Deem and Ramdas Pophale) SiO2 
 PCOD8035984
Probable space group: P -1
;
_chemical_formula_sum "Si O2"
_cell_formula_units_Z 14
_cell_length_a 13.954976
_cell_length_b 9.727067
_cell_length_c 11.355206
_cell_angle_alpha 119.828568
_cell_angle_beta 147.441325
_cell_angle_gamma 48.827702
_cell_volume 618.084657
_symmetry_space_group_name_H-M "P -1"
_symmetry_group_IT_number 2
_symmetry_cell_setting 'triclinic'
loop_
_space_group_symop_operation_xyz
x,y,z
-x,-y,-z
loop_
_atom_site_type_symbol
_atom_site_label
_atom_site_fract_x
_atom_site_fract_y
_atom_site_fract_z
Si Si1 0.360532 0.147805 0.514481
Si Si2 0.578781 0.510838 0.958173
Si Si3 0.782433 0.452240 0.518059
Si Si4 0.756811 0.747442 0.163759
Si Si5 0.724146 0.332807 0.640375
Si Si6 0.925905 0.208415 0.038090
Si Si7 0.422126 0.933083 0.713471
O O1 0.369816 0.330365 0.575683
O O2 0.118557 0.219827 0.287718
O O3 0.500000 0.000000 0.500000
O O4 0.450513 0.054884 0.694774
O O5 0.686040 0.633415 0.123328
O O6 0.742578 0.308041 0.987288
O O7 0.500000 0.500000 0.000000
O O8 0.367377 0.623583 0.710328
O O9 0.834226 0.392063 0.681626
O O10 0.996225 0.371669 0.637336
O O11 0.705652 0.936491 0.254039
O O12 0.648062 0.783787 0.937347
O O13 0.500000 0.500000 0.500000
O O14 0.707018 0.154612 0.512469
O O15 0.852801 0.309441 0.880596
O O16 0.000000 0.000000 0.000000
#
# Coordination Sequence:
#
# PCOD8035984 Si02
#       7
#     2   2   2   2   2   2   2
#     4  12  26  44  70 109 147 187 245 305 368 432
#     4  12  26  48  75 108 151 194 247 306 369 439
#     4  12  26  45  77 106 141 196 241 298 373 430
#     4  11  26  49  73 106 145 196 247 297 369 442
#     4  12  24  47  74 103 148 186 243 300 365 436
#     4  12  25  46  73 108 148 192 246 304 364 437
#     4  11  25  49  70 102 154 184 245 310 351 445
#
# _framework density 22.650618999999999
#
# number of rings (size 3 to 8) (size 9 to 14) (size 15 to 20)
#    0.000    0.286    5.714    2.571    4.000    2.286 
#    2.571    0.000    0.000    0.000    0.000    0.000 
#    0.000    0.000    0.000    0.000    0.000    0.000 
#
# Total GULP energy -173583.405759 kJ/mol
# GULP energy per Si atom -12398.814697 kJ/mol
# Density = 2.259907 g / cm^3
# Si number density = 22.650619 Si / 1000 Ang^3
#
#
#
# Elastic Constant Matrix: (Units=GPa)
#
#
# Indices 1 2 3 4 5 6 
#
# 1 151.2577 40.7431 44.5126 -12.1907 1.0898 -1.5365
# 2 40.7431 107.7558 11.8550 -4.2023 3.8460 -5.2848
# 3 44.5126 11.8550 86.5342 -11.9492 13.0627 -14.3836
# 4 -12.1907 -4.2023 -11.9492 34.8862 3.9622 -1.7672
# 5 1.0898 3.8460 13.0627 3.9622 47.8255 -6.2894
# 6 -1.5365 -5.2848 -14.3836 -1.7672 -6.2894 39.8831
#
#
#
# Elastic Compliance Matrix: (Units=1/GPa)
#
#
# Indices 1 2 3 4 5 6 
#
# 1 0.008724 -0.002885 -0.004326 0.001041 0.000943 -0.001411
# 2 -0.002885 0.010435 0.000473 0.000567 -0.000773 0.001345
# 3 -0.004326 0.000473 0.015823 0.004678 -0.003967 0.005184
# 4 0.001041 0.000567 0.004678 0.031240 -0.003591 0.002620
# 5 0.000943 -0.000773 -0.003967 -0.003591 0.022582 0.001905
# 6 -0.001411 0.001345 0.005184 0.002620 0.001905 0.027483
#
#
# Mechanical properties :
#
#
# Convention : Reuss Voigt Hill
#
# Bulk Modulus (GPa) = 46.49739 59.97434 53.23586
# Shear Modulus (GPa) = 36.51500 41.08142 38.79821
#
# Velocity S-wave (km/s) = 4.01945 4.26338 4.14321
# Velocity P-wave (km/s) = 6.48953 7.12535 6.81486
#
# Compressibility (1/GPa) = 0.02150658
#
# Stress axis : x y z
#
# Youngs Moduli (GPa) = 114.62579 95.83403 63.19949
#
# Poissons Ratio (x) = 0.27648 0.27337
# Poissons Ratio (y) = 0.33070 -0.02989
# Poissons Ratio (z) = 0.49582 -0.04533
#
# Static dielectric constant tensor:
#      x y z
#    x 3.761360 -0.376270 -0.369620 
#    y -0.376270 3.727300 -0.435950 
#    z -0.369620 -0.435950 3.648960 
# 
# 
# High freq. dielectric constant tensor:
#      x y z
#    x 1.895520 0.001350 -0.004710 
#    y 0.001350 1.902760 -0.003790 
#    z -0.004710 -0.003790 1.901540 
# 
# From -- ./inp_files/242299.got.cif
#   From: 2010.06.25/outbox.cif.g09.slc.cpg/sg2_122_cif.got.tgz:242299.got - 2010.06.27 13:26:56.
