data_PCOD8035780
_publ_section_title
;
Structure prediction by ZEFSAII (Michael W. Deem and Ramdas Pophale) SiO2 
 PCOD8035780
Probable space group: P -1
;
_chemical_formula_sum "Si O2"
_cell_formula_units_Z 16
_cell_length_a 11.917572
_cell_length_b 18.037018
_cell_length_c 15.565432
_cell_angle_alpha 28.729065
_cell_angle_beta 49.570862
_cell_angle_gamma 31.364919
_cell_volume 766.936197
_symmetry_space_group_name_H-M "P -1"
_symmetry_group_IT_number 2
_symmetry_cell_setting 'triclinic'
loop_
_space_group_symop_operation_xyz
x,y,z
-x,-y,-z
loop_
_atom_site_type_symbol
_atom_site_label
_atom_site_fract_x
_atom_site_fract_y
_atom_site_fract_z
Si Si1 0.342653 0.464067 0.519732
Si Si2 0.819091 0.062416 0.426330
Si Si3 0.583020 0.791799 0.613362
Si Si4 0.731352 0.971834 0.730296
Si Si5 0.102785 0.297095 0.588572
Si Si6 0.314739 0.540087 0.651682
Si Si7 0.432341 0.207496 0.075726
Si Si8 0.217682 0.561417 0.978674
O O1 0.305983 0.470841 0.632472
O O2 0.459043 0.535094 0.373134
O O3 0.092221 0.657551 0.400676
O O4 0.506197 0.197428 0.669903
O O5 0.643073 0.083470 0.451451
O O6 0.719710 0.311992 0.199519
O O7 0.817978 0.038574 0.554988
O O8 0.078388 0.829236 0.494231
O O9 0.779029 0.694259 0.551101
O O10 0.500000 0.000000 0.500000
O O11 0.696594 0.559150 0.847535
O O12 0.678173 0.871150 0.798284
O O13 0.938126 0.764676 0.904666
O O14 0.000000 0.500000 0.500000
O O15 0.285653 0.035632 0.812031
O O16 0.343080 0.377737 0.867397
O O17 0.346505 0.348256 0.063657
#
# Coordination Sequence:
#
# PCOD8035780 Si02
#       8
#     2   2   2   2   2   2   2   2
#     4  11  25  47  67  97 144 181 220 282 343 406
#     4  12  23  46  70  99 141 174 226 285 335 407
#     4  12  25  44  69 102 134 177 226 283 336 396
#     4  12  23  44  71 101 134 174 233 284 332 407
#     4  12  25  47  68  98 142 180 223 280 342 408
#     4  11  26  44  70 103 137 181 227 281 343 404
#     4  12  25  42  71 104 131 181 230 281 344 397
#     4  12  25  41  71 105 132 179 227 281 344 393
#
# _framework density 20.862231000000001
#
# number of rings (size 3 to 8) (size 9 to 14) (size 15 to 20)
#    0.000    0.250    6.250    2.625    3.500    2.000 
#    0.000    0.000    0.000    0.000    0.000    0.000 
#    0.000    0.000    0.000    0.000    0.000    0.000 
#
# Total GULP energy -198487.129582 kJ/mol
# GULP energy per Si atom -12405.445599 kJ/mol
# Density = 2.081475 g / cm^3
# Si number density = 20.862231 Si / 1000 Ang^3
#
#
#
# Elastic Constant Matrix: (Units=GPa)
#
#
# Indices 1 2 3 4 5 6 
#
# 1 90.2881 19.3061 10.1064 -0.7677 -0.8438 -7.5458
# 2 19.3061 94.0569 16.4033 2.0591 0.7481 11.5869
# 3 10.1064 16.4033 101.2035 -1.1674 4.8311 6.8541
# 4 -0.7677 2.0591 -1.1674 29.0081 1.6768 4.9201
# 5 -0.8438 0.7481 4.8311 1.6768 36.5996 -8.4462
# 6 -7.5458 11.5869 6.8541 4.9201 -8.4462 44.9042
#
#
#
# Elastic Compliance Matrix: (Units=1/GPa)
#
#
# Indices 1 2 3 4 5 6 
#
# 1 0.012035 -0.002679 -0.001037 -0.000130 0.001193 0.003110
# 2 -0.002679 0.011860 -0.001383 -0.000334 -0.000898 -0.003432
# 3 -0.001037 -0.001383 0.010433 0.000912 -0.001843 -0.001856
# 4 -0.000130 -0.000334 0.000912 0.035451 -0.002775 -0.004481
# 5 0.001193 -0.000898 -0.001843 -0.002775 0.029243 0.006518
# 6 0.003110 -0.003432 -0.001856 -0.004481 0.006518 0.025678
#
#
# Mechanical properties :
#
#
# Convention : Reuss Voigt Hill
#
# Bulk Modulus (GPa) = 41.44317 41.90891 41.67604
# Shear Modulus (GPa) = 34.97940 38.08457 36.53199
#
# Velocity S-wave (km/s) = 4.09918 4.27725 4.18916
# Velocity P-wave (km/s) = 6.50482 6.67272 6.58930
#
# Compressibility (1/GPa) = 0.02412943
#
# Stress axis : x y z
#
# Youngs Moduli (GPa) = 83.09382 84.31500 95.84938
#
# Poissons Ratio (x) = 0.22590 0.09936
# Poissons Ratio (y) = 0.22263 0.13259
# Poissons Ratio (z) = 0.08614 0.11664
#
# Static dielectric constant tensor:
#      x y z
#    x 3.997640 -0.013920 0.141830 
#    y -0.013920 3.909710 -0.033990 
#    z 0.141830 -0.033990 3.950060 
# 
# 
# High freq. dielectric constant tensor:
#      x y z
#    x 1.838690 0.000990 0.002930 
#    y 0.000990 1.822230 -0.004560 
#    z 0.002930 -0.004560 1.818800 
# 
# From -- ./inp_files/190853.got.cif
#   From: 2010.06.25/outbox.cif.g09.slc.cpg/sg2_96_cif.got.tgz:190853.got - 2010.06.27 13:26:56.
