data_PCOD8035252
_publ_section_title
;
Structure prediction by ZEFSAII (Michael W. Deem and Ramdas Pophale) SiO2 
 PCOD8035252
Probable space group: P -1
;
_chemical_formula_sum "Si O2"
_cell_formula_units_Z 16
_cell_length_a 13.614684
_cell_length_b 8.968331
_cell_length_c 24.605767
_cell_angle_alpha 137.764230
_cell_angle_beta 23.327168
_cell_angle_gamma 128.097475
_cell_volume 777.059878
_symmetry_space_group_name_H-M "P -1"
_symmetry_group_IT_number 2
_symmetry_cell_setting 'triclinic'
loop_
_space_group_symop_operation_xyz
x,y,z
-x,-y,-z
loop_
_atom_site_type_symbol
_atom_site_label
_atom_site_fract_x
_atom_site_fract_y
_atom_site_fract_z
Si Si1 0.595770 0.327709 0.272212
Si Si2 0.078927 0.980780 0.063535
Si Si3 0.068221 0.845688 0.531074
Si Si4 0.080911 0.390064 0.097163
Si Si5 0.691318 0.282628 0.868313
Si Si6 0.589637 0.919413 0.240296
Si Si7 0.922216 0.422385 0.436620
Si Si8 0.303044 0.110007 0.084613
O O1 0.360158 0.532475 0.431994
O O2 0.807033 0.442847 0.221968
O O3 0.510888 0.159983 0.313758
O O4 0.703559 0.197749 0.127321
O O5 0.803873 0.926253 0.178678
O O6 0.075066 0.232792 0.110474
O O7 0.138498 0.963334 0.093798
O O8 0.353013 0.856236 0.373483
O O9 0.052850 0.767374 0.580207
O O10 0.977162 0.661854 0.490936
O O11 0.883491 0.098095 0.682846
O O12 0.133919 0.632191 0.152621
O O13 0.300070 0.272558 0.912108
O O14 0.500000 0.500000 0.000000
O O15 0.492297 0.149557 0.953673
O O16 0.114354 0.329676 0.265095
O O17 0.500000 0.000000 0.000000
#
# Coordination Sequence:
#
# PCOD8035252 Si02
#       8
#     2   2   2   2   2   2   2   2
#     4   9  20  39  68  92 121 164 203 253 311 365
#     4   9  19  40  66  91 128 159 202 257 307 365
#     4  11  25  43  60  92 128 163 207 258 304 366
#     4   9  19  40  64  95 124 157 205 256 309 364
#     4  12  24  40  66  92 125 162 207 260 305 360
#     4   9  20  40  67  95 119 160 210 256 306 361
#     4  11  25  42  62  87 129 168 205 251 309 372
#     4  12  24  42  61  92 126 170 204 246 315 368
#
# _framework density 20.590433999999998
#
# number of rings (size 3 to 8) (size 9 to 14) (size 15 to 20)
#    0.000    1.750    2.500    3.000    5.250    1.500 
#    2.250    5.000    0.000    0.000    0.000    0.000 
#    0.000    0.000    0.000    0.000    0.000    0.000 
#
# Total GULP energy -198271.473109 kJ/mol
# GULP energy per Si atom -12391.967069 kJ/mol
# Density = 2.054357 g / cm^3
# Si number density = 20.590434 Si / 1000 Ang^3
#
#
#
# Elastic Constant Matrix: (Units=GPa)
#
#
# Indices 1 2 3 4 5 6 
#
# 1 127.4591 21.1216 49.7262 6.7094 -8.3062 16.7496
# 2 21.1216 61.3385 39.6078 -8.0589 1.3285 16.7111
# 3 49.7262 39.6078 139.6405 -2.2894 -12.4908 13.0981
# 4 6.7094 -8.0589 -2.2894 36.2451 -2.7565 1.4608
# 5 -8.3062 1.3285 -12.4908 -2.7565 32.2651 4.6608
# 6 16.7496 16.7111 13.0981 1.4608 4.6608 26.1601
#
#
#
# Elastic Compliance Matrix: (Units=1/GPa)
#
#
# Indices 1 2 3 4 5 6 
#
# 1 0.009877 -0.000591 -0.002741 -0.001782 0.002053 -0.004840
# 2 -0.000591 0.024195 -0.005480 0.005570 -0.000993 -0.012468
# 3 -0.002741 -0.005480 0.010045 0.000205 0.003485 -0.000406
# 4 -0.001782 0.005570 0.000205 0.029554 0.002585 -0.004631
# 5 0.002053 -0.000993 0.003485 0.002585 0.034389 -0.008696
# 6 -0.004840 -0.012468 -0.000406 -0.004631 -0.008696 0.051301
#
#
# Mechanical properties :
#
#
# Convention : Reuss Voigt Hill
#
# Bulk Modulus (GPa) = 37.74713 61.03880 49.39297
# Shear Modulus (GPa) = 26.90836 33.46624 30.18730
#
# Velocity S-wave (km/s) = 3.61894 4.03591 3.83310
# Velocity P-wave (km/s) = 5.98619 7.17124 6.60535
#
# Compressibility (1/GPa) = 0.02649208
#
# Stress axis : x y z
#
# Youngs Moduli (GPa) = 101.25005 41.33030 99.55240
#
# Poissons Ratio (x) = 0.02442 0.27288
# Poissons Ratio (y) = 0.05983 0.54559
# Poissons Ratio (z) = 0.27753 0.22651
#
# Static dielectric constant tensor:
#      x y z
#    x 3.820950 0.245860 -0.087430 
#    y 0.245860 3.543860 -0.090100 
#    z -0.087430 -0.090100 3.773400 
# 
# 
# High freq. dielectric constant tensor:
#      x y z
#    x 1.812710 0.016310 -0.009340 
#    y 0.016310 1.787910 -0.007790 
#    z -0.009340 -0.007790 1.811680 
# 
# From -- ./inp_files/239563.got.cif
#   From: 2010.06.25/outbox.cif.g09.slc.cpg/sg2_120_cif.got.tgz:239563.got - 2010.06.27 13:26:56.
