data_PCOD8035936
_publ_section_title
;
Structure prediction by ZEFSAII (Michael W. Deem and Ramdas Pophale) SiO2 
 PCOD8035936
Probable space group: P -1
;
_chemical_formula_sum "Si O2"
_cell_formula_units_Z 16
_cell_length_a 8.359684
_cell_length_b 14.699728
_cell_length_c 14.809043
_cell_angle_alpha 133.757751
_cell_angle_beta 129.939612
_cell_angle_gamma 31.901566
_cell_volume 687.402766
_symmetry_space_group_name_H-M "P -1"
_symmetry_group_IT_number 2
_symmetry_cell_setting 'triclinic'
loop_
_space_group_symop_operation_xyz
x,y,z
-x,-y,-z
loop_
_atom_site_type_symbol
_atom_site_label
_atom_site_fract_x
_atom_site_fract_y
_atom_site_fract_z
Si Si1 0.877951 0.656800 0.494315
Si Si2 0.243898 0.779306 0.944333
Si Si3 0.121907 0.228725 0.082915
Si Si4 0.304783 0.680213 0.703473
Si Si5 0.784994 0.012812 0.193574
Si Si6 0.847276 0.031135 0.558350
Si Si7 0.073665 0.654980 0.376972
Si Si8 0.868289 0.561729 0.095748
O O1 0.515851 0.804981 0.462926
O O2 0.000000 0.500000 0.500000
O O3 0.990129 0.740893 0.632928
O O4 0.012274 0.585535 0.391293
O O5 0.404936 0.679958 0.839107
O O6 0.100510 0.706977 0.870939
O O7 0.505745 0.700638 0.056315
O O8 0.000000 0.000000 0.000000
O O9 0.459051 0.093456 0.155570
O O10 0.036176 0.384991 0.097954
O O11 0.083447 0.119496 0.934442
O O12 0.262303 0.821509 0.727371
O O13 0.568941 0.484716 0.613949
O O14 0.033443 0.908191 0.291801
O O15 0.000000 0.000000 0.500000
O O16 0.942611 0.846967 0.492728
O O17 0.914123 0.674042 0.240629
O O18 0.000000 0.500000 0.000000
#
# Coordination Sequence:
#
# PCOD8035936 Si02
#       8
#     2   2   2   2   2   2   2   2
#     4  12  30  49  78 111 147 199 251 308 379 448
#     4  12  27  45  73 112 147 197 247 309 369 445
#     4  11  26  46  78 105 149 198 245 314 359 452
#     4  12  25  48  76 107 153 196 250 307 376 440
#     4  11  25  48  74 107 147 194 254 301 377 429
#     4  12  30  48  76 112 147 197 245 312 376 449
#     4  12  27  50  77 106 152 198 247 315 369 448
#     4  12  27  48  73 112 150 195 250 305 383 440
#
# _framework density 23.276019999999999
#
# number of rings (size 3 to 8) (size 9 to 14) (size 15 to 20)
#    0.000    0.250    5.000    1.875   12.250    1.000 
#    0.000    0.000    0.000    0.000    0.000    0.000 
#    0.000    0.000    0.000    0.000    0.000    0.000 
#
# Total GULP energy -198352.435113 kJ/mol
# GULP energy per Si atom -12397.027195 kJ/mol
# Density = 2.322304 g / cm^3
# Si number density = 23.276020 Si / 1000 Ang^3
#
#
#
# Elastic Constant Matrix: (Units=GPa)
#
#
# Indices 1 2 3 4 5 6 
#
# 1 135.3663 37.7882 35.3903 -12.9878 -4.1331 -9.7990
# 2 37.7882 110.5200 35.2565 -8.8718 2.8519 -20.0005
# 3 35.3903 35.2565 148.8977 -22.8051 10.3474 -16.3170
# 4 -12.9878 -8.8718 -22.8051 36.6421 -6.0461 8.0293
# 5 -4.1331 2.8519 10.3474 -6.0461 41.6270 -6.7776
# 6 -9.7990 -20.0005 -16.3170 8.0293 -6.7776 38.9157
#
#
#
# Elastic Compliance Matrix: (Units=1/GPa)
#
#
# Indices 1 2 3 4 5 6 
#
# 1 0.008642 -0.002380 -0.001282 0.001895 0.001666 0.000315
# 2 -0.002380 0.011181 -0.001612 -0.000110 0.000117 0.004514
# 3 -0.001282 -0.001612 0.008211 0.003769 -0.001301 0.001287
# 4 0.001895 -0.000110 0.003769 0.031684 0.003213 -0.003976
# 5 0.001666 0.000117 -0.001301 0.003213 0.025577 0.003726
# 6 0.000315 0.004514 0.001287 -0.003976 0.003726 0.030105
#
#
# Mechanical properties :
#
#
# Convention : Reuss Voigt Hill
#
# Bulk Modulus (GPa) = 57.18410 67.96153 62.57281
# Shear Modulus (GPa) = 37.94293 42.52687 40.23490
#
# Velocity S-wave (km/s) = 4.04187 4.27906 4.16215
# Velocity P-wave (km/s) = 6.81200 7.32634 7.07385
#
# Compressibility (1/GPa) = 0.01748738
#
# Stress axis : x y z
#
# Youngs Moduli (GPa) = 115.70967 89.43513 121.78650
#
# Poissons Ratio (x) = 0.21285 0.15608
# Poissons Ratio (y) = 0.27539 0.19633
# Poissons Ratio (z) = 0.14829 0.14418
#
# Static dielectric constant tensor:
#      x y z
#    x 4.607250 -0.320670 0.672590 
#    y -0.320670 4.325090 -0.971350 
#    z 0.672590 -0.971350 6.029900 
# 
# 
# High freq. dielectric constant tensor:
#      x y z
#    x 1.935230 -0.004010 0.004530 
#    y -0.004010 1.912160 -0.015380 
#    z 0.004530 -0.015380 1.938840 
# 
# From -- ./inp_files/297648.got.cif
#   From: 2010.06.25/outbox.cif.g09.slc.cpg/sg2_149_cif.got.tgz:297648.got - 2010.06.27 13:26:56.
