data_PCOD8035870
_publ_section_title
;
Structure prediction by ZEFSAII (Michael W. Deem and Ramdas Pophale) SiO2 
 PCOD8035870
Probable space group: P -1
;
_chemical_formula_sum "Si O2"
_cell_formula_units_Z 14
_cell_length_a 9.460316
_cell_length_b 14.817118
_cell_length_c 15.041084
_cell_angle_alpha 152.176960
_cell_angle_beta 144.149284
_cell_angle_gamma 38.259451
_cell_volume 558.025466
_symmetry_space_group_name_H-M "P -1"
_symmetry_group_IT_number 2
_symmetry_cell_setting 'triclinic'
loop_
_space_group_symop_operation_xyz
x,y,z
-x,-y,-z
loop_
_atom_site_type_symbol
_atom_site_label
_atom_site_fract_x
_atom_site_fract_y
_atom_site_fract_z
Si Si1 0.180323 0.015881 0.528149
Si Si2 0.353034 0.487534 0.802181
Si Si3 0.170227 0.424653 0.827653
Si Si4 0.399486 0.350602 0.521788
Si Si5 0.624121 0.654958 0.792184
Si Si6 0.039142 0.136941 0.057856
Si Si7 0.804496 0.025543 0.197427
O O1 0.227574 0.233478 0.754022
O O2 0.058703 0.015468 0.368802
O O3 0.426383 0.843014 0.511900
O O4 0.000000 0.000000 0.500000
O O5 0.254184 0.353407 0.707644
O O6 0.252278 0.460088 0.628358
O O7 0.229450 0.715514 0.970080
O O8 0.654329 0.443169 0.924710
O O9 0.881819 0.547624 0.782176
O O10 0.552979 0.501266 0.691042
O O11 0.224230 0.279156 0.300013
O O12 0.382246 0.748804 0.687203
O O13 0.674704 0.863509 0.037418
O O14 0.141729 0.010515 0.912030
O O15 0.000000 0.000000 0.000000
#
# Coordination Sequence:
#
# PCOD8035870 Si02
#       7
#     2   2   2   2   2   2   2
#     4  12  28  45  74 114 149 192 248 310 377 438
#     4  11  26  47  73 108 145 204 246 301 375 444
#     4  11  25  47  76 104 155 191 249 308 373 446
#     4  12  28  46  80 110 149 197 254 311 373 444
#     4  11  25  48  78 108 149 192 256 305 378 434
#     4  12  27  50  74 109 156 197 253 305 374 452
#     4  11  28  45  78 112 150 198 246 313 377 443
#
# _framework density 25.088460999999999
#
# number of rings (size 3 to 8) (size 9 to 14) (size 15 to 20)
#    0.000    0.571    2.857    3.000   12.000    2.857 
#    0.000    0.000    0.000    0.000    0.000    0.000 
#    0.000    0.000    0.000    0.000    0.000    0.000 
#
# Total GULP energy -173468.932452 kJ/mol
# GULP energy per Si atom -12390.638032 kJ/mol
# Density = 2.503136 g / cm^3
# Si number density = 25.088461 Si / 1000 Ang^3
#
#
#
# Elastic Constant Matrix: (Units=GPa)
#
#
# Indices 1 2 3 4 5 6 
#
# 1 143.3049 33.6787 49.8544 5.1858 2.8335 8.8930
# 2 33.6787 149.1933 36.2932 14.6998 9.5517 -1.0557
# 3 49.8544 36.2932 73.9123 -5.7932 -0.4231 5.4069
# 4 5.1858 14.6998 -5.7932 39.9858 16.5712 4.1097
# 5 2.8335 9.5517 -0.4231 16.5712 33.9802 3.8095
# 6 8.8930 -1.0557 5.4069 4.1097 3.8095 38.7378
#
#
#
# Elastic Compliance Matrix: (Units=1/GPa)
#
#
# Indices 1 2 3 4 5 6 
#
# 1 0.009363 -0.000450 -0.006164 -0.001975 0.000358 -0.001127
# 2 -0.000450 0.008188 -0.004080 -0.003332 -0.000839 0.001332
# 3 -0.006164 -0.004080 0.020287 0.005718 -0.000643 -0.002071
# 4 -0.001975 -0.003332 0.005718 0.033809 -0.015030 -0.002544
# 5 0.000358 -0.000839 -0.000643 -0.015030 0.037190 -0.002078
# 6 -0.001127 0.001332 -0.002071 -0.002544 -0.002078 0.026873
#
#
# Mechanical properties :
#
#
# Convention : Reuss Voigt Hill
#
# Bulk Modulus (GPa) = 60.79778 67.34034 64.06906
# Shear Modulus (GPa) = 30.75357 38.97969 34.86663
#
# Velocity S-wave (km/s) = 3.50495 3.94596 3.73198
# Velocity P-wave (km/s) = 6.37695 6.90364 6.64552
#
# Compressibility (1/GPa) = 0.01644797
#
# Stress axis : x y z
#
# Youngs Moduli (GPa) = 106.80553 122.12288 49.29237
#
# Poissons Ratio (x) = 0.05500 0.30386
# Poissons Ratio (y) = 0.04810 0.20114
# Poissons Ratio (z) = 0.65839 0.49832
#
# Static dielectric constant tensor:
#      x y z
#    x 4.637400 -0.104010 0.254140 
#    y -0.104010 4.739830 -0.051600 
#    z 0.254140 -0.051600 4.481920 
# 
# 
# High freq. dielectric constant tensor:
#      x y z
#    x 2.006630 0.001240 0.014910 
#    y 0.001240 2.023580 0.003380 
#    z 0.014910 0.003380 1.985370 
# 
# From -- ./inp_files/505994.got.cif
#   From: 2010.06.25/outbox.cif.g09.slc.cpg/sg2_253_cif.got.tgz:505994.got - 2010.06.27 13:26:56.
