data_PCOD8035514
_publ_section_title
;
Structure prediction by ZEFSAII (Michael W. Deem and Ramdas Pophale) SiO2 
 PCOD8035514
Probable space group: P -1
;
_chemical_formula_sum "Si O2"
_cell_formula_units_Z 14
_cell_length_a 13.034684
_cell_length_b 11.318656
_cell_length_c 6.786631
_cell_angle_alpha 109.411353
_cell_angle_beta 58.083403
_cell_angle_gamma 130.954184
_cell_volume 641.711319
_symmetry_space_group_name_H-M "P -1"
_symmetry_group_IT_number 2
_symmetry_cell_setting 'triclinic'
loop_
_space_group_symop_operation_xyz
x,y,z
-x,-y,-z
loop_
_atom_site_type_symbol
_atom_site_label
_atom_site_fract_x
_atom_site_fract_y
_atom_site_fract_z
Si Si1 0.432568 0.190019 0.983703
Si Si2 0.254465 0.880905 0.230191
Si Si3 0.397639 0.526246 0.751189
Si Si4 0.056059 0.964134 0.613654
Si Si5 0.638512 0.164095 0.525798
Si Si6 0.182252 0.614437 0.886042
Si Si7 0.216375 0.197119 0.920452
O O1 0.580187 0.254461 0.739366
O O2 0.300769 0.151811 0.950650
O O3 0.476721 0.317822 0.173044
O O4 0.382225 0.031057 0.056296
O O5 0.105687 0.871118 0.395282
O O6 0.292887 0.890921 0.423782
O O7 0.226002 0.725484 0.089300
O O8 0.500000 0.500000 0.500000
O O9 0.272887 0.537870 0.772828
O O10 0.308409 0.382285 0.911467
O O11 0.186940 0.120373 0.688994
O O12 0.000000 0.000000 0.500000
O O13 0.934694 0.856573 0.843591
O O14 0.763052 0.279793 0.305034
O O15 0.500000 0.000000 0.500000
O O16 0.000000 0.500000 0.000000
#
# Coordination Sequence:
#
# PCOD8035514 Si02
#       7
#     2   2   2   2   2   2   2
#     4  12  23  47  75 106 139 190 249 306 359 438
#     4  12  25  45  74 106 142 186 250 297 363 438
#     4  12  27  48  74 105 150 194 249 304 367 442
#     4  11  25  45  72 105 144 193 240 301 363 440
#     4  12  24  45  76 103 142 189 241 302 364 430
#     4  12  30  47  72 110 152 195 242 309 373 435
#     4  11  26  44  73 105 144 190 243 296 374 434
#
# _framework density 21.816663999999999
#
# number of rings (size 3 to 8) (size 9 to 14) (size 15 to 20)
#    0.000    0.286    4.286    4.286    4.000    1.714 
#    0.000    0.000    0.000    0.000    0.000    0.000 
#    0.000    0.000    0.000    0.000    0.000    0.000 
#
# Total GULP energy -173511.655110 kJ/mol
# GULP energy per Si atom -12393.689651 kJ/mol
# Density = 2.176701 g / cm^3
# Si number density = 21.816664 Si / 1000 Ang^3
#
#
#
# Elastic Constant Matrix: (Units=GPa)
#
#
# Indices 1 2 3 4 5 6 
#
# 1 144.6019 38.6623 50.2528 0.4776 7.7234 -2.5499
# 2 38.6623 117.8266 46.2731 -7.9755 4.6167 2.3771
# 3 50.2528 46.2731 126.7333 -5.2360 -5.9320 1.6191
# 4 0.4776 -7.9755 -5.2360 45.8076 -5.4562 0.5437
# 5 7.7234 4.6167 -5.9320 -5.4562 53.4067 2.3939
# 6 -2.5499 2.3771 1.6191 0.5437 2.3939 34.7413
#
#
#
# Elastic Compliance Matrix: (Units=1/GPa)
#
#
# Indices 1 2 3 4 5 6 
#
# 1 0.008461 -0.001671 -0.002866 -0.000901 -0.001534 0.000989
# 2 -0.001671 0.010395 -0.003106 0.001381 -0.000831 -0.000653
# 3 -0.002866 -0.003106 0.010298 0.000906 0.001947 -0.000626
# 4 -0.000901 0.001381 0.000906 0.022483 0.002441 -0.000723
# 5 -0.001534 -0.000831 0.001947 0.002441 0.019552 -0.001532
# 6 0.000989 -0.000653 -0.000626 -0.000723 -0.001532 0.029047
#
#
# Mechanical properties :
#
#
# Convention : Reuss Voigt Hill
#
# Bulk Modulus (GPa) = 72.12080 73.28203 72.70142
# Shear Modulus (GPa) = 41.61619 43.72270 42.66945
#
# Velocity S-wave (km/s) = 4.37228 4.48157 4.42726
# Velocity P-wave (km/s) = 7.65627 7.77446 7.71559
#
# Compressibility (1/GPa) = 0.01386563
#
# Stress axis : x y z
#
# Youngs Moduli (GPa) = 118.19076 96.20446 97.10816
#
# Poissons Ratio (x) = 0.16080 0.27834
# Poissons Ratio (y) = 0.19755 0.30162
# Poissons Ratio (z) = 0.33877 0.29881
#
# Static dielectric constant tensor:
#      x y z
#    x 3.435350 0.256730 0.462930 
#    y 0.256730 3.989990 -0.105090 
#    z 0.462930 -0.105090 3.413310 
# 
# 
# High freq. dielectric constant tensor:
#      x y z
#    x 1.876200 -0.002900 -0.001680 
#    y -0.002900 1.851330 0.000950 
#    z -0.001680 0.000950 1.878420 
# 
# From -- ./inp_files/70072.got.cif
#   From: 2010.06.25/outbox.cif.g09.slc.cpg/sg2_36_cif.got.tgz:70072.got - 2010.06.27 13:26:56.
