data_PCOD8035825
_publ_section_title
;
Structure prediction by ZEFSAII (Michael W. Deem and Ramdas Pophale) SiO2 
 PCOD8035825
Probable space group: P -1
;
_chemical_formula_sum "Si O2"
_cell_formula_units_Z 12
_cell_length_a 7.096970
_cell_length_b 13.415611
_cell_length_c 7.801306
_cell_angle_alpha 132.834806
_cell_angle_beta 78.442031
_cell_angle_gamma 85.712376
_cell_volume 510.107151
_symmetry_space_group_name_H-M "P -1"
_symmetry_group_IT_number 2
_symmetry_cell_setting 'triclinic'
loop_
_space_group_symop_operation_xyz
x,y,z
-x,-y,-z
loop_
_atom_site_type_symbol
_atom_site_label
_atom_site_fract_x
_atom_site_fract_y
_atom_site_fract_z
Si Si1 0.514331 0.043787 0.243379
Si Si2 0.053330 0.113620 0.008375
Si Si3 0.616591 0.630840 0.311455
Si Si4 0.202076 0.902062 0.265138
Si Si5 0.542462 0.632141 0.952449
Si Si6 0.160307 0.370985 0.402046
O O1 0.508973 0.207791 0.436925
O O2 0.723802 0.957264 0.195646
O O3 0.332525 0.010316 0.337041
O O4 0.500000 0.000000 0.000000
O O5 0.875054 0.165210 0.964780
O O6 0.062799 0.242907 0.278792
O O7 0.000000 0.000000 0.000000
O O8 0.489606 0.521749 0.246768
O O9 0.801624 0.591072 0.364922
O O10 0.679846 0.620565 0.086187
O O11 0.335987 0.760990 0.175503
O O12 0.000000 0.000000 0.500000
O O13 0.643990 0.670690 0.807072
O O14 0.000000 0.500000 0.500000
#
# Coordination Sequence:
#
# PCOD8035825 Si02
#       6
#     2   2   2   2   2   2
#     4  12  23  47  73 108 149 193 244 308 366 443
#     4  12  25  43  73 108 143 188 246 295 369 440
#     4  11  25  47  73 101 147 196 239 305 369 431
#     4  12  26  46  73 109 146 191 247 306 371 438
#     4  11  26  49  72 106 149 196 245 305 369 443
#     4  12  26  45  73 106 148 195 243 305 369 441
#
# _framework density 23.524470999999998
#
# number of rings (size 3 to 8) (size 9 to 14) (size 15 to 20)
#    0.000    0.333    5.000    2.500    4.667    2.000 
#    6.000    0.000    0.000    0.000    0.000    0.000 
#    0.000    0.000    0.000    0.000    0.000    0.000 
#
# Total GULP energy -148739.122920 kJ/mol
# GULP energy per Si atom -12394.926910 kJ/mol
# Density = 2.347093 g / cm^3
# Si number density = 23.524471 Si / 1000 Ang^3
#
#
#
# Elastic Constant Matrix: (Units=GPa)
#
#
# Indices 1 2 3 4 5 6 
#
# 1 139.6909 65.6928 53.8486 2.2859 11.5373 -10.3651
# 2 65.6928 126.1789 57.1333 11.6392 22.6508 -3.9683
# 3 53.8486 57.1333 118.3851 23.5660 24.0821 2.6305
# 4 2.2859 11.6392 23.5660 51.2817 -3.1311 7.7416
# 5 11.5373 22.6508 24.0821 -3.1311 54.4917 -2.3435
# 6 -10.3651 -3.9683 2.6305 7.7416 -2.3435 55.6326
#
#
#
# Elastic Compliance Matrix: (Units=1/GPa)
#
#
# Indices 1 2 3 4 5 6 
#
# 1 0.010440 -0.004260 -0.003349 0.001875 0.001217 0.001590
# 2 -0.004260 0.012197 -0.003099 -0.001374 -0.002865 0.000293
# 3 -0.003349 -0.003099 0.013445 -0.005452 -0.004297 -0.000903
# 4 0.001875 -0.001374 -0.005452 0.022844 0.003788 -0.002510
# 5 0.001217 -0.002865 -0.004297 0.003788 0.021427 0.000601
# 6 0.001590 0.000293 -0.000903 -0.002510 0.000601 0.018710
#
#
# Mechanical properties :
#
#
# Convention : Reuss Voigt Hill
#
# Bulk Modulus (GPa) = 68.18348 81.95602 75.06975
# Shear Modulus (GPa) = 39.88326 46.11990 43.00158
#
# Velocity S-wave (km/s) = 4.12198 4.43257 4.28009
# Velocity P-wave (km/s) = 7.19036 7.81736 7.51041
#
# Compressibility (1/GPa) = 0.01466631
#
# Stress axis : x y z
#
# Youngs Moduli (GPa) = 95.78689 81.99025 74.37725
#
# Poissons Ratio (x) = 0.34931 0.24905
# Poissons Ratio (y) = 0.40809 0.23046
# Poissons Ratio (z) = 0.32074 0.25405
#
# Static dielectric constant tensor:
#      x y z
#    x 3.845530 0.025400 -0.020460 
#    y 0.025400 4.473390 0.058420 
#    z -0.020460 0.058420 4.427210 
# 
# 
# High freq. dielectric constant tensor:
#      x y z
#    x 1.935340 -0.011890 0.023230 
#    y -0.011890 1.940950 0.016260 
#    z 0.023230 0.016260 1.932950 
# 
# From -- ./inp_files/135932.got.cif
#   From: 2010.06.25/outbox.cif.g09.slc.cpg/sg2_68_cif.got.tgz:135932.got - 2010.06.27 13:26:56.
