data_PCOD8035364
_publ_section_title
;
Structure prediction by ZEFSAII (Michael W. Deem and Ramdas Pophale) SiO2 
 PCOD8035364
Probable space group: P -1
;
_chemical_formula_sum "Si O2"
_cell_formula_units_Z 16
_cell_length_a 16.713495
_cell_length_b 5.872748
_cell_length_c 16.772413
_cell_angle_alpha 52.199261
_cell_angle_beta 32.391477
_cell_angle_gamma 52.938982
_cell_volume 682.609731
_symmetry_space_group_name_H-M "P -1"
_symmetry_group_IT_number 2
_symmetry_cell_setting 'triclinic'
loop_
_space_group_symop_operation_xyz
x,y,z
-x,-y,-z
loop_
_atom_site_type_symbol
_atom_site_label
_atom_site_fract_x
_atom_site_fract_y
_atom_site_fract_z
Si Si1 0.229877 0.474570 0.872849
Si Si2 0.495937 0.356019 0.945249
Si Si3 0.991217 0.910563 0.904023
Si Si4 0.322869 0.379661 0.387157
Si Si5 0.204139 0.472859 0.072511
Si Si6 0.531508 0.657287 0.565578
Si Si7 0.791722 0.174472 0.409883
Si Si8 0.033924 0.795902 0.590487
O O1 0.105948 0.785949 0.906692
O O2 0.386054 0.522404 0.690040
O O3 0.263490 0.361464 0.959273
O O4 0.158365 0.235539 0.936052
O O5 0.637571 0.450017 0.761071
O O6 0.500000 0.500000 0.000000
O O7 0.341162 0.539125 0.997101
O O8 0.500000 0.000000 0.000000
O O9 0.084691 0.829820 0.761366
O O10 0.934949 0.255349 0.882583
O O11 0.444224 0.414487 0.345575
O O12 0.145568 0.495867 0.533786
O O13 0.332094 0.032566 0.446289
O O14 0.130773 0.235704 0.232008
O O15 0.687882 0.502705 0.424057
O O16 0.500000 0.000000 0.500000
O O17 0.879508 0.071938 0.440245
O O18 0.000000 0.000000 0.500000
#
# Coordination Sequence:
#
# PCOD8035364 Si02
#       8
#     2   2   2   2   2   2   2   2
#     4  11  25  44  70 103 146 185 246 295 391 443
#     4  12  31  51  79 112 153 202 262 320 382 451
#     4  11  25  44  70 106 142 193 235 310 372 463
#     4  11  25  46  70 104 143 190 246 309 373 449
#     4  12  25  46  74 104 148 189 250 308 378 451
#     4  11  26  44  73 101 144 189 242 306 375 457
#     4  11  25  45  69 103 145 184 255 306 373 452
#     4  11  25  44  70  99 142 191 245 311 373 443
#
# _framework density 23.439453
#
# number of rings (size 3 to 8) (size 9 to 14) (size 15 to 20)
#    0.000    0.750    3.750    1.875   10.500    5.500 
#    0.000    0.000    0.000    0.000    0.000    0.000 
#    0.000    0.000    0.000    0.000    0.000    0.000 
#
# Total GULP energy -198291.021469 kJ/mol
# GULP energy per Si atom -12393.188842 kJ/mol
# Density = 2.338610 g / cm^3
# Si number density = 23.439453 Si / 1000 Ang^3
#
#
#
# Elastic Constant Matrix: (Units=GPa)
#
#
# Indices 1 2 3 4 5 6 
#
# 1 116.1329 7.4029 23.0006 2.5887 -1.7774 -8.3599
# 2 7.4029 74.7520 9.8452 -9.2575 6.2020 -3.2058
# 3 23.0006 9.8452 122.8927 -14.0941 -3.5117 2.7686
# 4 2.5887 -9.2575 -14.0941 31.4166 -2.2182 0.2350
# 5 -1.7774 6.2020 -3.5117 -2.2182 42.1658 -2.6725
# 6 -8.3599 -3.2058 2.7686 0.2350 -2.6725 34.4547
#
#
#
# Elastic Compliance Matrix: (Units=1/GPa)
#
#
# Indices 1 2 3 4 5 6 
#
# 1 0.009262 -0.000826 -0.001922 -0.001858 0.000404 0.002369
# 2 -0.000826 0.014218 -0.000622 0.003836 -0.001913 0.000998
# 3 -0.001922 -0.000622 0.009072 0.004118 0.000906 -0.001211
# 4 -0.001858 0.003836 0.004118 0.035072 0.001511 -0.000547
# 5 0.000404 -0.001913 0.000906 0.001511 0.024278 0.001720
# 6 0.002369 0.000998 -0.001211 -0.000547 0.001720 0.029926
#
#
# Mechanical properties :
#
#
# Convention : Reuss Voigt Hill
#
# Bulk Modulus (GPa) = 38.74113 43.80833 41.27473
# Shear Modulus (GPa) = 36.45040 39.84267 38.14653
#
# Velocity S-wave (km/s) = 3.94774 4.12735 4.03854
# Velocity P-wave (km/s) = 6.11094 6.43770 6.27644
#
# Compressibility (1/GPa) = 0.02581236
#
# Stress axis : x y z
#
# Youngs Moduli (GPa) = 107.96401 70.33419 110.22650
#
# Poissons Ratio (x) = 0.05811 0.21189
# Poissons Ratio (y) = 0.08920 0.06851
# Poissons Ratio (z) = 0.20754 0.04372
#
# Static dielectric constant tensor:
#      x y z
#    x 4.503010 -0.321680 -0.106970 
#    y -0.321680 4.687200 0.322030 
#    z -0.106970 0.322030 4.413320 
# 
# 
# High freq. dielectric constant tensor:
#      x y z
#    x 1.938790 -0.011580 -0.001620 
#    y -0.011580 1.915370 0.000070 
#    z -0.001620 0.000070 1.939860 
# 
# From -- ./inp_files/111007.got.cif
#   From: 2010.06.25/outbox.cif.g09.slc.cpg/sg2_56_cif.got.tgz:111007.got - 2010.06.27 13:26:56.
