data_PCOD8035952
_publ_section_title
;
Structure prediction by ZEFSAII (Michael W. Deem and Ramdas Pophale) SiO2 
 PCOD8035952
Probable space group: P -1
;
_chemical_formula_sum "Si O2"
_cell_formula_units_Z 16
_cell_length_a 22.170918
_cell_length_b 5.349004
_cell_length_c 8.283746
_cell_angle_alpha 58.051918
_cell_angle_beta 127.208477
_cell_angle_gamma 124.078691
_cell_volume 620.495538
_symmetry_space_group_name_H-M "P -1"
_symmetry_group_IT_number 2
_symmetry_cell_setting 'triclinic'
loop_
_space_group_symop_operation_xyz
x,y,z
-x,-y,-z
loop_
_atom_site_type_symbol
_atom_site_label
_atom_site_fract_x
_atom_site_fract_y
_atom_site_fract_z
Si Si1 0.388362 0.383504 0.966304
Si Si2 0.834259 0.438254 0.116411
Si Si3 0.694094 0.437285 0.673852
Si Si4 0.402962 0.258059 0.379409
Si Si5 0.014775 0.365628 0.899972
Si Si6 0.078564 0.306974 0.533678
Si Si7 0.493505 0.029678 0.168877
Si Si8 0.780753 0.777271 0.387975
O O1 0.409273 0.063178 0.080413
O O2 0.417813 0.491591 0.164579
O O3 0.433270 0.627037 0.812143
O O4 0.294051 0.329585 0.824100
O O5 0.891765 0.431157 0.062613
O O6 0.885187 0.721028 0.221133
O O7 0.817997 0.151293 0.312265
O O8 0.750135 0.450535 0.914231
O O9 0.656759 0.083629 0.662272
O O10 0.749770 0.670129 0.552335
O O11 0.630814 0.596064 0.577712
O O12 0.486055 0.219345 0.594464
O O13 0.953431 0.406678 0.650255
O O14 0.000000 0.500000 0.000000
O O15 0.000000 0.000000 0.000000
O O16 0.149059 0.352156 0.500815
O O17 0.000000 0.000000 0.500000
O O18 0.500000 0.000000 0.000000
#
# Coordination Sequence:
#
# PCOD8035952 Si02
#       8
#     2   2   2   2   2   2   2   2
#     4  11  25  48  76 112 153 203 253 319 383 455
#     4  12  28  47  80 109 152 204 257 322 392 461
#     4  12  29  47  77 115 154 201 260 318 385 460
#     4  12  27  49  75 112 158 201 257 315 387 455
#     4  12  28  49  77 112 153 197 257 319 390 464
#     4  12  27  50  77 112 154 204 262 323 393 468
#     4  11  26  46  78 111 156 202 260 309 384 464
#     4  12  26  49  80 109 157 203 260 322 389 463
#
# _framework density 25.785841999999999
#
# number of rings (size 3 to 8) (size 9 to 14) (size 15 to 20)
#    0.000    0.250    3.750    3.750    8.750    2.500 
#    0.000    0.000    0.000    0.000    0.000    0.000 
#    0.000    0.000    0.000    0.000    0.000    0.000 
#
# Total GULP energy -198401.123954 kJ/mol
# GULP energy per Si atom -12400.070247 kJ/mol
# Density = 2.572715 g / cm^3
# Si number density = 25.785842 Si / 1000 Ang^3
#
#
#
# Elastic Constant Matrix: (Units=GPa)
#
#
# Indices 1 2 3 4 5 6 
#
# 1 149.0625 31.0145 27.2482 -10.1413 3.8302 1.0193
# 2 31.0145 91.0304 40.8203 -6.8716 -1.6819 -0.0932
# 3 27.2482 40.8203 146.6481 -9.0762 11.8362 2.0144
# 4 -10.1413 -6.8716 -9.0762 55.7169 3.6657 -3.9582
# 5 3.8302 -1.6819 11.8362 3.6657 59.4809 -0.5431
# 6 1.0193 -0.0932 2.0144 -3.9582 -0.5431 42.4738
#
#
#
# Elastic Compliance Matrix: (Units=1/GPa)
#
#
# Indices 1 2 3 4 5 6 
#
# 1 0.007356 -0.002139 -0.000672 0.000992 -0.000462 -0.000063
# 2 -0.002139 0.013291 -0.003359 0.000650 0.001145 0.000315
# 3 -0.000672 -0.003359 0.008075 0.000869 -0.001715 -0.000315
# 4 0.000992 0.000650 0.000869 0.018556 -0.001347 0.001648
# 5 -0.000462 0.001145 -0.001715 -0.001347 0.017300 0.000191
# 6 -0.000063 0.000315 -0.000315 0.001648 0.000191 0.023717
#
#
# Mechanical properties :
#
#
# Convention : Reuss Voigt Hill
#
# Bulk Modulus (GPa) = 61.03682 64.98967 63.01325
# Shear Modulus (GPa) = 47.12745 50.71152 48.91948
#
# Velocity S-wave (km/s) = 4.27974 4.43949 4.36035
# Velocity P-wave (km/s) = 6.93856 7.17894 7.05977
#
# Compressibility (1/GPa) = 0.01638355
#
# Stress axis : x y z
#
# Youngs Moduli (GPa) = 135.93992 75.24091 123.83351
#
# Poissons Ratio (x) = 0.16092 0.08321
# Poissons Ratio (y) = 0.29074 0.41591
# Poissons Ratio (z) = 0.09135 0.25271
#
# Static dielectric constant tensor:
#      x y z
#    x 4.892370 0.486270 -0.295480 
#    y 0.486270 5.418390 -0.648570 
#    z -0.295480 -0.648570 5.361400 
# 
# 
# High freq. dielectric constant tensor:
#      x y z
#    x 2.039250 0.013820 -0.001970 
#    y 0.013820 2.047990 -0.002730 
#    z -0.001970 -0.002730 2.050530 
# 
# From -- ./inp_files/340199.got.cif
#   From: 2010.06.25/outbox.cif.g09.slc.cpg/sg2_171_cif.got.tgz:340199.got - 2010.06.27 13:26:56.
