data_PCOD8035123
_publ_section_title
;
Structure prediction by ZEFSAII (Michael W. Deem and Ramdas Pophale) SiO2 
 PCOD8035123
Probable space group: P -1
;
_chemical_formula_sum "Si O2"
_cell_formula_units_Z 16
_cell_length_a 12.766483
_cell_length_b 15.039758
_cell_length_c 14.601772
_cell_angle_alpha 140.069560
_cell_angle_beta 124.371641
_cell_angle_gamma 26.762168
_cell_volume 736.995783
_symmetry_space_group_name_H-M "P -1"
_symmetry_group_IT_number 2
_symmetry_cell_setting 'triclinic'
loop_
_space_group_symop_operation_xyz
x,y,z
-x,-y,-z
loop_
_atom_site_type_symbol
_atom_site_label
_atom_site_fract_x
_atom_site_fract_y
_atom_site_fract_z
Si Si1 0.185166 0.948820 0.576363
Si Si2 0.144065 0.541348 0.869931
Si Si3 0.238205 0.894246 0.774716
Si Si4 0.019836 0.817787 0.865831
Si Si5 0.234430 0.599705 0.605763
Si Si6 0.267777 0.440738 0.193435
Si Si7 0.807707 0.618267 0.707631
Si Si8 0.485760 0.870498 0.114041
O O1 0.239680 0.896894 0.669221
O O2 0.458976 0.689542 0.456868
O O3 0.000000 0.000000 0.500000
O O4 0.028363 0.233042 0.692117
O O5 0.389296 0.274085 0.840371
O O6 0.218947 0.575211 0.850535
O O7 0.054159 0.482146 0.733602
O O8 0.924932 0.821986 0.044541
O O9 0.130856 0.848671 0.720706
O O10 0.532037 0.624420 0.740626
O O11 0.106302 0.678874 0.700854
O O12 0.746998 0.016412 0.920211
O O13 0.000000 0.000000 0.000000
O O14 0.133070 0.586650 0.469862
O O15 0.310542 0.288226 0.174968
O O16 0.314521 0.338591 0.034586
O O17 0.610341 0.880671 0.748194
#
# Coordination Sequence:
#
# PCOD8035123 Si02
#       8
#     2   2   2   2   2   2   2   2
#     4  12  25  39  68 105 142 174 222 288 342 402
#     4  11  25  45  71 101 135 182 231 278 329 407
#     4  12  22  45  68  99 144 174 221 290 337 400
#     4  11  24  48  72  96 135 181 230 283 331 400
#     4  12  25  46  68 101 142 180 223 281 348 396
#     4  12  22  42  70 103 138 177 227 275 345 405
#     4  11  26  42  69 101 144 178 217 287 346 400
#     4  11  25  45  70 102 136 180 232 276 330 407
#
# _framework density 21.709758000000001
#
# number of rings (size 3 to 8) (size 9 to 14) (size 15 to 20)
#    0.000    0.500    7.500    1.500    1.750    3.000 
#    4.500    1.250    0.000    0.000    0.000    0.000 
#    0.000    0.000    0.000    0.000    0.000    0.000 
#
# Total GULP energy -198381.143198 kJ/mol
# GULP energy per Si atom -12398.821450 kJ/mol
# Density = 2.166035 g / cm^3
# Si number density = 21.709758 Si / 1000 Ang^3
#
#
#
# Elastic Constant Matrix: (Units=GPa)
#
#
# Indices 1 2 3 4 5 6 
#
# 1 110.9044 22.1280 20.7006 -4.3421 1.9339 25.7908
# 2 22.1280 99.9830 14.4170 -4.8844 6.4867 28.0344
# 3 20.7006 14.4170 59.0650 -10.0727 -3.8121 -0.0669
# 4 -4.3421 -4.8844 -10.0727 32.9582 -0.8509 -1.1791
# 5 1.9339 6.4867 -3.8121 -0.8509 41.4537 -6.2329
# 6 25.7908 28.0344 -0.0669 -1.1791 -6.2329 40.7171
#
#
#
# Elastic Compliance Matrix: (Units=1/GPa)
#
#
# Indices 1 2 3 4 5 6 
#
# 1 0.011644 0.000443 -0.004355 -0.000076 -0.002222 -0.008030
# 2 0.000443 0.013587 -0.003660 0.000483 -0.004013 -0.010242
# 3 -0.004355 -0.003660 0.020527 0.005468 0.003683 0.006034
# 4 -0.000076 0.000483 0.005468 0.032136 0.001217 0.000841
# 5 -0.002222 -0.004013 0.003683 0.001217 0.026461 0.008263
# 6 -0.008030 -0.010242 0.006034 0.000841 0.008263 0.037997
#
#
# Mechanical properties :
#
#
# Convention : Reuss Voigt Hill
#
# Bulk Modulus (GPa) = 32.66322 42.71598 37.68960
# Shear Modulus (GPa) = 29.81507 37.20626 33.51067
#
# Velocity S-wave (km/s) = 3.70989 4.14430 3.93310
# Velocity P-wave (km/s) = 5.78179 6.52832 6.16636
#
# Compressibility (1/GPa) = 0.03061547
#
# Stress axis : x y z
#
# Youngs Moduli (GPa) = 85.87837 73.59899 48.71626
#
# Poissons Ratio (x) = -0.03259 0.21214
# Poissons Ratio (y) = -0.03803 0.17829
# Poissons Ratio (z) = 0.37396 0.26936
#
# Static dielectric constant tensor:
#      x y z
#    x 4.179200 0.226400 0.046240 
#    y 0.226400 4.058000 -0.084630 
#    z 0.046240 -0.084630 3.890310 
# 
# 
# High freq. dielectric constant tensor:
#      x y z
#    x 1.859900 0.017410 0.008760 
#    y 0.017410 1.852560 -0.012000 
#    z 0.008760 -0.012000 1.845630 
# 
# From -- ./inp_files/427879.got.cif
#   From: 2010.06.25/outbox.cif.g09.slc.cpg/sg2_214_cif.got.tgz:427879.got - 2010.06.27 13:26:56.
