data_PCOD8035632
_publ_section_title
;
Structure prediction by ZEFSAII (Michael W. Deem and Ramdas Pophale) SiO2 
 PCOD8035632
Probable space group: P -1
;
_chemical_formula_sum "Si O2"
_cell_formula_units_Z 16
_cell_length_a 9.358609
_cell_length_b 7.824088
_cell_length_c 16.226365
_cell_angle_alpha 135.823985
_cell_angle_beta 116.091728
_cell_angle_gamma 87.392304
_cell_volume 670.871990
_symmetry_space_group_name_H-M "P -1"
_symmetry_group_IT_number 2
_symmetry_cell_setting 'triclinic'
loop_
_space_group_symop_operation_xyz
x,y,z
-x,-y,-z
loop_
_atom_site_type_symbol
_atom_site_label
_atom_site_fract_x
_atom_site_fract_y
_atom_site_fract_z
Si Si1 0.417730 0.682566 0.005476
Si Si2 0.798997 0.291846 0.892794
Si Si3 0.145570 0.180745 0.324320
Si Si4 0.700889 0.821946 0.459396
Si Si5 0.766605 0.032402 0.142217
Si Si6 0.331523 0.424870 0.169953
Si Si7 0.808932 0.401227 0.659103
Si Si8 0.152736 0.409476 0.708325
O O1 0.271147 0.719130 0.035919
O O2 0.591180 0.959011 0.126091
O O3 0.500000 0.500000 0.000000
O O4 0.329856 0.529942 0.847395
O O5 0.673332 0.371572 0.831268
O O6 0.772718 0.988819 0.764587
O O7 0.000000 0.500000 0.000000
O O8 0.232937 0.226666 0.451750
O O9 0.199535 0.465231 0.385334
O O10 0.931593 0.997546 0.214532
O O11 0.523418 0.550243 0.303275
O O12 0.846440 0.831677 0.431979
O O13 0.660880 0.089578 0.529204
O O14 0.848525 0.351878 0.265885
O O15 0.719426 0.871208 0.986374
O O16 0.193299 0.399876 0.199365
O O17 0.976944 0.330108 0.690404
#
# Coordination Sequence:
#
# PCOD8035632 Si02
#       8
#     2   2   2   2   2   2   2   2
#     4  12  23  41  70 108 136 182 235 294 361 410
#     4  12  23  44  74 107 144 185 239 299 356 418
#     4  11  27  47  73 107 139 197 236 291 358 425
#     4  12  26  50  69 100 156 185 237 293 356 431
#     4  11  25  46  70 106 140 181 245 298 352 415
#     4  12  24  47  70 105 148 182 237 306 349 421
#     4  11  27  45  71 105 143 194 238 285 360 428
#     4  11  26  46  71 104 140 192 235 297 357 420
#
# _framework density 23.849558999999999
#
# number of rings (size 3 to 8) (size 9 to 14) (size 15 to 20)
#    0.000    0.500    5.000    1.875    3.500    3.500 
#    6.750    0.000    0.000    0.000    0.000    0.000 
#    0.000    0.000    0.000    0.000    0.000    0.000 
#
# Total GULP energy -198270.511512 kJ/mol
# GULP energy per Si atom -12391.906970 kJ/mol
# Density = 2.379528 g / cm^3
# Si number density = 23.849559 Si / 1000 Ang^3
#
#
#
# Elastic Constant Matrix: (Units=GPa)
#
#
# Indices 1 2 3 4 5 6 
#
# 1 137.9232 10.5073 37.7684 -3.9978 -16.2379 11.5641
# 2 10.5073 81.2797 27.7904 -14.8091 -5.6004 5.1083
# 3 37.7684 27.7904 97.9341 -16.8082 -1.9720 3.5318
# 4 -3.9978 -14.8091 -16.8082 37.5865 -6.1457 -1.6830
# 5 -16.2379 -5.6004 -1.9720 -6.1457 32.8212 -0.7902
# 6 11.5641 5.1083 3.5318 -1.6830 -0.7902 29.4886
#
#
#
# Elastic Compliance Matrix: (Units=1/GPa)
#
#
# Indices 1 2 3 4 5 6 
#
# 1 0.008889 0.000517 -0.003343 0.000213 0.004251 -0.003049
# 2 0.000517 0.014622 -0.003391 0.004766 0.003392 -0.001967
# 3 -0.003343 -0.003391 0.013133 0.004097 -0.000663 0.000541
# 4 0.000213 0.004766 0.004097 0.031522 0.007081 0.000589
# 5 0.004251 0.003392 -0.000663 0.007081 0.034416 -0.000849
# 6 -0.003049 -0.001967 0.000541 0.000589 -0.000849 0.035394
#
#
# Mechanical properties :
#
#
# Convention : Reuss Voigt Hill
#
# Bulk Modulus (GPa) = 41.30637 52.14102 46.72370
# Shear Modulus (GPa) = 31.55015 36.05065 33.80040
#
# Velocity S-wave (km/s) = 3.64109 3.89213 3.76870
# Velocity P-wave (km/s) = 5.91894 6.48908 6.21056
#
# Compressibility (1/GPa) = 0.02420934
#
# Stress axis : x y z
#
# Youngs Moduli (GPa) = 112.50286 68.39217 76.14639
#
# Poissons Ratio (x) = -0.03537 0.25452
# Poissons Ratio (y) = -0.05818 0.25824
# Poissons Ratio (z) = 0.37605 0.23194
#
# Static dielectric constant tensor:
#      x y z
#    x 3.669150 -0.677900 0.014650 
#    y -0.677900 3.773380 0.071090 
#    z 0.014650 0.071090 4.222610 
# 
# 
# High freq. dielectric constant tensor:
#      x y z
#    x 1.967150 -0.010990 0.000690 
#    y -0.010990 1.942240 0.002370 
#    z 0.000690 0.002370 1.935960 
# 
# From -- ./inp_files/317988.got.cif
#   From: 2010.06.25/outbox.cif.g09.slc.cpg/sg2_159_cif.got.tgz:317988.got - 2010.06.27 13:26:56.
