data_PCOD8035886
_publ_section_title
;
Structure prediction by ZEFSAII (Michael W. Deem and Ramdas Pophale) SiO2 
 PCOD8035886
Probable space group: P -1
;
_chemical_formula_sum "Si O2"
_cell_formula_units_Z 14
_cell_length_a 15.625634
_cell_length_b 12.110231
_cell_length_c 8.929244
_cell_angle_alpha 58.668069
_cell_angle_beta 131.135818
_cell_angle_gamma 154.192737
_cell_volume 540.400966
_symmetry_space_group_name_H-M "P -1"
_symmetry_group_IT_number 2
_symmetry_cell_setting 'triclinic'
loop_
_space_group_symop_operation_xyz
x,y,z
-x,-y,-z
loop_
_atom_site_type_symbol
_atom_site_label
_atom_site_fract_x
_atom_site_fract_y
_atom_site_fract_z
Si Si1 0.165872 0.158848 0.720399
Si Si2 0.581422 0.900716 0.256600
Si Si3 0.053234 0.297324 0.656666
Si Si4 0.513129 0.153440 0.334976
Si Si5 0.573728 0.514394 0.733968
Si Si6 0.256187 0.786155 0.050759
Si Si7 0.180042 0.036191 0.122888
O O1 0.412363 0.374323 0.789189
O O2 0.181277 0.310195 0.710064
O O3 0.102235 0.991206 0.894342
O O4 0.000000 0.000000 0.500000
O O5 0.422038 0.636438 0.177580
O O6 0.411767 0.811144 0.234496
O O7 0.788401 0.040817 0.485454
O O8 0.715335 0.133711 0.140233
O O9 0.222620 0.580596 0.607276
O O10 0.034129 0.254508 0.844693
O O11 0.411951 0.174927 0.299042
O O12 0.500000 0.000000 0.500000
O O13 0.343600 0.986482 0.116125
O O14 0.500000 0.500000 0.500000
O O15 0.793696 0.809655 0.844596
O O16 0.000000 0.500000 0.000000
#
# Coordination Sequence:
#
# PCOD8035886 Si02
#       7
#     2   2   2   2   2   2   2
#     4  12  25  48  76 117 162 209 261 330 406 477
#     4  11  25  47  77 112 154 202 269 315 396 473
#     4  12  26  48  80 115 161 209 261 329 404 475
#     4  12  28  49  79 111 161 209 272 329 396 473
#     4  12  24  46  78 115 158 207 256 328 398 477
#     4  11  27  51  75 108 150 210 262 330 388 466
#     4  12  27  49  76 121 161 209 267 327 404 483
#
# _framework density 25.906689
#
# number of rings (size 3 to 8) (size 9 to 14) (size 15 to 20)
#    0.000    0.286    4.286    3.429    2.000    5.714 
#    5.143    0.000    0.000    0.000    0.000    0.000 
#    0.000    0.000    0.000    0.000    0.000    0.000 
#
# Total GULP energy -173464.753537 kJ/mol
# GULP energy per Si atom -12390.339538 kJ/mol
# Density = 2.584772 g / cm^3
# Si number density = 25.906689 Si / 1000 Ang^3
#
#
#
# Elastic Constant Matrix: (Units=GPa)
#
#
# Indices 1 2 3 4 5 6 
#
# 1 122.0834 53.6825 22.1775 -10.6165 -2.5544 7.1184
# 2 53.6825 172.7390 41.6782 -10.9120 -6.1282 19.6153
# 3 22.1775 41.6782 98.9844 -18.4910 -17.1566 -5.5559
# 4 -10.6165 -10.9120 -18.4910 48.0725 1.0989 -6.9536
# 5 -2.5544 -6.1282 -17.1566 1.0989 38.2942 -12.2742
# 6 7.1184 19.6153 -5.5559 -6.9536 -12.2742 37.5748
#
#
#
# Elastic Compliance Matrix: (Units=1/GPa)
#
#
# Indices 1 2 3 4 5 6 
#
# 1 0.009647 -0.002661 -0.000930 0.001105 -0.000391 -0.000499
# 2 -0.002661 0.007905 -0.003521 -0.000819 -0.002058 -0.004967
# 3 -0.000930 -0.003521 0.014744 0.005628 0.008373 0.007971
# 4 0.001105 -0.000819 0.005628 0.023913 0.003946 0.006765
# 5 -0.000391 -0.002058 0.008373 0.003946 0.033950 0.014207
# 6 -0.000499 -0.004967 0.007971 0.006765 0.014207 0.036373
#
#
# Mechanical properties :
#
#
# Convention : Reuss Voigt Hill
#
# Bulk Modulus (GPa) = 55.33568 69.87591 62.60579
# Shear Modulus (GPa) = 34.06472 43.20620 38.63546
#
# Velocity S-wave (km/s) = 3.63009 4.08825 3.86597
# Velocity P-wave (km/s) = 6.24308 7.02252 6.64424
#
# Compressibility (1/GPa) = 0.01807152
#
# Stress axis : x y z
#
# Youngs Moduli (GPa) = 103.65635 126.50568 67.82626
#
# Poissons Ratio (x) = 0.33663 0.06310
# Poissons Ratio (y) = 0.27583 0.23880
# Poissons Ratio (z) = 0.09643 0.44539
#
# Static dielectric constant tensor:
#      x y z
#    x 5.188200 0.163710 -0.222640 
#    y 0.163710 4.675140 -0.168290 
#    z -0.222640 -0.168290 5.096780 
# 
# 
# High freq. dielectric constant tensor:
#      x y z
#    x 2.049970 0.014500 -0.001800 
#    y 0.014500 2.042430 -0.013170 
#    z -0.001800 -0.013170 2.040490 
# 
# From -- ./inp_files/306807.got.cif
#   From: 2010.06.25/outbox.cif.g09.slc.cpg/sg2_154_cif.got.tgz:306807.got - 2010.06.27 13:26:56.
