data_PCOD8035815
_publ_section_title
;
Structure prediction by ZEFSAII (Michael W. Deem and Ramdas Pophale) SiO2 
 PCOD8035815
Probable space group: P -1
;
_chemical_formula_sum "Si O2"
_cell_formula_units_Z 16
_cell_length_a 11.593466
_cell_length_b 18.739199
_cell_length_c 6.818836
_cell_angle_alpha 52.108747
_cell_angle_beta 89.235453
_cell_angle_gamma 52.029283
_cell_volume 746.847809
_symmetry_space_group_name_H-M "P -1"
_symmetry_group_IT_number 2
_symmetry_cell_setting 'triclinic'
loop_
_space_group_symop_operation_xyz
x,y,z
-x,-y,-z
loop_
_atom_site_type_symbol
_atom_site_label
_atom_site_fract_x
_atom_site_fract_y
_atom_site_fract_z
Si Si1 0.894629 0.611578 0.640861
Si Si2 0.073306 0.647751 0.317162
Si Si3 0.842935 0.875918 0.614207
Si Si4 0.397937 0.099782 0.649972
Si Si5 0.015362 0.841181 0.295808
Si Si6 0.294469 0.832794 0.325874
Si Si7 0.419965 0.846814 0.661741
Si Si8 0.373027 0.355508 0.647382
O O1 0.792049 0.752709 0.514274
O O2 0.758251 0.626311 0.511712
O O3 0.024920 0.581268 0.532503
O O4 0.000000 0.500000 0.000000
O O5 0.077283 0.730564 0.321641
O O6 0.269649 0.510901 0.445954
O O7 0.927831 0.755669 0.970236
O O8 0.653791 0.947742 0.420430
O O9 0.991559 0.805849 0.563541
O O10 0.776443 0.011096 0.480864
O O11 0.516953 0.104215 0.542133
O O12 0.500000 0.000000 0.000000
O O13 0.175366 0.815654 0.352051
O O14 0.826347 0.003942 0.973533
O O15 0.391783 0.780946 0.622585
O O16 0.444404 0.732298 0.324528
O O17 0.571865 0.729538 0.012470
#
# Coordination Sequence:
#
# PCOD8035815 Si02
#       8
#     2   2   2   2   2   2   2   2
#     4  12  24  44  70  95 144 188 214 271 352 416
#     4  12  26  44  70 103 139 180 227 280 342 410
#     4  12  23  42  69 101 136 179 225 284 346 403
#     4  12  22  38  68  99 135 175 225 284 339 403
#     4  11  25  47  72 101 137 181 233 287 337 399
#     4  11  25  47  72 101 137 181 233 287 337 399
#     4  12  23  42  69 101 136 179 225 284 346 403
#     4  12  26  44  70 103 139 180 227 280 342 410
#
# _framework density 21.423375
#
# number of rings (size 3 to 8) (size 9 to 14) (size 15 to 20)
#    0.000    0.250    5.000    5.250    0.000    2.000 
#    0.000    1.250    0.000    0.000    0.000    0.000 
#    0.000    0.000    0.000    0.000    0.000    0.000 
#
# Total GULP energy -198446.179599 kJ/mol
# GULP energy per Si atom -12402.886225 kJ/mol
# Density = 2.137461 g / cm^3
# Si number density = 21.423375 Si / 1000 Ang^3
#
#
#
# Elastic Constant Matrix: (Units=GPa)
#
#
# Indices 1 2 3 4 5 6 
#
# 1 125.1520 45.4156 47.5815 13.7194 6.8658 -1.4093
# 2 45.4156 132.8842 38.5686 -5.2477 5.6606 -0.4356
# 3 47.5815 38.5686 180.1947 10.9440 8.4783 3.5316
# 4 13.7194 -5.2477 10.9440 40.4742 2.2201 3.1536
# 5 6.8658 5.6606 8.4783 2.2201 15.7670 -5.6637
# 6 -1.4093 -0.4356 3.5316 3.1536 -5.6637 20.9437
#
#
#
# Elastic Compliance Matrix: (Units=1/GPa)
#
#
# Indices 1 2 3 4 5 6 
#
# 1 0.010244 -0.003044 -0.001795 -0.003375 -0.001564 0.001014
# 2 -0.003044 0.009102 -0.001202 0.002702 -0.001944 -0.000745
# 3 -0.001795 -0.001202 0.006511 -0.001009 -0.002811 -0.001852
# 4 -0.003375 0.002702 -0.001009 0.027150 -0.004706 -0.005362
# 5 -0.001564 -0.001944 -0.002811 -0.004706 0.074595 0.021209
# 6 0.001014 -0.000745 -0.001852 -0.005362 0.021209 0.054655
#
#
# Mechanical properties :
#
#
# Convention : Reuss Voigt Hill
#
# Bulk Modulus (GPa) = 72.59668 77.92913 75.26291
# Shear Modulus (GPa) = 25.13437 35.88131 30.50784
#
# Velocity S-wave (km/s) = 3.42895 4.09695 3.77775
# Velocity P-wave (km/s) = 7.04536 7.67038 7.36451
#
# Compressibility (1/GPa) = 0.01377473
#
# Stress axis : x y z
#
# Youngs Moduli (GPa) = 97.61484 109.87100 153.59243
#
# Poissons Ratio (x) = 0.33440 0.27569
# Poissons Ratio (y) = 0.29710 0.18468
# Poissons Ratio (z) = 0.17522 0.13211
#
# Static dielectric constant tensor:
#      x y z
#    x 3.628520 0.021060 0.030330 
#    y 0.021060 4.346820 0.115140 
#    z 0.030330 0.115140 3.956010 
# 
# 
# High freq. dielectric constant tensor:
#      x y z
#    x 1.826020 0.000000 0.005450 
#    y 0.000000 1.863990 0.009580 
#    z 0.005450 0.009580 1.849610 
# 
# From -- ./inp_files/81218.got.cif
#   From: 2010.06.25/outbox.cif.g09.slc.cpg/sg2_41_cif.got.tgz:81218.got - 2010.06.27 13:26:56.
