data_PCOD8035622
_publ_section_title
;
Structure prediction by ZEFSAII (Michael W. Deem and Ramdas Pophale) SiO2 
 PCOD8035622
Probable space group: P -1
;
_chemical_formula_sum "Si O2"
_cell_formula_units_Z 12
_cell_length_a 10.683074
_cell_length_b 6.877295
_cell_length_c 13.394267
_cell_angle_alpha 90.949070
_cell_angle_beta 144.413131
_cell_angle_gamma 100.531316
_cell_volume 539.047143
_symmetry_space_group_name_H-M "P -1"
_symmetry_group_IT_number 2
_symmetry_cell_setting 'triclinic'
loop_
_space_group_symop_operation_xyz
x,y,z
-x,-y,-z
loop_
_atom_site_type_symbol
_atom_site_label
_atom_site_fract_x
_atom_site_fract_y
_atom_site_fract_z
Si Si1 0.769198 0.407040 0.496864
Si Si2 0.473175 0.472516 0.820954
Si Si3 0.797633 0.321391 0.920391
Si Si4 0.636543 0.933064 0.672022
Si Si5 0.020506 0.193241 0.239950
Si Si6 0.817542 0.760268 0.196342
O O1 0.718249 0.436854 0.346748
O O2 0.528182 0.263372 0.380769
O O3 0.826734 0.626063 0.589669
O O4 0.962845 0.305372 0.638029
O O5 0.572424 0.385382 0.788932
O O6 0.350867 0.292634 0.818789
O O7 0.683446 0.648220 0.010546
O O8 0.744739 0.117422 0.819872
O O9 0.000000 0.500000 0.000000
O O10 0.850357 0.278751 0.068639
O O11 0.838514 0.874786 0.753370
O O12 0.500000 0.000000 0.500000
O O13 0.891672 0.003997 0.227588
#
# Coordination Sequence:
#
# PCOD8035622 Si02
#       6
#     2   2   2   2   2   2
#     4  12  24  46  69 103 137 176 228 280 336 399
#     4  11  25  46  70 100 136 182 224 279 338 401
#     4  12  24  44  71 102 137 179 227 277 342 403
#     4  12  23  41  68 100 137 173 225 281 333 398
#     4  12  24  44  71  99 137 181 221 283 337 399
#     4  11  25  48  68 100 139 176 231 276 334 405
#
# _framework density 22.261505
#
# number of rings (size 3 to 8) (size 9 to 14) (size 15 to 20)
#    0.000    0.333    3.333    6.500    0.000    1.333 
#    3.000    0.000    0.000    0.000    0.000    0.000 
#    0.000    0.000    0.000    0.000    0.000    0.000 
#
# Total GULP energy -148842.055239 kJ/mol
# GULP energy per Si atom -12403.504603 kJ/mol
# Density = 2.221084 g / cm^3
# Si number density = 22.261505 Si / 1000 Ang^3
#
#
#
# Elastic Constant Matrix: (Units=GPa)
#
#
# Indices 1 2 3 4 5 6 
#
# 1 87.0832 42.2921 21.8557 12.9733 7.5611 15.5547
# 2 42.2921 147.9195 57.3785 22.1552 -2.6778 30.0316
# 3 21.8557 57.3785 127.2178 -5.2714 -9.3996 17.7300
# 4 12.9733 22.1552 -5.2714 51.4013 10.3372 5.7952
# 5 7.5611 -2.6778 -9.3996 10.3372 31.1368 -4.0606
# 6 15.5547 30.0316 17.7300 5.7952 -4.0606 35.9751
#
#
#
# Elastic Compliance Matrix: (Units=1/GPa)
#
#
# Indices 1 2 3 4 5 6 
#
# 1 0.014304 -0.002854 -0.001029 -0.001266 -0.004072 -0.003551
# 2 -0.002854 0.010638 -0.003678 -0.003897 0.001129 -0.005079
# 3 -0.001029 -0.003678 0.010189 0.002706 0.001885 -0.001729
# 4 -0.001266 -0.003897 0.002706 0.023433 -0.007268 -0.002128
# 5 -0.004072 0.001129 0.001885 -0.007268 0.036865 0.005221
# 6 -0.003551 -0.005079 -0.001729 -0.002128 0.005221 0.035357
#
#
# Mechanical properties :
#
#
# Convention : Reuss Voigt Hill
#
# Bulk Modulus (GPa) = 49.97563 67.25254 58.61409
# Shear Modulus (GPa) = 32.77038 39.74893 36.25965
#
# Velocity S-wave (km/s) = 3.84091 4.23016 4.04022
# Velocity P-wave (km/s) = 6.49371 7.35763 6.93913
#
# Compressibility (1/GPa) = 0.02000975
#
# Stress axis : x y z
#
# Youngs Moduli (GPa) = 69.91110 93.99939 98.14893
#
# Poissons Ratio (x) = 0.26825 0.10097
# Poissons Ratio (y) = 0.19951 0.36100
# Poissons Ratio (z) = 0.07192 0.34574
#
# Static dielectric constant tensor:
#      x y z
#    x 3.887370 0.280320 -0.066960 
#    y 0.280320 4.044120 -0.061290 
#    z -0.066960 -0.061290 4.229600 
# 
# 
# High freq. dielectric constant tensor:
#      x y z
#    x 1.877210 0.011670 0.000090 
#    y 0.011670 1.888170 -0.006400 
#    z 0.000090 -0.006400 1.897600 
# 
# From -- ./inp_files/21170.got.cif
#   From: 2010.06.25/outbox.cif.g09.slc.cpg/sg2_11_cif.got.tgz:21170.got - 2010.06.27 13:26:56.
