data_PCOD8035494
_publ_section_title
;
Structure prediction by ZEFSAII (Michael W. Deem and Ramdas Pophale) SiO2 
 PCOD8035494
Probable space group: P -1
;
_chemical_formula_sum "Si O2"
_cell_formula_units_Z 14
_cell_length_a 9.632547
_cell_length_b 9.167432
_cell_length_c 16.377734
_cell_angle_alpha 33.054819
_cell_angle_beta 125.997141
_cell_angle_gamma 111.387057
_cell_volume 610.794096
_symmetry_space_group_name_H-M "P -1"
_symmetry_group_IT_number 2
_symmetry_cell_setting 'triclinic'
loop_
_space_group_symop_operation_xyz
x,y,z
-x,-y,-z
loop_
_atom_site_type_symbol
_atom_site_label
_atom_site_fract_x
_atom_site_fract_y
_atom_site_fract_z
Si Si1 0.618932 0.661285 0.109828
Si Si2 0.283498 0.432566 0.089516
Si Si3 0.910400 0.807695 0.736149
Si Si4 0.742601 0.496940 0.563214
Si Si5 0.179777 0.559286 0.562449
Si Si6 0.021492 0.680962 0.664231
Si Si7 0.599937 0.034986 0.785135
O O1 0.448307 0.548889 0.112762
O O2 0.702622 0.670887 0.224855
O O3 0.767147 0.465678 0.192992
O O4 0.569744 0.957550 0.905690
O O5 0.248017 0.248555 0.238823
O O6 0.326933 0.242922 0.112935
O O7 0.107020 0.697381 0.896626
O O8 0.923688 0.641055 0.733457
O O9 0.864045 0.139859 0.549632
O O10 0.711755 0.440112 0.483992
O O11 0.737425 0.222852 0.741284
O O12 0.587613 0.774025 0.406802
O O13 0.933105 0.552789 0.619878
O O14 0.000000 0.500000 0.500000
O O15 0.000000 0.000000 0.500000
#
# Coordination Sequence:
#
# PCOD8035494 Si02
#       7
#     2   2   2   2   2   2   2
#     4  12  26  41  75 104 138 182 240 290 340 418
#     4  11  25  45  71 106 140 184 237 294 344 416
#     4  11  25  46  72 102 143 184 235 288 353 414
#     4  11  26  47  71  98 148 185 229 289 361 418
#     4  12  25  47  70 104 141 185 228 292 357 413
#     4  12  23  44  73 105 132 190 235 284 347 422
#     4  11  25  46  70 106 139 186 234 294 349 414
#
# _framework density 22.920981000000001
#
# number of rings (size 3 to 8) (size 9 to 14) (size 15 to 20)
#    0.000    0.571    5.714    1.286    4.000    4.000 
#    5.143    0.000    0.000    0.000    0.000    0.000 
#    0.000    0.000    0.000    0.000    0.000    0.000 
#
# Total GULP energy -173580.663569 kJ/mol
# GULP energy per Si atom -12398.618826 kJ/mol
# Density = 2.286881 g / cm^3
# Si number density = 22.920981 Si / 1000 Ang^3
#
#
#
# Elastic Constant Matrix: (Units=GPa)
#
#
# Indices 1 2 3 4 5 6 
#
# 1 135.7009 52.5400 41.4913 15.5732 -12.2356 10.8545
# 2 52.5400 94.8341 33.0786 18.2423 -13.5084 4.7472
# 3 41.4913 33.0786 89.2108 14.9198 -18.2348 20.0352
# 4 15.5732 18.2423 14.9198 32.0742 -7.6459 -1.4203
# 5 -12.2356 -13.5084 -18.2348 -7.6459 39.6275 0.3137
# 6 10.8545 4.7472 20.0352 -1.4203 0.3137 44.6985
#
#
#
# Elastic Compliance Matrix: (Units=1/GPa)
#
#
# Indices 1 2 3 4 5 6 
#
# 1 0.010090 -0.004372 -0.002650 -0.001173 0.000186 -0.000837
# 2 -0.004372 0.014973 -0.002457 -0.004830 0.001688 0.000408
# 3 -0.002650 -0.002457 0.016618 -0.004091 0.005255 -0.006711
# 4 -0.001173 -0.004830 -0.004091 0.037348 0.003285 0.003795
# 5 0.000186 0.001688 0.005255 0.003285 0.028941 -0.002679
# 6 -0.000837 0.000408 -0.006711 0.003795 -0.002679 0.025680
#
#
# Mechanical properties :
#
#
# Convention : Reuss Voigt Hill
#
# Bulk Modulus (GPa) = 44.00614 63.77395 53.89005
# Shear Modulus (GPa) = 31.21417 36.12242 33.66830
#
# Velocity S-wave (km/s) = 3.69428 3.97414 3.83676
# Velocity P-wave (km/s) = 6.11864 6.99587 6.57190
#
# Compressibility (1/GPa) = 0.02272410
#
# Stress axis : x y z
#
# Youngs Moduli (GPa) = 99.10441 66.78616 60.17414
#
# Poissons Ratio (x) = 0.29199 0.15944
# Poissons Ratio (y) = 0.43329 0.14786
# Poissons Ratio (z) = 0.26260 0.16411
#
# Static dielectric constant tensor:
#      x y z
#    x 4.537450 -0.440140 -0.141880 
#    y -0.440140 4.199150 0.219060 
#    z -0.141880 0.219060 4.629380 
# 
# 
# High freq. dielectric constant tensor:
#      x y z
#    x 1.927100 -0.015110 -0.008610 
#    y -0.015110 1.884680 -0.000360 
#    z -0.008610 -0.000360 1.909910 
# 
# From -- ./inp_files/263316.got.cif
#   From: 2010.06.25/outbox.cif.g09.slc.cpg/sg2_132_cif.got.tgz:263316.got - 2010.06.27 13:26:56.
