data_PCOD8035011
_publ_section_title
;
Structure prediction by ZEFSAII (Michael W. Deem and Ramdas Pophale) SiO2 
 PCOD8035011
Probable space group: P -1
;
_chemical_formula_sum "Si O2"
_cell_formula_units_Z 12
_cell_length_a 14.777406
_cell_length_b 8.253164
_cell_length_c 8.428411
_cell_angle_alpha 131.659732
_cell_angle_beta 53.524684
_cell_angle_gamma 89.959667
_cell_volume 464.515676
_symmetry_space_group_name_H-M "P -1"
_symmetry_group_IT_number 2
_symmetry_cell_setting 'triclinic'
loop_
_space_group_symop_operation_xyz
x,y,z
-x,-y,-z
loop_
_atom_site_type_symbol
_atom_site_label
_atom_site_fract_x
_atom_site_fract_y
_atom_site_fract_z
Si Si1 0.419119 0.183460 0.359761
Si Si2 0.829565 0.573132 0.691157
Si Si3 0.645348 0.213309 0.278855
Si Si4 0.419777 0.413835 0.116059
Si Si5 0.907678 0.452265 0.174079
Si Si6 0.052051 0.029510 0.298442
O O1 0.488837 0.328951 0.436957
O O2 0.242833 0.406703 0.675608
O O3 0.500000 0.000000 0.000000
O O4 0.468212 0.928056 0.258205
O O5 0.738568 0.461830 0.708593
O O6 0.880602 0.574048 0.458524
O O7 0.966771 0.352940 0.526575
O O8 0.725715 0.902988 0.079057
O O9 0.609814 0.463792 0.593451
O O10 0.771717 0.138244 0.975628
O O11 0.500000 0.500000 0.000000
O O12 0.000000 0.500000 0.000000
O O13 0.983588 0.118342 0.886605
O O14 0.000000 0.000000 0.500000
#
# Coordination Sequence:
#
# PCOD8035011 Si02
#       6
#     2   2   2   2   2   2
#     4  11  24  47  72 105 147 192 247 299 371 438
#     4  11  25  50  71 109 154 191 249 308 372 438
#     4  11  24  48  76 105 148 196 247 309 367 444
#     4  11  26  43  74 107 146 201 241 306 372 440
#     4  12  26  47  75 110 149 200 243 307 370 443
#     4  12  27  45  76 112 145 200 249 306 379 441
#
# _framework density 25.833361
#
# number of rings (size 3 to 8) (size 9 to 14) (size 15 to 20)
#    0.000    0.667    5.000    2.000    2.333    8.000 
#    0.000    0.000    0.000    0.000    0.000    0.000 
#    0.000    0.000    0.000    0.000    0.000    0.000 
#
# Total GULP energy -148674.675267 kJ/mol
# GULP energy per Si atom -12389.556272 kJ/mol
# Density = 2.577456 g / cm^3
# Si number density = 25.833361 Si / 1000 Ang^3
#
#
#
# Elastic Constant Matrix: (Units=GPa)
#
#
# Indices 1 2 3 4 5 6 
#
# 1 147.7572 38.2131 56.2096 9.0224 -23.3425 27.5353
# 2 38.2131 125.5157 51.2687 -13.5136 -20.0229 19.6228
# 3 56.2096 51.2687 103.9934 -5.4843 -20.5470 9.2667
# 4 9.0224 -13.5136 -5.4843 54.4791 16.3551 -1.7029
# 5 -23.3425 -20.0229 -20.5470 16.3551 55.2902 6.3128
# 6 27.5353 19.6228 9.2667 -1.7029 6.3128 51.9333
#
#
#
# Elastic Compliance Matrix: (Units=1/GPa)
#
#
# Indices 1 2 3 4 5 6 
#
# 1 0.010393 -0.000262 -0.004348 -0.003703 0.004376 -0.005289
# 2 -0.000262 0.010890 -0.004425 0.001558 0.002115 -0.003392
# 3 -0.004348 -0.004425 0.014382 0.000635 0.001577 0.001240
# 4 -0.003703 0.001558 0.000635 0.021771 -0.007533 0.002891
# 5 0.004376 0.002115 0.001577 -0.007533 0.024268 -0.006598
# 6 -0.005289 -0.003392 0.001240 0.002891 -0.006598 0.024017
#
#
# Mechanical properties :
#
#
# Convention : Reuss Voigt Hill
#
# Bulk Modulus (GPa) = 56.83124 74.29436 65.56280
# Shear Modulus (GPa) = 38.56433 47.77885 43.17159
#
# Velocity S-wave (km/s) = 3.86788 4.30525 4.09241
# Velocity P-wave (km/s) = 6.48030 7.31677 6.91120
#
# Compressibility (1/GPa) = 0.01759596
#
# Stress axis : x y z
#
# Youngs Moduli (GPa) = 96.22304 91.82974 69.53172
#
# Poissons Ratio (x) = 0.02405 0.30229
# Poissons Ratio (y) = 0.02520 0.30766
# Poissons Ratio (z) = 0.41833 0.40632
#
# Static dielectric constant tensor:
#      x y z
#    x 5.026670 0.603590 0.223600 
#    y 0.603590 6.736480 -0.109520 
#    z 0.223600 -0.109520 4.684340 
# 
# 
# High freq. dielectric constant tensor:
#      x y z
#    x 2.044880 0.041640 -0.007720 
#    y 0.041640 2.051740 0.023570 
#    z -0.007720 0.023570 2.036730 
# 
# From -- ./inp_files/159435.got.cif
#   From: 2010.06.25/outbox.cif.g09.slc.cpg/sg2_80_cif.got.tgz:159435.got - 2010.06.27 13:26:56.
