data_PCOD8035130
_publ_section_title
;
Structure prediction by ZEFSAII (Michael W. Deem and Ramdas Pophale) SiO2 
 PCOD8035130
Probable space group: P -1
;
_chemical_formula_sum "Si O2"
_cell_formula_units_Z 14
_cell_length_a 6.114228
_cell_length_b 21.334971
_cell_length_c 6.320330
_cell_angle_alpha 125.719245
_cell_angle_beta 107.090688
_cell_angle_gamma 58.528079
_cell_volume 570.836170
_symmetry_space_group_name_H-M "P -1"
_symmetry_group_IT_number 2
_symmetry_cell_setting 'triclinic'
loop_
_space_group_symop_operation_xyz
x,y,z
-x,-y,-z
loop_
_atom_site_type_symbol
_atom_site_label
_atom_site_fract_x
_atom_site_fract_y
_atom_site_fract_z
Si Si1 0.940437 0.118925 0.859064
Si Si2 0.162818 0.194289 0.385093
Si Si3 0.181952 0.733193 0.196056
Si Si4 0.111757 0.530959 0.286967
Si Si5 0.569663 0.380267 0.332681
Si Si6 0.627506 0.695283 0.551871
Si Si7 0.400350 0.950579 0.526231
O O1 0.947561 0.171485 0.755452
O O2 0.676805 0.110806 0.763625
O O3 0.165641 0.021409 0.730561
O O4 0.958048 0.166204 0.170875
O O5 0.253941 0.237148 0.304718
O O6 0.398155 0.108133 0.360211
O O7 0.017967 0.262898 0.669048
O O8 0.462523 0.709293 0.320458
O O9 0.237720 0.658493 0.889957
O O10 0.285081 0.450509 0.325664
O O11 0.295187 0.578559 0.386793
O O12 0.853831 0.599069 0.458332
O O13 0.000000 0.500000 0.000000
O O14 0.546957 0.299199 0.280602
O O15 0.500000 0.000000 0.500000
#
# Coordination Sequence:
#
# PCOD8035130 Si02
#       7
#     2   2   2   2   2   2   2
#     4  11  25  46  72 107 143 191 246 298 354 436
#     4  12  27  48  75 108 147 195 238 303 365 428
#     4  12  24  47  72 108 148 188 245 295 360 439
#     4  11  24  51  75 107 144 193 243 300 363 428
#     4  11  27  49  76 108 145 190 244 304 355 438
#     4  12  25  47  74 108 144 192 241 297 369 426
#     4  11  24  48  73 105 146 193 244 297 362 428
#
# _framework density 24.525424999999998
#
# number of rings (size 3 to 8) (size 9 to 14) (size 15 to 20)
#    0.000    0.571    4.286    3.429    0.000    5.714 
#   12.857    0.000    0.000    0.000    0.000    0.000 
#    0.000    0.000    0.000    0.000    0.000    0.000 
#
# Total GULP energy -173494.986501 kJ/mol
# GULP energy per Si atom -12392.499036 kJ/mol
# Density = 2.446960 g / cm^3
# Si number density = 24.525425 Si / 1000 Ang^3
#
#
#
# Elastic Constant Matrix: (Units=GPa)
#
#
# Indices 1 2 3 4 5 6 
#
# 1 94.8206 46.7103 58.3252 -9.5496 16.1611 16.5720
# 2 46.7103 156.7636 41.1748 -9.6479 4.1178 -13.1112
# 3 58.3252 41.1748 124.5855 -8.3619 24.3958 9.3515
# 4 -9.5496 -9.6479 -8.3619 27.8159 -5.4839 5.2693
# 5 16.1611 4.1178 24.3958 -5.4839 45.8305 -0.7225
# 6 16.5720 -13.1112 9.3515 5.2693 -0.7225 57.9648
#
#
#
# Elastic Compliance Matrix: (Units=1/GPa)
#
#
# Indices 1 2 3 4 5 6 
#
# 1 0.017844 -0.003927 -0.005938 0.003517 -0.002443 -0.005382
# 2 -0.003927 0.008172 -0.001340 0.000787 0.001507 0.003135
# 3 -0.005938 -0.001340 0.012153 0.000445 -0.004212 -0.000659
# 4 0.003517 0.000787 0.000445 0.039001 0.003050 -0.004407
# 5 -0.002443 0.001507 -0.004212 0.003050 0.025180 0.001756
# 6 -0.005382 0.003135 -0.000659 -0.004407 0.001756 0.020028
#
#
# Mechanical properties :
#
#
# Convention : Reuss Voigt Hill
#
# Bulk Modulus (GPa) = 63.44991 74.28782 68.86886
# Shear Modulus (GPa) = 33.32403 41.65289 37.48846
#
# Velocity S-wave (km/s) = 3.69013 4.12558 3.91392
# Velocity P-wave (km/s) = 6.63952 7.28353 6.96897
#
# Compressibility (1/GPa) = 0.01576046
#
# Stress axis : x y z
#
# Youngs Moduli (GPa) = 56.04050 122.36749 82.28169
#
# Poissons Ratio (x) = 0.48053 0.48856
# Poissons Ratio (y) = 0.22007 0.11026
# Poissons Ratio (z) = 0.33275 0.16398
#
# Static dielectric constant tensor:
#      x y z
#    x 4.469850 -0.378350 0.285960 
#    y -0.378350 4.687180 -0.034190 
#    z 0.285960 -0.034190 4.159540 
# 
# 
# High freq. dielectric constant tensor:
#      x y z
#    x 1.973670 -0.024260 0.016790 
#    y -0.024260 2.002370 -0.002810 
#    z 0.016790 -0.002810 1.957080 
# 
# From -- ./inp_files/10112.got.cif
#   From: 2010.06.25/outbox.cif.g09.slc.cpg/sg2_6_cif.got.tgz:10112.got - 2010.06.27 13:26:56.
