data_PCOD8035565
_publ_section_title
;
Structure prediction by ZEFSAII (Michael W. Deem and Ramdas Pophale) SiO2 
 PCOD8035565
Probable space group: P -1
;
_chemical_formula_sum "Si O2"
_cell_formula_units_Z 16
_cell_length_a 8.659042
_cell_length_b 9.040482
_cell_length_c 11.944926
_cell_angle_alpha 79.064359
_cell_angle_beta 113.229236
_cell_angle_gamma 123.154236
_cell_volume 718.970718
_symmetry_space_group_name_H-M "P -1"
_symmetry_group_IT_number 2
_symmetry_cell_setting 'triclinic'
loop_
_space_group_symop_operation_xyz
x,y,z
-x,-y,-z
loop_
_atom_site_type_symbol
_atom_site_label
_atom_site_fract_x
_atom_site_fract_y
_atom_site_fract_z
Si Si1 0.552204 0.687129 0.535549
Si Si2 0.240165 0.949368 0.835114
Si Si3 0.288770 0.400496 0.011185
Si Si4 0.335717 0.742845 0.057598
Si Si5 0.166344 0.672594 0.463534
Si Si6 0.176781 0.135727 0.209583
Si Si7 0.813157 0.019696 0.436147
Si Si8 0.110250 0.770548 0.199469
O O1 0.500000 0.500000 0.500000
O O2 0.367673 0.678341 0.544395
O O3 0.725207 0.751160 0.666853
O O4 0.621880 0.827000 0.433469
O O5 0.203193 0.910161 0.698734
O O6 0.055687 0.939297 0.844964
O O7 0.427741 0.145159 0.879812
O O8 0.275960 0.801990 0.918714
O O9 0.118844 0.311682 0.882380
O O10 0.500000 0.500000 0.000000
O O11 0.259412 0.537305 0.056151
O O12 0.274840 0.252538 0.110979
O O13 0.232280 0.768385 0.130065
O O14 0.171278 0.843904 0.486475
O O15 0.125525 0.659188 0.321042
O O16 0.000000 0.500000 0.500000
O O17 0.210972 0.973657 0.236681
O O18 0.000000 0.000000 0.500000
#
# Coordination Sequence:
#
# PCOD8035565 Si02
#       8
#     2   2   2   2   2   2   2   2
#     4  12  28  47  71 106 144 194 244 299 363 428
#     4  11  25  45  75 101 146 181 243 285 365 419
#     4  12  29  45  73 106 144 185 241 297 357 419
#     4  11  27  45  75 107 137 191 236 298 357 421
#     4  12  29  46  74 108 146 190 242 300 365 434
#     4  12  27  48  74 102 146 189 236 297 362 429
#     4  12  24  47  75 107 144 189 239 299 365 433
#     4  12  26  50  72 104 147 186 241 291 362 431
#
# _framework density 22.254034999999998
#
# number of rings (size 3 to 8) (size 9 to 14) (size 15 to 20)
#    0.000    0.250    3.750    3.375   12.250    0.000 
#    0.000    0.000    0.000    0.000    0.000    0.000 
#    0.000    0.000    0.000    0.000    0.000    0.000 
#
# Total GULP energy -198545.403691 kJ/mol
# GULP energy per Si atom -12409.087731 kJ/mol
# Density = 2.220338 g / cm^3
# Si number density = 22.254035 Si / 1000 Ang^3
#
#
#
# Elastic Constant Matrix: (Units=GPa)
#
#
# Indices 1 2 3 4 5 6 
#
# 1 141.3668 53.8129 36.9631 -0.5664 1.8560 13.1599
# 2 53.8129 140.1874 37.0407 -0.3116 -3.9094 1.2647
# 3 36.9631 37.0407 141.2619 -4.7053 -5.8046 13.9801
# 4 -0.5664 -0.3116 -4.7053 35.9319 5.2434 -10.7937
# 5 1.8560 -3.9094 -5.8046 5.2434 34.3575 -4.6460
# 6 13.1599 1.2647 13.9801 -10.7937 -4.6460 45.8666
#
#
#
# Elastic Compliance Matrix: (Units=1/GPa)
#
#
# Indices 1 2 3 4 5 6 
#
# 1 0.008814 -0.003042 -0.001353 -0.000568 -0.001274 -0.002295
# 2 -0.003042 0.008735 -0.001571 0.000037 0.001053 0.001226
# 3 -0.001353 -0.001571 0.008079 0.000325 0.000958 -0.001857
# 4 -0.000568 0.000037 0.000325 0.030456 -0.003630 0.006862
# 5 -0.001274 0.001053 0.000958 -0.003630 0.030316 0.002261
# 6 -0.002295 0.001226 -0.001857 0.006862 0.002261 0.024837
#
#
# Mechanical properties :
#
#
# Convention : Reuss Voigt Hill
#
# Bulk Modulus (GPa) = 73.01659 75.38327 74.19993
# Shear Modulus (GPa) = 39.14428 42.89781 41.02104
#
# Velocity S-wave (km/s) = 4.19856 4.39526 4.29803
# Velocity P-wave (km/s) = 7.50904 7.72691 7.61875
#
# Compressibility (1/GPa) = 0.01369552
#
# Stress axis : x y z
#
# Youngs Moduli (GPa) = 113.46175 114.48844 123.77725
#
# Poissons Ratio (x) = 0.34826 0.16743
# Poissons Ratio (y) = 0.34514 0.19448
# Poissons Ratio (z) = 0.15348 0.17988
#
# Static dielectric constant tensor:
#      x y z
#    x 4.077190 0.148070 0.010660 
#    y 0.148070 4.137530 -0.069670 
#    z 0.010660 -0.069670 4.175520 
# 
# 
# High freq. dielectric constant tensor:
#      x y z
#    x 1.889450 0.008240 0.000140 
#    y 0.008240 1.884680 -0.003810 
#    z 0.000140 -0.003810 1.887250 
# 
# From -- ./inp_files/381803.got.cif
#   From: 2010.06.25/outbox.cif.g09.slc.cpg/sg2_191_cif.got.tgz:381803.got - 2010.06.27 13:26:56.
