data_PCOD8035928
_publ_section_title
;
Structure prediction by ZEFSAII (Michael W. Deem and Ramdas Pophale) SiO2 
 PCOD8035928
Probable space group: P -1
;
_chemical_formula_sum "Si O2"
_cell_formula_units_Z 10
_cell_length_a 9.583467
_cell_length_b 9.223445
_cell_length_c 13.258177
_cell_angle_alpha 46.563313
_cell_angle_beta 29.311179
_cell_angle_gamma 61.536652
_cell_volume 390.893771
_symmetry_space_group_name_H-M "P -1"
_symmetry_group_IT_number 2
_symmetry_cell_setting 'triclinic'
loop_
_space_group_symop_operation_xyz
x,y,z
-x,-y,-z
loop_
_atom_site_type_symbol
_atom_site_label
_atom_site_fract_x
_atom_site_fract_y
_atom_site_fract_z
Si Si1 0.772849 0.216756 0.236662
Si Si2 0.589154 0.500679 0.619582
Si Si3 0.317798 0.871510 0.359658
Si Si4 0.784594 0.810430 0.863162
Si Si5 0.864471 0.180341 0.977575
O O1 0.663692 0.384600 0.289991
O O2 0.039185 0.166408 0.151778
O O3 0.500000 0.000000 0.500000
O O4 0.868531 0.305074 0.020482
O O5 0.535602 0.310924 0.661737
O O6 0.931469 0.663079 0.312080
O O7 0.528911 0.390811 0.822254
O O8 0.984601 0.764771 0.669230
O O9 0.284337 0.975440 0.222871
O O10 0.522505 0.065212 0.208166
O O11 0.000000 0.000000 0.000000
#
# Coordination Sequence:
#
# PCOD8035928 Si02
#       5
#     2   2   2   2   2
#     4  12  24  46  72 103 140 185 234 291 345 414
#     4  12  26  45  76 105 141 185 240 286 355 413
#     4  11  26  49  72 103 144 188 233 288 352 424
#     4  11  25  48  73 101 147 185 232 291 355 415
#     4  12  25  45  73 106 141 183 239 289 346 420
#
# _framework density 25.582398999999999
#
# number of rings (size 3 to 8) (size 9 to 14) (size 15 to 20)
#    0.000    0.400    4.000    3.600    0.000    6.400 
#    3.600    3.000    0.000    0.000    0.000    0.000 
#    0.000    0.000    0.000    0.000    0.000    0.000 
#
# Total GULP energy -123921.382122 kJ/mol
# GULP energy per Si atom -12392.138212 kJ/mol
# Density = 2.552417 g / cm^3
# Si number density = 25.582399 Si / 1000 Ang^3
#
#
#
# Elastic Constant Matrix: (Units=GPa)
#
#
# Indices 1 2 3 4 5 6 
#
# 1 101.5804 48.7575 30.4776 -8.7596 9.4516 1.4749
# 2 48.7575 126.8736 38.9342 -0.3362 4.0609 9.8923
# 3 30.4776 38.9342 211.3158 2.5564 34.2452 5.8146
# 4 -8.7596 -0.3362 2.5564 37.5484 0.4185 8.3655
# 5 9.4516 4.0609 34.2452 0.4185 28.0516 5.7833
# 6 1.4749 9.8923 5.8146 8.3655 5.7833 21.4321
#
#
#
# Elastic Compliance Matrix: (Units=1/GPa)
#
#
# Indices 1 2 3 4 5 6 
#
# 1 0.012801 -0.004752 -0.000501 0.002730 -0.003317 0.001278
# 2 -0.004752 0.010492 -0.001611 0.000169 0.003071 -0.004974
# 3 -0.000501 -0.001611 0.006298 -0.000792 -0.007568 0.001421
# 4 0.002730 0.000169 -0.000792 0.030053 0.002122 -0.012354
# 5 -0.003317 0.003071 -0.007568 0.002122 0.048203 -0.012972
# 6 0.001278 -0.004974 0.001421 -0.012354 -0.012972 0.056803
#
#
# Mechanical properties :
#
#
# Convention : Reuss Voigt Hill
#
# Bulk Modulus (GPa) = 63.03671 75.12315 69.07993
# Shear Modulus (GPa) = 27.22308 38.84646 33.03477
#
# Velocity S-wave (km/s) = 3.26564 3.90100 3.59738
# Velocity P-wave (km/s) = 6.23806 7.05119 6.65705
#
# Compressibility (1/GPa) = 0.01586377
#
# Stress axis : x y z
#
# Youngs Moduli (GPa) = 78.11737 95.30867 158.77421
#
# Poissons Ratio (x) = 0.45290 0.07960
# Poissons Ratio (y) = 0.37120 0.25574
# Poissons Ratio (z) = 0.03916 0.15352
#
# Static dielectric constant tensor:
#      x y z
#    x 4.485400 0.070830 0.263950 
#    y 0.070830 4.969890 0.183340 
#    z 0.263950 0.183340 5.638650 
# 
# 
# High freq. dielectric constant tensor:
#      x y z
#    x 1.978390 -0.011230 0.016060 
#    y -0.011230 2.020880 0.013210 
#    z 0.016060 0.013210 2.063410 
# 
# From -- ./inp_files/377541.got.cif
#   From: 2010.06.25/outbox.cif.g09.slc.cpg/sg2_189_cif.got.tgz:377541.got - 2010.06.27 13:26:56.
