data_PCOD8035316
_publ_section_title
;
Structure prediction by ZEFSAII (Michael W. Deem and Ramdas Pophale) SiO2 
 PCOD8035316
Probable space group: P -1
;
_chemical_formula_sum "Si O2"
_cell_formula_units_Z 16
_cell_length_a 5.012043
_cell_length_b 11.394915
_cell_length_c 12.448868
_cell_angle_alpha 70.259611
_cell_angle_beta 91.304555
_cell_angle_gamma 104.954334
_cell_volume 644.907737
_symmetry_space_group_name_H-M "P -1"
_symmetry_group_IT_number 2
_symmetry_cell_setting 'triclinic'
loop_
_space_group_symop_operation_xyz
x,y,z
-x,-y,-z
loop_
_atom_site_type_symbol
_atom_site_label
_atom_site_fract_x
_atom_site_fract_y
_atom_site_fract_z
Si Si1 0.587244 0.545274 0.220445
Si Si2 0.771873 0.120348 0.994549
Si Si3 0.526755 0.913186 0.629769
Si Si4 0.608874 0.689036 0.564066
Si Si5 0.930176 0.041126 0.245996
Si Si6 0.909179 0.346542 0.552357
Si Si7 0.862404 0.791081 0.229722
Si Si8 0.123805 0.580538 0.079972
O O1 0.515633 0.455667 0.350863
O O2 0.586341 0.689641 0.215708
O O3 0.354423 0.507978 0.138888
O O4 0.887971 0.550140 0.177093
O O5 0.732249 0.264193 0.976355
O O6 0.969031 0.126521 0.892484
O O7 0.941202 0.099013 0.108793
O O8 0.500000 0.000000 0.000000
O O9 0.589132 0.781619 0.633598
O O10 0.236936 0.888647 0.697806
O O11 0.773352 0.966247 0.700944
O O12 0.500000 0.000000 0.500000
O O13 0.920076 0.711399 0.517927
O O14 0.414995 0.709647 0.458132
O O15 0.771305 0.888896 0.280272
O O16 0.956431 0.294845 0.685575
O O17 0.000000 0.500000 0.500000
O O18 0.000000 0.500000 0.000000
#
# Coordination Sequence:
#
# PCOD8035316 Si02
#       8
#     2   2   2   2   2   2   2   2
#     4  11  25  43  72 104 147 192 235 320 366 431
#     4  11  26  48  75 112 154 196 254 311 377 446
#     4  12  27  48  72 105 146 193 244 304 365 439
#     4  12  26  45  73 105 152 183 254 298 376 439
#     4  12  26  46  76 103 145 197 244 295 372 440
#     4  12  25  45  74 112 144 196 241 308 376 444
#     4  11  25  47  74 109 153 189 253 310 373 438
#     4  11  26  45  72 104 147 194 253 299 372 439
#
# _framework density 24.809753000000001
#
# number of rings (size 3 to 8) (size 9 to 14) (size 15 to 20)
#    0.000    0.500    1.250    6.000    5.250    5.000 
#    0.000    0.000    0.000    0.000    0.000    0.000 
#    0.000    0.000    0.000    0.000    0.000    0.000 
#
# Total GULP energy -198283.775913 kJ/mol
# GULP energy per Si atom -12392.735995 kJ/mol
# Density = 2.475328 g / cm^3
# Si number density = 24.809753 Si / 1000 Ang^3
#
#
#
# Elastic Constant Matrix: (Units=GPa)
#
#
# Indices 1 2 3 4 5 6 
#
# 1 85.0206 21.3496 37.3493 -8.7231 18.7625 -1.9919
# 2 21.3496 98.3259 20.0429 14.0064 -5.7039 -4.8162
# 3 37.3493 20.0429 155.8274 -6.1364 26.0150 8.4563
# 4 -8.7231 14.0064 -6.1364 35.0690 4.2674 -2.4192
# 5 18.7625 -5.7039 26.0150 4.2674 40.2101 6.0217
# 6 -1.9919 -4.8162 8.4563 -2.4192 6.0217 37.8850
#
#
#
# Elastic Compliance Matrix: (Units=1/GPa)
#
#
# Indices 1 2 3 4 5 6 
#
# 1 0.016198 -0.004437 -0.001835 0.006627 -0.008063 0.002402
# 2 -0.004437 0.012911 -0.001879 -0.007268 0.005824 0.000438
# 3 -0.001835 -0.001879 0.008029 0.002179 -0.004649 -0.001249
# 4 0.006627 -0.007268 0.002179 0.034805 -0.009630 0.002691
# 5 -0.008063 0.005824 -0.004649 -0.009630 0.034191 -0.004695
# 6 0.002402 0.000438 -0.001249 0.002691 -0.004695 0.027775
#
#
# Mechanical properties :
#
#
# Convention : Reuss Voigt Hill
#
# Bulk Modulus (GPa) = 47.99619 55.18417 51.59018
# Shear Modulus (GPa) = 31.81554 39.99494 35.90524
#
# Velocity S-wave (km/s) = 3.58492 4.01941 3.80837
# Velocity P-wave (km/s) = 6.04344 6.62058 6.33858
#
# Compressibility (1/GPa) = 0.02083499
#
# Stress axis : x y z
#
# Youngs Moduli (GPa) = 61.73682 77.45127 124.55520
#
# Poissons Ratio (x) = 0.34366 0.22854
# Poissons Ratio (y) = 0.27394 0.23408
# Poissons Ratio (z) = 0.11328 0.14556
#
# Static dielectric constant tensor:
#      x y z
#    x 4.493910 -0.100940 0.276790 
#    y -0.100940 4.921920 0.092260 
#    z 0.276790 0.092260 4.656240 
# 
# 
# High freq. dielectric constant tensor:
#      x y z
#    x 1.984900 -0.004830 0.013100 
#    y -0.004830 2.001330 0.004790 
#    z 0.013100 0.004790 2.003810 
# 
# From -- ./inp_files/364097.got.cif
#   From: 2010.06.25/outbox.cif.g09.slc.cpg/sg2_183_cif.got.tgz:364097.got - 2010.06.27 13:26:56.
