data_PCOD8035272
_publ_section_title
;
Structure prediction by ZEFSAII (Michael W. Deem and Ramdas Pophale) SiO2 
 PCOD8035272
Probable space group: P -1
;
_chemical_formula_sum "Si O2"
_cell_formula_units_Z 14
_cell_length_a 13.719307
_cell_length_b 19.919261
_cell_length_c 9.482853
_cell_angle_alpha 148.183249
_cell_angle_beta 50.344565
_cell_angle_gamma 150.775988
_cell_volume 610.825065
_symmetry_space_group_name_H-M "P -1"
_symmetry_group_IT_number 2
_symmetry_cell_setting 'triclinic'
loop_
_space_group_symop_operation_xyz
x,y,z
-x,-y,-z
loop_
_atom_site_type_symbol
_atom_site_label
_atom_site_fract_x
_atom_site_fract_y
_atom_site_fract_z
Si Si1 0.598245 0.442126 0.326175
Si Si2 0.422918 0.560718 0.338726
Si Si3 0.649062 0.240068 0.327962
Si Si4 0.070813 0.595553 0.379591
Si Si5 0.663626 0.015950 0.358738
Si Si6 0.160494 0.245989 0.774887
Si Si7 0.007634 0.291693 0.753233
O O1 0.500000 0.500000 0.500000
O O2 0.650966 0.466040 0.483934
O O3 0.822884 0.627065 0.367078
O O4 0.445676 0.202838 0.985476
O O5 0.499477 0.754433 0.536317
O O6 0.616115 0.615546 0.259726
O O7 0.213441 0.339721 0.049902
O O8 0.735444 0.293835 0.501251
O O9 0.846878 0.425626 0.367734
O O10 0.500000 0.000000 0.000000
O O11 0.147138 0.788870 0.579280
O O12 0.040909 0.469502 0.057176
O O13 0.768928 0.071243 0.513481
O O14 0.500000 0.000000 0.500000
O O15 0.037379 0.252165 0.808423
O O16 0.000000 0.000000 0.500000
#
# Coordination Sequence:
#
# PCOD8035272 Si02
#       7
#     2   2   2   2   2   2   2
#     4  12  27  48  74 109 151 195 249 305 366 440
#     4  11  25  47  70 106 145 185 245 296 361 442
#     4  11  25  42  74 102 147 186 236 305 366 434
#     4  11  25  45  68 111 138 190 246 298 371 438
#     4  12  28  45  78 105 149 198 245 306 373 434
#     4  11  27  45  75 102 145 196 236 300 367 436
#     4  12  26  48  73 106 146 190 254 301 367 445
#
# _framework density 22.919817999999999
#
# number of rings (size 3 to 8) (size 9 to 14) (size 15 to 20)
#    0.000    0.571    4.286    2.143    8.000    2.857 
#    0.000    0.000    0.000    0.000    0.000    0.000 
#    0.000    0.000    0.000    0.000    0.000    0.000 
#
# Total GULP energy -173623.358777 kJ/mol
# GULP energy per Si atom -12401.668484 kJ/mol
# Density = 2.286765 g / cm^3
# Si number density = 22.919818 Si / 1000 Ang^3
#
#
#
# Elastic Constant Matrix: (Units=GPa)
#
#
# Indices 1 2 3 4 5 6 
#
# 1 137.9024 10.6144 66.8248 10.6684 17.0717 0.4943
# 2 10.6144 56.0649 35.7729 10.8078 11.2381 1.3030
# 3 66.8248 35.7729 194.5972 9.4767 9.7605 -2.3833
# 4 10.6684 10.8078 9.4767 37.0646 -6.1132 -4.9798
# 5 17.0717 11.2381 9.7605 -6.1132 52.4825 -2.5767
# 6 0.4943 1.3030 -2.3833 -4.9798 -2.5767 28.5946
#
#
#
# Elastic Compliance Matrix: (Units=1/GPa)
#
#
# Indices 1 2 3 4 5 6 
#
# 1 0.009309 0.001516 -0.003186 -0.003006 -0.003174 -0.001305
# 2 0.001516 0.022799 -0.004109 -0.007393 -0.005629 -0.003202
# 3 -0.003186 -0.004109 0.006934 0.000598 0.000745 0.000992
# 4 -0.003006 -0.007393 0.000598 0.031797 0.006475 0.006560
# 5 -0.003174 -0.005629 0.000745 0.006475 0.022079 0.003491
# 6 -0.001305 -0.003202 0.000992 0.006560 0.003491 0.036680
#
#
# Mechanical properties :
#
#
# Convention : Reuss Voigt Hill
#
# Bulk Modulus (GPa) = 36.38300 68.33207 52.35754
# Shear Modulus (GPa) = 33.26340 41.98517 37.62428
#
# Velocity S-wave (km/s) = 3.81372 4.28463 4.05601
# Velocity P-wave (km/s) = 5.94147 7.37263 6.69540
#
# Compressibility (1/GPa) = 0.02748536
#
# Stress axis : x y z
#
# Youngs Moduli (GPa) = 107.42581 43.86166 144.22174
#
# Poissons Ratio (x) = -0.06651 0.45946
# Poissons Ratio (y) = -0.16291 0.59257
# Poissons Ratio (z) = 0.34223 0.18022
#
# Static dielectric constant tensor:
#      x y z
#    x 4.719710 0.011910 0.092350 
#    y 0.011910 3.963080 -0.066750 
#    z 0.092350 -0.066750 4.286820 
# 
# 
# High freq. dielectric constant tensor:
#      x y z
#    x 1.927270 -0.000510 0.004820 
#    y -0.000510 1.895280 -0.004780 
#    z 0.004820 -0.004780 1.917980 
# 
# From -- ./inp_files/53488.got.cif
#   From: 2010.06.25/outbox.cif.g09.slc.cpg/sg2_27_cif.got.tgz:53488.got - 2010.06.27 13:26:56.
