data_PCOD8035981
_publ_section_title
;
Structure prediction by ZEFSAII (Michael W. Deem and Ramdas Pophale) SiO2 
 PCOD8035981
Probable space group: P -1
;
_chemical_formula_sum "Si O2"
_cell_formula_units_Z 14
_cell_length_a 9.715712
_cell_length_b 8.192973
_cell_length_c 9.263331
_cell_angle_alpha 82.135152
_cell_angle_beta 89.348714
_cell_angle_gamma 47.262361
_cell_volume 533.102245
_symmetry_space_group_name_H-M "P -1"
_symmetry_group_IT_number 2
_symmetry_cell_setting 'triclinic'
loop_
_space_group_symop_operation_xyz
x,y,z
-x,-y,-z
loop_
_atom_site_type_symbol
_atom_site_label
_atom_site_fract_x
_atom_site_fract_y
_atom_site_fract_z
Si Si1 0.916719 0.525435 0.818035
Si Si2 0.559504 0.271344 0.978213
Si Si3 0.309448 0.325221 0.725314
Si Si4 0.704822 0.522972 0.589057
Si Si5 0.622542 0.081846 0.292945
Si Si6 0.002827 0.030349 0.664777
Si Si7 0.931439 0.832621 0.921460
O O1 0.809306 0.587634 0.662230
O O2 0.821899 0.760102 0.870882
O O3 0.131543 0.406570 0.805597
O O4 0.916949 0.359656 0.938735
O O5 0.451102 0.296049 0.836827
O O6 0.784582 0.078199 0.967280
O O7 0.500000 0.500000 0.000000
O O8 0.517610 0.192479 0.127192
O O9 0.261062 0.497069 0.580630
O O10 0.393648 0.100891 0.660950
O O11 0.483779 0.721302 0.607621
O O12 0.796881 0.277208 0.673901
O O13 0.839013 0.963195 0.300836
O O14 0.036381 0.840952 0.786200
O O15 0.000000 0.000000 0.500000
#
# Coordination Sequence:
#
# PCOD8035981 Si02
#       7
#     2   2   2   2   2   2   2
#     4  11  25  48  82 111 148 206 261 316 382 456
#     4  12  28  48  76 113 155 199 258 318 382 460
#     4  12  26  50  78 113 156 202 260 318 378 459
#     4  12  27  49  81 111 156 202 254 319 390 450
#     4  12  28  49  77 115 152 204 262 310 384 460
#     4  12  29  49  76 114 160 199 252 319 390 458
#     4  11  26  49  78 109 156 200 259 312 389 450
#
# _framework density 26.261379000000002
#
# number of rings (size 3 to 8) (size 9 to 14) (size 15 to 20)
#    0.000    0.286    2.857    3.857   12.000    2.857 
#    0.000    0.000    0.000    0.000    0.000    0.000 
#    0.000    0.000    0.000    0.000    0.000    0.000 
#
# Total GULP energy -173604.160819 kJ/mol
# GULP energy per Si atom -12400.297201 kJ/mol
# Density = 2.620161 g / cm^3
# Si number density = 26.261379 Si / 1000 Ang^3
#
#
#
# Elastic Constant Matrix: (Units=GPa)
#
#
# Indices 1 2 3 4 5 6 
#
# 1 72.1754 27.8435 33.0639 -13.1433 5.3558 15.7357
# 2 27.8435 139.1791 22.2984 4.5568 -6.2328 11.6502
# 3 33.0639 22.2984 161.0361 -14.8285 1.8116 13.7680
# 4 -13.1433 4.5568 -14.8285 42.8526 1.4307 -2.9061
# 5 5.3558 -6.2328 1.8116 1.4307 46.2627 3.8970
# 6 15.7357 11.6502 13.7680 -2.9061 3.8970 29.2051
#
#
#
# Elastic Compliance Matrix: (Units=1/GPa)
#
#
# Indices 1 2 3 4 5 6 
#
# 1 0.018647 -0.003019 -0.002346 0.004822 -0.002034 -0.006985
# 2 -0.003019 0.008180 -0.000578 -0.002175 0.001694 -0.001807
# 3 -0.002346 -0.000578 0.007069 0.001674 0.000006 -0.001672
# 4 0.004822 -0.002175 0.001674 0.025702 -0.001734 0.000269
# 5 -0.002034 0.001694 0.000006 -0.001734 0.022363 -0.002739
# 6 -0.006985 -0.001807 -0.001672 0.000269 -0.002739 0.039905
#
#
# Mechanical properties :
#
#
# Convention : Reuss Voigt Hill
#
# Bulk Modulus (GPa) = 45.43526 59.86689 52.65108
# Shear Modulus (GPa) = 35.43912 42.94308 39.19110
#
# Velocity S-wave (km/s) = 3.67751 4.04817 3.86728
# Velocity P-wave (km/s) = 5.94734 6.68553 6.32721
#
# Compressibility (1/GPa) = 0.02200934
#
# Stress axis : x y z
#
# Youngs Moduli (GPa) = 53.62909 122.25380 141.47141
#
# Poissons Ratio (x) = 0.36905 0.33195
# Poissons Ratio (y) = 0.16189 0.08172
# Poissons Ratio (z) = 0.12583 0.07062
#
# Static dielectric constant tensor:
#      x y z
#    x 4.385490 0.089350 0.058640 
#    y 0.089350 5.190980 0.034800 
#    z 0.058640 0.034800 4.856960 
# 
# 
# High freq. dielectric constant tensor:
#      x y z
#    x 2.026930 0.007600 0.006970 
#    y 0.007600 2.073240 0.006030 
#    z 0.006970 0.006030 2.068570 
# 
# From -- ./inp_files/243994.got.cif
#   From: 2010.06.25/outbox.cif.g09.slc.cpg/sg2_122_cif.got.tgz:243994.got - 2010.06.27 13:26:56.
