data_PCOD8035431
_publ_section_title
;
Structure prediction by ZEFSAII (Michael W. Deem and Ramdas Pophale) SiO2 
 PCOD8035431
Probable space group: P -1
;
_chemical_formula_sum "Si O2"
_cell_formula_units_Z 12
_cell_length_a 9.194235
_cell_length_b 12.319063
_cell_length_c 9.288483
_cell_angle_alpha 68.439079
_cell_angle_beta 30.034236
_cell_angle_gamma 66.913929
_cell_volume 483.503603
_symmetry_space_group_name_H-M "P -1"
_symmetry_group_IT_number 2
_symmetry_cell_setting 'triclinic'
loop_
_space_group_symop_operation_xyz
x,y,z
-x,-y,-z
loop_
_atom_site_type_symbol
_atom_site_label
_atom_site_fract_x
_atom_site_fract_y
_atom_site_fract_z
Si Si1 0.679232 0.166358 0.312005
Si Si2 0.416916 0.055552 0.327387
Si Si3 0.175816 0.904124 0.288625
Si Si4 0.465842 0.341197 0.826253
Si Si5 0.158684 0.319023 0.810391
Si Si6 0.000224 0.468718 0.347573
O O1 0.621265 0.112245 0.234053
O O2 0.451697 0.283846 0.482323
O O3 0.654828 0.071868 0.503163
O O4 0.001490 0.202957 0.016912
O O5 0.094614 0.137872 0.549303
O O6 0.597555 0.036727 0.032576
O O7 0.358471 0.791516 0.265459
O O8 0.000000 0.000000 0.500000
O O9 0.242236 0.364210 0.872811
O O10 0.694017 0.432061 0.580192
O O11 0.273347 0.365025 0.126352
O O12 0.953363 0.420357 0.846930
O O13 0.000000 0.500000 0.500000
#
# Coordination Sequence:
#
# PCOD8035431 Si02
#       6
#     2   2   2   2   2   2
#     4  11  25  44  75 107 144 201 244 310 371 437
#     4  11  25  45  70 108 153 191 257 303 364 443
#     4  12  26  45  75 108 153 198 247 299 379 446
#     4  12  27  49  74 111 151 195 244 310 377 440
#     4  12  25  47  77 105 151 191 255 301 381 440
#     4  12  28  48  77 110 147 195 255 309 373 439
#
# _framework density 24.818843000000001
#
# number of rings (size 3 to 8) (size 9 to 14) (size 15 to 20)
#    0.000    0.333    0.000    8.000    7.000    5.333 
#    0.000    0.000    0.000    0.000    0.000    0.000 
#    0.000    0.000    0.000    0.000    0.000    0.000 
#
# Total GULP energy -148853.846469 kJ/mol
# GULP energy per Si atom -12404.487206 kJ/mol
# Density = 2.476235 g / cm^3
# Si number density = 24.818843 Si / 1000 Ang^3
#
#
#
# Elastic Constant Matrix: (Units=GPa)
#
#
# Indices 1 2 3 4 5 6 
#
# 1 130.7345 62.7661 56.1688 -11.8221 4.3983 0.6922
# 2 62.7661 103.7824 41.0755 5.9580 14.1832 2.3203
# 3 56.1688 41.0755 139.4550 1.2046 4.4845 -1.9450
# 4 -11.8221 5.9580 1.2046 56.5319 7.2928 -6.0354
# 5 4.3983 14.1832 4.4845 7.2928 47.4784 -0.4293
# 6 0.6922 2.3203 -1.9450 -6.0354 -0.4293 36.4496
#
#
#
# Elastic Compliance Matrix: (Units=1/GPa)
#
#
# Indices 1 2 3 4 5 6 
#
# 1 0.012414 -0.006565 -0.003107 0.003339 0.000597 0.000576
# 2 -0.006565 0.014883 -0.001630 -0.002630 -0.003292 -0.001384
# 3 -0.003107 -0.001630 0.008914 -0.000615 0.000032 0.000537
# 4 0.003339 -0.002630 -0.000615 0.019334 -0.002406 0.003244
# 5 0.000597 -0.003292 0.000032 -0.002406 0.022358 0.000065
# 6 0.000576 -0.001384 0.000537 0.003244 0.000065 0.028079
#
#
# Mechanical properties :
#
#
# Convention : Reuss Voigt Hill
#
# Bulk Modulus (GPa) = 73.48533 77.11029 75.29781
# Shear Modulus (GPa) = 37.55989 42.35608 39.95799
#
# Velocity S-wave (km/s) = 3.89442 4.13560 4.01682
# Velocity P-wave (km/s) = 7.06363 7.34445 7.20541
#
# Compressibility (1/GPa) = 0.01360816
#
# Stress axis : x y z
#
# Youngs Moduli (GPa) = 80.55271 67.19175 112.18327
#
# Poissons Ratio (x) = 0.44108 0.34851
# Poissons Ratio (y) = 0.52879 0.18289
# Poissons Ratio (z) = 0.25024 0.10954
#
# Static dielectric constant tensor:
#      x y z
#    x 4.756930 -0.045090 -0.285770 
#    y -0.045090 4.264040 0.102710 
#    z -0.285770 0.102710 4.671550 
# 
# 
# High freq. dielectric constant tensor:
#      x y z
#    x 1.998490 0.002770 -0.006980 
#    y 0.002770 1.984820 0.003720 
#    z -0.006980 0.003720 2.008030 
# 
# From -- ./inp_files/175640.got.cif
#   From: 2010.06.25/outbox.cif.g09.slc.cpg/sg2_88_cif.got.tgz:175640.got - 2010.06.27 13:26:56.
