data_PCOD8035175
_publ_section_title
;
Structure prediction by ZEFSAII (Michael W. Deem and Ramdas Pophale) SiO2 
 PCOD8035175
Probable space group: P -1
;
_chemical_formula_sum "Si O2"
_cell_formula_units_Z 16
_cell_length_a 13.958778
_cell_length_b 8.772156
_cell_length_c 9.351830
_cell_angle_alpha 96.768927
_cell_angle_beta 133.437009
_cell_angle_gamma 108.169983
_cell_volume 692.383875
_symmetry_space_group_name_H-M "P -1"
_symmetry_group_IT_number 2
_symmetry_cell_setting 'triclinic'
loop_
_space_group_symop_operation_xyz
x,y,z
-x,-y,-z
loop_
_atom_site_type_symbol
_atom_site_label
_atom_site_fract_x
_atom_site_fract_y
_atom_site_fract_z
Si Si1 0.943283 0.913187 0.277957
Si Si2 0.179195 0.655059 0.666859
Si Si3 0.578269 0.603825 0.447348
Si Si4 0.357655 0.687010 0.585648
Si Si5 0.134150 0.996575 0.218650
Si Si6 0.252825 0.770648 0.202501
Si Si7 0.305737 0.997392 0.015542
Si Si8 0.736622 0.486883 0.018371
O O1 0.859902 0.698918 0.183948
O O2 0.820694 0.949083 0.076159
O O3 0.000000 0.000000 0.500000
O O4 0.098655 0.989407 0.349819
O O5 0.219529 0.665975 0.541845
O O6 0.225015 0.854067 0.787111
O O7 0.285481 0.605247 0.860537
O O8 0.000000 0.500000 0.500000
O O9 0.500000 0.500000 0.500000
O O10 0.670244 0.514238 0.470473
O O11 0.696353 0.820143 0.618794
O O12 0.439544 0.572555 0.200615
O O13 0.355567 0.767214 0.437108
O O14 0.528706 0.826986 0.846159
O O15 0.128174 0.813119 0.144708
O O16 0.000000 0.000000 0.000000
O O17 0.345150 0.923501 0.190394
O O18 0.185500 0.579898 0.027258
#
# Coordination Sequence:
#
# PCOD8035175 Si02
#       8
#     2   2   2   2   2   2   2   2
#     4  12  27  48  73 105 149 193 241 305 365 427
#     4  11  28  47  69 108 152 190 248 303 359 436
#     4  12  25  47  74 108 147 188 248 304 357 437
#     4  12  26  45  78 106 141 198 244 294 371 434
#     4  12  28  46  73 109 147 191 243 300 370 430
#     4  11  26  44  77 106 145 184 244 301 364 427
#     4  11  24  49  71 103 151 187 243 303 362 434
#     4  11  26  49  74 102 150 194 239 304 364 426
#
# _framework density 23.108568000000002
#
# number of rings (size 3 to 8) (size 9 to 14) (size 15 to 20)
#    0.000    0.500    3.750    3.000   10.500    2.000 
#    0.000    0.000    0.000    0.000    0.000    0.000 
#    0.000    0.000    0.000    0.000    0.000    0.000 
#
# Total GULP energy -198349.180645 kJ/mol
# GULP energy per Si atom -12396.823790 kJ/mol
# Density = 2.305597 g / cm^3
# Si number density = 23.108568 Si / 1000 Ang^3
#
#
#
# Elastic Constant Matrix: (Units=GPa)
#
#
# Indices 1 2 3 4 5 6 
#
# 1 125.3971 39.7146 37.7648 10.3628 -17.6733 -7.1591
# 2 39.7146 91.0348 35.5031 11.2476 -9.2294 -20.8109
# 3 37.7648 35.5031 106.3979 10.5617 -4.9220 0.2639
# 4 10.3628 11.2476 10.5617 44.9494 -1.4983 -2.0078
# 5 -17.6733 -9.2294 -4.9220 -1.4983 41.1060 3.0955
# 6 -7.1591 -20.8109 0.2639 -2.0078 3.0955 45.3528
#
#
#
# Elastic Compliance Matrix: (Units=1/GPa)
#
#
# Indices 1 2 3 4 5 6 
#
# 1 0.010211 -0.003100 -0.002342 -0.000918 0.003385 -0.000069
# 2 -0.003100 0.015731 -0.003916 -0.001969 0.001162 0.006585
# 3 -0.002342 -0.003916 0.011657 -0.001333 -0.000368 -0.002268
# 4 -0.000918 -0.001969 -0.001333 0.023260 -0.000149 -0.000001
# 5 0.003385 0.001162 -0.000368 -0.000149 0.026048 -0.000715
# 6 -0.000069 0.006585 -0.002268 -0.000001 -0.000715 0.025122
#
#
# Mechanical properties :
#
#
# Convention : Reuss Voigt Hill
#
# Bulk Modulus (GPa) = 52.95673 60.97720 56.96697
# Shear Modulus (GPa) = 36.48567 40.27146 38.37856
#
# Velocity S-wave (km/s) = 3.97782 4.17910 4.07970
# Velocity P-wave (km/s) = 6.63805 7.05203 6.84817
#
# Compressibility (1/GPa) = 0.01888334
#
# Stress axis : x y z
#
# Youngs Moduli (GPa) = 97.93433 63.56851 85.78210
#
# Poissons Ratio (x) = 0.19709 0.20088
# Poissons Ratio (y) = 0.30364 0.33591
# Poissons Ratio (z) = 0.22934 0.24893
#
# Static dielectric constant tensor:
#      x y z
#    x 8.380960 1.567380 0.056100 
#    y 1.567380 5.658720 -0.095280 
#    z 0.056100 -0.095280 4.292340 
# 
# 
# High freq. dielectric constant tensor:
#      x y z
#    x 1.910130 -0.015280 -0.011080 
#    y -0.015280 1.928200 -0.004070 
#    z -0.011080 -0.004070 1.916010 
# 
# From -- ./inp_files/298964.got.cif
#   From: 2010.06.25/outbox.cif.g09.slc.cpg/sg2_150_cif.got.tgz:298964.got - 2010.06.27 13:26:56.
