data_PCOD8035244
_publ_section_title
;
Structure prediction by ZEFSAII (Michael W. Deem and Ramdas Pophale) SiO2 
 PCOD8035244
Probable space group: P -1
;
_chemical_formula_sum "Si O2"
_cell_formula_units_Z 16
_cell_length_a 12.442378
_cell_length_b 9.468471
_cell_length_c 13.650548
_cell_angle_alpha 72.862654
_cell_angle_beta 127.569699
_cell_angle_gamma 65.387167
_cell_volume 751.370632
_symmetry_space_group_name_H-M "P -1"
_symmetry_group_IT_number 2
_symmetry_cell_setting 'triclinic'
loop_
_space_group_symop_operation_xyz
x,y,z
-x,-y,-z
loop_
_atom_site_type_symbol
_atom_site_label
_atom_site_fract_x
_atom_site_fract_y
_atom_site_fract_z
Si Si1 0.972409 0.247149 0.674828
Si Si2 0.726108 0.745834 0.215108
Si Si3 0.941671 0.371563 0.243701
Si Si4 0.567057 0.750931 0.330802
Si Si5 0.576509 0.974382 0.442084
Si Si6 0.380467 0.423103 0.148862
Si Si7 0.148971 0.892414 0.514576
Si Si8 0.171555 0.881784 0.032818
O O1 0.763656 0.508951 0.552347
O O2 0.865142 0.233842 0.537787
O O3 0.123787 0.236311 0.704256
O O4 0.088115 0.057434 0.863275
O O5 0.829338 0.528834 0.248317
O O6 0.681391 0.716981 0.302909
O O7 0.500000 0.000000 0.000000
O O8 0.159577 0.279274 0.360905
O O9 0.754924 0.537341 0.022225
O O10 0.046112 0.120370 0.356276
O O11 0.468022 0.966629 0.298092
O O12 0.384017 0.783830 0.209438
O O13 0.500000 0.000000 0.500000
O O14 0.477163 0.221568 0.319727
O O15 0.605145 0.308814 0.261783
O O16 0.226363 0.672554 0.066333
O O17 0.000000 0.000000 0.500000
O O18 0.000000 0.000000 0.000000
#
# Coordination Sequence:
#
# PCOD8035244 Si02
#       8
#     2   2   2   2   2   2   2   2
#     4  12  25  46  71 105 143 185 237 289 360 419
#     4  12  25  44  76 106 145 185 237 296 358 426
#     4  11  25  45  68 104 142 182 231 289 355 415
#     4  12  26  48  72 106 143 188 241 292 356 420
#     4  11  28  47  73 102 140 189 236 293 351 417
#     4  11  26  47  67 103 140 180 239 283 350 419
#     4  11  25  41  70 100 139 184 220 284 355 421
#     4  12  29  47  72 103 142 193 240 292 348 423
#
# _framework density 21.294419000000001
#
# number of rings (size 3 to 8) (size 9 to 14) (size 15 to 20)
#    0.000    0.500    5.000    1.875    8.750    1.500 
#    0.000    0.000    0.000    0.000    0.000    0.000 
#    0.000    0.000    0.000    0.000    0.000    0.000 
#
# Total GULP energy -198272.360619 kJ/mol
# GULP energy per Si atom -12392.022539 kJ/mol
# Density = 2.124595 g / cm^3
# Si number density = 21.294419 Si / 1000 Ang^3
#
#
#
# Elastic Constant Matrix: (Units=GPa)
#
#
# Indices 1 2 3 4 5 6 
#
# 1 107.9330 54.7150 26.0272 5.3012 10.0270 -17.0795
# 2 54.7150 131.1468 33.9727 -1.8956 -1.5825 -4.5670
# 3 26.0272 33.9727 121.2468 -1.0779 7.0095 0.3425
# 4 5.3012 -1.8956 -1.0779 40.3004 1.8111 3.1999
# 5 10.0270 -1.5825 7.0095 1.8111 16.2472 0.0559
# 6 -17.0795 -4.5670 0.3425 3.1999 0.0559 37.6148
#
#
#
# Elastic Compliance Matrix: (Units=1/GPa)
#
#
# Indices 1 2 3 4 5 6 
#
# 1 0.014205 -0.005590 -0.001020 -0.002246 -0.008641 0.005984
# 2 -0.005590 0.010517 -0.002037 0.001046 0.005241 -0.001340
# 3 -0.001020 -0.002037 0.009253 0.000515 -0.003615 -0.000833
# 4 -0.002246 0.001046 0.000515 0.025486 -0.001565 -0.003063
# 5 -0.008641 0.005241 -0.003615 -0.001565 0.069138 -0.003224
# 6 0.005984 -0.001340 -0.000833 -0.003063 -0.003224 0.029413
#
#
# Mechanical properties :
#
#
# Convention : Reuss Voigt Hill
#
# Bulk Modulus (GPa) = 59.95008 65.52847 62.73927
# Shear Modulus (GPa) = 27.64480 35.20661 31.42570
#
# Velocity S-wave (km/s) = 3.60699 4.07052 3.84575
# Velocity P-wave (km/s) = 6.74991 7.27541 7.01758
#
# Compressibility (1/GPa) = 0.01668055
#
# Stress axis : x y z
#
# Youngs Moduli (GPa) = 70.39735 95.08704 108.07063
#
# Poissons Ratio (x) = 0.53158 0.11025
# Poissons Ratio (y) = 0.39355 0.22009
# Poissons Ratio (z) = 0.07182 0.19365
#
# Static dielectric constant tensor:
#      x y z
#    x 4.033890 0.287600 0.177810 
#    y 0.287600 3.770550 -0.251680 
#    z 0.177810 -0.251680 4.101900 
# 
# 
# High freq. dielectric constant tensor:
#      x y z
#    x 1.829440 0.012580 0.007860 
#    y 0.012580 1.852680 -0.007610 
#    z 0.007860 -0.007610 1.856160 
# 
# From -- ./inp_files/260983.got.cif
#   From: 2010.06.25/outbox.cif.g09.slc.cpg/sg2_131_cif.got.tgz:260983.got - 2010.06.27 13:26:56.
