data_PCOD8035625
_publ_section_title
;
Structure prediction by ZEFSAII (Michael W. Deem and Ramdas Pophale) SiO2 
 PCOD8035625
Probable space group: P -1
;
_chemical_formula_sum "Si O2"
_cell_formula_units_Z 16
_cell_length_a 17.406004
_cell_length_b 11.103264
_cell_length_c 8.714223
_cell_angle_alpha 53.093753
_cell_angle_beta 51.133558
_cell_angle_gamma 33.615380
_cell_volume 713.985554
_symmetry_space_group_name_H-M "P -1"
_symmetry_group_IT_number 2
_symmetry_cell_setting 'triclinic'
loop_
_space_group_symop_operation_xyz
x,y,z
-x,-y,-z
loop_
_atom_site_type_symbol
_atom_site_label
_atom_site_fract_x
_atom_site_fract_y
_atom_site_fract_z
Si Si1 0.798373 0.463924 0.509603
Si Si2 0.374668 0.536235 0.064515
Si Si3 0.299223 0.127689 0.183571
Si Si4 0.838894 0.240905 0.340372
Si Si5 0.602601 0.657169 0.124468
Si Si6 0.164538 0.285541 0.908353
Si Si7 0.082475 0.157441 0.569357
Si Si8 0.886696 0.945499 0.039135
O O1 0.656061 0.567273 0.700307
O O2 0.852549 0.267392 0.482162
O O3 0.762355 0.649692 0.309627
O O4 0.922375 0.369500 0.546981
O O5 0.426144 0.415559 0.929893
O O6 0.500000 0.500000 0.000000
O O7 0.225954 0.793431 0.034523
O O8 0.305747 0.298675 0.074989
O O9 0.178521 0.199626 0.396099
O O10 0.257251 0.139210 0.052176
O O11 0.451537 0.877677 0.219912
O O12 0.842478 0.057375 0.460957
O O13 0.685846 0.471473 0.292457
O O14 0.967414 0.175000 0.137225
O O15 0.178405 0.134207 0.887340
O O16 0.000000 0.500000 0.000000
O O17 0.072216 0.122073 0.784655
#
# Coordination Sequence:
#
# PCOD8035625 Si02
#       8
#     2   2   2   2   2   2   2   2
#     4  12  26  42  73 103 135 186 231 280 343 409
#     4  12  28  48  69 101 140 183 227 289 347 402
#     4  11  25  46  70 102 138 185 227 282 338 414
#     4  12  23  45  70 102 140 179 231 282 341 408
#     4  11  25  48  69  95 145 180 225 284 343 402
#     4  12  23  45  69 103 141 182 230 280 340 407
#     4  12  25  41  73 105 136 179 230 284 345 403
#     4  12  25  44  68 103 144 175 228 289 336 410
#
# _framework density 22.409417000000001
#
# number of rings (size 3 to 8) (size 9 to 14) (size 15 to 20)
#    0.000    0.250    6.250    2.250    5.250    2.000 
#    0.000    1.250    0.000    0.000    0.000    0.000 
#    0.000    0.000    0.000    0.000    0.000    0.000 
#
# Total GULP energy -198542.677454 kJ/mol
# GULP energy per Si atom -12408.917341 kJ/mol
# Density = 2.235841 g / cm^3
# Si number density = 22.409417 Si / 1000 Ang^3
#
#
#
# Elastic Constant Matrix: (Units=GPa)
#
#
# Indices 1 2 3 4 5 6 
#
# 1 94.9154 -4.2593 2.7902 9.2276 -1.8355 -1.2299
# 2 -4.2593 44.8661 -6.3407 -5.3579 0.2769 -11.7758
# 3 2.7902 -6.3407 87.2848 8.9054 -7.3424 -20.8675
# 4 9.2276 -5.3579 8.9054 27.2359 -0.3652 -2.8658
# 5 -1.8355 0.2769 -7.3424 -0.3652 44.1987 0.4230
# 6 -1.2299 -11.7758 -20.8675 -2.8658 0.4230 45.1137
#
#
#
# Elastic Compliance Matrix: (Units=1/GPa)
#
#
# Indices 1 2 3 4 5 6 
#
# 1 0.010924 0.000723 0.000188 -0.003578 0.000447 0.000342
# 2 0.000723 0.025649 0.003464 0.004579 0.000400 0.008604
# 3 0.000188 0.003464 0.013912 -0.003152 0.002203 0.007124
# 4 -0.003578 0.004579 -0.003152 0.040085 -0.000391 0.002190
# 5 0.000447 0.000400 0.002203 -0.000391 0.022995 0.000895
# 6 0.000342 0.008604 0.007124 0.002190 0.000895 0.027847
#
#
# Mechanical properties :
#
#
# Convention : Reuss Voigt Hill
#
# Bulk Modulus (GPa) = 16.88201 23.49407 20.18804
# Shear Modulus (GPa) = 32.80665 38.96808 35.88736
#
# Velocity S-wave (km/s) = 3.83033 4.17455 4.00614
# Velocity P-wave (km/s) = 5.20689 5.80884 5.51608
#
# Compressibility (1/GPa) = 0.05923466
#
# Stress axis : x y z
#
# Youngs Moduli (GPa) = 91.54510 38.98740 71.87873
#
# Poissons Ratio (x) = -0.02820 -0.01350
# Poissons Ratio (y) = -0.06621 -0.24896
# Poissons Ratio (z) = -0.01719 -0.13504
#
# Static dielectric constant tensor:
#      x y z
#    x 4.338960 0.066550 -0.086500 
#    y 0.066550 4.000790 -0.162480 
#    z -0.086500 -0.162480 4.052230 
# 
# 
# High freq. dielectric constant tensor:
#      x y z
#    x 1.901090 0.001650 -0.001540 
#    y 0.001650 1.874840 -0.010190 
#    z -0.001540 -0.010190 1.885270 
# 
# From -- ./inp_files/272392.got.cif
#   From: 2010.06.25/outbox.cif.g09.slc.cpg/sg2_137_cif.got.tgz:272392.got - 2010.06.27 13:26:56.
