data_PCOD8035372
_publ_section_title
;
Structure prediction by ZEFSAII (Michael W. Deem and Ramdas Pophale) SiO2 
 PCOD8035372
Probable space group: P -1
;
_chemical_formula_sum "Si O2"
_cell_formula_units_Z 14
_cell_length_a 21.727227
_cell_length_b 7.839885
_cell_length_c 8.978715
_cell_angle_alpha 116.390320
_cell_angle_beta 29.869849
_cell_angle_gamma 128.117705
_cell_volume 582.953408
_symmetry_space_group_name_H-M "P -1"
_symmetry_group_IT_number 2
_symmetry_cell_setting 'triclinic'
loop_
_space_group_symop_operation_xyz
x,y,z
-x,-y,-z
loop_
_atom_site_type_symbol
_atom_site_label
_atom_site_fract_x
_atom_site_fract_y
_atom_site_fract_z
Si Si1 0.574824 0.353946 0.818658
Si Si2 0.610269 0.387913 0.099137
Si Si3 0.045585 0.984068 0.233287
Si Si4 0.015463 0.699707 0.643987
Si Si5 0.906086 0.589556 0.160708
Si Si6 0.670012 0.060748 0.989335
Si Si7 0.335982 0.147167 0.777611
O O1 0.731859 0.440710 0.447196
O O2 0.500000 0.500000 0.000000
O O3 0.595885 0.316477 0.931082
O O4 0.465340 0.110352 0.891114
O O5 0.451800 0.258081 0.449500
O O6 0.684357 0.654796 0.039119
O O7 0.698890 0.307843 0.984804
O O8 0.091938 0.222093 0.156219
O O9 0.187076 0.962670 0.939775
O O10 0.000000 0.000000 0.500000
O O11 0.928156 0.790428 0.298521
O O12 0.000000 0.500000 0.500000
O O13 0.178394 0.916512 0.363239
O O14 0.980716 0.648529 0.867750
O O15 0.000000 0.500000 0.000000
O O16 0.628929 0.978041 0.215156
#
# Coordination Sequence:
#
# PCOD8035372 Si02
#       7
#     2   2   2   2   2   2   2
#     4  12  26  48  75 108 156 197 256 318 380 459
#     4  11  25  44  70 108 146 189 247 309 377 446
#     4  12  24  46  73 103 154 197 249 308 384 453
#     4  12  27  48  76 113 152 197 259 317 386 464
#     4  12  29  48  77 114 154 203 258 317 386 461
#     4  12  25  46  76 105 146 196 248 310 385 446
#     4  11  25  44  72 107 145 192 248 306 374 454
#
# _framework density 24.015640999999999
#
# number of rings (size 3 to 8) (size 9 to 14) (size 15 to 20)
#    0.000    0.286    2.857    5.571    6.000    1.143 
#    0.000    0.000    0.000    0.000    0.000    0.000 
#    0.000    0.000    0.000    0.000    0.000    0.000 
#
# Total GULP energy -173469.299202 kJ/mol
# GULP energy per Si atom -12390.664229 kJ/mol
# Density = 2.396098 g / cm^3
# Si number density = 24.015641 Si / 1000 Ang^3
#
#
#
# Elastic Constant Matrix: (Units=GPa)
#
#
# Indices 1 2 3 4 5 6 
#
# 1 117.7470 46.3992 23.0049 -3.1090 9.5437 -16.3429
# 2 46.3992 87.8481 21.2413 4.6479 4.7949 -9.4711
# 3 23.0049 21.2413 106.2342 -14.4714 -4.8199 12.9334
# 4 -3.1090 4.6479 -14.4714 40.4082 -2.4919 -7.3102
# 5 9.5437 4.7949 -4.8199 -2.4919 53.4658 5.1966
# 6 -16.3429 -9.4711 12.9334 -7.3102 5.1966 55.7137
#
#
#
# Elastic Compliance Matrix: (Units=1/GPa)
#
#
# Indices 1 2 3 4 5 6 
#
# 1 0.011574 -0.005299 -0.001753 0.001339 -0.002004 0.003264
# 2 -0.005299 0.015116 -0.002461 -0.002848 -0.000890 0.001296
# 3 -0.001753 -0.002461 0.011281 0.003726 0.002040 -0.003253
# 4 0.001339 -0.002848 0.003726 0.027043 0.001373 0.002464
# 5 -0.002004 -0.000890 0.002040 0.001373 0.019668 -0.002867
# 6 0.003264 0.001296 -0.003253 0.002464 -0.002867 0.020472
#
#
# Mechanical properties :
#
#
# Convention : Reuss Voigt Hill
#
# Bulk Modulus (GPa) = 52.78267 54.79113 53.78690
# Shear Modulus (GPa) = 38.31575 44.66313 41.48944
#
# Velocity S-wave (km/s) = 3.99864 4.31716 4.16095
# Velocity P-wave (km/s) = 6.58369 6.90759 6.74759
#
# Compressibility (1/GPa) = 0.01894561
#
# Stress axis : x y z
#
# Youngs Moduli (GPa) = 86.40007 66.15429 88.64564
#
# Poissons Ratio (x) = 0.35055 0.15536
# Poissons Ratio (y) = 0.45783 0.21817
# Poissons Ratio (z) = 0.15143 0.16281
#
# Static dielectric constant tensor:
#      x y z
#    x -2.803850 0.086170 1.979940 
#    y 0.086170 4.684000 -0.009620 
#    z 1.979940 -0.009620 3.864410 
# 
# 
# High freq. dielectric constant tensor:
#      x y z
#    x 1.972440 -0.009430 -0.009170 
#    y -0.009430 1.956090 -0.003320 
#    z -0.009170 -0.003320 1.963380 
# 
# From -- ./inp_files/342845.got.cif
#   From: 2010.06.25/outbox.cif.g09.slc.cpg/sg2_172_cif.got.tgz:342845.got - 2010.06.27 13:26:56.
