data_PCOD8035077
_publ_section_title
;
Structure prediction by ZEFSAII (Michael W. Deem and Ramdas Pophale) SiO2 
 PCOD8035077
Probable space group: P -1
;
_chemical_formula_sum "Si O2"
_cell_formula_units_Z 14
_cell_length_a 11.390702
_cell_length_b 11.053499
_cell_length_c 12.156267
_cell_angle_alpha 145.472334
_cell_angle_beta 47.378510
_cell_angle_gamma 145.358120
_cell_volume 493.141165
_symmetry_space_group_name_H-M "P -1"
_symmetry_group_IT_number 2
_symmetry_cell_setting 'triclinic'
loop_
_space_group_symop_operation_xyz
x,y,z
-x,-y,-z
loop_
_atom_site_type_symbol
_atom_site_label
_atom_site_fract_x
_atom_site_fract_y
_atom_site_fract_z
Si Si1 0.756968 0.010581 0.897285
Si Si2 0.124405 0.890833 0.860423
Si Si3 0.243522 0.284350 0.870180
Si Si4 0.448741 0.725325 0.240808
Si Si5 0.710680 0.390557 0.113635
Si Si6 0.879841 0.751965 0.473422
Si Si7 0.899600 0.282445 0.510012
O O1 0.519982 0.842318 0.958188
O O2 0.769746 0.791006 0.668561
O O3 0.900097 0.151823 0.021696
O O4 0.820820 0.251070 0.948381
O O5 0.043688 0.610581 0.631682
O O6 0.367770 0.099464 0.833321
O O7 0.000000 0.000000 0.000000
O O8 0.476128 0.375142 0.785432
O O9 0.176954 0.348242 0.847399
O O10 0.096917 0.943903 0.728813
O O11 0.249667 0.449053 0.095160
O O12 0.344734 0.857450 0.447780
O O13 0.708944 0.482012 0.307489
O O14 0.036521 0.718083 0.405656
O O15 0.000000 0.000000 0.500000
#
# Coordination Sequence:
#
# PCOD8035077 Si02
#       7
#     2   2   2   2   2   2   2
#     4  11  27  48  73 110 151 194 254 309 373 455
#     4  12  27  51  79 111 154 204 248 313 379 446
#     4  11  24  47  78 111 145 198 252 309 374 444
#     4  11  27  50  77 108 157 199 251 309 376 453
#     4  11  24  48  77 104 147 202 246 312 381 436
#     4  12  27  44  71 111 146 191 250 311 370 446
#     4  12  28  46  75 115 149 196 256 305 380 441
#
# _framework density 28.389437000000001
#
# number of rings (size 3 to 8) (size 9 to 14) (size 15 to 20)
#    0.000    0.571    4.286    2.571    6.000    2.286 
#    0.000    0.000    0.000    0.000    0.000    0.000 
#    0.000    0.000    0.000    0.000    0.000    0.000 
#
# Total GULP energy -173524.301908 kJ/mol
# GULP energy per Si atom -12394.592993 kJ/mol
# Density = 2.832482 g / cm^3
# Si number density = 28.389437 Si / 1000 Ang^3
#
#
#
# Elastic Constant Matrix: (Units=GPa)
#
#
# Indices 1 2 3 4 5 6 
#
# 1 208.3881 33.1867 67.4119 10.8844 -9.1296 -11.7837
# 2 33.1867 99.4272 40.4577 14.9587 -12.1236 -15.4648
# 3 67.4119 40.4577 156.0719 1.8700 1.8496 -12.8426
# 4 10.8844 14.9587 1.8700 58.6598 -1.0339 -5.1071
# 5 -9.1296 -12.1236 1.8496 -1.0339 62.7699 7.6419
# 6 -11.7837 -15.4648 -12.8426 -5.1071 7.6419 35.8593
#
#
#
# Elastic Compliance Matrix: (Units=1/GPa)
#
#
# Indices 1 2 3 4 5 6 
#
# 1 0.005740 -0.000724 -0.002248 -0.000752 0.000686 0.000515
# 2 -0.000724 0.012545 -0.002648 -0.002647 0.001934 0.003435
# 3 -0.002248 -0.002648 0.008187 0.000936 -0.001241 0.001449
# 4 -0.000752 -0.002647 0.000936 0.017964 -0.000550 0.001622
# 5 0.000686 0.001934 -0.001241 -0.000550 0.016803 -0.003044
# 6 0.000515 0.003435 0.001449 0.001622 -0.003044 0.030936
#
#
# Mechanical properties :
#
#
# Convention : Reuss Voigt Hill
#
# Bulk Modulus (GPa) = 65.65049 82.88886 74.26967
# Shear Modulus (GPa) = 46.08622 52.97987 49.53304
#
# Velocity S-wave (km/s) = 4.03346 4.32462 4.18158
# Velocity P-wave (km/s) = 6.69828 7.36186 7.03789
#
# Compressibility (1/GPa) = 0.01523218
#
# Stress axis : x y z
#
# Youngs Moduli (GPa) = 174.22235 79.71278 122.13778
#
# Poissons Ratio (x) = 0.05772 0.27459
# Poissons Ratio (y) = 0.12615 0.32339
# Poissons Ratio (z) = 0.39168 0.21106
#
# Static dielectric constant tensor:
#      x y z
#    x 5.976940 -0.195260 0.282580 
#    y -0.195260 5.511450 0.167530 
#    z 0.282580 0.167530 5.946870 
# 
# 
# High freq. dielectric constant tensor:
#      x y z
#    x 2.193730 0.009260 0.007330 
#    y 0.009260 2.142780 0.016730 
#    z 0.007330 0.016730 2.186050 
# 
# From -- ./inp_files/519346.got.cif
#   From: 2010.06.25/outbox.cif.g09.slc.cpg/sg2_260_cif.got.tgz:519346.got - 2010.06.27 13:26:56.
