data_PCOD8035682
_publ_section_title
;
Structure prediction by ZEFSAII (Michael W. Deem and Ramdas Pophale) SiO2 
 PCOD8035682
Probable space group: P -1
;
_chemical_formula_sum "Si O2"
_cell_formula_units_Z 14
_cell_length_a 14.080304
_cell_length_b 10.665912
_cell_length_c 9.278423
_cell_angle_alpha 59.011937
_cell_angle_beta 114.328688
_cell_angle_gamma 149.924858
_cell_volume 596.800260
_symmetry_space_group_name_H-M "P -1"
_symmetry_group_IT_number 2
_symmetry_cell_setting 'triclinic'
loop_
_space_group_symop_operation_xyz
x,y,z
-x,-y,-z
loop_
_atom_site_type_symbol
_atom_site_label
_atom_site_fract_x
_atom_site_fract_y
_atom_site_fract_z
Si Si1 0.851846 0.010455 0.533484
Si Si2 0.288122 0.756366 0.069583
Si Si3 0.448075 0.590956 0.982216
Si Si4 0.753723 0.359381 0.571554
Si Si5 0.591303 0.901398 0.613234
Si Si6 0.891012 0.750548 0.848591
Si Si7 0.242855 0.018097 0.828905
O O1 0.765540 0.928373 0.369039
O O2 0.043896 0.325326 0.493959
O O3 0.701675 0.890367 0.629070
O O4 0.883290 0.875570 0.657813
O O5 0.281022 0.768745 0.228009
O O6 0.186936 0.485968 0.135032
O O7 0.182949 0.776248 0.925123
O O8 0.500000 0.000000 0.000000
O O9 0.221355 0.343974 0.018079
O O10 0.547557 0.727764 0.120045
O O11 0.500000 0.500000 0.000000
O O12 0.512787 0.788245 0.792888
O O13 0.588678 0.286351 0.492638
O O14 0.728586 0.206083 0.521121
O O15 0.110861 0.962708 0.885981
#
# Coordination Sequence:
#
# PCOD8035682 Si02
#       7
#     2   2   2   2   2   2   2
#     4  12  27  45  76 110 145 190 243 304 364 428
#     4  12  23  47  74 107 145 190 244 296 356 435
#     4  12  27  49  72 105 146 191 243 296 368 431
#     4  11  25  46  72 106 147 187 247 295 365 432
#     4  11  25  48  73 104 147 196 238 301 361 433
#     4  12  27  45  75 108 148 187 243 305 362 427
#     4  12  27  46  77 108 144 194 242 300 365 430
#
# _framework density 23.458435000000001
#
# number of rings (size 3 to 8) (size 9 to 14) (size 15 to 20)
#    0.000    0.286    5.714    2.143    2.000    3.429 
#    0.000    0.000    0.000    0.000    0.000    0.000 
#    0.000    0.000    0.000    0.000    0.000    0.000 
#
# Total GULP energy -173580.676938 kJ/mol
# GULP energy per Si atom -12398.619781 kJ/mol
# Density = 2.340504 g / cm^3
# Si number density = 23.458435 Si / 1000 Ang^3
#
#
#
# Elastic Constant Matrix: (Units=GPa)
#
#
# Indices 1 2 3 4 5 6 
#
# 1 143.6430 2.7150 46.7538 -8.5590 10.6096 14.8593
# 2 2.7150 30.0528 29.9855 -2.2774 -4.1058 2.3173
# 3 46.7538 29.9855 125.8352 -9.9744 12.4508 8.1191
# 4 -8.5590 -2.2774 -9.9744 26.9105 0.7999 -0.1781
# 5 10.6096 -4.1058 12.4508 0.7999 48.3444 -8.0036
# 6 14.8593 2.3173 8.1191 -0.1781 -8.0036 39.0184
#
#
#
# Elastic Compliance Matrix: (Units=1/GPa)
#
#
# Indices 1 2 3 4 5 6 
#
# 1 0.008509 0.002776 -0.003369 0.001711 -0.001282 -0.002959
# 2 0.002776 0.046744 -0.012858 -0.000125 0.006710 0.000218
# 3 -0.003369 -0.012858 0.012969 0.002756 -0.003979 -0.001455
# 4 0.001711 -0.000125 0.002756 0.038764 -0.001977 -0.001446
# 5 -0.001282 0.006710 -0.003979 -0.001977 0.023544 0.005738
# 6 -0.002959 0.000218 -0.001455 -0.001446 0.005738 0.028216
#
#
# Mechanical properties :
#
#
# Convention : Reuss Voigt Hill
#
# Bulk Modulus (GPa) = 24.20246 50.93771 37.57009
# Shear Modulus (GPa) = 25.07262 37.52645 31.29953
#
# Velocity S-wave (km/s) = 3.27281 4.00396 3.65671
# Velocity P-wave (km/s) = 4.96199 6.56786 5.82057
#
# Compressibility (1/GPa) = 0.04131811
#
# Stress axis : x y z
#
# Youngs Moduli (GPa) = 117.52677 21.39334 77.10810
#
# Poissons Ratio (x) = -0.05939 0.25981
# Poissons Ratio (y) = -0.32625 0.99145
# Poissons Ratio (z) = 0.39600 0.27507
#
# Static dielectric constant tensor:
#      x y z
#    x 4.548850 0.193250 0.058680 
#    y 0.193250 4.038770 -0.218570 
#    z 0.058680 -0.218570 4.350800 
# 
# 
# High freq. dielectric constant tensor:
#      x y z
#    x 1.947630 0.001910 0.012590 
#    y 0.001910 1.926500 -0.011270 
#    z 0.012590 -0.011270 1.927880 
# 
# From -- ./inp_files/263238.got.cif
#   From: 2010.06.25/outbox.cif.g09.slc.cpg/sg2_132_cif.got.tgz:263238.got - 2010.06.27 13:26:56.
