data_PCOD8035127
_publ_section_title
;
Structure prediction by ZEFSAII (Michael W. Deem and Ramdas Pophale) SiO2 
 PCOD8035127
Probable space group: P -1
;
_chemical_formula_sum "Si O2"
_cell_formula_units_Z 16
_cell_length_a 11.037257
_cell_length_b 8.958451
_cell_length_c 13.758275
_cell_angle_alpha 68.250563
_cell_angle_beta 56.620246
_cell_angle_gamma 112.337700
_cell_volume 694.420093
_symmetry_space_group_name_H-M "P -1"
_symmetry_group_IT_number 2
_symmetry_cell_setting 'triclinic'
loop_
_space_group_symop_operation_xyz
x,y,z
-x,-y,-z
loop_
_atom_site_type_symbol
_atom_site_label
_atom_site_fract_x
_atom_site_fract_y
_atom_site_fract_z
Si Si1 0.072351 0.597762 0.563201
Si Si2 0.566846 0.964573 0.202730
Si Si3 0.914018 0.517226 0.857019
Si Si4 0.776304 0.818446 0.076589
Si Si5 0.259486 0.282874 0.113177
Si Si6 0.581783 0.615607 0.542473
Si Si7 0.977528 0.757944 0.421403
Si Si8 0.328960 0.962435 0.643723
O O1 0.952499 0.663688 0.564577
O O2 0.068260 0.585552 0.683665
O O3 0.937159 0.325407 0.657638
O O4 0.308379 0.789339 0.356108
O O5 0.598873 0.939712 0.304470
O O6 0.653294 0.888180 0.118836
O O7 0.705040 0.235805 0.044020
O O8 0.842174 0.634151 0.832317
O O9 0.093063 0.675955 0.825970
O O10 0.627887 0.555096 0.252595
O O11 0.790732 0.789930 0.962462
O O12 0.000000 0.000000 0.000000
O O13 0.151205 0.046310 0.276605
O O14 0.500000 0.500000 0.000000
O O15 0.500000 0.500000 0.500000
O O16 0.746976 0.619336 0.509755
O O17 0.696661 0.884834 0.432988
O O18 0.500000 0.000000 0.500000
#
# Coordination Sequence:
#
# PCOD8035127 Si02
#       8
#     2   2   2   2   2   2   2   2
#     4  11  25  47  76 106 141 202 244 311 376 455
#     4  12  25  48  73 109 145 197 254 305 381 456
#     4  12  27  45  70 106 155 190 245 310 387 441
#     4  12  27  46  77 106 149 197 257 313 368 454
#     4  12  28  47  72 111 151 198 249 316 379 447
#     4  12  24  46  76 105 144 198 257 310 375 454
#     4  11  24  48  73 104 146 191 256 300 380 451
#     4  12  25  43  72 108 147 194 248 315 384 439
#
# _framework density 23.040808999999999
#
# number of rings (size 3 to 8) (size 9 to 14) (size 15 to 20)
#    0.000    0.250    5.000    3.375    5.250    1.500 
#    0.000    3.125    0.000    0.000    0.000    0.000 
#    0.000    0.000    0.000    0.000    0.000    0.000 
#
# Total GULP energy -198214.909122 kJ/mol
# GULP energy per Si atom -12388.431820 kJ/mol
# Density = 2.298837 g / cm^3
# Si number density = 23.040809 Si / 1000 Ang^3
#
#
#
# Elastic Constant Matrix: (Units=GPa)
#
#
# Indices 1 2 3 4 5 6 
#
# 1 107.8146 20.7989 17.5566 -9.8581 -4.2796 -2.7107
# 2 20.7989 82.9645 30.5722 -15.9107 3.6451 -11.9275
# 3 17.5566 30.5722 92.3089 -15.9447 1.2258 -15.6424
# 4 -9.8581 -15.9107 -15.9447 40.1130 0.0815 4.0278
# 5 -4.2796 3.6451 1.2258 0.0815 39.6952 -11.4014
# 6 -2.7107 -11.9275 -15.6424 4.0278 -11.4014 49.6198
#
#
#
# Elastic Compliance Matrix: (Units=1/GPa)
#
#
# Indices 1 2 3 4 5 6 
#
# 1 0.009986 -0.001932 -0.001069 0.001267 0.001265 -0.000068
# 2 -0.001932 0.014896 -0.003584 0.003828 -0.000952 0.001816
# 3 -0.001069 -0.003584 0.013321 0.003290 0.000708 0.003175
# 4 0.001267 0.003828 0.003290 0.028105 -0.000479 -0.000365
# 5 0.001265 -0.000952 0.000708 -0.000479 0.027221 0.006357
# 6 -0.000068 0.001816 0.003175 -0.000365 0.006357 0.023077
#
#
# Mechanical properties :
#
#
# Convention : Reuss Voigt Hill
#
# Bulk Modulus (GPa) = 39.94881 46.77149 43.36015
# Shear Modulus (GPa) = 36.20056 40.16295 38.18175
#
# Velocity S-wave (km/s) = 3.96807 4.17960 4.07521
# Velocity P-wave (km/s) = 6.19436 6.60572 6.40334
#
# Compressibility (1/GPa) = 0.02503203
#
# Stress axis : x y z
#
# Youngs Moduli (GPa) = 100.13701 67.13425 75.07223
#
# Poissons Ratio (x) = 0.12970 0.08025
# Poissons Ratio (y) = 0.19346 0.26908
# Poissons Ratio (z) = 0.10704 0.24063
#
# Static dielectric constant tensor:
#      x y z
#    x 4.578050 -0.113620 -0.248100 
#    y -0.113620 4.376980 -0.290410 
#    z -0.248100 -0.290410 4.232750 
# 
# 
# High freq. dielectric constant tensor:
#      x y z
#    x 1.925570 -0.001430 -0.001940 
#    y -0.001430 1.922270 -0.015160 
#    z -0.001940 -0.015160 1.908270 
# 
# From -- ./inp_files/515346.got.cif
#   From: 2010.06.25/outbox.cif.g09.slc.cpg/sg2_258_cif.got.tgz:515346.got - 2010.06.27 13:26:56.
