data_PCOD8035223
_publ_section_title
;
Structure prediction by ZEFSAII (Michael W. Deem and Ramdas Pophale) SiO2 
 PCOD8035223
Probable space group: P -1
;
_chemical_formula_sum "Si O2"
_cell_formula_units_Z 16
_cell_length_a 18.608185
_cell_length_b 12.407647
_cell_length_c 9.258431
_cell_angle_alpha 142.553702
_cell_angle_beta 37.508774
_cell_angle_gamma 144.172706
_cell_volume 690.344519
_symmetry_space_group_name_H-M "P -1"
_symmetry_group_IT_number 2
_symmetry_cell_setting 'triclinic'
loop_
_space_group_symop_operation_xyz
x,y,z
-x,-y,-z
loop_
_atom_site_type_symbol
_atom_site_label
_atom_site_fract_x
_atom_site_fract_y
_atom_site_fract_z
Si Si1 0.688221 0.809274 0.137250
Si Si2 0.617814 0.006250 0.923416
Si Si3 0.859128 0.271786 0.421465
Si Si4 0.149610 0.555944 0.873821
Si Si5 0.493370 0.175468 0.784505
Si Si6 0.624724 0.669414 0.391923
Si Si7 0.221232 0.483729 0.381188
Si Si8 0.856532 0.565069 0.941209
O O1 0.605747 0.758500 0.066050
O O2 0.588610 0.697101 0.313584
O O3 0.748600 0.048431 0.318737
O O4 0.804063 0.742531 0.858069
O O5 0.681508 0.883620 0.610851
O O6 0.745954 0.220113 0.993182
O O7 0.500000 0.000000 0.000000
O O8 0.546412 0.886739 0.054512
O O9 0.879134 0.446386 0.456434
O O10 0.818718 0.335097 0.705567
O O11 0.004753 0.282348 0.201005
O O12 0.223624 0.509081 0.576390
O O13 0.126884 0.405275 0.881818
O O14 0.000000 0.500000 0.000000
O O15 0.636853 0.373240 0.768527
O O16 0.500000 0.000000 0.500000
O O17 0.500000 0.500000 0.500000
O O18 0.743005 0.615698 0.126188
#
# Coordination Sequence:
#
# PCOD8035223 Si02
#       8
#     2   2   2   2   2   2   2   2
#     4  12  26  45  77 106 144 199 248 311 375 454
#     4  12  27  47  77 111 148 201 255 309 385 451
#     4  11  24  50  75 102 142 200 254 307 374 448
#     4  12  26  46  72 107 150 197 240 311 384 443
#     4  12  24  44  74 104 147 195 246 306 374 451
#     4  12  27  45  74 113 152 191 256 318 379 451
#     4  12  25  47  70 107 149 191 253 305 378 450
#     4  11  26  47  72 103 151 194 252 316 369 454
#
# _framework density 23.176832000000001
#
# number of rings (size 3 to 8) (size 9 to 14) (size 15 to 20)
#    0.000    0.250    5.000    3.375    5.250    1.500 
#    0.000    1.250    0.000    0.000    0.000    0.000 
#    0.000    0.000    0.000    0.000    0.000    0.000 
#
# Total GULP energy -198271.352295 kJ/mol
# GULP energy per Si atom -12391.959518 kJ/mol
# Density = 2.312408 g / cm^3
# Si number density = 23.176832 Si / 1000 Ang^3
#
#
#
# Elastic Constant Matrix: (Units=GPa)
#
#
# Indices 1 2 3 4 5 6 
#
# 1 146.8589 50.8559 45.5539 -16.7389 13.7415 -13.7958
# 2 50.8559 71.6478 40.0335 -3.7106 0.0127 2.2819
# 3 45.5539 40.0335 126.7459 -6.2711 8.9609 -12.1244
# 4 -16.7389 -3.7106 -6.2711 35.4748 0.0345 4.9265
# 5 13.7415 0.0127 8.9609 0.0345 48.1791 -9.5095
# 6 -13.7958 2.2819 -12.1244 4.9265 -9.5095 45.9963
#
#
#
# Elastic Compliance Matrix: (Units=1/GPa)
#
#
# Indices 1 2 3 4 5 6 
#
# 1 0.010254 -0.006574 -0.001051 0.003653 -0.002284 0.002261
# 2 -0.006574 0.021467 -0.004986 -0.001212 0.002048 -0.003798
# 3 -0.001051 -0.004986 0.010168 0.000458 -0.001131 0.002330
# 4 0.003653 -0.001212 0.000458 0.030186 -0.001600 -0.002287
# 5 -0.002284 0.002048 -0.001131 -0.001600 0.022350 0.003707
# 6 0.002261 -0.003798 0.002330 -0.002287 0.003707 0.024233
#
#
# Mechanical properties :
#
#
# Convention : Reuss Voigt Hill
#
# Bulk Modulus (GPa) = 59.99409 68.68212 64.33810
# Shear Modulus (GPa) = 33.45956 39.85068 36.65512
#
# Velocity S-wave (km/s) = 3.80368 4.15109 3.98117
# Velocity P-wave (km/s) = 6.72549 7.25766 6.99664
#
# Compressibility (1/GPa) = 0.01666831
#
# Stress axis : x y z
#
# Youngs Moduli (GPa) = 97.52212 46.58332 98.35160
#
# Poissons Ratio (x) = 0.30623 0.10332
# Poissons Ratio (y) = 0.64109 0.49036
# Poissons Ratio (z) = 0.10245 0.23226
#
# Static dielectric constant tensor:
#      x y z
#    x 5.682070 -0.105040 -0.944700 
#    y -0.105040 4.183200 0.110670 
#    z -0.944700 0.110670 5.354120 
# 
# 
# High freq. dielectric constant tensor:
#      x y z
#    x 1.931970 -0.007180 0.014200 
#    y -0.007180 1.903350 -0.002520 
#    z 0.014200 -0.002520 1.933420 
# 
# From -- ./inp_files/333885.got.cif
#   From: 2010.06.25/outbox.cif.g09.slc.cpg/sg2_167_cif.got.tgz:333885.got - 2010.06.27 13:26:56.
