data_PCOD8035839
_publ_section_title
;
Structure prediction by ZEFSAII (Michael W. Deem and Ramdas Pophale) SiO2 
 PCOD8035839
Probable space group: P -1
;
_chemical_formula_sum "Si O2"
_cell_formula_units_Z 12
_cell_length_a 12.509502
_cell_length_b 17.365878
_cell_length_c 14.119678
_cell_angle_alpha 152.039895
_cell_angle_beta 30.421345
_cell_angle_gamma 157.401472
_cell_volume 533.610548
_symmetry_space_group_name_H-M "P -1"
_symmetry_group_IT_number 2
_symmetry_cell_setting 'triclinic'
loop_
_space_group_symop_operation_xyz
x,y,z
-x,-y,-z
loop_
_atom_site_type_symbol
_atom_site_label
_atom_site_fract_x
_atom_site_fract_y
_atom_site_fract_z
Si Si1 0.870905 0.560219 0.090487
Si Si2 0.398584 0.488629 0.461134
Si Si3 0.707256 0.467289 0.766722
Si Si4 0.647654 0.146199 0.338661
Si Si5 0.206307 0.704510 0.306473
Si Si6 0.607335 0.960589 0.783483
O O1 0.536800 0.423373 0.217078
O O2 0.895398 0.502530 0.904059
O O3 0.050463 0.824721 0.249334
O O4 0.000000 0.500000 0.000000
O O5 0.500000 0.500000 0.500000
O O6 0.533633 0.733364 0.598321
O O7 0.054881 0.301457 0.504397
O O8 0.583668 0.302077 0.590190
O O9 0.750642 0.343807 0.674852
O O10 0.010053 0.708191 0.766800
O O11 0.500000 0.500000 0.000000
O O12 0.529115 0.043421 0.213721
O O13 0.498499 0.941778 0.303957
O O14 0.500000 0.000000 0.000000
#
# Coordination Sequence:
#
# PCOD8035839 Si02
#       6
#     2   2   2   2   2   2
#     4  12  23  41  66 103 142 180 226 275 350 422
#     4  12  24  41  66 103 143 183 224 277 345 418
#     4  11  27  49  71 100 132 181 245 291 341 402
#     4  11  25  47  73  97 140 180 232 291 345 408
#     4  12  25  46  70 101 142 180 229 286 344 418
#     4  12  22  44  69 102 147 184 222 285 346 419
#
# _framework density 22.488309999999998
#
# number of rings (size 3 to 8) (size 9 to 14) (size 15 to 20)
#    0.000    0.333    6.667    1.000    2.333    2.000 
#    3.000    0.000    0.000    0.000    0.000    0.000 
#    0.000    0.000    0.000    0.000    0.000    0.000 
#
# Total GULP energy -148787.212801 kJ/mol
# GULP energy per Si atom -12398.934400 kJ/mol
# Density = 2.243713 g / cm^3
# Si number density = 22.488310 Si / 1000 Ang^3
#
#
#
# Elastic Constant Matrix: (Units=GPa)
#
#
# Indices 1 2 3 4 5 6 
#
# 1 84.1887 33.8523 18.0906 -13.7875 2.6563 -2.3687
# 2 33.8523 155.5459 35.4158 -9.7322 -6.3080 -11.1910
# 3 18.0906 35.4158 119.0228 -31.7437 8.3497 13.6353
# 4 -13.7875 -9.7322 -31.7437 43.8041 4.7331 0.0141
# 5 2.6563 -6.3080 8.3497 4.7331 38.6533 8.7086
# 6 -2.3687 -11.1910 13.6353 0.0141 8.7086 35.9755
#
#
#
# Elastic Compliance Matrix: (Units=1/GPa)
#
#
# Indices 1 2 3 4 5 6 
#
# 1 0.013719 -0.002742 -0.000193 0.003779 -0.001945 0.000593
# 2 -0.002742 0.007830 -0.002683 -0.001235 0.001544 0.002899
# 3 -0.000193 -0.002683 0.012275 0.008570 -0.003052 -0.004764
# 4 0.003779 -0.001235 0.008570 0.030559 -0.005595 -0.002041
# 5 -0.001945 0.001544 -0.003052 -0.005595 0.028833 -0.005468
# 6 0.000593 0.002899 -0.004764 -0.002041 -0.005468 0.031868
#
#
# Mechanical properties :
#
#
# Convention : Reuss Voigt Hill
#
# Bulk Modulus (GPa) = 44.26977 59.27498 51.77237
# Shear Modulus (GPa) = 34.75852 41.77983 38.26918
#
# Velocity S-wave (km/s) = 3.93571 4.31495 4.12969
# Velocity P-wave (km/s) = 6.35464 7.15824 6.76838
#
# Compressibility (1/GPa) = 0.02258878
#
# Stress axis : x y z
#
# Youngs Moduli (GPa) = 72.89234 127.70662 81.46645
#
# Poissons Ratio (x) = 0.35011 0.01573
# Poissons Ratio (y) = 0.19984 0.21859
# Poissons Ratio (z) = 0.01407 0.34266
#
# Static dielectric constant tensor:
#      x y z
#    x 3.390320 -0.886060 0.043720 
#    y -0.886060 3.553240 -0.201880 
#    z 0.043720 -0.201880 4.277750 
# 
# 
# High freq. dielectric constant tensor:
#      x y z
#    x 1.884220 -0.011720 0.020080 
#    y -0.011720 1.901170 -0.003730 
#    z 0.020080 -0.003730 1.885940 
# 
# From -- ./inp_files/270338.got.cif
#   From: 2010.06.25/outbox.cif.g09.slc.cpg/sg2_136_cif.got.tgz:270338.got - 2010.06.27 13:26:56.
