data_PCOD8035798
_publ_section_title
;
Structure prediction by ZEFSAII (Michael W. Deem and Ramdas Pophale) SiO2 
 PCOD8035798
Probable space group: P -1
;
_chemical_formula_sum "Si O2"
_cell_formula_units_Z 14
_cell_length_a 8.162951
_cell_length_b 21.290200
_cell_length_c 8.461196
_cell_angle_alpha 147.880713
_cell_angle_beta 130.907199
_cell_angle_gamma 49.826780
_cell_volume 575.706014
_symmetry_space_group_name_H-M "P -1"
_symmetry_group_IT_number 2
_symmetry_cell_setting 'triclinic'
loop_
_space_group_symop_operation_xyz
x,y,z
-x,-y,-z
loop_
_atom_site_type_symbol
_atom_site_label
_atom_site_fract_x
_atom_site_fract_y
_atom_site_fract_z
Si Si1 0.199722 0.594725 0.145757
Si Si2 0.575865 0.861758 0.566210
Si Si3 0.905008 0.138202 0.786439
Si Si4 0.380657 0.346781 0.622020
Si Si5 0.856679 0.704710 0.922269
Si Si6 0.054894 0.801761 0.712867
Si Si7 0.551338 0.081679 0.850284
O O1 0.375325 0.644791 0.257789
O O2 0.172586 0.663357 0.444095
O O3 0.285844 0.449593 0.914839
O O4 0.964004 0.624047 0.966273
O O5 0.360770 0.828742 0.278591
O O6 0.607486 0.789607 0.598606
O O7 0.805240 0.827116 0.532662
O O8 0.527087 0.010418 0.849945
O O9 0.002854 0.177259 0.094033
O O10 0.000000 0.000000 0.500000
O O11 0.966196 0.218540 0.855794
O O12 0.203728 0.378483 0.434171
O O13 0.620081 0.791070 0.999335
O O14 0.199303 0.895415 0.945784
O O15 0.500000 0.000000 0.500000
#
# Coordination Sequence:
#
# PCOD8035798 Si02
#       7
#     2   2   2   2   2   2   2
#     4  11  26  46  74 100 139 185 241 290 334 415
#     4  12  25  44  71 101 144 180 227 286 350 414
#     4  12  25  44  69 105 145 181 228 284 353 425
#     4  11  25  47  71 101 138 189 239 280 350 410
#     4  12  23  46  72 100 140 183 234 286 351 413
#     4  12  26  45  69 106 142 182 234 285 350 411
#     4  12  24  43  69 105 141 179 223 289 353 417
#
# _framework density 24.317965999999998
#
# number of rings (size 3 to 8) (size 9 to 14) (size 15 to 20)
#    0.000    0.286    7.143    1.714    0.000    4.000 
#    0.000    0.714    0.000    0.000    0.000    0.000 
#    0.000    0.000    0.000    0.000    0.000    0.000 
#
# Total GULP energy -173439.632719 kJ/mol
# GULP energy per Si atom -12388.545194 kJ/mol
# Density = 2.426262 g / cm^3
# Si number density = 24.317966 Si / 1000 Ang^3
#
#
#
# Elastic Constant Matrix: (Units=GPa)
#
#
# Indices 1 2 3 4 5 6 
#
# 1 91.2175 31.8859 28.7411 1.7289 14.5273 -29.7825
# 2 31.8859 94.8460 26.1151 -3.1601 -1.8741 -10.2764
# 3 28.7411 26.1151 123.5913 1.6374 -26.1195 -18.4397
# 4 1.7289 -3.1601 1.6374 27.0187 -13.2740 2.3105
# 5 14.5273 -1.8741 -26.1195 -13.2740 50.5595 -5.2465
# 6 -29.7825 -10.2764 -18.4397 2.3105 -5.2465 43.4486
#
#
#
# Elastic Compliance Matrix: (Units=1/GPa)
#
#
# Indices 1 2 3 4 5 6 
#
# 1 0.017933 -0.004448 -0.003410 -0.006034 -0.007710 0.009183
# 2 -0.004448 0.012473 -0.001376 0.002703 0.001674 -0.000625
# 3 -0.003410 -0.001376 0.011214 0.002963 0.007798 0.002880
# 4 -0.006034 0.002703 0.002963 0.045103 0.014912 -0.002838
# 5 -0.007710 0.001674 0.007798 0.014912 0.030131 0.001266
# 6 0.009183 -0.000625 0.002880 -0.002838 0.001266 0.030689
#
#
# Mechanical properties :
#
#
# Convention : Reuss Voigt Hill
#
# Bulk Modulus (GPa) = 43.19545 53.68209 48.43877
# Shear Modulus (GPa) = 28.78065 39.06622 33.92343
#
# Velocity S-wave (km/s) = 3.44396 4.01243 3.73901
# Velocity P-wave (km/s) = 5.79791 6.60221 6.21309
#
# Compressibility (1/GPa) = 0.02315058
#
# Stress axis : x y z
#
# Youngs Moduli (GPa) = 55.76423 80.17127 89.17774
#
# Poissons Ratio (x) = 0.35663 0.30408
# Poissons Ratio (y) = 0.24806 0.12274
# Poissons Ratio (z) = 0.19014 0.11034
#
# Static dielectric constant tensor:
#      x y z
#    x 4.387740 -0.265840 0.200720 
#    y -0.265840 4.402650 -0.004640 
#    z 0.200720 -0.004640 4.506920 
# 
# 
# High freq. dielectric constant tensor:
#      x y z
#    x 1.970480 -0.027030 0.017940 
#    y -0.027030 1.955460 -0.003980 
#    z 0.017940 -0.003980 1.963830 
# 
# From -- ./inp_files/225770.got.cif
#   From: 2010.06.25/outbox.cif.g09.slc.cpg/sg2_113_cif.got.tgz:225770.got - 2010.06.27 13:26:56.
