data_PCOD8035951
_publ_section_title
;
Structure prediction by ZEFSAII (Michael W. Deem and Ramdas Pophale) SiO2 
 PCOD8035951
Probable space group: P -1
;
_chemical_formula_sum "Si O2"
_cell_formula_units_Z 16
_cell_length_a 17.319333
_cell_length_b 6.834961
_cell_length_c 24.002523
_cell_angle_alpha 60.498413
_cell_angle_beta 19.985631
_cell_angle_gamma 71.371896
_cell_volume 740.571606
_symmetry_space_group_name_H-M "P -1"
_symmetry_group_IT_number 2
_symmetry_cell_setting 'triclinic'
loop_
_space_group_symop_operation_xyz
x,y,z
-x,-y,-z
loop_
_atom_site_type_symbol
_atom_site_label
_atom_site_fract_x
_atom_site_fract_y
_atom_site_fract_z
Si Si1 0.102968 0.434586 0.194947
Si Si2 0.664965 0.549395 0.507162
Si Si3 0.624757 0.514210 0.668861
Si Si4 0.001852 0.005451 0.590785
Si Si5 0.247073 0.014199 0.682498
Si Si6 0.170387 0.234211 0.813729
Si Si7 0.383195 0.016477 0.237319
Si Si8 0.120740 0.462542 0.055837
O O1 0.054569 0.324759 0.180426
O O2 0.838449 0.416343 0.398137
O O3 0.141746 0.243539 0.236954
O O4 0.345312 0.722327 0.988641
O O5 0.596272 0.533853 0.620012
O O6 0.820422 0.841234 0.340618
O O7 0.407719 0.438224 0.659704
O O8 0.570965 0.229715 0.761004
O O9 0.896918 0.736415 0.476606
O O10 0.424439 0.589573 0.822737
O O11 0.230783 0.005772 0.398654
O O12 0.781659 0.998829 0.702241
O O13 0.283163 0.143908 0.699484
O O14 0.500000 0.000000 0.500000
O O15 0.007538 0.729669 0.882111
O O16 0.981932 0.332675 0.902911
O O17 0.000000 0.000000 0.000000
#
# Coordination Sequence:
#
# PCOD8035951 Si02
#       8
#     2   2   2   2   2   2   2   2
#     4  12  24  47  75 105 143 189 231 291 354 422
#     4  12  25  44  70 100 142 183 237 288 346 412
#     4  12  26  45  74 107 139 184 238 293 347 426
#     4  11  25  48  76 106 145 182 228 295 362 427
#     4  12  24  44  64  95 134 185 238 286 341 404
#     4  12  28  43  65  98 141 190 233 290 345 406
#     4  11  25  49  73 109 144 181 230 294 363 424
#     4  12  26  44  69  99 142 183 238 287 344 410
#
# _framework density 21.604932999999999
#
# number of rings (size 3 to 8) (size 9 to 14) (size 15 to 20)
#    0.000    0.250    5.000    4.125    5.250    1.000 
#    0.000    1.250    0.000    0.000    0.000    0.000 
#    0.000    0.000    0.000    0.000    0.000    0.000 
#
# Total GULP energy -198395.305233 kJ/mol
# GULP energy per Si atom -12399.706577 kJ/mol
# Density = 2.155576 g / cm^3
# Si number density = 21.604933 Si / 1000 Ang^3
#
#
#
# Elastic Constant Matrix: (Units=GPa)
#
#
# Indices 1 2 3 4 5 6 
#
# 1 150.6091 55.6220 42.4886 2.6016 16.1797 3.3393
# 2 55.6220 102.7884 35.4421 -4.1879 4.3362 9.6432
# 3 42.4886 35.4421 86.5803 -3.7740 6.3006 -3.8036
# 4 2.6016 -4.1879 -3.7740 45.7429 1.5728 2.5981
# 5 16.1797 4.3362 6.3006 1.5728 42.2664 -3.7529
# 6 3.3393 9.6432 -3.8036 2.5981 -3.7529 29.4873
#
#
#
# Elastic Compliance Matrix: (Units=1/GPa)
#
#
# Indices 1 2 3 4 5 6 
#
# 1 0.009178 -0.003903 -0.002770 -0.000994 -0.002696 -0.000376
# 2 -0.003903 0.013641 -0.003825 0.001410 0.000203 -0.004611
# 3 -0.002770 -0.003825 0.014692 0.000847 -0.000474 0.003325
# 4 -0.000994 0.001410 0.000847 0.022280 -0.000926 -0.002320
# 5 -0.002696 0.000203 -0.000474 -0.000926 0.025082 0.003452
# 6 -0.000376 -0.004611 0.003325 -0.002320 0.003452 0.036536
#
#
# Mechanical properties :
#
#
# Convention : Reuss Voigt Hill
#
# Bulk Modulus (GPa) = 60.54557 67.45368 63.99962
# Shear Modulus (GPa) = 33.80453 37.26099 35.53276
#
# Velocity S-wave (km/s) = 3.95988 4.15740 4.05984
# Velocity P-wave (km/s) = 6.99945 7.37119 7.18773
#
# Compressibility (1/GPa) = 0.01651649
#
# Stress axis : x y z
#
# Youngs Moduli (GPa) = 108.96108 73.30949 68.06277
#
# Poissons Ratio (x) = 0.28610 0.18852
# Poissons Ratio (y) = 0.42524 0.26031
# Poissons Ratio (z) = 0.30181 0.28038
#
# Static dielectric constant tensor:
#      x y z
#    x 10.086350 5.693370 -6.486800 
#    y 5.693370 9.383730 -6.272880 
#    z -6.486800 -6.272880 10.918370 
# 
# 
# High freq. dielectric constant tensor:
#      x y z
#    x 1.865260 0.002020 0.000440 
#    y 0.002020 1.855690 -0.003120 
#    z 0.000440 -0.003120 1.853130 
# 
# From -- ./inp_files/46982.got.cif
#   From: 2010.06.25/outbox.cif.g09.slc.cpg/sg2_24_cif.got.tgz:46982.got - 2010.06.27 13:26:56.
