data_PCOD8035313
_publ_section_title
;
Structure prediction by ZEFSAII (Michael W. Deem and Ramdas Pophale) SiO2 
 PCOD8035313
Probable space group: P -1
;
_chemical_formula_sum "Si O2"
_cell_formula_units_Z 10
_cell_length_a 12.563931
_cell_length_b 5.598681
_cell_length_c 8.962278
_cell_angle_alpha 91.226923
_cell_angle_beta 44.360462
_cell_angle_gamma 94.440352
_cell_volume 438.926330
_symmetry_space_group_name_H-M "P -1"
_symmetry_group_IT_number 2
_symmetry_cell_setting 'triclinic'
loop_
_space_group_symop_operation_xyz
x,y,z
-x,-y,-z
loop_
_atom_site_type_symbol
_atom_site_label
_atom_site_fract_x
_atom_site_fract_y
_atom_site_fract_z
Si Si1 0.409738 0.174136 0.493653
Si Si2 0.457663 0.747903 0.116009
Si Si3 0.102774 0.321714 0.312124
Si Si4 0.361408 0.429872 0.829909
Si Si5 0.811648 0.026017 0.538647
O O1 0.330369 0.355249 0.688475
O O2 0.534459 0.317224 0.262985
O O3 0.268712 0.056888 0.536844
O O4 0.500000 0.000000 0.500000
O O5 0.540779 0.770305 0.193904
O O6 0.273649 0.742259 0.316447
O O7 0.500000 0.500000 0.000000
O O8 0.500000 0.000000 0.000000
O O9 0.207458 0.192312 0.324728
O O10 0.000000 0.500000 0.500000
O O11 0.206872 0.453777 0.080170
O O12 0.989760 0.114390 0.340943
#
# Coordination Sequence:
#
# PCOD8035313 Si02
#       5
#     2   2   2   2   2
#     4  11  25  45  71 103 143 188 248 295 364 431
#     4  12  23  40  75 108 139 190 246 310 359 427
#     4  11  26  45  70 105 145 187 241 301 370 430
#     4  11  25  43  71 106 141 191 241 302 360 435
#     4  11  25  44  69 105 143 189 237 304 364 439
#
# _framework density 22.782865000000001
#
# number of rings (size 3 to 8) (size 9 to 14) (size 15 to 20)
#    0.000    0.800    4.000    2.400    2.800    4.000 
#    0.000    2.000    0.000    0.000    0.000    0.000 
#    0.000    0.000    0.000    0.000    0.000    0.000 
#
# Total GULP energy -123936.737024 kJ/mol
# GULP energy per Si atom -12393.673702 kJ/mol
# Density = 2.273101 g / cm^3
# Si number density = 22.782865 Si / 1000 Ang^3
#
#
#
# Elastic Constant Matrix: (Units=GPa)
#
#
# Indices 1 2 3 4 5 6 
#
# 1 157.3037 52.4120 45.2467 -0.4201 0.0291 0.9836
# 2 52.4120 124.5017 51.8744 0.6387 5.1918 -10.3943
# 3 45.2467 51.8744 154.6595 -7.3566 -0.8134 -0.0917
# 4 -0.4201 0.6387 -7.3566 49.6870 -1.8079 -1.1318
# 5 0.0291 5.1918 -0.8134 -1.8079 27.9356 1.7686
# 6 0.9836 -10.3943 -0.0917 -1.1318 1.7686 32.9158
#
#
#
# Elastic Compliance Matrix: (Units=1/GPa)
#
#
# Indices 1 2 3 4 5 6 
#
# 1 0.007674 -0.002804 -0.001307 -0.000099 0.000542 -0.001151
# 2 -0.002804 0.010796 -0.002839 -0.000587 -0.002352 0.003591
# 3 -0.001307 -0.002839 0.007862 0.001203 0.000889 -0.000842
# 4 -0.000099 -0.000587 0.001203 0.020373 0.001434 0.000445
# 5 0.000542 -0.002352 0.000889 0.001434 0.036521 -0.002669
# 6 -0.001151 0.003591 -0.000842 0.000445 -0.002669 0.031705
#
#
# Mechanical properties :
#
#
# Convention : Reuss Voigt Hill
#
# Bulk Modulus (GPa) = 80.43892 81.72568 81.08230
# Shear Modulus (GPa) = 37.60071 41.23647 39.41859
#
# Velocity S-wave (km/s) = 4.06691 4.25900 4.16406
# Velocity P-wave (km/s) = 7.57868 7.75467 7.66718
#
# Compressibility (1/GPa) = 0.01243179
#
# Stress axis : x y z
#
# Youngs Moduli (GPa) = 130.30526 92.62450 127.19695
#
# Poissons Ratio (x) = 0.25974 0.16627
# Poissons Ratio (y) = 0.36540 0.36110
# Poissons Ratio (z) = 0.17033 0.26295
#
# Static dielectric constant tensor:
#      x y z
#    x 4.885950 -0.210420 -0.017320 
#    y -0.210420 4.274190 0.117070 
#    z -0.017320 0.117070 4.376790 
# 
# 
# High freq. dielectric constant tensor:
#      x y z
#    x 1.910190 0.003760 -0.001000 
#    y 0.003760 1.910830 -0.002390 
#    z -0.001000 -0.002390 1.892420 
# 
# From -- ./inp_files/16077.got.cif
#   From: 2010.06.25/outbox.cif.g09.slc.cpg/sg2_9_cif.got.tgz:16077.got - 2010.06.27 13:26:56.
