data_PCOD8035719
_publ_section_title
;
Structure prediction by ZEFSAII (Michael W. Deem and Ramdas Pophale) SiO2 
 PCOD8035719
Probable space group: P -1
;
_chemical_formula_sum "Si O2"
_cell_formula_units_Z 16
_cell_length_a 7.904562
_cell_length_b 10.945071
_cell_length_c 14.234368
_cell_angle_alpha 130.346906
_cell_angle_beta 47.179932
_cell_angle_gamma 103.618655
_cell_volume 640.676215
_symmetry_space_group_name_H-M "P -1"
_symmetry_group_IT_number 2
_symmetry_cell_setting 'triclinic'
loop_
_space_group_symop_operation_xyz
x,y,z
-x,-y,-z
loop_
_atom_site_type_symbol
_atom_site_label
_atom_site_fract_x
_atom_site_fract_y
_atom_site_fract_z
Si Si1 0.852810 0.676041 0.701768
Si Si2 0.210044 0.162139 0.628002
Si Si3 0.047201 0.864249 0.586728
Si Si4 0.447754 0.401743 0.730645
Si Si5 0.879957 0.757523 0.944508
Si Si6 0.587068 0.310991 0.237004
Si Si7 0.250783 0.528995 0.055950
Si Si8 0.424817 0.095813 0.321803
O O1 0.911938 0.662307 0.783399
O O2 0.554708 0.732479 0.822074
O O3 0.000000 0.500000 0.500000
O O4 0.936294 0.830214 0.710269
O O5 0.318526 0.262092 0.709053
O O6 0.421276 0.090492 0.432733
O O7 0.955798 0.292726 0.743547
O O8 0.160360 0.012540 0.629391
O O9 0.269794 0.688006 0.385175
O O10 0.834714 0.919133 0.616259
O O11 0.440420 0.490447 0.674392
O O12 0.297502 0.543437 0.934302
O O13 0.834347 0.630950 0.974378
O O14 0.121494 0.795597 0.907772
O O15 0.652211 0.938060 0.115030
O O16 0.442734 0.274672 0.364210
O O17 0.500000 0.500000 0.000000
#
# Coordination Sequence:
#
# PCOD8035719 Si02
#       8
#     2   2   2   2   2   2   2   2
#     4  11  26  47  78 109 142 193 244 303 367 437
#     4  12  26  45  72 108 148 191 242 307 361 440
#     4  11  25  46  74 102 151 188 247 296 370 435
#     4  12  25  47  71 113 140 196 242 303 371 430
#     4  12  27  50  73 109 149 193 243 304 369 435
#     4  11  26  46  79 105 150 187 252 296 370 430
#     4  12  26  45  77 103 150 191 248 299 366 440
#     4  11  27  48  72 109 146 196 243 300 368 436
#
# _framework density 24.973614000000001
#
# number of rings (size 3 to 8) (size 9 to 14) (size 15 to 20)
#    0.000    0.500    2.500    4.500    5.250    4.000 
#    2.250    0.000    0.000    0.000    0.000    0.000 
#    0.000    0.000    0.000    0.000    0.000    0.000 
#
# Total GULP energy -198311.414299 kJ/mol
# GULP energy per Si atom -12394.463394 kJ/mol
# Density = 2.491677 g / cm^3
# Si number density = 24.973614 Si / 1000 Ang^3
#
#
#
# Elastic Constant Matrix: (Units=GPa)
#
#
# Indices 1 2 3 4 5 6 
#
# 1 117.2709 33.0727 60.1022 -5.6799 -26.8952 -1.1597
# 2 33.0727 163.6712 36.4752 -19.7299 0.3041 11.4560
# 3 60.1022 36.4752 118.0206 4.1057 -9.6794 -1.8116
# 4 -5.6799 -19.7299 4.1057 29.0063 -1.3022 -12.3271
# 5 -26.8952 0.3041 -9.6794 -1.3022 42.4109 -0.2929
# 6 -1.1597 11.4560 -1.8116 -12.3271 -0.2929 35.9391
#
#
#
# Elastic Compliance Matrix: (Units=1/GPa)
#
#
# Indices 1 2 3 4 5 6 
#
# 1 0.014017 -0.001091 -0.006289 0.004057 0.007599 0.001937
# 2 -0.001091 0.007404 -0.001996 0.004674 -0.001064 -0.000901
# 3 -0.006289 -0.001996 0.012338 -0.004624 -0.001304 -0.000541
# 4 0.004057 0.004674 -0.004624 0.045152 0.002966 0.013919
# 5 0.007599 -0.001064 -0.001304 0.002966 0.028211 0.001766
# 6 0.001937 -0.000901 -0.000541 0.013919 0.001766 0.032936
#
#
# Mechanical properties :
#
#
# Convention : Reuss Voigt Hill
#
# Bulk Modulus (GPa) = 66.64022 73.14031 69.89026
# Shear Modulus (GPa) = 30.52278 39.42543 34.97411
#
# Velocity S-wave (km/s) = 3.49979 3.97758 3.74631
# Velocity P-wave (km/s) = 6.56305 7.10249 6.83809
#
# Compressibility (1/GPa) = 0.01500595
#
# Stress axis : x y z
#
# Youngs Moduli (GPa) = 71.34410 135.06825 81.04922
#
# Poissons Ratio (x) = 0.14742 0.50970
# Poissons Ratio (y) = 0.07787 0.16177
# Poissons Ratio (z) = 0.44867 0.26959
#
# Static dielectric constant tensor:
#      x y z
#    x -15.479760 -20.397190 5.699910 
#    y -20.397190 -16.217900 6.022260 
#    z 5.699910 6.022260 2.559430 
# 
# 
# High freq. dielectric constant tensor:
#      x y z
#    x 2.002010 0.001180 -0.028810 
#    y 0.001180 2.014530 -0.017750 
#    z -0.028810 -0.017750 1.971480 
# 
# From -- ./inp_files/500774.got.cif
#   From: 2010.06.25/outbox.cif.g09.slc.cpg/sg2_251_cif.got.tgz:500774.got - 2010.06.27 13:26:56.
