data_PCOD8035319
_publ_section_title
;
Structure prediction by ZEFSAII (Michael W. Deem and Ramdas Pophale) SiO2 
 PCOD8035319
Probable space group: P -1
;
_chemical_formula_sum "Si O2"
_cell_formula_units_Z 14
_cell_length_a 9.594670
_cell_length_b 5.157089
_cell_length_c 12.306022
_cell_angle_alpha 73.243162
_cell_angle_beta 83.299511
_cell_angle_gamma 90.776775
_cell_volume 578.356803
_symmetry_space_group_name_H-M "P -1"
_symmetry_group_IT_number 2
_symmetry_cell_setting 'triclinic'
loop_
_space_group_symop_operation_xyz
x,y,z
-x,-y,-z
loop_
_atom_site_type_symbol
_atom_site_label
_atom_site_fract_x
_atom_site_fract_y
_atom_site_fract_z
Si Si1 0.347276 0.035932 0.964057
Si Si2 0.327768 0.044895 0.606096
Si Si3 0.188479 0.907399 0.206301
Si Si4 0.136257 0.474672 0.561751
Si Si5 0.002242 0.369108 0.241655
Si Si6 0.727057 0.387113 0.162848
Si Si7 0.370145 0.814083 0.401078
O O1 0.342147 0.322792 0.868943
O O2 0.309517 0.785347 0.919788
O O3 0.500000 0.000000 0.000000
O O4 0.237207 0.035645 0.072859
O O5 0.179122 0.178059 0.635782
O O6 0.463933 0.232222 0.611628
O O7 0.336027 0.764180 0.706004
O O8 0.337078 0.018145 0.477951
O O9 0.117158 0.609097 0.228994
O O10 0.321049 0.913028 0.275138
O O11 0.074278 0.090136 0.249312
O O12 0.274488 0.545841 0.468757
O O13 0.000000 0.500000 0.500000
O O14 0.107226 0.670183 0.642035
O O15 0.897780 0.434112 0.144180
#
# Coordination Sequence:
#
# PCOD8035319 Si02
#       7
#     2   2   2   2   2   2   2
#     4  12  28  51  77 105 144 197 248 302 369 437
#     4  11  25  45  70 112 148 193 250 302 373 437
#     4  12  27  47  72 110 146 190 247 305 361 446
#     4  12  23  43  72 107 153 196 243 299 372 445
#     4  12  26  44  74 110 146 189 243 302 377 427
#     4  12  26  48  78 105 148 194 242 309 363 439
#     4  11  25  43  72 107 150 195 242 308 368 438
#
# _framework density 24.206510000000002
#
# number of rings (size 3 to 8) (size 9 to 14) (size 15 to 20)
#    0.000    0.286    2.857    6.000    0.000    5.714 
#    2.571    0.000    0.000    0.000    0.000    0.000 
#    0.000    0.000    0.000    0.000    0.000    0.000 
#
# Total GULP energy -173553.117663 kJ/mol
# GULP energy per Si atom -12396.651262 kJ/mol
# Density = 2.415141 g / cm^3
# Si number density = 24.206510 Si / 1000 Ang^3
#
#
#
# Elastic Constant Matrix: (Units=GPa)
#
#
# Indices 1 2 3 4 5 6 
#
# 1 153.1212 30.4918 37.0257 3.3061 34.3850 4.4886
# 2 30.4918 64.4841 3.8409 7.4120 14.2743 1.5751
# 3 37.0257 3.8409 83.1234 3.2528 7.8752 12.1938
# 4 3.3061 7.4120 3.2528 41.7939 6.7709 3.7145
# 5 34.3850 14.2743 7.8752 6.7709 53.8520 3.9036
# 6 4.4886 1.5751 12.1938 3.7145 3.9036 42.2533
#
#
#
# Elastic Compliance Matrix: (Units=1/GPa)
#
#
# Indices 1 2 3 4 5 6 
#
# 1 0.008999 -0.003147 -0.003543 0.000809 -0.004534 0.000532
# 2 -0.003147 0.017794 0.000939 -0.002560 -0.002512 -0.000143
# 3 -0.003543 0.000939 0.014106 -0.000705 0.000307 -0.003696
# 4 0.000809 -0.002560 -0.000705 0.024971 -0.002749 -0.001728
# 5 -0.004534 -0.002512 0.000307 -0.002749 0.022529 -0.001353
# 6 0.000532 -0.000143 -0.003696 -0.001728 -0.001353 0.024959
#
#
# Mechanical properties :
#
#
# Convention : Reuss Voigt Hill
#
# Bulk Modulus (GPa) = 34.01813 49.27172 41.64493
# Shear Modulus (GPa) = 37.13074 42.87120 40.00097
#
# Velocity S-wave (km/s) = 3.92077 4.21296 4.06949
# Velocity P-wave (km/s) = 5.88051 6.63810 6.27076
#
# Compressibility (1/GPa) = 0.02939609
#
# Stress axis : x y z
#
# Youngs Moduli (GPa) = 111.11948 56.19995 70.89265
#
# Poissons Ratio (x) = 0.17684 0.25119
# Poissons Ratio (y) = 0.34966 -0.06654
# Poissons Ratio (z) = 0.39372 -0.05275
#
# Static dielectric constant tensor:
#      x y z
#    x 4.724250 0.259610 0.110010 
#    y 0.259610 4.682250 0.389420 
#    z 0.110010 0.389420 4.783130 
# 
# 
# High freq. dielectric constant tensor:
#      x y z
#    x 1.982720 0.011680 0.012830 
#    y 0.011680 1.962340 0.007730 
#    z 0.012830 0.007730 1.963220 
# 
# From -- ./inp_files/360630.got.cif
#   From: 2010.06.25/outbox.cif.g09.slc.cpg/sg2_181_cif.got.tgz:360630.got - 2010.06.27 13:26:56.
