data_PCOD8035782
_publ_section_title
;
Structure prediction by ZEFSAII (Michael W. Deem and Ramdas Pophale) SiO2 
 PCOD8035782
Probable space group: P -1
;
_chemical_formula_sum "Si O2"
_cell_formula_units_Z 16
_cell_length_a 24.974185
_cell_length_b 6.374845
_cell_length_c 11.429046
_cell_angle_alpha 55.071025
_cell_angle_beta 30.017153
_cell_angle_gamma 51.728666
_cell_volume 711.583352
_symmetry_space_group_name_H-M "P -1"
_symmetry_group_IT_number 2
_symmetry_cell_setting 'triclinic'
loop_
_space_group_symop_operation_xyz
x,y,z
-x,-y,-z
loop_
_atom_site_type_symbol
_atom_site_label
_atom_site_fract_x
_atom_site_fract_y
_atom_site_fract_z
Si Si1 0.408885 0.778293 0.416126
Si Si2 0.041301 0.800318 0.378013
Si Si3 0.100930 0.498369 0.899194
Si Si4 0.749556 0.081227 0.118515
Si Si5 0.032516 0.283936 0.690412
Si Si6 0.756167 0.125126 0.508149
Si Si7 0.565278 0.186253 0.265607
Si Si8 0.454391 0.814682 0.963909
O O1 0.358295 0.784485 0.639059
O O2 0.300730 0.800250 0.533719
O O3 0.506771 0.501049 0.301693
O O4 0.458584 0.024543 0.213444
O O5 0.021131 0.539716 0.551755
O O6 0.982504 0.910050 0.327028
O O7 0.172349 0.734061 0.117732
O O8 0.000000 0.000000 0.500000
O O9 0.185252 0.648699 0.636342
O O10 0.174106 0.198158 0.884808
O O11 0.000000 0.500000 0.000000
O O12 0.058640 0.652001 0.053089
O O13 0.692671 0.066430 0.106557
O O14 0.148920 0.161917 0.577425
O O15 0.663222 0.081499 0.783282
O O16 0.572976 0.125127 0.136025
O O17 0.500000 0.000000 0.500000
O O18 0.500000 0.500000 0.000000
#
# Coordination Sequence:
#
# PCOD8035782 Si02
#       8
#     2   2   2   2   2   2   2   2
#     4  12  26  50  70 109 149 192 251 309 368 447
#     4  11  25  47  68 104 142 184 241 307 361 446
#     4  12  25  48  74 106 148 191 249 309 370 454
#     4  12  25  43  78  98 141 196 235 300 377 428
#     4  11  26  45  71 104 142 184 245 298 369 447
#     4  12  26  43  76 102 144 195 238 305 376 434
#     4  12  27  47  73 108 148 190 250 306 366 450
#     4  12  27  48  71 107 152 193 252 307 365 444
#
# _framework density 22.485067000000001
#
# number of rings (size 3 to 8) (size 9 to 14) (size 15 to 20)
#    0.000    0.250    3.750    4.875    3.500    0.000 
#    0.000    0.000    0.000    0.000    0.000    0.000 
#    0.000    0.000    0.000    0.000    0.000    0.000 
#
# Total GULP energy -198234.520556 kJ/mol
# GULP energy per Si atom -12389.657535 kJ/mol
# Density = 2.243389 g / cm^3
# Si number density = 22.485067 Si / 1000 Ang^3
#
#
#
# Elastic Constant Matrix: (Units=GPa)
#
#
# Indices 1 2 3 4 5 6 
#
# 1 144.4800 19.9882 24.9773 -4.8535 -14.9990 -5.0609
# 2 19.9882 62.9067 -4.4686 2.4895 -9.9056 0.3506
# 3 24.9773 -4.4686 119.8864 -4.9907 -4.4347 15.8772
# 4 -4.8535 2.4895 -4.9907 34.7578 2.3183 -2.8283
# 5 -14.9990 -9.9056 -4.4347 2.3183 46.3206 8.3781
# 6 -5.0609 0.3506 15.8772 -2.8283 8.3781 38.4471
#
#
#
# Elastic Compliance Matrix: (Units=1/GPa)
#
#
# Indices 1 2 3 4 5 6 
#
# 1 0.007818 -0.002426 -0.001826 0.001029 0.001505 0.001553
# 2 -0.002426 0.017409 0.001474 -0.001771 0.003526 -0.001985
# 3 -0.001826 0.001474 0.009436 0.000542 0.001399 -0.004415
# 4 0.001029 -0.001771 0.000542 0.029452 -0.001922 0.002513
# 5 0.001505 0.003526 0.001399 -0.001922 0.024111 -0.005807
# 6 0.001553 -0.001985 -0.004415 0.002513 -0.005807 0.029506
#
#
# Mechanical properties :
#
#
# Convention : Reuss Voigt Hill
#
# Bulk Modulus (GPa) = 34.35823 45.36297 39.86060
# Shear Modulus (GPa) = 37.59699 43.02351 40.31025
#
# Velocity S-wave (km/s) = 4.09355 4.37902 4.23869
# Velocity P-wave (km/s) = 6.13649 6.76655 6.45921
#
# Compressibility (1/GPa) = 0.02910511
#
# Stress axis : x y z
#
# Youngs Moduli (GPa) = 127.90943 57.44306 105.98014
#
# Poissons Ratio (x) = 0.13937 0.19356
# Poissons Ratio (y) = 0.31033 -0.15622
# Poissons Ratio (z) = 0.23361 -0.08467
#
# Static dielectric constant tensor:
#      x y z
#    x 3.803850 -0.273730 0.456200 
#    y -0.273730 3.475340 0.054160 
#    z 0.456200 0.054160 3.852540 
# 
# 
# High freq. dielectric constant tensor:
#      x y z
#    x 1.910700 -0.004500 0.003440 
#    y -0.004500 1.880430 -0.006570 
#    z 0.003440 -0.006570 1.902590 
# 
# From -- ./inp_files/473352.got.cif
#   From: 2010.06.25/outbox.cif.g09.slc.cpg/sg2_237_cif.got.tgz:473352.got - 2010.06.27 13:26:56.
