data_PCOD8035092
_publ_section_title
;
Structure prediction by ZEFSAII (Michael W. Deem and Ramdas Pophale) SiO2 
 PCOD8035092
Probable space group: P -1
;
_chemical_formula_sum "Si O2"
_cell_formula_units_Z 12
_cell_length_a 12.730844
_cell_length_b 9.332008
_cell_length_c 9.664380
_cell_angle_alpha 78.146039
_cell_angle_beta 54.737577
_cell_angle_gamma 38.517467
_cell_volume 510.776609
_symmetry_space_group_name_H-M "P -1"
_symmetry_group_IT_number 2
_symmetry_cell_setting 'triclinic'
loop_
_space_group_symop_operation_xyz
x,y,z
-x,-y,-z
loop_
_atom_site_type_symbol
_atom_site_label
_atom_site_fract_x
_atom_site_fract_y
_atom_site_fract_z
Si Si1 0.980051 0.413889 0.401925
Si Si2 0.707945 0.432186 0.088983
Si Si3 0.312615 0.211695 0.982752
Si Si4 0.465492 0.905615 0.655869
Si Si5 0.179961 0.923459 0.725786
Si Si6 0.786306 0.101348 0.608956
O O1 0.720105 0.599599 0.551987
O O2 0.000000 0.500000 0.500000
O O3 0.058405 0.423291 0.200202
O O4 0.158913 0.113828 0.344756
O O5 0.783512 0.272181 0.200360
O O6 0.453668 0.621071 0.189747
O O7 0.683212 0.626319 0.106965
O O8 0.904393 0.218774 0.866489
O O9 0.500000 0.000000 0.000000
O O10 0.352323 0.070391 0.849946
O O11 0.304078 0.928192 0.722509
O O12 0.500000 0.000000 0.500000
O O13 0.279694 0.831143 0.515430
O O14 0.000000 0.000000 0.500000
#
# Coordination Sequence:
#
# PCOD8035092 Si02
#       6
#     2   2   2   2   2   2
#     4  12  24  44  72 106 142 181 233 291 348 411
#     4  11  24  48  69  98 143 179 233 286 346 420
#     4  12  24  44  73 105 137 183 232 289 347 411
#     4  12  26  45  72 106 144 186 234 288 349 419
#     4  11  27  46  69 101 142 187 230 286 352 416
#     4  12  26  44  71 101 137 183 232 290 347 416
#
# _framework density 23.493635000000001
#
# number of rings (size 3 to 8) (size 9 to 14) (size 15 to 20)
#    0.000    0.333    3.333    5.500    0.000    8.667 
#    0.000    0.000    0.000    0.000    0.000    0.000 
#    0.000    0.000    0.000    0.000    0.000    0.000 
#
# Total GULP energy -148830.528357 kJ/mol
# GULP energy per Si atom -12402.544030 kJ/mol
# Density = 2.344016 g / cm^3
# Si number density = 23.493635 Si / 1000 Ang^3
#
#
#
# Elastic Constant Matrix: (Units=GPa)
#
#
# Indices 1 2 3 4 5 6 
#
# 1 130.4923 43.2100 62.7308 6.9866 -9.0028 -3.5971
# 2 43.2100 131.2038 40.0442 10.7907 -14.2338 6.0086
# 3 62.7308 40.0442 145.3158 14.8501 -10.1671 -5.6671
# 4 6.9866 10.7907 14.8501 54.5810 -12.6997 -15.7978
# 5 -9.0028 -14.2338 -10.1671 -12.6997 44.7606 1.6109
# 6 -3.5971 6.0086 -5.6671 -15.7978 1.6109 32.6871
#
#
#
# Elastic Compliance Matrix: (Units=1/GPa)
#
#
# Indices 1 2 3 4 5 6 
#
# 1 0.010276 -0.002267 -0.003788 0.000649 0.000627 0.001174
# 2 -0.002267 0.009268 -0.001401 -0.001626 0.001822 -0.003072
# 3 -0.003788 -0.001401 0.009105 -0.001406 0.000436 0.000718
# 4 0.000649 -0.001626 -0.001406 0.023475 0.005552 0.011199
# 5 0.000627 0.001822 0.000436 0.005552 0.024675 0.001277
# 6 0.001174 -0.003072 0.000718 0.011199 0.001277 0.036761
#
#
# Mechanical properties :
#
#
# Convention : Reuss Voigt Hill
#
# Bulk Modulus (GPa) = 72.80041 77.66468 75.23254
# Shear Modulus (GPa) = 37.57931 43.80753 40.69342
#
# Velocity S-wave (km/s) = 4.00378 4.32285 4.16637
# Velocity P-wave (km/s) = 7.24073 7.61876 7.43215
#
# Compressibility (1/GPa) = 0.01373619
#
# Stress axis : x y z
#
# Youngs Moduli (GPa) = 97.31595 107.89581 109.82846
#
# Poissons Ratio (x) = 0.24462 0.41601
# Poissons Ratio (y) = 0.22063 0.15392
# Poissons Ratio (z) = 0.36862 0.15121
#
# Static dielectric constant tensor:
#      x y z
#    x 4.061870 -0.095050 -0.285830 
#    y -0.095050 4.493110 0.301360 
#    z -0.285830 0.301360 4.748020 
# 
# 
# High freq. dielectric constant tensor:
#      x y z
#    x 1.913140 -0.000740 -0.023470 
#    y -0.000740 1.950660 0.009060 
#    z -0.023470 0.009060 1.949810 
# 
# From -- ./inp_files/183704.got.cif
#   From: 2010.06.25/outbox.cif.g09.slc.cpg/sg2_92_cif.got.tgz:183704.got - 2010.06.27 13:26:56.
