data_PCOD8035455
_publ_section_title
;
Structure prediction by ZEFSAII (Michael W. Deem and Ramdas Pophale) SiO2 
 PCOD8035455
Probable space group: P -1
;
_chemical_formula_sum "Si O2"
_cell_formula_units_Z 16
_cell_length_a 5.227486
_cell_length_b 9.401213
_cell_length_c 18.340049
_cell_angle_alpha 63.952145
_cell_angle_beta 113.721211
_cell_angle_gamma 125.126732
_cell_volume 648.418607
_symmetry_space_group_name_H-M "P -1"
_symmetry_group_IT_number 2
_symmetry_cell_setting 'triclinic'
loop_
_space_group_symop_operation_xyz
x,y,z
-x,-y,-z
loop_
_atom_site_type_symbol
_atom_site_label
_atom_site_fract_x
_atom_site_fract_y
_atom_site_fract_z
Si Si1 0.608408 0.040637 0.697300
Si Si2 0.505427 0.430154 0.352328
Si Si3 0.382938 0.110050 0.510967
Si Si4 0.330168 0.203281 0.732765
Si Si5 0.626019 0.282322 0.894489
Si Si6 0.946973 0.092885 0.042358
Si Si7 0.537425 0.573801 0.907532
Si Si8 0.817830 0.365053 0.266757
O O1 0.561244 0.146371 0.600317
O O2 0.409112 0.058864 0.737305
O O3 0.975584 0.113518 0.744892
O O4 0.474017 0.833868 0.708605
O O5 0.513479 0.305694 0.445439
O O6 0.622036 0.632201 0.352561
O O7 0.756875 0.463968 0.306863
O O8 0.137066 0.349272 0.303743
O O9 0.500000 0.000000 0.500000
O O10 0.000000 0.000000 0.500000
O O11 0.613491 0.314334 0.799837
O O12 0.643433 0.452877 0.899494
O O13 0.334828 0.073576 0.911712
O O14 0.910434 0.259500 0.966340
O O15 0.225523 0.206686 0.108085
O O16 0.000000 0.000000 0.000000
O O17 0.221152 0.554340 0.834336
O O18 0.500000 0.500000 0.000000
#
# Coordination Sequence:
#
# PCOD8035455 Si02
#       8
#     2   2   2   2   2   2   2   2
#     4  12  26  46  75 109 145 192 242 302 368 439
#     4  12  25  47  74 107 145 192 238 305 362 443
#     4  12  23  46  76 107 146 189 245 300 363 438
#     4  12  28  44  72 107 149 187 238 305 374 428
#     4  11  26  46  70  98 146 189 241 309 371 437
#     4  11  25  45  68 103 137 187 246 306 369 438
#     4  12  26  44  75 105 141 194 248 305 372 442
#     4  12  26  46  74 108 141 193 252 292 367 445
#
# _framework density 24.675421
#
# number of rings (size 3 to 8) (size 9 to 14) (size 15 to 20)
#    0.000    0.250    5.000    3.375    5.250    2.000 
#    0.000    0.000    0.000    0.000    0.000    0.000 
#    0.000    0.000    0.000    0.000    0.000    0.000 
#
# Total GULP energy -198227.087855 kJ/mol
# GULP energy per Si atom -12389.192991 kJ/mol
# Density = 2.461926 g / cm^3
# Si number density = 24.675421 Si / 1000 Ang^3
#
#
#
# Elastic Constant Matrix: (Units=GPa)
#
#
# Indices 1 2 3 4 5 6 
#
# 1 98.8591 -3.3900 0.6553 16.5070 9.1586 -24.0752
# 2 -3.3900 92.0709 -23.9971 7.6481 6.2338 -19.9066
# 3 0.6553 -23.9971 74.4601 9.4011 0.2527 -9.5914
# 4 16.5070 7.6481 9.4011 44.4587 0.1961 -4.9484
# 5 9.1586 6.2338 0.2527 0.1961 37.4696 2.7705
# 6 -24.0752 -19.9066 -9.5914 -4.9484 2.7705 40.0935
#
#
#
# Elastic Compliance Matrix: (Units=1/GPa)
#
#
# Indices 1 2 3 4 5 6 
#
# 1 0.014529 0.004838 0.003669 -0.005681 -0.005213 0.011663
# 2 0.004838 0.016451 0.007505 -0.004788 -0.004878 0.012614
# 3 0.003669 0.007505 0.017750 -0.005311 -0.002956 0.009724
# 4 -0.005681 -0.004788 -0.005311 0.026093 0.002380 -0.004003
# 5 -0.005213 -0.004878 -0.002956 0.002380 0.029373 -0.007995
# 6 0.011663 0.012614 0.009724 -0.004003 -0.007995 0.040593
#
#
# Mechanical properties :
#
#
# Convention : Reuss Voigt Hill
#
# Bulk Modulus (GPa) = 12.38365 23.54738 17.96551
# Shear Modulus (GPa) = 35.79556 43.87916 39.83736
#
# Velocity S-wave (km/s) = 3.81288 4.22151 4.02239
# Velocity P-wave (km/s) = 4.94101 5.77279 5.37302
#
# Compressibility (1/GPa) = 0.08075163
#
# Stress axis : x y z
#
# Youngs Moduli (GPa) = 68.82861 60.78775 56.33910
#
# Poissons Ratio (x) = -0.29407 -0.20668
# Poissons Ratio (y) = -0.33297 -0.42283
# Poissons Ratio (z) = -0.25250 -0.45622
#
# Static dielectric constant tensor:
#      x y z
#    x 4.286180 -0.062730 0.314010 
#    y -0.062730 4.013230 -0.115980 
#    z 0.314010 -0.115980 4.494450 
# 
# 
# High freq. dielectric constant tensor:
#      x y z
#    x 1.976540 0.002470 0.009590 
#    y 0.002470 2.005450 -0.015270 
#    z 0.009590 -0.015270 1.991200 
# 
# From -- ./inp_files/125358.got.cif
#   From: 2010.06.25/outbox.cif.g09.slc.cpg/sg2_63_cif.got.tgz:125358.got - 2010.06.27 13:26:56.
