data_PCOD8035457
_publ_section_title
;
Structure prediction by ZEFSAII (Michael W. Deem and Ramdas Pophale) SiO2 
 PCOD8035457
Probable space group: P -1
;
_chemical_formula_sum "Si O2"
_cell_formula_units_Z 16
_cell_length_a 8.553989
_cell_length_b 16.445692
_cell_length_c 8.810718
_cell_angle_alpha 95.669358
_cell_angle_beta 120.272715
_cell_angle_gamma 45.746460
_cell_volume 699.651591
_symmetry_space_group_name_H-M "P -1"
_symmetry_group_IT_number 2
_symmetry_cell_setting 'triclinic'
loop_
_space_group_symop_operation_xyz
x,y,z
-x,-y,-z
loop_
_atom_site_type_symbol
_atom_site_label
_atom_site_fract_x
_atom_site_fract_y
_atom_site_fract_z
Si Si1 0.259385 0.031978 0.319797
Si Si2 0.224117 0.066617 0.962857
Si Si3 0.739416 0.354394 0.851430
Si Si4 0.148525 0.911908 0.415665
Si Si5 0.435268 0.335323 0.240977
Si Si6 0.119713 0.549694 0.535255
Si Si7 0.024850 0.401215 0.850550
Si Si8 0.195319 0.683062 0.778807
O O1 0.994452 0.172585 0.269364
O O2 0.500000 0.000000 0.500000
O O3 0.290387 0.932234 0.387500
O O4 0.295659 0.009346 0.153646
O O5 0.992434 0.214250 0.891579
O O6 0.094929 0.040043 0.795784
O O7 0.500000 0.000000 0.000000
O O8 0.449815 0.428335 0.645167
O O9 0.838514 0.409859 0.868860
O O10 0.675844 0.375501 0.003548
O O11 0.373082 0.771267 0.558439
O O12 0.000000 0.000000 0.500000
O O13 0.150974 0.454395 0.210772
O O14 0.580462 0.365545 0.244332
O O15 0.335622 0.307695 0.051102
O O16 0.965061 0.634809 0.323595
O O17 0.061615 0.642206 0.647547
O O18 0.000000 0.500000 0.500000
#
# Coordination Sequence:
#
# PCOD8035457 Si02
#       8
#     2   2   2   2   2   2   2   2
#     4  11  26  47  71 105 139 191 243 297 357 425
#     4  11  27  46  72 106 146 190 244 300 358 426
#     4  11  25  45  73 102 144 187 238 292 358 430
#     4  12  25  45  74 104 143 188 242 297 359 425
#     4  11  25  45  71 101 144 187 235 288 361 420
#     4  12  26  44  72 109 142 185 238 293 365 425
#     4  11  26  42  71 104 142 184 234 289 352 432
#     4  11  25  45  69 100 145 184 230 296 357 427
#
# _framework density 22.868525999999999
#
# number of rings (size 3 to 8) (size 9 to 14) (size 15 to 20)
#    0.000    0.750    2.500    3.375   10.500    1.000 
#    0.000    0.000    0.000    0.000    0.000    0.000 
#    0.000    0.000    0.000    0.000    0.000    0.000 
#
# Total GULP energy -198296.168765 kJ/mol
# GULP energy per Si atom -12393.510548 kJ/mol
# Density = 2.281648 g / cm^3
# Si number density = 22.868526 Si / 1000 Ang^3
#
#
#
# Elastic Constant Matrix: (Units=GPa)
#
#
# Indices 1 2 3 4 5 6 
#
# 1 153.2557 25.6627 61.1809 4.4038 6.7909 16.5067
# 2 25.6627 69.7854 13.6439 18.9690 -4.8910 -5.5132
# 3 61.1809 13.6439 160.3988 22.3084 7.4383 8.7446
# 4 4.4038 18.9690 22.3084 30.9105 2.8103 2.5901
# 5 6.7909 -4.8910 7.4383 2.8103 47.3215 2.5862
# 6 16.5067 -5.5132 8.7446 2.5901 2.5862 31.6999
#
#
#
# Elastic Compliance Matrix: (Units=1/GPa)
#
#
# Indices 1 2 3 4 5 6 
#
# 1 0.009028 -0.004287 -0.003358 0.004278 -0.001204 -0.004772
# 2 -0.004287 0.019983 0.001325 -0.013394 0.002929 0.006198
# 3 -0.003358 0.001325 0.008281 -0.006302 -0.000322 0.000236
# 4 0.004278 -0.013394 -0.006302 0.045338 -0.003359 -0.006249
# 5 -0.001204 0.002929 -0.000322 -0.003359 0.021873 -0.000285
# 6 -0.004772 0.006198 0.000236 -0.006249 -0.000285 0.035577
#
#
# Mechanical properties :
#
#
# Convention : Reuss Voigt Hill
#
# Bulk Modulus (GPa) = 40.56668 64.93499 52.75083
# Shear Modulus (GPa) = 31.06775 40.84987 35.95881
#
# Velocity S-wave (km/s) = 3.68983 4.23104 3.96967
# Velocity P-wave (km/s) = 5.99423 7.23364 6.64290
#
# Compressibility (1/GPa) = 0.02465077
#
# Stress axis : x y z
#
# Youngs Moduli (GPa) = 110.76910 50.04261 120.75826
#
# Poissons Ratio (x) = 0.21456 0.40547
# Poissons Ratio (y) = 0.47492 -0.15997
# Poissons Ratio (z) = 0.37193 -0.06629
#
# Static dielectric constant tensor:
#      x y z
#    x 4.289170 0.313580 -0.225760 
#    y 0.313580 4.248320 -0.185540 
#    z -0.225760 -0.185540 4.716570 
# 
# 
# High freq. dielectric constant tensor:
#      x y z
#    x 1.905900 0.003680 -0.000950 
#    y 0.003680 1.904980 0.003300 
#    z -0.000950 0.003300 1.923260 
# 
# From -- ./inp_files/217913.got.cif
#   From: 2010.06.25/outbox.cif.g09.slc.cpg/sg2_109_cif.got.tgz:217913.got - 2010.06.27 13:26:56.
