data_PCOD8035612
_publ_section_title
;
Structure prediction by ZEFSAII (Michael W. Deem and Ramdas Pophale) SiO2 
 PCOD8035612
Probable space group: P -1
;
_chemical_formula_sum "Si O2"
_cell_formula_units_Z 14
_cell_length_a 12.976796
_cell_length_b 9.667373
_cell_length_c 15.380323
_cell_angle_alpha 55.675035
_cell_angle_beta 28.827225
_cell_angle_gamma 44.291511
_cell_volume 638.115118
_symmetry_space_group_name_H-M "P -1"
_symmetry_group_IT_number 2
_symmetry_cell_setting 'triclinic'
loop_
_space_group_symop_operation_xyz
x,y,z
-x,-y,-z
loop_
_atom_site_type_symbol
_atom_site_label
_atom_site_fract_x
_atom_site_fract_y
_atom_site_fract_z
Si Si1 0.172060 0.291091 0.496990
Si Si2 0.278922 0.745528 0.450800
Si Si3 0.280574 0.724045 0.109459
Si Si4 0.952437 0.929326 0.970168
Si Si5 0.517438 0.696252 0.585530
Si Si6 0.546783 0.861391 0.333551
Si Si7 0.303327 0.931413 0.189259
O O1 0.386412 0.288773 0.396782
O O2 0.000000 0.500000 0.500000
O O3 0.985443 0.260575 0.703927
O O4 0.330179 0.096864 0.385675
O O5 0.315656 0.534992 0.482710
O O6 0.476782 0.720517 0.387050
O O7 0.353480 0.820286 0.283802
O O8 0.991501 0.881565 0.653432
O O9 0.338022 0.778381 0.142163
O O10 0.254108 0.879424 0.002482
O O11 0.500000 0.500000 0.000000
O O12 0.218048 0.780261 0.777864
O O13 0.828940 0.800591 0.120205
O O14 0.000000 0.000000 0.000000
O O15 0.555978 0.828859 0.441732
O O16 0.500000 0.000000 0.000000
#
# Coordination Sequence:
#
# PCOD8035612 Si02
#       7
#     2   2   2   2   2   2   2
#     4  12  24  43  70 100 139 181 232 285 344 409
#     4  11  26  44  72 101 141 188 229 284 350 418
#     4  12  26  44  71 104 137 181 236 289 343 410
#     4  12  25  43  70 101 139 178 231 287 345 409
#     4  12  26  45  70 104 139 183 233 286 348 413
#     4  12  24  47  70  97 141 184 227 287 349 408
#     4  11  25  46  68 102 145 180 232 288 347 412
#
# _framework density 21.939616000000001
#
# number of rings (size 3 to 8) (size 9 to 14) (size 15 to 20)
#    0.000    0.286    4.286    4.286    6.000    1.714 
#    0.000    0.000    0.000    0.000    0.000    0.000 
#    0.000    0.000    0.000    0.000    0.000    0.000 
#
# Total GULP energy -173628.634950 kJ/mol
# GULP energy per Si atom -12402.045354 kJ/mol
# Density = 2.188968 g / cm^3
# Si number density = 21.939616 Si / 1000 Ang^3
#
#
#
# Elastic Constant Matrix: (Units=GPa)
#
#
# Indices 1 2 3 4 5 6 
#
# 1 92.1178 16.0456 31.6933 -0.4824 -0.6660 1.2026
# 2 16.0456 90.1803 38.4809 8.4155 -0.3423 7.3536
# 3 31.6933 38.4809 165.2535 -9.3857 -10.1135 -0.2331
# 4 -0.4824 8.4155 -9.3857 33.8348 3.3157 5.4016
# 5 -0.6660 -0.3423 -10.1135 3.3157 36.3076 -3.2459
# 6 1.2026 7.3536 -0.2331 5.4016 -3.2459 39.7887
#
#
#
# Elastic Compliance Matrix: (Units=1/GPa)
#
#
# Indices 1 2 3 4 5 6 
#
# 1 0.011754 -0.001228 -0.001992 -0.000017 -0.000364 -0.000167
# 2 -0.001228 0.013127 -0.003074 -0.003768 -0.000585 -0.001943
# 3 -0.001992 -0.003074 0.007405 0.002537 0.001808 0.000475
# 4 -0.000017 -0.003768 0.002537 0.032066 -0.002602 -0.003854
# 5 -0.000364 -0.000585 0.001808 -0.002602 0.028523 0.002810
# 6 -0.000167 -0.001943 0.000475 -0.003854 0.002810 0.026252
#
#
# Mechanical properties :
#
#
# Convention : Reuss Voigt Hill
#
# Bulk Modulus (GPa) = 50.76403 57.77678 54.27041
# Shear Modulus (GPa) = 36.15867 39.40833 37.78350
#
# Velocity S-wave (km/s) = 4.06408 4.24278 4.15439
# Velocity P-wave (km/s) = 6.72389 7.09882 6.91389
#
# Compressibility (1/GPa) = 0.01969899
#
# Stress axis : x y z
#
# Youngs Moduli (GPa) = 85.07531 76.18038 135.05297
#
# Poissons Ratio (x) = 0.09351 0.26902
# Poissons Ratio (y) = 0.10443 0.41512
# Poissons Ratio (z) = 0.16947 0.23416
#
# Static dielectric constant tensor:
#      x y z
#    x 3.865320 -0.059780 -0.139130 
#    y -0.059780 4.005320 -0.006770 
#    z -0.139130 -0.006770 4.211460 
# 
# 
# High freq. dielectric constant tensor:
#      x y z
#    x 1.867580 0.000440 -0.001660 
#    y 0.000440 1.865330 -0.003850 
#    z -0.001660 -0.003850 1.880590 
# 
# From -- ./inp_files/183738.got.cif
#   From: 2010.06.25/outbox.cif.g09.slc.cpg/sg2_92_cif.got.tgz:183738.got - 2010.06.27 13:26:56.
