data_PCOD8035230
_publ_section_title
;
Structure prediction by ZEFSAII (Michael W. Deem and Ramdas Pophale) SiO2 
 PCOD8035230
Probable space group: P -1
;
_chemical_formula_sum "Si O2"
_cell_formula_units_Z 14
_cell_length_a 31.100460
_cell_length_b 12.875609
_cell_length_c 15.350606
_cell_angle_alpha 151.447957
_cell_angle_beta 162.093229
_cell_angle_gamma 19.424074
_cell_volume 617.569502
_symmetry_space_group_name_H-M "P -1"
_symmetry_group_IT_number 2
_symmetry_cell_setting 'triclinic'
loop_
_space_group_symop_operation_xyz
x,y,z
-x,-y,-z
loop_
_atom_site_type_symbol
_atom_site_label
_atom_site_fract_x
_atom_site_fract_y
_atom_site_fract_z
Si Si1 0.300267 0.726527 0.223890
Si Si2 0.985618 0.579468 0.772721
Si Si3 0.935547 0.325816 0.724539
Si Si4 0.322940 0.342794 0.370455
Si Si5 0.985330 0.735010 0.696664
Si Si6 0.785690 0.393402 0.299947
Si Si7 0.452836 0.605755 0.712039
O O1 0.500000 0.500000 0.500000
O O2 0.363008 0.602748 0.155706
O O3 0.198098 0.078242 0.285138
O O4 0.135764 0.741263 0.952002
O O5 0.047643 0.622282 0.833313
O O6 0.908362 0.420759 0.493775
O O7 0.176859 0.352232 0.039416
O O8 0.802192 0.393919 0.599725
O O9 0.796740 0.469776 0.476154
O O10 0.126915 0.949744 0.798796
O O11 0.000000 0.500000 0.000000
O O12 0.416571 0.409682 0.535006
O O13 0.500000 0.000000 0.500000
O O14 0.000000 0.500000 0.500000
O O15 0.751506 0.076254 0.492322
O O16 0.544630 0.657611 0.003388
#
# Coordination Sequence:
#
# PCOD8035230 Si02
#       7
#     2   2   2   2   2   2   2
#     4  12  25  48  78 103 151 203 252 311 378 447
#     4  12  25  48  75 111 147 200 255 309 380 455
#     4  11  24  51  74 107 150 202 254 308 373 450
#     4  12  27  45  76 108 155 197 251 314 376 448
#     4  12  28  47  73 109 155 195 252 317 374 460
#     4  11  27  44  80 109 148 199 253 311 380 450
#     4  12  27  48  71 115 150 198 256 308 387 449
#
# _framework density 22.669512999999998
#
# number of rings (size 3 to 8) (size 9 to 14) (size 15 to 20)
#    0.000    0.286    4.286    3.857    8.000    2.857 
#    0.000    0.000    0.000    0.000    0.000    0.000 
#    0.000    0.000    0.000    0.000    0.000    0.000 
#
# Total GULP energy -173635.852850 kJ/mol
# GULP energy per Si atom -12402.560918 kJ/mol
# Density = 2.261792 g / cm^3
# Si number density = 22.669513 Si / 1000 Ang^3
#
#
#
# Elastic Constant Matrix: (Units=GPa)
#
#
# Indices 1 2 3 4 5 6 
#
# 1 116.9335 35.4411 29.5965 -3.4179 -3.1627 -4.0306
# 2 35.4411 108.0962 46.7399 3.9185 -9.5682 4.2311
# 3 29.5965 46.7399 144.3558 -1.9803 -11.4856 1.0496
# 4 -3.4179 3.9185 -1.9803 43.8316 8.0291 -3.3579
# 5 -3.1627 -9.5682 -11.4856 8.0291 43.2767 -1.1133
# 6 -4.0306 4.2311 1.0496 -3.3579 -1.1133 37.7370
#
#
#
# Elastic Compliance Matrix: (Units=1/GPa)
#
#
# Indices 1 2 3 4 5 6 
#
# 1 0.009773 -0.002861 -0.001103 0.001153 -0.000387 0.001486
# 2 -0.002861 0.011834 -0.003109 -0.001895 0.001891 -0.001659
# 3 -0.001103 -0.003109 0.008273 0.000320 0.001370 0.000070
# 4 0.001153 -0.001895 0.000320 0.024122 -0.004665 0.002335
# 5 -0.000387 0.001891 0.001370 -0.004665 0.024727 0.000023
# 6 0.001486 -0.001659 0.000070 0.002335 0.000023 0.027051
#
#
# Mechanical properties :
#
#
# Convention : Reuss Voigt Hill
#
# Bulk Modulus (GPa) = 63.55636 65.88230 64.71933
# Shear Modulus (GPa) = 39.94578 42.14291 41.04435
#
# Velocity S-wave (km/s) = 4.20228 4.31630 4.25968
# Velocity P-wave (km/s) = 7.18627 7.34614 7.26665
#
# Compressibility (1/GPa) = 0.01573407
#
# Stress axis : x y z
#
# Youngs Moduli (GPa) = 102.32508 84.49983 120.87739
#
# Poissons Ratio (x) = 0.24179 0.13332
# Poissons Ratio (y) = 0.29280 0.37575
# Poissons Ratio (z) = 0.11286 0.26267
#
# Static dielectric constant tensor:
#      x y z
#    x 4.685380 0.203390 0.057210 
#    y 0.203390 4.271890 0.064710 
#    z 0.057210 0.064710 4.411310 
# 
# 
# High freq. dielectric constant tensor:
#      x y z
#    x 1.911840 0.012240 -0.008600 
#    y 0.012240 1.889690 -0.002990 
#    z -0.008600 -0.002990 1.910960 
# 
# From -- ./inp_files/544972.got.cif
#   From: 2010.06.25/outbox.cif.g09.slc.cpg/sg2_273_cif.got.tgz:544972.got - 2010.06.27 13:26:56.
