data_PCOD8035810
_publ_section_title
;
Structure prediction by ZEFSAII (Michael W. Deem and Ramdas Pophale) SiO2 
 PCOD8035810
Probable space group: P -1
;
_chemical_formula_sum "Si O2"
_cell_formula_units_Z 16
_cell_length_a 18.924827
_cell_length_b 16.334904
_cell_length_c 10.690113
_cell_angle_alpha 41.476686
_cell_angle_beta 148.019895
_cell_angle_gamma 158.539918
_cell_volume 626.399313
_symmetry_space_group_name_H-M "P -1"
_symmetry_group_IT_number 2
_symmetry_cell_setting 'triclinic'
loop_
_space_group_symop_operation_xyz
x,y,z
-x,-y,-z
loop_
_atom_site_type_symbol
_atom_site_label
_atom_site_fract_x
_atom_site_fract_y
_atom_site_fract_z
Si Si1 0.377865 0.325090 0.788360
Si Si2 0.091143 0.182299 0.276222
Si Si3 0.417234 0.024789 0.459687
Si Si4 0.850093 0.579732 0.094539
Si Si5 0.137944 0.815934 0.681996
Si Si6 0.614399 0.411029 0.413355
Si Si7 0.846711 0.940133 0.723505
Si Si8 0.414142 0.860152 0.866378
O O1 0.254068 0.286076 0.523019
O O2 0.659604 0.506484 0.980002
O O3 0.389286 0.441316 0.779836
O O4 0.201916 0.074001 0.851759
O O5 0.134260 0.357288 0.097247
O O6 0.180841 0.173948 0.301875
O O7 0.519613 0.246745 0.344546
O O8 0.500000 0.000000 0.500000
O O9 0.521570 0.047050 0.719223
O O10 0.125696 0.804893 0.303048
O O11 0.761994 0.370760 0.206520
O O12 0.248715 0.783689 0.817385
O O13 0.896566 0.590342 0.658219
O O14 0.041750 0.844369 0.406729
O O15 0.348413 0.029324 0.849027
O O16 0.432373 0.242281 0.448118
O O17 0.000000 0.000000 0.000000
#
# Coordination Sequence:
#
# PCOD8035810 Si02
#       8
#     2   2   2   2   2   2   2   2
#     4  11  26  44  80 115 150 202 253 318 391 453
#     4  11  25  47  71 117 158 195 252 312 386 463
#     4  12  29  52  73 110 151 205 261 315 388 457
#     4  12  26  46  74 107 157 199 247 316 380 457
#     4  11  26  51  77 112 149 198 263 318 372 457
#     4  12  26  47  80 110 151 199 255 319 388 452
#     4  12  25  49  73 113 159 199 247 311 390 460
#     4  11  27  51  77 106 153 205 262 316 374 452
#
# _framework density 25.542811
#
# number of rings (size 3 to 8) (size 9 to 14) (size 15 to 20)
#    0.000    0.500    3.750    3.000    5.250    1.000 
#    4.500    0.000    0.000    0.000    0.000    0.000 
#    0.000    0.000    0.000    0.000    0.000    0.000 
#
# Total GULP energy -198267.622956 kJ/mol
# GULP energy per Si atom -12391.726435 kJ/mol
# Density = 2.548467 g / cm^3
# Si number density = 25.542811 Si / 1000 Ang^3
#
#
#
# Elastic Constant Matrix: (Units=GPa)
#
#
# Indices 1 2 3 4 5 6 
#
# 1 110.1647 40.0846 44.8622 18.7683 20.4861 11.5500
# 2 40.0846 127.5930 48.3960 25.8875 22.8656 -1.2026
# 3 44.8622 48.3960 120.2253 18.5302 10.3965 10.2630
# 4 18.7683 25.8875 18.5302 37.0889 11.2030 6.6709
# 5 20.4861 22.8656 10.3965 11.2030 37.0089 3.9373
# 6 11.5500 -1.2026 10.2630 6.6709 3.9373 50.7114
#
#
#
# Elastic Compliance Matrix: (Units=1/GPa)
#
#
# Indices 1 2 3 4 5 6 
#
# 1 0.012183 -0.001499 -0.003138 -0.002009 -0.004159 -0.001588
# 2 -0.001499 0.011153 -0.003045 -0.004677 -0.004018 0.002149
# 3 -0.003138 -0.003045 0.011023 -0.001915 0.001254 -0.001434
# 4 -0.002009 -0.004677 -0.001915 0.034480 -0.005539 -0.003371
# 5 -0.004159 -0.004018 0.001254 -0.005539 0.033263 -0.001256
# 6 -0.001588 0.002149 -0.001434 -0.003371 -0.001256 0.020963
#
#
# Mechanical properties :
#
#
# Convention : Reuss Voigt Hill
#
# Bulk Modulus (GPa) = 52.64581 69.40763 61.02672
# Shear Modulus (GPa) = 34.53967 39.93785 37.23876
#
# Velocity S-wave (km/s) = 3.68125 3.95848 3.82238
# Velocity P-wave (km/s) = 6.22289 6.93721 6.58974
#
# Compressibility (1/GPa) = 0.01899486
#
# Stress axis : x y z
#
# Youngs Moduli (GPa) = 82.08352 89.66379 90.71542
#
# Poissons Ratio (x) = 0.13443 0.28463
# Poissons Ratio (y) = 0.12307 0.27624
# Poissons Ratio (z) = 0.25755 0.27304
#
# Static dielectric constant tensor:
#      x y z
#    x 4.685410 0.022120 0.175800 
#    y 0.022120 4.950000 -0.016000 
#    z 0.175800 -0.016000 4.673870 
# 
# 
# High freq. dielectric constant tensor:
#      x y z
#    x 2.023520 0.004380 0.016050 
#    y 0.004380 2.035360 0.006370 
#    z 0.016050 0.006370 2.007040 
# 
# From -- ./inp_files/472399.got.cif
#   From: 2010.06.25/outbox.cif.g09.slc.cpg/sg2_237_cif.got.tgz:472399.got - 2010.06.27 13:26:56.
