data_PCOD8035270
_publ_section_title
;
Structure prediction by ZEFSAII (Michael W. Deem and Ramdas Pophale) SiO2 
 PCOD8035270
Probable space group: P -1
;
_chemical_formula_sum "Si O2"
_cell_formula_units_Z 16
_cell_length_a 14.423105
_cell_length_b 14.597542
_cell_length_c 6.596089
_cell_angle_alpha 123.814010
_cell_angle_beta 111.263760
_cell_angle_gamma 40.176969
_cell_volume 739.319540
_symmetry_space_group_name_H-M "P -1"
_symmetry_group_IT_number 2
_symmetry_cell_setting 'triclinic'
loop_
_space_group_symop_operation_xyz
x,y,z
-x,-y,-z
loop_
_atom_site_type_symbol
_atom_site_label
_atom_site_fract_x
_atom_site_fract_y
_atom_site_fract_z
Si Si1 0.592346 0.697300 0.102828
Si Si2 0.607465 0.911848 0.158679
Si Si3 0.434474 0.439080 0.452896
Si Si4 0.872645 0.463065 0.315278
Si Si5 0.376724 0.851965 0.449534
Si Si6 0.096932 0.402889 0.151754
Si Si7 0.926178 0.006180 0.645013
Si Si8 0.147695 0.744574 0.807996
O O1 0.566408 0.843684 0.189438
O O2 0.727865 0.594774 0.234360
O O3 0.452901 0.756059 0.179332
O O4 0.627236 0.586496 0.809626
O O5 0.592577 0.042561 0.409980
O O6 0.768022 0.774972 0.032519
O O7 0.500000 0.000000 0.000000
O O8 0.500000 0.500000 0.500000
O O9 0.551829 0.270862 0.457706
O O10 0.308164 0.575895 0.673049
O O11 0.849426 0.529427 0.607304
O O12 0.921253 0.297598 0.167811
O O13 0.010805 0.404191 0.249898
O O14 0.205083 0.970435 0.480601
O O15 0.000000 0.500000 0.000000
O O16 0.850863 0.151950 0.917778
O O17 0.000000 0.000000 0.500000
O O18 0.055556 0.837515 0.647408
#
# Coordination Sequence:
#
# PCOD8035270 Si02
#       8
#     2   2   2   2   2   2   2   2
#     4  12  25  46  73 103 147 189 236 297 355 422
#     4  12  25  46  70 102 149 185 234 296 355 425
#     4  12  26  45  74 102 139 188 243 291 354 424
#     4  11  25  42  73 103 135 187 236 290 349 423
#     4  12  27  44  72 107 139 189 241 288 363 422
#     4  11  25  44  69 103 140 182 237 282 353 420
#     4  11  28  47  70 104 142 185 235 300 363 412
#     4  11  26  46  70  99 141 178 239 290 351 429
#
# _framework density 21.641521999999998
#
# number of rings (size 3 to 8) (size 9 to 14) (size 15 to 20)
#    0.000    0.500    3.750    3.375    7.000    3.000 
#    0.000    0.000    0.000    0.000    0.000    0.000 
#    0.000    0.000    0.000    0.000    0.000    0.000 
#
# Total GULP energy -198381.867981 kJ/mol
# GULP energy per Si atom -12398.866749 kJ/mol
# Density = 2.159226 g / cm^3
# Si number density = 21.641522 Si / 1000 Ang^3
#
#
#
# Elastic Constant Matrix: (Units=GPa)
#
#
# Indices 1 2 3 4 5 6 
#
# 1 121.1287 38.6705 28.3049 -6.8199 -4.7119 9.3833
# 2 38.6705 125.8397 40.6835 -16.2873 5.5163 13.2958
# 3 28.3049 40.6835 84.4453 -16.5451 0.3894 -0.5503
# 4 -6.8199 -16.2873 -16.5451 38.4638 -2.4450 -2.3425
# 5 -4.7119 5.5163 0.3894 -2.4450 39.7344 6.5431
# 6 9.3833 13.2958 -0.5503 -2.3425 6.5431 46.0282
#
#
#
# Elastic Compliance Matrix: (Units=1/GPa)
#
#
# Indices 1 2 3 4 5 6 
#
# 1 0.009655 -0.002167 -0.002242 -0.000159 0.001725 -0.001622
# 2 -0.002167 0.010449 -0.003897 0.002148 -0.001150 -0.002350
# 3 -0.002242 -0.003897 0.015406 0.004706 0.000085 0.001994
# 4 -0.000159 0.002148 0.004706 0.029033 0.001298 0.000761
# 5 0.001725 -0.001150 0.000085 0.001298 0.026216 -0.003679
# 6 -0.001622 -0.002350 0.001994 0.000761 -0.003679 0.023321
#
#
# Mechanical properties :
#
#
# Convention : Reuss Voigt Hill
#
# Bulk Modulus (GPa) = 52.91577 60.74795 56.83186
# Shear Modulus (GPa) = 36.49863 39.76228 38.13046
#
# Velocity S-wave (km/s) = 4.11117 4.29104 4.20207
# Velocity P-wave (km/s) = 6.85855 7.25822 7.06121
#
# Compressibility (1/GPa) = 0.01889796
#
# Stress axis : x y z
#
# Youngs Moduli (GPa) = 103.57063 95.70136 64.91173
#
# Poissons Ratio (x) = 0.20739 0.14553
# Poissons Ratio (y) = 0.22444 0.25296
# Poissons Ratio (z) = 0.23221 0.37294
#
# Static dielectric constant tensor:
#      x y z
#    x 4.191170 0.094370 0.059010 
#    y 0.094370 3.894550 -0.026060 
#    z 0.059010 -0.026060 4.158390 
# 
# 
# High freq. dielectric constant tensor:
#      x y z
#    x 1.867140 0.004490 -0.003940 
#    y 0.004490 1.860070 -0.001230 
#    z -0.003940 -0.001230 1.859590 
# 
# From -- ./inp_files/97578.got.cif
#   From: 2010.06.25/outbox.cif.g09.slc.cpg/sg2_49_cif.got.tgz:97578.got - 2010.06.27 13:26:56.
