data_PCOD8035254
_publ_section_title
;
Structure prediction by ZEFSAII (Michael W. Deem and Ramdas Pophale) SiO2 
 PCOD8035254
Probable space group: P -1
;
_chemical_formula_sum "Si O2"
_cell_formula_units_Z 16
_cell_length_a 8.080606
_cell_length_b 13.974964
_cell_length_c 6.608368
_cell_angle_alpha 80.192069
_cell_angle_beta 105.462376
_cell_angle_gamma 71.838712
_cell_volume 656.723798
_symmetry_space_group_name_H-M "P -1"
_symmetry_group_IT_number 2
_symmetry_cell_setting 'triclinic'
loop_
_space_group_symop_operation_xyz
x,y,z
-x,-y,-z
loop_
_atom_site_type_symbol
_atom_site_label
_atom_site_fract_x
_atom_site_fract_y
_atom_site_fract_z
Si Si1 0.885134 0.309197 0.508924
Si Si2 0.637621 0.524087 0.182849
Si Si3 0.042425 0.822651 0.794758
Si Si4 0.251399 0.399534 0.174841
Si Si5 0.067054 0.634317 0.093184
Si Si6 0.377872 0.053624 0.245303
Si Si7 0.377054 0.880476 0.993002
Si Si8 0.465536 0.690496 0.376845
O O1 0.807476 0.415339 0.316471
O O2 0.976052 0.207416 0.434924
O O3 0.018904 0.324086 0.724703
O O4 0.731382 0.288285 0.600220
O O5 0.541436 0.576449 0.339051
O O6 0.500000 0.500000 0.000000
O O7 0.702814 0.603955 0.048193
O O8 0.832715 0.877313 0.785255
O O9 0.151649 0.716135 0.997605
O O10 0.174356 0.889871 0.834569
O O11 0.215495 0.515846 0.208737
O O12 0.402914 0.312442 0.388714
O O13 0.074817 0.367224 0.128994
O O14 0.500000 0.000000 0.500000
O O15 0.350958 0.974429 0.103340
O O16 0.485384 0.120099 0.146914
O O17 0.472547 0.775916 0.190298
#
# Coordination Sequence:
#
# PCOD8035254 Si02
#       8
#     2   2   2   2   2   2   2   2
#     4  12  24  42  70 110 152 202 253 300 370 443
#     4  12  22  38  67 104 152 204 257 299 353 436
#     4  12  27  49  81 113 154 196 251 317 378 460
#     4  11  25  42  65 103 161 206 252 308 353 433
#     4  11  25  44  64 108 157 203 251 303 371 433
#     4  11  30  56  83 112 147 190 252 323 398 458
#     4  11  28  53  81 116 147 193 256 313 388 462
#     4  12  25  42  75 108 149 207 252 303 369 448
#
# _framework density 24.363363
#
# number of rings (size 3 to 8) (size 9 to 14) (size 15 to 20)
#    0.000    0.500    5.000    2.250    5.250    4.000 
#    0.000    0.000    0.000    0.000    0.000    0.000 
#    0.000    0.000    0.000    0.000    0.000    0.000 
#
# Total GULP energy -198268.289953 kJ/mol
# GULP energy per Si atom -12391.768122 kJ/mol
# Density = 2.430791 g / cm^3
# Si number density = 24.363363 Si / 1000 Ang^3
#
#
#
# Elastic Constant Matrix: (Units=GPa)
#
#
# Indices 1 2 3 4 5 6 
#
# 1 147.8799 58.1095 59.7548 3.8907 -12.1559 -0.7562
# 2 58.1095 95.6307 46.7332 17.2217 -7.0898 -2.6705
# 3 59.7548 46.7332 141.8625 6.8968 -7.5536 6.3890
# 4 3.8907 17.2217 6.8968 46.4883 -0.5174 -11.0692
# 5 -12.1559 -7.0898 -7.5536 -0.5174 38.3436 3.6638
# 6 -0.7562 -2.6705 6.3890 -11.0692 3.6638 34.0788
#
#
#
# Elastic Compliance Matrix: (Units=1/GPa)
#
#
# Indices 1 2 3 4 5 6 
#
# 1 0.009792 -0.004839 -0.002544 0.001519 0.001669 0.000629
# 2 -0.004839 0.015754 -0.002866 -0.005008 0.000751 -0.000043
# 3 -0.002544 -0.002866 0.009236 -0.000634 0.000694 -0.002293
# 4 0.001519 -0.005008 -0.000634 0.025242 -0.000999 0.008067
# 5 0.001669 0.000751 0.000694 -0.000999 0.027185 -0.003281
# 6 0.000629 -0.000043 -0.002293 0.008067 -0.003281 0.032757
#
#
# Mechanical properties :
#
#
# Convention : Reuss Voigt Hill
#
# Bulk Modulus (GPa) = 70.00878 79.39643 74.70260
# Shear Modulus (GPa) = 34.42904 38.50051 36.46478
#
# Velocity S-wave (km/s) = 3.76326 3.97956 3.87292
# Velocity P-wave (km/s) = 6.90511 7.33315 7.12235
#
# Compressibility (1/GPa) = 0.01428392
#
# Stress axis : x y z
#
# Youngs Moduli (GPa) = 102.12261 63.47418 108.27519
#
# Poissons Ratio (x) = 0.30717 0.27542
# Poissons Ratio (y) = 0.49420 0.31033
# Poissons Ratio (z) = 0.25977 0.18193
#
# Static dielectric constant tensor:
#      x y z
#    x 4.636110 0.245560 -0.016330 
#    y 0.245560 4.386820 0.262700 
#    z -0.016330 0.262700 4.640100 
# 
# 
# High freq. dielectric constant tensor:
#      x y z
#    x 1.970030 0.013330 -0.004660 
#    y 0.013330 1.954830 0.019170 
#    z -0.004660 0.019170 1.991190 
# 
# From -- ./inp_files/38081.got.cif
#   From: 2010.06.25/outbox.cif.g09.slc.cpg/sg2_20_cif.got.tgz:38081.got - 2010.06.27 13:26:56.
