data_PCOD8035801
_publ_section_title
;
Structure prediction by ZEFSAII (Michael W. Deem and Ramdas Pophale) SiO2 
 PCOD8035801
Probable space group: P -1
;
_chemical_formula_sum "Si O2"
_cell_formula_units_Z 14
_cell_length_a 18.939002
_cell_length_b 8.566391
_cell_length_c 9.062007
_cell_angle_alpha 130.889453
_cell_angle_beta 125.352051
_cell_angle_gamma 31.008146
_cell_volume 571.988382
_symmetry_space_group_name_H-M "P -1"
_symmetry_group_IT_number 2
_symmetry_cell_setting 'triclinic'
loop_
_space_group_symop_operation_xyz
x,y,z
-x,-y,-z
loop_
_atom_site_type_symbol
_atom_site_label
_atom_site_fract_x
_atom_site_fract_y
_atom_site_fract_z
Si Si1 0.172142 0.752849 0.489727
Si Si2 0.019154 0.216008 0.842924
Si Si3 0.863371 0.869813 0.535293
Si Si4 0.461971 0.492403 0.111744
Si Si5 0.348495 0.075130 0.779581
Si Si6 0.516881 0.800250 0.524319
Si Si7 0.804622 0.231754 0.971288
O O1 0.321407 0.513221 0.455081
O O2 0.117070 0.625523 0.302638
O O3 0.151704 0.865823 0.703355
O O4 0.081457 0.090452 0.505897
O O5 0.000000 0.500000 0.000000
O O6 0.049661 0.074265 0.957016
O O7 0.732119 0.976149 0.401684
O O8 0.000000 0.500000 0.500000
O O9 0.814423 0.108641 0.751235
O O10 0.448354 0.714606 0.338301
O O11 0.315702 0.657589 0.014599
O O12 0.566719 0.136688 0.099062
O O13 0.500000 0.500000 0.000000
O O14 0.448294 0.978334 0.709816
O O15 0.233456 0.459507 0.912151
O O16 0.500000 0.000000 0.500000
#
# Coordination Sequence:
#
# PCOD8035801 Si02
#       7
#     2   2   2   2   2   2   2
#     4  11  25  47  71 104 148 197 249 300 379 443
#     4  11  26  47  72 106 151 197 252 311 363 450
#     4  12  26  47  77 105 150 200 247 306 382 450
#     4  12  25  46  76 113 147 196 252 312 383 448
#     4  12  26  51  74 109 160 194 249 319 379 454
#     4  12  25  46  77 110 151 203 246 310 387 452
#     4  12  27  47  73 111 147 193 252 309 377 451
#
# _framework density 24.476022
#
# number of rings (size 3 to 8) (size 9 to 14) (size 15 to 20)
#    0.000    0.286    2.857    6.000    2.000    6.857 
#    2.571    0.000    0.000    0.000    0.000    0.000 
#    0.000    0.000    0.000    0.000    0.000    0.000 
#
# Total GULP energy -173484.253938 kJ/mol
# GULP energy per Si atom -12391.732424 kJ/mol
# Density = 2.442031 g / cm^3
# Si number density = 24.476022 Si / 1000 Ang^3
#
#
#
# Elastic Constant Matrix: (Units=GPa)
#
#
# Indices 1 2 3 4 5 6 
#
# 1 90.0618 20.4262 27.5479 0.5048 -3.4289 9.4904
# 2 20.4262 104.6115 38.0297 2.7796 -0.4547 24.6058
# 3 27.5479 38.0297 137.9373 9.4148 17.5375 3.4729
# 4 0.5048 2.7796 9.4148 41.5577 9.8158 1.3704
# 5 -3.4289 -0.4547 17.5375 9.8158 41.8017 -2.1373
# 6 9.4904 24.6058 3.4729 1.3704 -2.1373 53.7388
#
#
#
# Elastic Compliance Matrix: (Units=1/GPa)
#
#
# Indices 1 2 3 4 5 6 
#
# 1 0.012312 -0.001223 -0.002331 0.000060 0.001889 -0.001390
# 2 -0.001223 0.012133 -0.003102 -0.000190 0.001117 -0.005090
# 3 -0.002331 -0.003102 0.009085 -0.000974 -0.003751 0.001120
# 4 0.000060 -0.000190 -0.000974 0.025655 -0.005651 -0.000740
# 5 0.001889 0.001117 -0.003751 -0.005651 0.027022 0.000616
# 6 -0.001390 -0.005090 0.001120 -0.000740 0.000616 0.021155
#
#
# Mechanical properties :
#
#
# Convention : Reuss Voigt Hill
#
# Bulk Modulus (GPa) = 49.45941 56.06869 52.76405
# Shear Modulus (GPa) = 39.24270 43.86011 41.55140
#
# Velocity S-wave (km/s) = 4.00848 4.23775 4.12471
# Velocity P-wave (km/s) = 6.45562 6.84851 6.65496
#
# Compressibility (1/GPa) = 0.02021860
#
# Stress axis : x y z
#
# Youngs Moduli (GPa) = 81.22195 82.42281 110.06609
#
# Poissons Ratio (x) = 0.10081 0.25656
# Poissons Ratio (y) = 0.09934 0.34139
# Poissons Ratio (z) = 0.18933 0.25565
#
# Static dielectric constant tensor:
#      x y z
#    x 3.086740 0.936510 0.138300 
#    y 0.936510 3.707130 -0.167060 
#    z 0.138300 -0.167060 4.513540 
# 
# 
# High freq. dielectric constant tensor:
#      x y z
#    x 1.984350 0.010680 0.003130 
#    y 0.010680 1.977100 -0.003650 
#    z 0.003130 -0.003650 1.991930 
# 
# From -- ./inp_files/343883.got.cif
#   From: 2010.06.25/outbox.cif.g09.slc.cpg/sg2_172_cif.got.tgz:343883.got - 2010.06.27 13:26:56.
