data_PCOD8035900
_publ_section_title
;
Structure prediction by ZEFSAII (Michael W. Deem and Ramdas Pophale) SiO2 
 PCOD8035900
Probable space group: P -1
;
_chemical_formula_sum "Si O2"
_cell_formula_units_Z 16
_cell_length_a 12.220820
_cell_length_b 9.066229
_cell_length_c 18.942067
_cell_angle_alpha 133.277971
_cell_angle_beta 142.606797
_cell_angle_gamma 73.505682
_cell_volume 749.369878
_symmetry_space_group_name_H-M "P -1"
_symmetry_group_IT_number 2
_symmetry_cell_setting 'triclinic'
loop_
_space_group_symop_operation_xyz
x,y,z
-x,-y,-z
loop_
_atom_site_type_symbol
_atom_site_label
_atom_site_fract_x
_atom_site_fract_y
_atom_site_fract_z
Si Si1 0.157148 0.948914 0.992726
Si Si2 0.362722 0.145248 0.023047
Si Si3 0.805874 0.205622 0.299664
Si Si4 0.438155 0.955097 0.536306
Si Si5 0.072441 0.452000 0.823931
Si Si6 0.198490 0.138097 0.699795
Si Si7 0.333567 0.207454 0.304390
Si Si8 0.454244 0.629824 0.168339
O O1 0.127480 0.687103 0.882930
O O2 0.917361 0.885527 0.860394
O O3 0.231983 0.116846 0.016602
O O4 0.351579 0.117900 0.206581
O O5 0.177400 0.914292 0.802664
O O6 0.560778 0.134976 0.147760
O O7 0.467250 0.405756 0.123286
O O8 0.000000 0.500000 0.500000
O O9 0.818459 0.070136 0.328896
O O10 0.618169 0.926774 0.655265
O O11 0.187188 0.714577 0.343121
O O12 0.500000 0.000000 0.500000
O O13 0.448500 0.180581 0.653522
O O14 0.168818 0.323042 0.789519
O O15 0.203048 0.540699 0.994901
O O16 0.420350 0.271436 0.810234
O O17 0.000000 0.000000 0.500000
O O18 0.500000 0.500000 0.500000
#
# Coordination Sequence:
#
# PCOD8035900 Si02
#       8
#     2   2   2   2   2   2   2   2
#     4  11  26  45  74  99 139 185 233 289 349 417
#     4  11  27  43  69 103 140 184 227 287 349 408
#     4  11  26  44  66 104 144 180 229 281 343 414
#     4  12  29  46  73 105 142 181 239 296 349 413
#     4  12  25  46  73 105 139 189 234 282 357 418
#     4  12  25  45  76 102 147 189 231 285 349 428
#     4  11  25  48  69 102 135 183 238 288 351 412
#     4  12  26  47  70 105 145 187 236 284 351 420
#
# _framework density 21.351271000000001
#
# number of rings (size 3 to 8) (size 9 to 14) (size 15 to 20)
#    0.000    0.500    5.000    1.875    8.750    1.500 
#    0.000    0.000    0.000    0.000    0.000    0.000 
#    0.000    0.000    0.000    0.000    0.000    0.000 
#
# Total GULP energy -198315.834637 kJ/mol
# GULP energy per Si atom -12394.739665 kJ/mol
# Density = 2.130267 g / cm^3
# Si number density = 21.351271 Si / 1000 Ang^3
#
#
#
# Elastic Constant Matrix: (Units=GPa)
#
#
# Indices 1 2 3 4 5 6 
#
# 1 105.5556 52.4720 48.2408 11.9561 -18.3743 20.8919
# 2 52.4720 160.3664 61.8885 -3.2453 -10.9663 11.6458
# 3 48.2408 61.8885 150.2249 1.1145 -14.8086 14.7031
# 4 11.9561 -3.2453 1.1145 43.5662 -3.0132 -3.0991
# 5 -18.3743 -10.9663 -14.8086 -3.0132 22.5391 -4.5882
# 6 20.8919 11.6458 14.7031 -3.0991 -4.5882 35.1608
#
#
#
# Elastic Compliance Matrix: (Units=1/GPa)
#
#
# Indices 1 2 3 4 5 6 
#
# 1 0.015105 -0.003233 -0.002123 -0.004272 0.007469 -0.006419
# 2 -0.003233 0.008228 -0.002389 0.001591 0.000081 0.000346
# 3 -0.002123 -0.002389 0.008697 0.000276 0.002610 -0.001219
# 4 -0.004272 0.001591 0.000276 0.024656 0.001641 0.004283
# 5 0.007469 0.000081 0.002610 0.001641 0.052729 0.001469
# 6 -0.006419 0.000346 -0.001219 0.004283 0.001469 0.033219
#
#
# Mechanical properties :
#
#
# Convention : Reuss Voigt Hill
#
# Bulk Modulus (GPa) = 60.45530 82.37218 71.41374
# Shear Modulus (GPa) = 30.55527 37.15626 33.85577
#
# Velocity S-wave (km/s) = 3.78706 4.17614 3.98635
# Velocity P-wave (km/s) = 6.89192 7.86872 7.39646
#
# Compressibility (1/GPa) = 0.01654115
#
# Stress axis : x y z
#
# Youngs Moduli (GPa) = 66.20211 121.53251 114.97930
#
# Poissons Ratio (x) = 0.39290 0.24406
# Poissons Ratio (y) = 0.21402 0.27472
# Poissons Ratio (z) = 0.14052 0.29038
#
# Static dielectric constant tensor:
#      x y z
#    x 3.560200 -0.084470 -0.045090 
#    y -0.084470 3.986760 0.010790 
#    z -0.045090 0.010790 4.436720 
# 
# 
# High freq. dielectric constant tensor:
#      x y z
#    x 1.831430 -0.004930 -0.009420 
#    y -0.004930 1.853280 -0.008760 
#    z -0.009420 -0.008760 1.859510 
# 
# From -- ./inp_files/279062.got.cif
#   From: 2010.06.25/outbox.cif.g09.slc.cpg/sg2_140_cif.got.tgz:279062.got - 2010.06.27 13:26:56.
