data_PCOD8035235
_publ_section_title
;
Structure prediction by ZEFSAII (Michael W. Deem and Ramdas Pophale) SiO2 
 PCOD8035235
Probable space group: P -1
;
_chemical_formula_sum "Si O2"
_cell_formula_units_Z 12
_cell_length_a 4.976436
_cell_length_b 8.867510
_cell_length_c 12.057706
_cell_angle_alpha 70.868506
_cell_angle_beta 78.076231
_cell_angle_gamma 68.364552
_cell_volume 465.051581
_symmetry_space_group_name_H-M "P -1"
_symmetry_group_IT_number 2
_symmetry_cell_setting 'triclinic'
loop_
_space_group_symop_operation_xyz
x,y,z
-x,-y,-z
loop_
_atom_site_type_symbol
_atom_site_label
_atom_site_fract_x
_atom_site_fract_y
_atom_site_fract_z
Si Si1 0.121673 0.644418 0.046112
Si Si2 0.747464 0.035814 0.688517
Si Si3 0.214589 0.532673 0.595781
Si Si4 0.801445 0.788426 0.420536
Si Si5 0.015585 0.653613 0.808863
Si Si6 0.516787 0.169571 0.905724
O O1 0.776739 0.685149 0.077329
O O2 0.215181 0.450563 0.128541
O O3 0.225725 0.775081 0.076005
O O4 0.193128 0.655790 0.906887
O O5 0.547589 0.107828 0.577822
O O6 0.559375 0.145571 0.777200
O O7 0.049739 0.071527 0.651281
O O8 0.809765 0.839421 0.748522
O O9 0.500000 0.500000 0.500000
O O10 0.121515 0.364720 0.638804
O O11 0.935586 0.694419 0.545712
O O12 0.257285 0.572454 0.711184
O O13 0.500000 0.000000 0.000000
#
# Coordination Sequence:
#
# PCOD8035235 Si02
#       6
#     2   2   2   2   2   2
#     4  11  27  49  72 111 148 204 238 301 372 447
#     4  12  25  45  73 114 144 195 238 317 357 439
#     4  11  24  53  75 108 142 203 243 304 370 445
#     4  11  26  48  76 103 146 195 251 291 380 436
#     4  11  27  47  75 111 154 191 249 310 367 435
#     4  12  24  46  75 105 149 194 249 294 373 439
#
# _framework density 25.803585999999999
#
# number of rings (size 3 to 8) (size 9 to 14) (size 15 to 20)
#    0.000    0.667    3.333    3.500    2.333    5.333 
#   12.000    0.000    0.000    0.000    0.000    0.000 
#    0.000    0.000    0.000    0.000    0.000    0.000 
#
# Total GULP energy -148705.544206 kJ/mol
# GULP energy per Si atom -12392.128684 kJ/mol
# Density = 2.574486 g / cm^3
# Si number density = 25.803586 Si / 1000 Ang^3
#
#
#
# Elastic Constant Matrix: (Units=GPa)
#
#
# Indices 1 2 3 4 5 6 
#
# 1 110.0420 42.9057 39.3263 -4.3970 2.8974 10.6604
# 2 42.9057 129.5369 58.8210 -25.2336 7.2082 15.2045
# 3 39.3263 58.8210 122.0797 9.3450 5.3111 1.2207
# 4 -4.3970 -25.2336 9.3450 63.5356 -8.9583 -7.2333
# 5 2.8974 7.2082 5.3111 -8.9583 15.5990 2.9129
# 6 10.6604 15.2045 1.2207 -7.2333 2.9129 36.6780
#
#
#
# Elastic Compliance Matrix: (Units=1/GPa)
#
#
# Indices 1 2 3 4 5 6 
#
# 1 0.011068 -0.002318 -0.002437 -0.000011 0.000249 -0.002197
# 2 -0.002318 0.012441 -0.005629 0.005269 0.000235 -0.003276
# 3 -0.002437 -0.005629 0.012193 -0.004539 -0.004090 0.002065
# 4 -0.000011 0.005269 -0.004539 0.020097 0.010448 0.001104
# 5 0.000249 0.000235 -0.004090 0.010448 0.072034 -0.003694
# 6 -0.002197 -0.003276 0.002065 0.001104 -0.003694 0.029703
#
#
# Mechanical properties :
#
#
# Convention : Reuss Voigt Hill
#
# Bulk Modulus (GPa) = 66.95173 71.52941 69.24057
# Shear Modulus (GPa) = 27.28046 37.86957 32.57501
#
# Velocity S-wave (km/s) = 3.25504 3.83509 3.55691
# Velocity P-wave (km/s) = 6.33483 6.88415 6.61519
#
# Compressibility (1/GPa) = 0.01493613
#
# Stress axis : x y z
#
# Youngs Moduli (GPa) = 90.35303 80.37856 82.01369
#
# Poissons Ratio (x) = 0.18628 0.19984
# Poissons Ratio (y) = 0.20940 0.46163
# Poissons Ratio (z) = 0.22016 0.45242
#
# Static dielectric constant tensor:
#      x y z
#    x 4.478100 -0.160400 0.178900 
#    y -0.160400 5.175430 -0.175700 
#    z 0.178900 -0.175700 4.948070 
# 
# 
# High freq. dielectric constant tensor:
#      x y z
#    x 2.012860 0.005290 0.010270 
#    y 0.005290 2.056220 -0.013060 
#    z 0.010270 -0.013060 2.034930 
# 
# From -- ./inp_files/360090.got.cif
#   From: 2010.06.25/outbox.cif.g09.slc.cpg/sg2_181_cif.got.tgz:360090.got - 2010.06.27 13:26:56.
