data_PCOD8035525
_publ_section_title
;
Structure prediction by ZEFSAII (Michael W. Deem and Ramdas Pophale) SiO2 
 PCOD8035525
Probable space group: P -1
;
_chemical_formula_sum "Si O2"
_cell_formula_units_Z 12
_cell_length_a 14.116848
_cell_length_b 14.594480
_cell_length_c 11.310021
_cell_angle_alpha 151.335036
_cell_angle_beta 49.124621
_cell_angle_gamma 149.928018
_cell_volume 503.921936
_symmetry_space_group_name_H-M "P -1"
_symmetry_group_IT_number 2
_symmetry_cell_setting 'triclinic'
loop_
_space_group_symop_operation_xyz
x,y,z
-x,-y,-z
loop_
_atom_site_type_symbol
_atom_site_label
_atom_site_fract_x
_atom_site_fract_y
_atom_site_fract_z
Si Si1 0.429082 0.924685 0.836734
Si Si2 0.343920 0.242334 0.236506
Si Si3 0.826899 0.281179 0.793599
Si Si4 0.417135 0.393912 0.785841
Si Si5 0.791511 0.627638 0.771374
Si Si6 0.883994 0.637387 0.949095
O O1 0.278678 0.567105 0.512008
O O2 0.634584 0.174193 0.871109
O O3 0.500000 0.000000 0.000000
O O4 0.311401 0.975485 0.963057
O O5 0.500000 0.500000 0.500000
O O6 0.443729 0.442285 0.262097
O O7 0.106007 0.026008 0.210932
O O8 0.768140 0.988574 0.493719
O O9 0.901819 0.466854 0.819239
O O10 0.000000 0.500000 0.000000
O O11 0.609589 0.550260 0.888861
O O12 0.310020 0.467401 0.968745
O O13 0.835584 0.527602 0.726834
O O14 0.000000 0.000000 0.000000
#
# Coordination Sequence:
#
# PCOD8035525 Si02
#       6
#     2   2   2   2   2   2
#     4  11  25  46  73 109 155 194 256 315 367 457
#     4  12  25  45  74 108 150 203 250 308 381 445
#     4  11  25  45  72 112 149 198 253 310 380 443
#     4  11  25  48  70 110 150 194 252 311 374 451
#     4  11  25  49  77 110 152 203 250 311 386 446
#     4  12  26  47  76 108 151 199 251 315 377 450
#
# _framework density 23.813213000000001
#
# number of rings (size 3 to 8) (size 9 to 14) (size 15 to 20)
#    0.000    0.667    3.333    4.500    2.333    6.000 
#    3.000    0.000    0.000    0.000    0.000    0.000 
#    0.000    0.000    0.000    0.000    0.000    0.000 
#
# Total GULP energy -148691.339777 kJ/mol
# GULP energy per Si atom -12390.944981 kJ/mol
# Density = 2.375901 g / cm^3
# Si number density = 23.813213 Si / 1000 Ang^3
#
#
#
# Elastic Constant Matrix: (Units=GPa)
#
#
# Indices 1 2 3 4 5 6 
#
# 1 130.9286 24.2274 45.3917 15.5475 3.9893 -21.1893
# 2 24.2274 98.7825 35.9783 23.9239 2.5234 -1.2874
# 3 45.3917 35.9783 125.7505 22.8919 7.4645 2.7838
# 4 15.5475 23.9239 22.8919 35.1791 5.8248 -2.6271
# 5 3.9893 2.5234 7.4645 5.8248 46.3863 6.2767
# 6 -21.1893 -1.2874 2.7838 -2.6271 6.2767 54.3409
#
#
#
# Elastic Compliance Matrix: (Units=1/GPa)
#
#
# Indices 1 2 3 4 5 6 
#
# 1 0.009665 -0.000880 -0.003050 -0.001286 -0.000661 0.003918
# 2 -0.000880 0.012794 -0.002083 -0.007090 0.000653 -0.000352
# 3 -0.003050 -0.002083 0.010470 -0.004103 -0.000535 -0.001912
# 4 -0.001286 -0.007090 -0.004103 0.037241 -0.003760 0.001776
# 5 -0.000661 0.000653 -0.000535 -0.003760 0.022544 -0.003001
# 6 0.003918 -0.000352 -0.001912 0.001776 -0.003001 0.020452
#
#
# Mechanical properties :
#
#
# Convention : Reuss Voigt Hill
#
# Bulk Modulus (GPa) = 47.84152 62.96183 55.40168
# Shear Modulus (GPa) = 37.83275 43.83886 40.83580
#
# Velocity S-wave (km/s) = 3.99021 4.29528 4.14555
# Velocity P-wave (km/s) = 6.43141 7.14818 6.79925
#
# Compressibility (1/GPa) = 0.02090235
#
# Stress axis : x y z
#
# Youngs Moduli (GPa) = 103.46466 78.16352 95.50868
#
# Poissons Ratio (x) = 0.06879 0.29134
# Poissons Ratio (y) = 0.09106 0.19894
# Poissons Ratio (z) = 0.31561 0.16281
#
# Static dielectric constant tensor:
#      x y z
#    x 4.239630 -0.142160 -0.063250 
#    y -0.142160 4.404380 -0.050830 
#    z -0.063250 -0.050830 3.943770 
# 
# 
# High freq. dielectric constant tensor:
#      x y z
#    x 1.976240 0.000950 0.006100 
#    y 0.000950 1.959590 0.012980 
#    z 0.006100 0.012980 1.922240 
# 
# From -- ./inp_files/301317.got.cif
#   From: 2010.06.25/outbox.cif.g09.slc.cpg/sg2_151_cif.got.tgz:301317.got - 2010.06.27 13:26:56.
