data_PCOD8035544
_publ_section_title
;
Structure prediction by ZEFSAII (Michael W. Deem and Ramdas Pophale) SiO2 
 PCOD8035544
Probable space group: P -1
;
_chemical_formula_sum "Si O2"
_cell_formula_units_Z 16
_cell_length_a 9.474153
_cell_length_b 11.736981
_cell_length_c 8.700269
_cell_angle_alpha 100.755180
_cell_angle_beta 76.195945
_cell_angle_gamma 125.223496
_cell_volume 766.028192
_symmetry_space_group_name_H-M "P -1"
_symmetry_group_IT_number 2
_symmetry_cell_setting 'triclinic'
loop_
_space_group_symop_operation_xyz
x,y,z
-x,-y,-z
loop_
_atom_site_type_symbol
_atom_site_label
_atom_site_fract_x
_atom_site_fract_y
_atom_site_fract_z
Si Si1 0.190762 0.098200 0.409809
Si Si2 0.022002 0.627786 0.432725
Si Si3 0.165543 0.587046 0.081303
Si Si4 0.520180 0.126445 0.935558
Si Si5 0.690943 0.588948 0.038990
Si Si6 0.338430 0.917805 0.410031
Si Si7 0.686950 0.615063 0.412886
Si Si8 0.820844 0.878905 0.941709
O O1 0.288253 0.237778 0.522397
O O2 0.175459 0.129014 0.244761
O O3 0.293369 0.022933 0.376759
O O4 0.000000 0.000000 0.500000
O O5 0.101015 0.633806 0.250295
O O6 0.167042 0.782905 0.503499
O O7 0.000000 0.500000 0.500000
O O8 0.835336 0.607619 0.460990
O O9 0.330932 0.724345 0.988222
O O10 0.219946 0.481569 0.081533
O O11 0.000000 0.500000 0.000000
O O12 0.589650 0.135538 0.750739
O O13 0.334456 0.105689 0.963747
O O14 0.500000 0.000000 0.000000
O O15 0.694312 0.590575 0.223767
O O16 0.500000 0.500000 0.000000
O O17 0.796111 0.743219 0.986735
O O18 0.500000 0.000000 0.500000
O O19 0.500000 0.500000 0.500000
O O20 0.000000 0.000000 0.000000
#
# Coordination Sequence:
#
# PCOD8035544 Si02
#       8
#     2   2   2   2   2   2   2   2
#     4  12  26  48  70 103 147 183 235 285 352 422
#     4  11  27  47  69 105 139 180 234 286 350 418
#     4  11  25  45  73  96 136 184 231 286 344 405
#     4  11  25  46  69 101 137 176 238 285 338 416
#     4  12  26  48  70 103 144 186 240 285 347 418
#     4  11  27  46  73 100 139 185 228 290 351 413
#     4  12  28  44  74 104 146 187 230 291 351 417
#     4  12  28  44  74 104 140 190 232 290 350 413
#
# _framework density 20.886959999999998
#
# number of rings (size 3 to 8) (size 9 to 14) (size 15 to 20)
#    0.000    0.500    5.000    1.500   10.500    1.000 
#    0.000    0.000    0.000    0.000    0.000    0.000 
#    0.000    0.000    0.000    0.000    0.000    0.000 
#
# Total GULP energy -198366.070239 kJ/mol
# GULP energy per Si atom -12397.879390 kJ/mol
# Density = 2.083942 g / cm^3
# Si number density = 20.886960 Si / 1000 Ang^3
#
#
#
# Elastic Constant Matrix: (Units=GPa)
#
#
# Indices 1 2 3 4 5 6 
#
# 1 155.5477 77.1205 20.6590 -0.9052 -5.2540 18.6427
# 2 77.1205 190.7300 25.8007 -4.5748 7.9970 15.4784
# 3 20.6590 25.8007 64.9218 -3.0336 1.0272 13.6820
# 4 -0.9052 -4.5748 -3.0336 38.8139 -0.4369 4.0203
# 5 -5.2540 7.9970 1.0272 -0.4369 41.9370 4.1234
# 6 18.6427 15.4784 13.6820 4.0203 4.1234 49.0123
#
#
#
# Elastic Compliance Matrix: (Units=1/GPa)
#
#
# Indices 1 2 3 4 5 6 
#
# 1 0.008462 -0.003195 -0.001015 -0.000021 0.001899 -0.002084
# 2 -0.003195 0.006865 -0.001565 0.000639 -0.001622 -0.000432
# 3 -0.001015 -0.001565 0.017280 0.001568 0.000166 -0.004086
# 4 -0.000021 0.000639 0.001568 0.026257 0.000388 -0.002818
# 5 0.001899 -0.001622 0.000166 0.000388 0.024624 -0.002360
# 6 -0.002084 -0.000432 -0.004086 -0.002818 -0.002360 0.022903
#
#
# Mechanical properties :
#
#
# Convention : Reuss Voigt Hill
#
# Bulk Modulus (GPa) = 47.49050 73.15110 60.32080
# Shear Modulus (GPa) = 40.01304 45.12726 42.57015
#
# Velocity S-wave (km/s) = 4.38161 4.65321 4.51945
# Velocity P-wave (km/s) = 6.95588 7.99801 7.49508
#
# Compressibility (1/GPa) = 0.02105684
#
# Stress axis : x y z
#
# Youngs Moduli (GPa) = 118.18066 145.66601 57.87140
#
# Poissons Ratio (x) = 0.46542 0.05872
# Poissons Ratio (y) = 0.37760 0.09057
# Poissons Ratio (z) = 0.11991 0.22797
#
# Static dielectric constant tensor:
#      x y z
#    x 3.538990 1.097480 0.153710 
#    y 1.097480 1.987590 -0.672020 
#    z 0.153710 -0.672020 3.469280 
# 
# 
# High freq. dielectric constant tensor:
#      x y z
#    x 1.837970 0.004460 -0.010430 
#    y 0.004460 1.845780 0.005490 
#    z -0.010430 0.005490 1.813610 
# 
# From -- ./inp_files/188468.got.cif
#   From: 2010.06.25/outbox.cif.g09.slc.cpg/sg2_95_cif.got.tgz:188468.got - 2010.06.27 13:26:56.
