data_PCOD8035153
_publ_section_title
;
Structure prediction by ZEFSAII (Michael W. Deem and Ramdas Pophale) SiO2 
 PCOD8035153
Probable space group: P -1
;
_chemical_formula_sum "Si O2"
_cell_formula_units_Z 16
_cell_length_a 9.494651
_cell_length_b 11.697374
_cell_length_c 8.475428
_cell_angle_alpha 104.115828
_cell_angle_beta 103.332645
_cell_angle_gamma 50.725833
_cell_volume 703.031927
_symmetry_space_group_name_H-M "P -1"
_symmetry_group_IT_number 2
_symmetry_cell_setting 'triclinic'
loop_
_space_group_symop_operation_xyz
x,y,z
-x,-y,-z
loop_
_atom_site_type_symbol
_atom_site_label
_atom_site_fract_x
_atom_site_fract_y
_atom_site_fract_z
Si Si1 0.787204 0.941099 0.145674
Si Si2 0.146858 0.902808 0.293638
Si Si3 0.061991 0.334312 0.107131
Si Si4 0.579960 0.187045 0.920872
Si Si5 0.631826 0.887599 0.362270
Si Si6 0.733849 0.549866 0.894138
Si Si7 0.955930 0.776965 0.599767
Si Si8 0.703130 0.372548 0.567983
O O1 0.654600 0.980340 0.271133
O O2 0.942760 0.955317 0.241593
O O3 0.876865 0.773956 0.061829
O O4 0.667044 0.045171 0.005594
O O5 0.258524 0.825626 0.134026
O O6 0.257694 0.782532 0.423244
O O7 0.128978 0.049676 0.375905
O O8 0.205667 0.370066 0.173383
O O9 0.052255 0.262874 0.237827
O O10 0.862128 0.481146 0.058653
O O11 0.446103 0.192202 0.762016
O O12 0.471494 0.332561 0.052545
O O13 0.828558 0.759477 0.448782
O O14 0.500000 0.000000 0.500000
O O15 0.744955 0.427443 0.752322
O O16 0.162717 0.663853 0.554112
O O17 0.500000 0.500000 0.500000
#
# Coordination Sequence:
#
# PCOD8035153 Si02
#       8
#     2   2   2   2   2   2   2   2
#     4  12  24  47  74 105 146 190 252 299 367 432
#     4  12  26  48  75 107 147 191 249 306 364 431
#     4  11  24  48  76 103 143 197 245 298 371 433
#     4  12  27  43  78 111 139 197 249 304 364 435
#     4  12  24  44  71 112 150 182 245 313 361 430
#     4  11  27  48  71 105 151 192 240 306 362 453
#     4  12  27  47  77 108 145 197 251 311 366 427
#     4  12  30  50  71 108 155 198 241 300 383 445
#
# _framework density 22.758569000000001
#
# number of rings (size 3 to 8) (size 9 to 14) (size 15 to 20)
#    0.000    0.250    6.250    1.125    7.000    2.000 
#    0.000    0.000    0.000    0.000    0.000    0.000 
#    0.000    0.000    0.000    0.000    0.000    0.000 
#
# Total GULP energy -198473.696435 kJ/mol
# GULP energy per Si atom -12404.606027 kJ/mol
# Density = 2.270677 g / cm^3
# Si number density = 22.758569 Si / 1000 Ang^3
#
#
#
# Elastic Constant Matrix: (Units=GPa)
#
#
# Indices 1 2 3 4 5 6 
#
# 1 103.9888 35.8956 48.9717 -3.4214 -26.2614 -6.7950
# 2 35.8956 101.4142 35.8257 -4.2720 -7.1613 -8.8242
# 3 48.9717 35.8257 103.8689 -9.8637 -21.1045 0.3415
# 4 -3.4214 -4.2720 -9.8637 33.8139 -7.5052 -2.3875
# 5 -26.2614 -7.1613 -21.1045 -7.5052 45.2525 5.3735
# 6 -6.7950 -8.8242 0.3415 -2.3875 5.3735 38.9271
#
#
#
# Elastic Compliance Matrix: (Units=1/GPa)
#
#
# Indices 1 2 3 4 5 6 
#
# 1 0.014304 -0.002935 -0.004444 0.001153 0.005820 0.001138
# 2 -0.002935 0.012107 -0.003087 0.000176 -0.001491 0.002476
# 3 -0.004444 -0.003087 0.014081 0.004109 0.004413 -0.001956
# 4 0.001153 0.000176 0.004109 0.032746 0.007911 0.001121
# 5 0.005820 -0.001491 0.004413 0.007911 0.028951 -0.002872
# 6 0.001138 0.002476 -0.001956 0.001121 -0.002872 0.026931
#
#
# Mechanical properties :
#
#
# Convention : Reuss Voigt Hill
#
# Bulk Modulus (GPa) = 51.11939 61.18419 56.15179
# Shear Modulus (GPa) = 31.93423 36.17062 34.05242
#
# Velocity S-wave (km/s) = 3.74996 3.99095 3.87233
# Velocity P-wave (km/s) = 6.42339 6.94113 6.68727
#
# Compressibility (1/GPa) = 0.01956205
#
# Stress axis : x y z
#
# Youngs Moduli (GPa) = 69.90942 82.59504 71.01961
#
# Poissons Ratio (x) = 0.24239 0.31558
# Poissons Ratio (y) = 0.20516 0.21922
# Poissons Ratio (z) = 0.31065 0.25495
#
# Static dielectric constant tensor:
#      x y z
#    x 4.387770 -0.164360 -0.108020 
#    y -0.164360 4.083400 0.010980 
#    z -0.108020 0.010980 4.098320 
# 
# 
# High freq. dielectric constant tensor:
#      x y z
#    x 1.907780 -0.010650 -0.009830 
#    y -0.010650 1.896720 0.000490 
#    z -0.009830 0.000490 1.904440 
# 
# From -- ./inp_files/188656.got.cif
#   From: 2010.06.25/outbox.cif.g09.slc.cpg/sg2_95_cif.got.tgz:188656.got - 2010.06.27 13:26:56.
