data_PCOD8035840
_publ_section_title
;
Structure prediction by ZEFSAII (Michael W. Deem and Ramdas Pophale) SiO2 
 PCOD8035840
Probable space group: P -1
;
_chemical_formula_sum "Si O2"
_cell_formula_units_Z 14
_cell_length_a 11.831647
_cell_length_b 12.057213
_cell_length_c 11.958250
_cell_angle_alpha 36.826168
_cell_angle_beta 38.384830
_cell_angle_gamma 54.705099
_cell_volume 629.242133
_symmetry_space_group_name_H-M "P -1"
_symmetry_group_IT_number 2
_symmetry_cell_setting 'triclinic'
loop_
_space_group_symop_operation_xyz
x,y,z
-x,-y,-z
loop_
_atom_site_type_symbol
_atom_site_label
_atom_site_fract_x
_atom_site_fract_y
_atom_site_fract_z
Si Si1 0.387795 0.674102 0.039683
Si Si2 0.129406 0.506970 0.723885
Si Si3 0.784992 0.995680 0.163105
Si Si4 0.743061 0.922184 0.492224
Si Si5 0.914728 0.581861 0.610064
Si Si6 0.578105 0.601458 0.564411
Si Si7 0.806954 0.278519 0.287650
O O1 0.291645 0.532063 0.134298
O O2 0.402127 0.571502 0.229417
O O3 0.581703 0.759529 0.773920
O O4 0.267422 0.847018 0.008562
O O5 0.323549 0.436640 0.598979
O O6 0.167513 0.691782 0.622735
O O7 0.030489 0.542865 0.657862
O O8 0.997203 0.351600 0.019640
O O9 0.713425 0.040964 0.307544
O O10 0.684666 0.792414 0.374891
O O11 0.000000 0.000000 0.000000
O O12 0.912608 0.805602 0.428725
O O13 0.769533 0.058285 0.468613
O O14 0.000000 0.500000 0.500000
O O15 0.362899 0.615167 0.704476
#
# Coordination Sequence:
#
# PCOD8035840 Si02
#       7
#     2   2   2   2   2   2   2
#     4  12  24  40  69 108 136 184 226 294 369 404
#     4  11  25  47  73  98 144 192 239 289 349 427
#     4  12  25  40  68 107 144 183 234 298 357 415
#     4  12  24  42  68 104 144 179 237 293 350 435
#     4  12  23  42  70 103 138 180 229 296 358 408
#     4  12  24  47  72 103 144 183 241 294 352 422
#     4  11  26  47  71 102 140 200 234 284 358 417
#
# _framework density 22.248988000000001
#
# number of rings (size 3 to 8) (size 9 to 14) (size 15 to 20)
#    0.000    0.286    4.286    5.571    2.000    0.571 
#    0.000    0.714    0.000    0.000    0.000    0.000 
#    0.000    0.000    0.000    0.000    0.000    0.000 
#
# Total GULP energy -173535.683836 kJ/mol
# GULP energy per Si atom -12395.405988 kJ/mol
# Density = 2.219835 g / cm^3
# Si number density = 22.248988 Si / 1000 Ang^3
#
#
#
# Elastic Constant Matrix: (Units=GPa)
#
#
# Indices 1 2 3 4 5 6 
#
# 1 80.9816 46.4771 36.4330 -4.0966 3.6988 29.6089
# 2 46.4771 152.2889 48.3496 -5.7010 2.9030 16.3711
# 3 36.4330 48.3496 88.3445 -2.5825 -4.2407 3.5556
# 4 -4.0966 -5.7010 -2.5825 37.3471 -3.3564 2.0123
# 5 3.6988 2.9030 -4.2407 -3.3564 29.9924 -3.0025
# 6 29.6089 16.3711 3.5556 2.0123 -3.0025 37.9944
#
#
#
# Elastic Compliance Matrix: (Units=1/GPa)
#
#
# Indices 1 2 3 4 5 6 
#
# 1 0.024317 -0.002824 -0.007973 0.002147 -0.005367 -0.017526
# 2 -0.002824 0.008769 -0.003609 0.000757 -0.001063 -0.001365
# 3 -0.007973 -0.003609 0.016517 -0.000251 0.004298 0.006575
# 4 0.002147 0.000757 -0.000251 0.027498 0.002379 -0.003244
# 5 -0.005367 -0.001063 0.004298 0.002379 0.035674 0.006931
# 6 -0.017526 -0.001365 0.006575 -0.003244 0.006931 0.040670
#
#
# Mechanical properties :
#
#
# Convention : Reuss Voigt Hill
#
# Bulk Modulus (GPa) = 48.09258 64.90382 56.49820
# Shear Modulus (GPa) = 26.42900 33.75713 30.09306
#
# Velocity S-wave (km/s) = 3.45029 3.89941 3.68170
# Velocity P-wave (km/s) = 6.12660 7.03624 6.59712
#
# Compressibility (1/GPa) = 0.02079323
#
# Stress axis : x y z
#
# Youngs Moduli (GPa) = 41.12295 114.03525 60.54527
#
# Poissons Ratio (x) = 0.32198 0.48270
# Poissons Ratio (y) = 0.11611 0.21850
# Poissons Ratio (z) = 0.32786 0.41153
#
# Static dielectric constant tensor:
#      x y z
#    x -0.877190 -2.873470 1.323710 
#    y -2.873470 2.816310 1.008900 
#    z 1.323710 1.008900 3.891070 
# 
# 
# High freq. dielectric constant tensor:
#      x y z
#    x 1.861870 -0.008430 -0.013770 
#    y -0.008430 1.892150 0.010480 
#    z -0.013770 0.010480 1.887500 
# 
# From -- ./inp_files/280033.got.cif
#   From: 2010.06.25/outbox.cif.g09.slc.cpg/sg2_141_cif.got.tgz:280033.got - 2010.06.27 13:26:56.
