data_PCOD8035591
_publ_section_title
;
Structure prediction by ZEFSAII (Michael W. Deem and Ramdas Pophale) SiO2 
 PCOD8035591
Probable space group: P -1
;
_chemical_formula_sum "Si O2"
_cell_formula_units_Z 14
_cell_length_a 16.447320
_cell_length_b 5.217451
_cell_length_c 10.805782
_cell_angle_alpha 65.419011
_cell_angle_beta 139.262094
_cell_angle_gamma 110.870240
_cell_volume 548.980751
_symmetry_space_group_name_H-M "P -1"
_symmetry_group_IT_number 2
_symmetry_cell_setting 'triclinic'
loop_
_space_group_symop_operation_xyz
x,y,z
-x,-y,-z
loop_
_atom_site_type_symbol
_atom_site_label
_atom_site_fract_x
_atom_site_fract_y
_atom_site_fract_z
Si Si1 0.321503 0.119749 0.119854
Si Si2 0.647106 0.517566 0.677291
Si Si3 0.113630 0.466207 0.731941
Si Si4 0.948772 0.171451 0.795392
Si Si5 0.294244 0.971028 0.773478
Si Si6 0.198328 0.324302 0.406885
Si Si7 0.488003 0.795966 0.866956
O O1 0.304578 0.279253 0.196741
O O2 0.465664 0.198233 0.223578
O O3 0.297731 0.785887 0.177547
O O4 0.219081 0.232664 0.878729
O O5 0.500000 0.500000 0.500000
O O6 0.695396 0.660245 0.577518
O O7 0.187445 0.770482 0.753923
O O8 0.000000 0.500000 0.500000
O O9 0.055018 0.384610 0.813790
O O10 0.852529 0.368778 0.707995
O O11 0.898034 0.944479 0.680323
O O12 0.000000 0.000000 0.000000
O O13 0.346739 0.871659 0.717661
O O14 0.244815 0.270253 0.613117
O O15 0.409815 0.978612 0.998492
O O16 0.500000 0.500000 0.000000
#
# Coordination Sequence:
#
# PCOD8035591 Si02
#       7
#     2   2   2   2   2   2   2
#     4  12  27  49  76 114 155 199 266 322 390 467
#     4  12  27  50  78 114 150 204 259 329 397 468
#     4  12  26  50  75 115 160 212 261 316 386 468
#     4  12  28  50  76 109 152 208 260 314 381 453
#     4  11  26  47  74 116 153 201 256 319 390 468
#     4  12  27  47  77 106 153 195 260 314 380 455
#     4  11  25  45  77 107 153 195 247 327 396 450
#
# _framework density 25.501805999999998
#
# number of rings (size 3 to 8) (size 9 to 14) (size 15 to 20)
#    0.000    0.286    2.857    5.143    8.000    2.857 
#    0.000    0.000    0.000    0.000    0.000    0.000 
#    0.000    0.000    0.000    0.000    0.000    0.000 
#
# Total GULP energy -173504.078472 kJ/mol
# GULP energy per Si atom -12393.148462 kJ/mol
# Density = 2.544376 g / cm^3
# Si number density = 25.501806 Si / 1000 Ang^3
#
#
#
# Elastic Constant Matrix: (Units=GPa)
#
#
# Indices 1 2 3 4 5 6 
#
# 1 93.8676 30.3888 20.6756 -10.7295 -10.6108 24.8361
# 2 30.3888 118.1847 39.5397 -17.3612 -7.0894 -0.6272
# 3 20.6756 39.5397 136.9246 -20.3763 -3.0453 3.8492
# 4 -10.7295 -17.3612 -20.3763 45.1448 7.9303 -1.8913
# 5 -10.6108 -7.0894 -3.0453 7.9303 43.4708 -11.4372
# 6 24.8361 -0.6272 3.8492 -1.8913 -11.4372 54.5861
#
#
#
# Elastic Compliance Matrix: (Units=1/GPa)
#
#
# Indices 1 2 3 4 5 6 
#
# 1 0.013637 -0.003019 -0.000806 0.001295 0.000983 -0.005932
# 2 -0.003019 0.010375 -0.002250 0.002178 0.000904 0.001916
# 3 -0.000806 -0.002250 0.008496 0.002866 -0.000564 -0.000277
# 4 0.001295 0.002178 0.002866 0.025249 -0.003922 -0.000713
# 5 0.000983 0.000904 -0.000564 -0.003922 0.025323 0.004773
# 6 -0.005932 0.001916 -0.000277 -0.000713 0.004773 0.022035
#
#
# Mechanical properties :
#
#
# Convention : Reuss Voigt Hill
#
# Bulk Modulus (GPa) = 49.11976 58.90946 54.01461
# Shear Modulus (GPa) = 40.30616 45.86520 43.08568
#
# Velocity S-wave (km/s) = 3.97989 4.24548 4.11483
# Velocity P-wave (km/s) = 6.35787 6.86895 6.61834
#
# Compressibility (1/GPa) = 0.02035841
#
# Stress axis : x y z
#
# Youngs Moduli (GPa) = 73.33101 96.38885 117.69809
#
# Poissons Ratio (x) = 0.29100 0.09487
# Poissons Ratio (y) = 0.22139 0.26478
# Poissons Ratio (z) = 0.05911 0.21684
#
# Static dielectric constant tensor:
#      x y z
#    x 5.094200 0.234540 0.288890 
#    y 0.234540 5.777100 0.524290 
#    z 0.288890 0.524290 5.547350 
# 
# 
# High freq. dielectric constant tensor:
#      x y z
#    x 2.034940 0.014180 0.001560 
#    y 0.014180 2.019060 -0.019830 
#    z 0.001560 -0.019830 2.024970 
# 
# From -- ./inp_files/459414.got.cif
#   From: 2010.06.25/outbox.cif.g09.slc.cpg/sg2_230_cif.got.tgz:459414.got - 2010.06.27 13:26:56.
