data_PCOD8035367
_publ_section_title
;
Structure prediction by ZEFSAII (Michael W. Deem and Ramdas Pophale) SiO2 
 PCOD8035367
Probable space group: P -1
;
_chemical_formula_sum "Si O2"
_cell_formula_units_Z 16
_cell_length_a 15.460330
_cell_length_b 11.947868
_cell_length_c 15.304630
_cell_angle_alpha 125.671728
_cell_angle_beta 28.259606
_cell_angle_gamma 143.012330
_cell_volume 729.809726
_symmetry_space_group_name_H-M "P -1"
_symmetry_group_IT_number 2
_symmetry_cell_setting 'triclinic'
loop_
_space_group_symop_operation_xyz
x,y,z
-x,-y,-z
loop_
_atom_site_type_symbol
_atom_site_label
_atom_site_fract_x
_atom_site_fract_y
_atom_site_fract_z
Si Si1 0.100099 0.275565 0.540365
Si Si2 0.419162 0.194867 0.198086
Si Si3 0.690725 0.279074 0.175238
Si Si4 0.835861 0.383644 0.764268
Si Si5 0.251870 0.847953 0.584598
Si Si6 0.522563 0.399576 0.509570
Si Si7 0.034799 0.021647 0.874778
Si Si8 0.466574 0.105898 0.813664
O O1 0.333417 0.306127 0.306836
O O2 0.205215 0.415472 0.595295
O O3 0.009904 0.339672 0.579144
O O4 0.843404 0.044288 0.694343
O O5 0.525723 0.245238 0.224686
O O6 0.648439 0.268724 0.963609
O O7 0.550119 0.263758 0.380006
O O8 0.675789 0.105322 0.110625
O O9 0.000000 0.500000 0.000000
O O10 0.651799 0.295603 0.802184
O O11 0.030810 0.620629 0.716741
O O12 0.345325 0.839424 0.406464
O O13 0.500000 0.000000 0.500000
O O14 0.103805 0.908901 0.728550
O O15 0.500000 0.500000 0.500000
O O16 0.269841 0.256861 0.737801
O O17 0.000000 0.000000 0.000000
O O18 0.754001 0.910283 0.031366
#
# Coordination Sequence:
#
# PCOD8035367 Si02
#       8
#     2   2   2   2   2   2   2   2
#     4  11  25  44  70 106 149 184 240 301 367 432
#     4  11  26  45  71 108 147 192 235 303 370 440
#     4  12  25  44  72 110 149 188 245 304 366 438
#     4  12  28  45  75 103 147 192 242 299 371 437
#     4  12  27  50  74 103 140 190 249 301 363 437
#     4  12  25  44  78 111 144 195 249 308 368 435
#     4  12  28  47  77 109 148 191 248 307 366 436
#     4  12  28  48  72 105 146 192 245 299 364 442
#
# _framework density 21.923521999999998
#
# number of rings (size 3 to 8) (size 9 to 14) (size 15 to 20)
#    0.000    0.250    5.000    3.000    7.000    1.500 
#    0.000    0.000    0.000    0.000    0.000    0.000 
#    0.000    0.000    0.000    0.000    0.000    0.000 
#
# Total GULP energy -198482.330604 kJ/mol
# GULP energy per Si atom -12405.145663 kJ/mol
# Density = 2.187362 g / cm^3
# Si number density = 21.923522 Si / 1000 Ang^3
#
#
#
# Elastic Constant Matrix: (Units=GPa)
#
#
# Indices 1 2 3 4 5 6 
#
# 1 138.8712 51.7237 60.2800 -0.4884 -20.6109 11.1801
# 2 51.7237 115.9756 40.4165 -3.5747 -15.1047 7.2227
# 3 60.2800 40.4165 110.9178 3.5802 -7.2951 1.4430
# 4 -0.4884 -3.5747 3.5802 36.9784 -8.0180 -4.8066
# 5 -20.6109 -15.1047 -7.2951 -8.0180 48.1772 6.7623
# 6 11.1801 7.2227 1.4430 -4.8066 6.7623 50.6287
#
#
#
# Elastic Compliance Matrix: (Units=1/GPa)
#
#
# Indices 1 2 3 4 5 6 
#
# 1 0.010963 -0.002583 -0.004776 0.000841 0.003623 -0.002320
# 2 -0.002583 0.011087 -0.002516 0.001663 0.002422 -0.001105
# 3 -0.004776 -0.002516 0.012478 -0.001671 -0.001373 0.001083
# 4 0.000841 0.001663 -0.001671 0.028714 0.005174 0.001660
# 5 0.003623 0.002422 -0.001373 0.005174 0.024260 -0.003856
# 6 -0.002320 -0.001105 0.001083 0.001660 -0.003856 0.021063
#
#
# Mechanical properties :
#
#
# Convention : Reuss Voigt Hill
#
# Bulk Modulus (GPa) = 67.66727 74.51168 71.08947
# Shear Modulus (GPa) = 37.52584 41.37981 39.45283
#
# Velocity S-wave (km/s) = 4.14172 4.34921 4.24673
# Velocity P-wave (km/s) = 7.33512 7.69946 7.51950
#
# Compressibility (1/GPa) = 0.01477819
#
# Stress axis : x y z
#
# Youngs Moduli (GPa) = 91.21186 90.19734 80.14391
#
# Poissons Ratio (x) = 0.23297 0.38275
# Poissons Ratio (y) = 0.23559 0.20165
# Poissons Ratio (z) = 0.43561 0.22695
#
# Static dielectric constant tensor:
#      x y z
#    x 4.031490 -0.032280 -0.134480 
#    y -0.032280 4.212580 0.114920 
#    z -0.134480 0.114920 4.125800 
# 
# 
# High freq. dielectric constant tensor:
#      x y z
#    x 1.867830 0.002070 -0.010900 
#    y 0.002070 1.874630 0.001390 
#    z -0.010900 0.001390 1.870390 
# 
# From -- ./inp_files/447294.got.cif
#   From: 2010.06.25/outbox.cif.g09.slc.cpg/sg2_224_cif.got.tgz:447294.got - 2010.06.27 13:26:56.
