data_PCOD8035847
_publ_section_title
;
Structure prediction by ZEFSAII (Michael W. Deem and Ramdas Pophale) SiO2 
 PCOD8035847
Probable space group: P -1
;
_chemical_formula_sum "Si O2"
_cell_formula_units_Z 14
_cell_length_a 16.239120
_cell_length_b 17.795674
_cell_length_c 4.801379
_cell_angle_alpha 74.181030
_cell_angle_beta 81.135512
_cell_angle_gamma 23.943926
_cell_volume 525.498450
_symmetry_space_group_name_H-M "P -1"
_symmetry_group_IT_number 2
_symmetry_cell_setting 'triclinic'
loop_
_space_group_symop_operation_xyz
x,y,z
-x,-y,-z
loop_
_atom_site_type_symbol
_atom_site_label
_atom_site_fract_x
_atom_site_fract_y
_atom_site_fract_z
Si Si1 0.037146 0.282799 0.761503
Si Si2 0.056253 0.794448 0.411560
Si Si3 0.356286 0.779099 0.623602
Si Si4 0.320220 0.321311 0.682883
Si Si5 0.497705 0.915388 0.699719
Si Si6 0.670635 0.304131 0.770005
Si Si7 0.289856 0.478602 0.930890
O O1 0.282481 0.082364 0.806908
O O2 0.963976 0.259538 0.733589
O O3 0.922178 0.453135 0.489659
O O4 0.936917 0.368874 0.039939
O O5 0.119609 0.822819 0.211363
O O6 0.241100 0.608475 0.717768
O O7 0.832297 0.999123 0.459803
O O8 0.326002 0.780470 0.317078
O O9 0.357900 0.698201 0.893669
O O10 0.573807 0.635390 0.739069
O O11 0.331294 0.241189 0.984112
O O12 0.410876 0.321333 0.795117
O O13 0.456370 0.184226 0.475088
O O14 0.500000 0.000000 0.500000
O O15 0.500000 0.500000 0.500000
#
# Coordination Sequence:
#
# PCOD8035847 Si02
#       7
#     2   2   2   2   2   2   2
#     4  11  27  47  77 108 150 191 245 301 362 440
#     4  11  26  42  71 101 143 191 249 292 371 427
#     4  12  27  43  71  98 143 190 246 306 360 418
#     4  11  26  50  74 110 151 190 242 291 368 426
#     4  12  28  50  79 112 149 191 240 294 361 444
#     4  12  25  46  65  98 142 190 245 304 360 426
#     4  11  25  47  74 106 148 193 243 305 359 430
#
# _framework density 26.641373000000002
#
# number of rings (size 3 to 8) (size 9 to 14) (size 15 to 20)
#    0.000    0.571    2.857    3.429   10.000    1.143 
#    0.000    0.000    0.000    0.000    0.000    0.000 
#    0.000    0.000    0.000    0.000    0.000    0.000 
#
# Total GULP energy -173465.336134 kJ/mol
# GULP energy per Si atom -12390.381152 kJ/mol
# Density = 2.658074 g / cm^3
# Si number density = 26.641373 Si / 1000 Ang^3
#
#
#
# Elastic Constant Matrix: (Units=GPa)
#
#
# Indices 1 2 3 4 5 6 
#
# 1 60.9242 30.8363 -4.8453 10.6805 -4.9956 5.2517
# 2 30.8363 129.7447 -1.6195 3.2290 3.2734 10.4807
# 3 -4.8453 -1.6195 69.9364 5.0758 -2.0674 17.4399
# 4 10.6805 3.2290 5.0758 43.5485 5.1759 -10.4051
# 5 -4.9956 3.2734 -2.0674 5.1759 30.2104 -5.9532
# 6 5.2517 10.4807 17.4399 -10.4051 -5.9532 25.8888
#
#
#
# Elastic Compliance Matrix: (Units=1/GPa)
#
#
# Indices 1 2 3 4 5 6 
#
# 1 0.021185 -0.004320 0.003835 -0.007534 0.004102 -0.007217
# 2 -0.004320 0.009154 0.000914 -0.000438 -0.002391 -0.004171
# 3 0.003835 0.000914 0.019412 -0.007359 -0.000274 -0.017246
# 4 -0.007534 -0.000438 -0.007359 0.030429 -0.003344 0.018124
# 5 0.004102 -0.002391 -0.000274 -0.003344 0.036023 0.007260
# 6 -0.007217 -0.004171 -0.017246 0.018124 0.007260 0.062350
#
#
# Mechanical properties :
#
#
# Convention : Reuss Voigt Hill
#
# Bulk Modulus (GPa) = 19.75929 34.37205 27.06567
# Shear Modulus (GPa) = 25.69845 35.67845 30.68845
#
# Velocity S-wave (km/s) = 3.10918 3.66349 3.39766
# Velocity P-wave (km/s) = 4.50802 5.55200 5.05702
#
# Compressibility (1/GPa) = 0.05060910
#
# Stress axis : x y z
#
# Youngs Moduli (GPa) = 47.20371 109.24499 51.51438
#
# Poissons Ratio (x) = 0.47195 -0.19758
# Poissons Ratio (y) = 0.20392 -0.04708
# Poissons Ratio (z) = -0.18105 -0.09984
#
# Static dielectric constant tensor:
#      x y z
#    x 4.905650 0.804440 0.245310 
#    y 0.804440 6.010640 0.516230 
#    z 0.245310 0.516230 5.319930 
# 
# 
# High freq. dielectric constant tensor:
#      x y z
#    x 2.039070 0.014130 -0.017360 
#    y 0.014130 2.087760 -0.002170 
#    z -0.017360 -0.002170 2.084580 
# 
# From -- ./inp_files/97915.got.cif
#   From: 2010.06.25/outbox.cif.g09.slc.cpg/sg2_49_cif.got.tgz:97915.got - 2010.06.27 13:26:56.
