data_PCOD8035691
_publ_section_title
;
Structure prediction by ZEFSAII (Michael W. Deem and Ramdas Pophale) SiO2 
 PCOD8035691
Probable space group: P -1
;
_chemical_formula_sum "Si O2"
_cell_formula_units_Z 14
_cell_length_a 12.934432
_cell_length_b 5.403741
_cell_length_c 14.168899
_cell_angle_alpha 115.914283
_cell_angle_beta 130.975645
_cell_angle_gamma 49.453560
_cell_volume 568.050010
_symmetry_space_group_name_H-M "P -1"
_symmetry_group_IT_number 2
_symmetry_cell_setting 'triclinic'
loop_
_space_group_symop_operation_xyz
x,y,z
-x,-y,-z
loop_
_atom_site_type_symbol
_atom_site_label
_atom_site_fract_x
_atom_site_fract_y
_atom_site_fract_z
Si Si1 0.732572 0.844347 0.427694
Si Si2 0.014034 0.790579 0.090541
Si Si3 0.535695 0.282388 0.078577
Si Si4 0.105163 0.858226 0.349935
Si Si5 0.727259 0.215211 0.859982
Si Si6 0.185469 0.881839 0.658112
Si Si7 0.406287 0.174153 0.378753
O O1 0.757869 0.491685 0.390740
O O2 0.852604 0.859617 0.579293
O O3 0.774915 0.939949 0.369085
O O4 0.543356 0.124461 0.378649
O O5 0.988517 0.880039 0.200284
O O6 0.200876 0.681751 0.165570
O O7 0.000000 0.500000 0.000000
O O8 0.869389 0.102945 0.003905
O O9 0.435918 0.496622 0.144996
O O10 0.721865 0.121901 0.191868
O O11 0.500000 0.500000 0.000000
O O12 0.500000 0.000000 0.000000
O O13 0.281386 0.534762 0.399618
O O14 0.007430 0.902117 0.396657
O O15 0.700814 0.943649 0.756062
O O16 0.500000 0.000000 0.500000
#
# Coordination Sequence:
#
# PCOD8035691 Si02
#       7
#     2   2   2   2   2   2   2
#     4  12  27  51  76 115 155 203 254 320 389 459
#     4  11  25  46  72 110 147 199 252 321 380 445
#     4  12  28  47  77 109 154 205 257 307 386 464
#     4  12  27  46  81 108 155 198 263 314 385 462
#     4  11  26  46  76 106 154 197 256 319 380 459
#     4  12  28  50  78 114 156 202 257 319 390 454
#     4  12  26  49  79 116 151 203 258 318 388 459
#
# _framework density 24.645719
#
# number of rings (size 3 to 8) (size 9 to 14) (size 15 to 20)
#    0.000    0.286    2.857    4.714    6.000    2.286 
#    0.000    0.000    0.000    0.000    0.000    0.000 
#    0.000    0.000    0.000    0.000    0.000    0.000 
#
# Total GULP energy -173521.537267 kJ/mol
# GULP energy per Si atom -12394.395519 kJ/mol
# Density = 2.458962 g / cm^3
# Si number density = 24.645719 Si / 1000 Ang^3
#
#
#
# Elastic Constant Matrix: (Units=GPa)
#
#
# Indices 1 2 3 4 5 6 
#
# 1 142.0950 32.7867 21.2206 10.3570 7.9177 -17.1580
# 2 32.7867 85.7659 17.3748 13.1732 0.2976 -5.1626
# 3 21.2206 17.3748 137.8200 19.6251 10.7581 10.6351
# 4 10.3570 13.1732 19.6251 44.0793 2.8823 9.3392
# 5 7.9177 0.2976 10.7581 2.8823 42.9308 0.6499
# 6 -17.1580 -5.1626 10.6351 9.3392 0.6499 51.7606
#
#
#
# Elastic Compliance Matrix: (Units=1/GPa)
#
#
# Indices 1 2 3 4 5 6 
#
# 1 0.008290 -0.002607 -0.000890 -0.001310 -0.001244 0.002923
# 2 -0.002607 0.013434 -0.000987 -0.003284 0.000837 0.001261
# 3 -0.000890 -0.000987 0.008150 -0.002685 -0.001668 -0.001563
# 4 -0.001310 -0.003284 -0.002685 0.026267 -0.000752 -0.004940
# 5 -0.001244 0.000837 -0.001668 -0.000752 0.023988 -0.000152
# 6 0.002923 0.001261 -0.001563 -0.004940 -0.000152 0.021629
#
#
# Mechanical properties :
#
#
# Convention : Reuss Voigt Hill
#
# Bulk Modulus (GPa) = 47.83278 56.49388 52.16333
# Shear Modulus (GPa) = 42.48330 47.37407 44.92869
#
# Velocity S-wave (km/s) = 4.15632 4.38905 4.27427
# Velocity P-wave (km/s) = 6.51795 6.97547 6.75059
#
# Compressibility (1/GPa) = 0.02090617
#
# Stress axis : x y z
#
# Youngs Moduli (GPa) = 120.63090 74.43937 122.69539
#
# Poissons Ratio (x) = 0.19408 0.10914
# Poissons Ratio (y) = 0.31452 0.12110
# Poissons Ratio (z) = 0.10730 0.07347
#
# Static dielectric constant tensor:
#      x y z
#    x 4.755850 -0.353050 0.252360 
#    y -0.353050 4.684690 -0.376670 
#    z 0.252360 -0.376670 5.397390 
# 
# 
# High freq. dielectric constant tensor:
#      x y z
#    x 1.996730 -0.014550 0.008710 
#    y -0.014550 1.971040 0.002440 
#    z 0.008710 0.002440 2.011620 
# 
# From -- ./inp_files/511275.got.cif
#   From: 2010.06.25/outbox.cif.g09.slc.cpg/sg2_256_cif.got.tgz:511275.got - 2010.06.27 13:26:56.
