data_PCOD8035504
_publ_section_title
;
Structure prediction by ZEFSAII (Michael W. Deem and Ramdas Pophale) SiO2 
 PCOD8035504
Probable space group: P -1
;
_chemical_formula_sum "Si O2"
_cell_formula_units_Z 12
_cell_length_a 11.178945
_cell_length_b 7.041674
_cell_length_c 11.230422
_cell_angle_alpha 132.493942
_cell_angle_beta 49.003647
_cell_angle_gamma 115.264759
_cell_volume 491.770348
_symmetry_space_group_name_H-M "P -1"
_symmetry_group_IT_number 2
_symmetry_cell_setting 'triclinic'
loop_
_space_group_symop_operation_xyz
x,y,z
-x,-y,-z
loop_
_atom_site_type_symbol
_atom_site_label
_atom_site_fract_x
_atom_site_fract_y
_atom_site_fract_z
Si Si1 0.539646 0.824478 0.785559
Si Si2 0.602733 0.734912 0.323449
Si Si3 0.953810 0.758932 0.728517
Si Si4 0.620673 0.725838 0.042536
Si Si5 0.100254 0.306654 0.529352
Si Si6 0.065466 0.249763 0.790318
O O1 0.487319 0.528072 0.697570
O O2 0.726984 0.817731 0.645020
O O3 0.459953 0.986645 0.797920
O O4 0.500000 0.000000 0.000000
O O5 0.678937 0.696778 0.127241
O O6 0.743245 0.764708 0.339283
O O7 0.500000 0.000000 0.500000
O O8 0.999316 0.728377 0.543791
O O9 0.083125 0.619695 0.673735
O O10 0.771997 0.687266 0.841464
O O11 0.981453 0.057731 0.854114
O O12 0.500000 0.500000 0.000000
O O13 0.015979 0.209943 0.665368
O O14 0.000000 0.500000 0.000000
#
# Coordination Sequence:
#
# PCOD8035504 Si02
#       6
#     2   2   2   2   2   2
#     4  12  24  46  75 106 142 190 244 293 361 424
#     4  12  27  46  71 110 146 187 240 300 365 424
#     4  11  25  46  70 103 141 187 238 294 358 423
#     4  12  25  46  76 103 143 190 246 298 355 433
#     4  11  25  45  72 100 141 188 242 290 352 426
#     4  12  27  44  69 104 147 186 233 292 366 425
#
# _framework density 24.401634999999999
#
# number of rings (size 3 to 8) (size 9 to 14) (size 15 to 20)
#    0.000    0.333    3.333    4.500    0.000   13.333 
#    0.000    0.000    0.000    0.000    0.000    0.000 
#    0.000    0.000    0.000    0.000    0.000    0.000 
#
# Total GULP energy -148658.132215 kJ/mol
# GULP energy per Si atom -12388.177685 kJ/mol
# Density = 2.434610 g / cm^3
# Si number density = 24.401635 Si / 1000 Ang^3
#
#
#
# Elastic Constant Matrix: (Units=GPa)
#
#
# Indices 1 2 3 4 5 6 
#
# 1 49.9906 -1.4076 10.8234 -1.7258 -19.6354 -8.5225
# 2 -1.4076 140.6842 41.2576 22.9705 -16.0007 0.2956
# 3 10.8234 41.2576 111.1226 8.4747 -33.5823 -0.0253
# 4 -1.7258 22.9705 8.4747 44.7526 -8.6562 0.5474
# 5 -19.6354 -16.0007 -33.5823 -8.6562 38.4682 3.6694
# 6 -8.5225 0.2956 -0.0253 0.5474 3.6694 48.0902
#
#
#
# Elastic Compliance Matrix: (Units=1/GPa)
#
#
# Indices 1 2 3 4 5 6 
#
# 1 0.026586 0.001082 0.001522 0.003182 0.015734 0.003469
# 2 0.001082 0.008633 -0.002759 -0.003696 0.000892 0.000111
# 3 0.001522 -0.002759 0.013272 0.001202 0.011543 -0.000601
# 4 0.003182 -0.003696 0.001202 0.025473 0.006890 -0.000228
# 5 0.015734 0.000892 0.011543 0.006890 0.046102 -0.000807
# 6 0.003469 0.000111 -0.000601 -0.000228 -0.000807 0.021472
#
#
# Mechanical properties :
#
#
# Convention : Reuss Voigt Hill
#
# Bulk Modulus (GPa) = 20.75510 44.79378 32.77444
# Shear Modulus (GPa) = 31.66405 43.00382 37.33394
#
# Velocity S-wave (km/s) = 3.60616 4.20257 3.91574
# Velocity P-wave (km/s) = 5.08559 6.47654 5.82275
#
# Compressibility (1/GPa) = 0.04818094
#
# Stress axis : x y z
#
# Youngs Moduli (GPa) = 37.61358 115.83817 75.34749
#
# Poissons Ratio (x) = -0.12538 -0.11466
# Poissons Ratio (y) = -0.04071 0.20788
# Poissons Ratio (z) = -0.05724 0.31960
#
# Static dielectric constant tensor:
#      x y z
#    x 4.250670 -0.580220 0.082870 
#    y -0.580220 5.143150 0.397020 
#    z 0.082870 0.397020 4.605010 
# 
# 
# High freq. dielectric constant tensor:
#      x y z
#    x 1.958130 -0.022530 -0.000820 
#    y -0.022530 1.995140 0.014700 
#    z -0.000820 0.014700 1.982550 
# 
# From -- ./inp_files/230935.got.cif
#   From: 2010.06.25/outbox.cif.g09.slc.cpg/sg2_116_cif.got.tgz:230935.got - 2010.06.27 13:26:56.
