data_PCOD8035835
_publ_section_title
;
Structure prediction by ZEFSAII (Michael W. Deem and Ramdas Pophale) SiO2 
 PCOD8035835
Probable space group: P -1
;
_chemical_formula_sum "Si O2"
_cell_formula_units_Z 16
_cell_length_a 14.785391
_cell_length_b 9.028756
_cell_length_c 5.432809
_cell_angle_alpha 78.248425
_cell_angle_beta 85.910334
_cell_angle_gamma 109.722475
_cell_volume 660.629626
_symmetry_space_group_name_H-M "P -1"
_symmetry_group_IT_number 2
_symmetry_cell_setting 'triclinic'
loop_
_space_group_symop_operation_xyz
x,y,z
-x,-y,-z
loop_
_atom_site_type_symbol
_atom_site_label
_atom_site_fract_x
_atom_site_fract_y
_atom_site_fract_z
Si Si1 0.747420 0.266383 0.052099
Si Si2 0.448225 0.017966 0.752377
Si Si3 0.535305 0.635086 0.249559
Si Si4 0.833557 0.833432 0.639111
Si Si5 0.121107 0.826043 0.292342
Si Si6 0.077712 0.562817 0.746195
Si Si7 0.074140 0.226323 0.846727
Si Si8 0.337855 0.461904 0.090762
O O1 0.827512 0.288775 0.235497
O O2 0.655291 0.118911 0.201933
O O3 0.790414 0.221778 0.809135
O O4 0.729063 0.434513 0.982347
O O5 0.436388 0.190344 0.692723
O O6 0.500000 0.000000 0.500000
O O7 0.500000 0.000000 0.000000
O O8 0.500000 0.500000 0.500000
O O9 0.440625 0.594607 0.110496
O O10 0.633461 0.626390 0.115518
O O11 0.890237 0.851402 0.365192
O O12 0.726430 0.691223 0.676049
O O13 0.827965 0.010951 0.616091
O O14 0.886722 0.796711 0.883818
O O15 0.047261 0.659612 0.499588
O O16 0.045104 0.853517 0.098857
O O17 0.111028 0.416735 0.709985
O O18 0.000000 0.500000 0.000000
#
# Coordination Sequence:
#
# PCOD8035835 Si02
#       8
#     2   2   2   2   2   2   2   2
#     4  12  26  47  80 107 154 202 255 312 382 453
#     4  12  28  50  78 114 153 194 252 314 380 448
#     4  11  26  47  78 104 152 193 250 313 385 448
#     4  12  28  47  76 108 154 196 255 305 380 451
#     4  12  28  45  74 112 153 197 258 313 376 443
#     4  12  26  47  75 109 151 201 257 311 374 449
#     4  12  26  48  74 106 152 202 245 310 372 447
#     4  11  25  47  73 110 143 199 249 311 379 455
#
# _framework density 24.219317
#
# number of rings (size 3 to 8) (size 9 to 14) (size 15 to 20)
#    0.000    0.250    3.750    4.125    7.000    3.000 
#    0.000    0.000    0.000    0.000    0.000    0.000 
#    0.000    0.000    0.000    0.000    0.000    0.000 
#
# Total GULP energy -198280.024626 kJ/mol
# GULP energy per Si atom -12392.501539 kJ/mol
# Density = 2.416419 g / cm^3
# Si number density = 24.219317 Si / 1000 Ang^3
#
#
#
# Elastic Constant Matrix: (Units=GPa)
#
#
# Indices 1 2 3 4 5 6 
#
# 1 97.0614 27.7524 32.3651 10.1686 -36.3158 -7.9400
# 2 27.7524 162.8290 17.6162 0.1251 -30.9516 -15.6436
# 3 32.3651 17.6162 114.5012 10.6120 -23.7522 -11.9537
# 4 10.1686 0.1251 10.6120 44.0906 2.0517 -10.3945
# 5 -36.3158 -30.9516 -23.7522 2.0517 37.8451 -0.4051
# 6 -7.9400 -15.6436 -11.9537 -10.3945 -0.4051 50.5361
#
#
#
# Elastic Compliance Matrix: (Units=1/GPa)
#
#
# Indices 1 2 3 4 5 6 
#
# 1 0.017290 0.000513 -0.000926 -0.004082 0.016672 0.001950
# 2 0.000513 0.007585 0.000400 0.000050 0.006971 0.002589
# 3 -0.000926 0.000400 0.010652 -0.002146 0.006263 0.002107
# 4 -0.004082 0.000050 -0.002146 0.025395 -0.006557 0.004037
# 5 0.016672 0.006971 0.006263 -0.006557 0.052466 0.005331
# 6 0.001950 0.002589 0.002107 0.004037 0.005331 0.022267
#
#
# Mechanical properties :
#
#
# Convention : Reuss Voigt Hill
#
# Bulk Modulus (GPa) = 28.16888 58.87322 43.52105
# Shear Modulus (GPa) = 33.89511 46.27157 40.08334
#
# Velocity S-wave (km/s) = 3.74506 4.37570 4.07260
# Velocity P-wave (km/s) = 5.50968 7.06329 6.33430
#
# Compressibility (1/GPa) = 0.03550017
#
# Stress axis : x y z
#
# Youngs Moduli (GPa) = 57.83759 131.84651 93.88209
#
# Poissons Ratio (x) = -0.06762 0.08691
# Poissons Ratio (y) = -0.02966 -0.03754
# Poissons Ratio (z) = 0.05354 -0.05273
#
# Static dielectric constant tensor:
#      x y z
#    x 4.083710 -0.169550 -0.038980 
#    y -0.169550 4.768000 0.032970 
#    z -0.038980 0.032970 4.168300 
# 
# 
# High freq. dielectric constant tensor:
#      x y z
#    x 1.964320 0.000650 -0.004290 
#    y 0.000650 1.996800 -0.000420 
#    z -0.004290 -0.000420 1.954700 
# 
# From -- ./inp_files/90074.got.cif
#   From: 2010.06.25/outbox.cif.g09.slc.cpg/sg2_46_cif.got.tgz:90074.got - 2010.06.27 13:26:56.
