data_PCOD8035779
_publ_section_title
;
Structure prediction by ZEFSAII (Michael W. Deem and Ramdas Pophale) SiO2 
 PCOD8035779
Probable space group: P -1
;
_chemical_formula_sum "Si O2"
_cell_formula_units_Z 16
_cell_length_a 8.569632
_cell_length_b 20.893670
_cell_length_c 5.396006
_cell_angle_alpha 117.908903
_cell_angle_beta 119.720912
_cell_angle_gamma 56.790316
_cell_volume 675.853959
_symmetry_space_group_name_H-M "P -1"
_symmetry_group_IT_number 2
_symmetry_cell_setting 'triclinic'
loop_
_space_group_symop_operation_xyz
x,y,z
-x,-y,-z
loop_
_atom_site_type_symbol
_atom_site_label
_atom_site_fract_x
_atom_site_fract_y
_atom_site_fract_z
Si Si1 0.749953 0.311600 0.258588
Si Si2 0.993337 0.619542 0.215872
Si Si3 0.488708 0.666123 0.389640
Si Si4 0.170393 0.478649 0.786596
Si Si5 0.486516 0.089441 0.621764
Si Si6 0.903973 0.828712 0.833323
Si Si7 0.923752 0.047732 0.772199
Si Si8 0.718054 0.763185 0.941796
O O1 0.862829 0.370514 0.442571
O O2 0.603032 0.332938 0.412005
O O3 0.923045 0.226393 0.313915
O O4 0.658165 0.305032 0.908924
O O5 0.857643 0.576757 0.122904
O O6 0.150989 0.562774 0.034538
O O7 0.833990 0.704080 0.146740
O O8 0.623294 0.573029 0.276457
O O9 0.607704 0.722299 0.606404
O O10 0.000000 0.500000 0.500000
O O11 0.312976 0.132207 0.373863
O O12 0.687446 0.087352 0.662182
O O13 0.500000 0.000000 0.500000
O O14 0.434237 0.147966 0.926604
O O15 0.892028 0.773707 0.948497
O O16 0.976076 0.893329 0.095305
O O17 0.000000 0.000000 0.500000
O O18 0.000000 0.000000 0.000000
#
# Coordination Sequence:
#
# PCOD8035779 Si02
#       8
#     2   2   2   2   2   2   2   2
#     4  12  28  48  74 115 161 199 266 331 389 465
#     4  11  25  49  76 111 155 209 260 328 396 466
#     4  12  28  47  76 116 154 208 264 324 396 469
#     4  11  25  46  81 108 156 209 269 318 396 481
#     4  12  27  50  82 115 154 211 265 323 404 476
#     4  12  28  48  80 111 155 210 263 326 395 474
#     4  12  29  50  76 113 160 195 257 333 395 470
#     4  12  26  49  81 109 158 211 266 321 396 479
#
# _framework density 23.673752
#
# number of rings (size 3 to 8) (size 9 to 14) (size 15 to 20)
#    0.000    0.250    3.750    3.750    8.750    2.000 
#    0.000    0.000    0.000    0.000    0.000    0.000 
#    0.000    0.000    0.000    0.000    0.000    0.000 
#
# Total GULP energy -198240.453304 kJ/mol
# GULP energy per Si atom -12390.028332 kJ/mol
# Density = 2.361987 g / cm^3
# Si number density = 23.673752 Si / 1000 Ang^3
#
#
#
# Elastic Constant Matrix: (Units=GPa)
#
#
# Indices 1 2 3 4 5 6 
#
# 1 83.8141 11.4873 22.2677 -14.8550 2.6036 -32.1534
# 2 11.4873 112.0033 30.3569 -1.6016 -2.6843 -31.9010
# 3 22.2677 30.3569 140.0833 4.0654 13.7760 -18.4644
# 4 -14.8550 -1.6016 4.0654 47.2296 -4.7048 -7.6127
# 5 2.6036 -2.6843 13.7760 -4.7048 50.4513 5.5600
# 6 -32.1534 -31.9010 -18.4644 -7.6127 5.5600 44.8172
#
#
#
# Elastic Compliance Matrix: (Units=1/GPa)
#
#
# Indices 1 2 3 4 5 6 
#
# 1 0.020857 0.003794 -0.001794 0.009714 -0.001547 0.018767
# 2 0.003794 0.012331 -0.001894 0.003606 0.000066 0.011323
# 3 -0.001794 -0.001894 0.008228 -0.001452 -0.002480 0.000816
# 4 0.009714 0.003606 -0.001452 0.026737 0.001110 0.013342
# 5 -0.001547 0.000066 -0.002480 0.001110 0.021184 -0.004524
# 6 0.018767 0.011323 0.000816 0.013342 -0.004524 0.047001
#
#
# Mechanical properties :
#
#
# Convention : Reuss Voigt Hill
#
# Bulk Modulus (GPa) = 24.02186 51.56938 37.79562
# Shear Modulus (GPa) = 33.33331 46.61888 39.97609
#
# Velocity S-wave (km/s) = 3.75644 4.44241 4.11375
# Velocity P-wave (km/s) = 5.38364 6.93858 6.20997
#
# Compressibility (1/GPa) = 0.04162875
#
# Stress axis : x y z
#
# Youngs Moduli (GPa) = 47.94522 81.09823 121.54005
#
# Poissons Ratio (x) = -0.30770 0.21801
# Poissons Ratio (y) = -0.18191 0.23018
# Poissons Ratio (z) = 0.08600 0.15359
#
# Static dielectric constant tensor:
#      x y z
#    x 3.181240 -1.232370 -0.375160 
#    y -1.232370 3.413550 -0.134190 
#    z -0.375160 -0.134190 4.335080 
# 
# 
# High freq. dielectric constant tensor:
#      x y z
#    x 1.944080 -0.012350 0.004980 
#    y -0.012350 1.948460 0.016430 
#    z 0.004980 0.016430 1.954870 
# 
# From -- ./inp_files/53861.got.cif
#   From: 2010.06.25/outbox.cif.g09.slc.cpg/sg2_27_cif.got.tgz:53861.got - 2010.06.27 13:26:56.
