data_PCOD8035129
_publ_section_title
;
Structure prediction by ZEFSAII (Michael W. Deem and Ramdas Pophale) SiO2 
 PCOD8035129
Probable space group: P -1
;
_chemical_formula_sum "Si O2"
_cell_formula_units_Z 12
_cell_length_a 16.275800
_cell_length_b 19.550315
_cell_length_c 12.078356
_cell_angle_alpha 32.487497
_cell_angle_beta 157.380584
_cell_angle_gamma 158.899550
_cell_volume 527.789136
_symmetry_space_group_name_H-M "P -1"
_symmetry_group_IT_number 2
_symmetry_cell_setting 'triclinic'
loop_
_space_group_symop_operation_xyz
x,y,z
-x,-y,-z
loop_
_atom_site_type_symbol
_atom_site_label
_atom_site_fract_x
_atom_site_fract_y
_atom_site_fract_z
Si Si1 0.343206 0.091696 0.782045
Si Si2 0.707453 0.795895 0.863873
Si Si3 0.326629 0.544939 0.177803
Si Si4 0.404865 0.833257 0.245640
Si Si5 0.741044 0.444138 0.157862
Si Si6 0.851115 0.222267 0.646345
O O1 0.602789 0.299912 0.874380
O O2 0.372702 0.090916 0.687952
O O3 0.000000 0.000000 0.500000
O O4 0.391896 0.978043 0.059443
O O5 0.538951 0.811004 0.544196
O O6 0.476726 0.650791 0.874252
O O7 0.852130 0.734885 0.071799
O O8 0.000000 0.000000 0.000000
O O9 0.500000 0.500000 0.500000
O O10 0.452700 0.603562 0.127289
O O11 0.946663 0.368903 0.947613
O O12 0.859481 0.352587 0.402983
O O13 0.052250 0.677157 0.247865
O O14 0.500000 0.000000 0.500000
#
# Coordination Sequence:
#
# PCOD8035129 Si02
#       6
#     2   2   2   2   2   2
#     4  11  26  49  78 106 145 195 245 301 357 433
#     4  12  27  46  76 107 147 193 236 305 369 433
#     4  12  27  48  77 104 147 193 240 306 363 428
#     4  11  27  50  73 110 146 190 250 292 369 434
#     4  11  27  46  72 111 145 186 251 291 374 436
#     4  11  24  48  73 105 146 192 236 302 362 434
#
# _framework density 22.736353000000001
#
# number of rings (size 3 to 8) (size 9 to 14) (size 15 to 20)
#    0.000    0.667    3.333    3.000    7.000    1.333 
#    0.000    0.000    0.000    0.000    0.000    0.000 
#    0.000    0.000    0.000    0.000    0.000    0.000 
#
# Total GULP energy -148708.016115 kJ/mol
# GULP energy per Si atom -12392.334676 kJ/mol
# Density = 2.268460 g / cm^3
# Si number density = 22.736353 Si / 1000 Ang^3
#
#
#
# Elastic Constant Matrix: (Units=GPa)
#
#
# Indices 1 2 3 4 5 6 
#
# 1 106.7788 45.9200 85.0554 -26.4000 11.9819 -2.8135
# 2 45.9200 155.2387 65.2599 -5.5448 9.9398 -32.3291
# 3 85.0554 65.2599 196.5901 -19.1068 7.2646 -4.6563
# 4 -26.4000 -5.5448 -19.1068 41.3667 -1.8182 0.9391
# 5 11.9819 9.9398 7.2646 -1.8182 45.4824 -0.2165
# 6 -2.8135 -32.3291 -4.6563 0.9391 -0.2165 44.6117
#
#
#
# Elastic Compliance Matrix: (Units=1/GPa)
#
#
# Indices 1 2 3 4 5 6 
#
# 1 0.017322 -0.002538 -0.005814 0.007942 -0.002770 -0.001534
# 2 -0.002538 0.009381 -0.001965 -0.001465 -0.001095 0.006459
# 3 -0.005814 -0.001965 0.008195 -0.000139 0.000642 -0.000929
# 4 0.007942 -0.001465 -0.000139 0.028983 -0.000597 -0.001188
# 5 -0.002770 -0.001095 0.000642 -0.000597 0.022825 -0.000778
# 6 -0.001534 0.006459 -0.000929 -0.001188 -0.000778 0.026924
#
#
# Mechanical properties :
#
#
# Convention : Reuss Voigt Hill
#
# Bulk Modulus (GPa) = 70.10557 94.56424 82.33490
# Shear Modulus (GPa) = 35.96625 43.78366 39.87495
#
# Velocity S-wave (km/s) = 3.98160 4.39305 4.19238
# Velocity P-wave (km/s) = 7.21378 8.21059 7.72827
#
# Compressibility (1/GPa) = 0.01426420
#
# Stress axis : x y z
#
# Youngs Moduli (GPa) = 57.73091 106.59281 122.02410
#
# Poissons Ratio (x) = 0.27057 0.70942
# Poissons Ratio (y) = 0.14654 0.23977
# Poissons Ratio (z) = 0.33563 0.20945
#
# Static dielectric constant tensor:
#      x y z
#    x 4.500170 -0.159370 0.277480 
#    y -0.159370 4.695670 0.059650 
#    z 0.277480 0.059650 4.754810 
# 
# 
# High freq. dielectric constant tensor:
#      x y z
#    x 1.902520 -0.010720 0.006440 
#    y -0.010720 1.917280 0.001090 
#    z 0.006440 0.001090 1.911720 
# 
# From -- ./inp_files/467078.got.cif
#   From: 2010.06.25/outbox.cif.g09.slc.cpg/sg2_234_cif.got.tgz:467078.got - 2010.06.27 13:26:56.
