data_PCOD8035388
_publ_section_title
;
Structure prediction by ZEFSAII (Michael W. Deem and Ramdas Pophale) SiO2 
 PCOD8035388
Probable space group: P -1
;
_chemical_formula_sum "Si O2"
_cell_formula_units_Z 12
_cell_length_a 18.453924
_cell_length_b 5.126077
_cell_length_c 5.001552
_cell_angle_alpha 97.136437
_cell_angle_beta 113.638723
_cell_angle_gamma 101.185327
_cell_volume 414.314105
_symmetry_space_group_name_H-M "P -1"
_symmetry_group_IT_number 2
_symmetry_cell_setting 'triclinic'
loop_
_space_group_symop_operation_xyz
x,y,z
-x,-y,-z
loop_
_atom_site_type_symbol
_atom_site_label
_atom_site_fract_x
_atom_site_fract_y
_atom_site_fract_z
Si Si1 0.070590 0.292550 0.356486
Si Si2 0.513389 0.337630 0.248927
Si Si3 0.902752 0.228566 0.943338
Si Si4 0.363394 0.924043 0.779384
Si Si5 0.259651 0.178118 0.301712
Si Si6 0.233695 0.495780 0.810324
O O1 0.091428 0.483784 0.149365
O O2 0.134644 0.448184 0.711882
O O3 0.080983 0.991774 0.274849
O O4 0.974191 0.260788 0.282704
O O5 0.500000 0.500000 0.500000
O O6 0.606244 0.303093 0.374380
O O7 0.500000 0.500000 0.000000
O O8 0.441025 0.056198 0.100551
O O9 0.808983 0.109534 0.903469
O O10 0.288285 0.802570 0.860434
O O11 0.340536 0.117984 0.544387
O O12 0.224845 0.344402 0.491526
O O13 0.278927 0.356935 0.080856
#
# Coordination Sequence:
#
# PCOD8035388 Si02
#       6
#     2   2   2   2   2   2
#     4   9  18  38  67 103 150 203 259 318 379 449
#     4  11  28  51  79 112 147 193 248 315 393 482
#     4   9  18  38  67 103 150 203 259 318 379 449
#     4  11  26  50  79 110 152 198 251 318 396 471
#     4  11  25  44  71 108 150 198 254 313 380 456
#     4  11  25  44  71 108 150 198 254 313 380 456
#
# _framework density 28.963529000000001
#
# number of rings (size 3 to 8) (size 9 to 14) (size 15 to 20)
#    0.000    1.667    1.667    1.000    0.000   12.667 
#    0.000    2.500    0.000   10.000    0.000    0.000 
#    0.000    1.333    0.000    0.000    0.000    0.333 
#
# Total GULP energy -148753.356736 kJ/mol
# GULP energy per Si atom -12396.113061 kJ/mol
# Density = 2.889761 g / cm^3
# Si number density = 28.963529 Si / 1000 Ang^3
#
#
#
# Elastic Constant Matrix: (Units=GPa)
#
#
# Indices 1 2 3 4 5 6 
#
# 1 123.1762 14.3177 34.8581 -18.6398 30.8253 5.6486
# 2 14.3177 106.3891 26.9891 -27.6536 0.5436 5.7599
# 3 34.8581 26.9891 127.6344 -19.9400 16.9808 11.7339
# 4 -18.6398 -27.6536 -19.9400 44.5509 1.3363 13.4464
# 5 30.8253 0.5436 16.9808 1.3363 51.8966 -10.0457
# 6 5.6486 5.7599 11.7339 13.4464 -10.0457 39.4901
#
#
#
# Elastic Compliance Matrix: (Units=1/GPa)
#
#
# Indices 1 2 3 4 5 6 
#
# 1 0.011567 0.000826 -0.000582 0.007173 -0.008053 -0.006093
# 2 0.000826 0.012146 -0.000646 0.009235 -0.001664 -0.005266
# 3 -0.000582 -0.000646 0.010146 0.005804 -0.004258 -0.005897
# 4 0.007173 0.009235 0.005804 0.040371 -0.011307 -0.020720
# 5 -0.008053 -0.001664 -0.004258 -0.011307 0.028414 0.013738
# 6 -0.006093 -0.005266 -0.005897 -0.020720 0.013738 0.039265
#
#
# Mechanical properties :
#
#
# Convention : Reuss Voigt Hill
#
# Bulk Modulus (GPa) = 30.25094 56.61438 43.43266
# Shear Modulus (GPa) = 32.52474 45.92319 39.22397
#
# Velocity S-wave (km/s) = 3.35469 3.98622 3.68401
# Velocity P-wave (km/s) = 5.04702 6.38559 5.75535
#
# Compressibility (1/GPa) = 0.03305682
#
# Stress axis : x y z
#
# Youngs Moduli (GPa) = 86.45142 82.33040 98.56327
#
# Poissons Ratio (x) = -0.06803 0.05733
# Poissons Ratio (y) = -0.07144 0.06365
# Poissons Ratio (z) = 0.05029 0.05317
#
# Static dielectric constant tensor:
#      x y z
#    x 4.231180 -0.372750 -0.850600 
#    y -0.372750 5.299500 0.072330 
#    z -0.850600 0.072330 3.706390 
# 
# 
# High freq. dielectric constant tensor:
#      x y z
#    x 2.184300 -0.007170 0.025530 
#    y -0.007170 2.186860 0.021280 
#    z 0.025530 0.021280 2.182650 
# 
# From -- ./inp_files/113571.got.cif
#   From: 2010.06.25/outbox.cif.g09.slc.cpg/sg2_57_cif.got.tgz:113571.got - 2010.06.27 13:26:56.
