data_PCOD8035081
_publ_section_title
;
Structure prediction by ZEFSAII (Michael W. Deem and Ramdas Pophale) SiO2 
 PCOD8035081
Probable space group: P -1
;
_chemical_formula_sum "Si O2"
_cell_formula_units_Z 10
_cell_length_a 14.436860
_cell_length_b 7.459428
_cell_length_c 5.204639
_cell_angle_alpha 83.860350
_cell_angle_beta 64.152049
_cell_angle_gamma 49.246081
_cell_volume 368.902245
_symmetry_space_group_name_H-M "P -1"
_symmetry_group_IT_number 2
_symmetry_cell_setting 'triclinic'
loop_
_space_group_symop_operation_xyz
x,y,z
-x,-y,-z
loop_
_atom_site_type_symbol
_atom_site_label
_atom_site_fract_x
_atom_site_fract_y
_atom_site_fract_z
Si Si1 0.324593 0.501308 0.701624
Si Si2 0.662566 0.835754 0.890139
Si Si3 0.910443 0.651539 0.339199
Si Si4 0.589693 0.282914 0.128787
Si Si5 0.087077 0.940865 0.657264
O O1 0.486530 0.306077 0.452169
O O2 0.302807 0.704891 0.874843
O O3 0.224918 0.648095 0.550543
O O4 0.236117 0.290989 0.466283
O O5 0.714778 0.629737 0.069397
O O6 0.684742 0.011299 0.943396
O O7 0.500000 0.000000 0.000000
O O8 0.000000 0.500000 0.500000
O O9 0.866644 0.909549 0.384351
O O10 0.000000 0.500000 0.000000
O O11 0.500000 0.500000 0.000000
O O12 0.000000 0.000000 0.500000
O O13 0.000000 0.000000 0.000000
#
# Coordination Sequence:
#
# PCOD8035081 Si02
#       5
#     2   2   2   2   2
#     4  11  27  48  80 121 169 216 283 349 430 499
#     4  12  27  50  86 125 170 219 285 352 432 506
#     4  12  30  55  83 121 171 224 286 350 426 514
#     4  11  24  47  81 122 167 217 272 353 427 510
#     4  12  29  52  83 116 165 227 284 344 418 508
#
# _framework density 27.107453
#
# number of rings (size 3 to 8) (size 9 to 14) (size 15 to 20)
#    0.000    0.400    2.000    4.200   11.200    4.800 
#    0.000    0.000    0.000    0.000    0.000    0.000 
#    0.000    0.000    0.000    0.000    0.000    0.000 
#
# Total GULP energy -123965.094552 kJ/mol
# GULP energy per Si atom -12396.509455 kJ/mol
# Density = 2.704576 g / cm^3
# Si number density = 27.107453 Si / 1000 Ang^3
#
#
#
# Elastic Constant Matrix: (Units=GPa)
#
#
# Indices 1 2 3 4 5 6 
#
# 1 116.2587 68.4307 77.9352 1.2383 -26.9960 2.6794
# 2 68.4307 176.7872 59.9947 -20.6155 -2.8407 12.7497
# 3 77.9352 59.9947 174.8141 -10.3363 -18.1589 3.5425
# 4 1.2383 -20.6155 -10.3363 45.1431 -2.6150 4.0692
# 5 -26.9960 -2.8407 -18.1589 -2.6150 62.4864 0.2998
# 6 2.6794 12.7497 3.5425 4.0692 0.2998 63.7638
#
#
#
# Elastic Compliance Matrix: (Units=1/GPa)
#
#
# Indices 1 2 3 4 5 6 
#
# 1 0.016203 -0.004893 -0.005247 -0.003657 0.005096 0.000799
# 2 -0.004893 0.008287 -0.000583 0.003834 -0.001738 -0.001655
# 3 -0.005247 -0.000583 0.008397 0.001836 0.000225 -0.000248
# 4 -0.003657 0.003834 0.001836 0.024639 0.000170 -0.002288
# 5 0.005096 -0.001738 0.000225 0.000170 0.018198 0.000025
# 6 0.000799 -0.001655 -0.000248 -0.002288 0.000025 0.016140
#
#
# Mechanical properties :
#
#
# Convention : Reuss Voigt Hill
#
# Bulk Modulus (GPa) = 87.41504 97.84235 92.62870
# Shear Modulus (GPa) = 42.68939 51.71195 47.20067
#
# Velocity S-wave (km/s) = 3.97271 4.37242 4.17735
# Velocity P-wave (km/s) = 7.30485 7.85260 7.58367
#
# Compressibility (1/GPa) = 0.01143968
#
# Stress axis : x y z
#
# Youngs Moduli (GPa) = 61.71553 120.67173 119.09488
#
# Poissons Ratio (x) = 0.59050 0.62495
# Poissons Ratio (y) = 0.30200 0.06941
# Poissons Ratio (z) = 0.32385 0.07033
#
# Static dielectric constant tensor:
#      x y z
#    x 5.326190 0.206300 0.124140 
#    y 0.206300 4.915710 -0.292550 
#    z 0.124140 -0.292550 6.686480 
# 
# 
# High freq. dielectric constant tensor:
#      x y z
#    x 2.104770 0.011300 -0.013810 
#    y 0.011300 2.103090 -0.001980 
#    z -0.013810 -0.001980 2.101450 
# 
# From -- ./inp_files/58011.got.cif
#   From: 2010.06.25/outbox.cif.g09.slc.cpg/sg2_30_cif.got.tgz:58011.got - 2010.06.27 13:26:56.
