data_PCOD8035224
_publ_section_title
;
Structure prediction by ZEFSAII (Michael W. Deem and Ramdas Pophale) SiO2 
 PCOD8035224
Probable space group: P -1
;
_chemical_formula_sum "Si O2"
_cell_formula_units_Z 12
_cell_length_a 13.478589
_cell_length_b 6.167678
_cell_length_c 11.631261
_cell_angle_alpha 94.868511
_cell_angle_beta 32.728455
_cell_angle_gamma 80.992764
_cell_volume 471.956998
_symmetry_space_group_name_H-M "P -1"
_symmetry_group_IT_number 2
_symmetry_cell_setting 'triclinic'
loop_
_space_group_symop_operation_xyz
x,y,z
-x,-y,-z
loop_
_atom_site_type_symbol
_atom_site_label
_atom_site_fract_x
_atom_site_fract_y
_atom_site_fract_z
Si Si1 0.588211 0.082085 0.027608
Si Si2 0.168665 0.840585 0.678603
Si Si3 0.150729 0.678089 0.272786
Si Si4 0.168565 0.482169 0.492493
Si Si5 0.402868 0.305870 0.845598
Si Si6 0.882525 0.358946 0.052223
O O1 0.409029 0.325082 0.262773
O O2 0.657790 0.904500 0.061260
O O3 0.799746 0.090748 0.781329
O O4 0.500000 0.000000 0.000000
O O5 0.081768 0.670026 0.690750
O O6 0.362583 0.818052 0.417468
O O7 0.220581 0.738953 0.753156
O O8 0.022479 0.123638 0.832120
O O9 0.118649 0.640030 0.433978
O O10 0.957283 0.682533 0.390520
O O11 0.357648 0.471655 0.010366
O O12 0.285786 0.451953 0.855805
O O13 0.000000 0.500000 0.000000
#
# Coordination Sequence:
#
# PCOD8035224 Si02
#       6
#     2   2   2   2   2   2
#     4  12  25  46  75 114 162 200 250 312 373 459
#     4  11  26  51  80 103 157 200 253 325 376 449
#     4  11  25  46  75 114 156 198 258 299 380 460
#     4  11  24  50  75 114 152 208 251 310 380 452
#     4  12  26  47  78 113 149 202 251 312 385 456
#     4  11  28  52  75 113 147 197 266 317 382 451
#
# _framework density 25.426044000000001
#
# number of rings (size 3 to 8) (size 9 to 14) (size 15 to 20)
#    0.000    0.667    3.333    3.000    4.667    5.333 
#    0.000    0.000    0.000    0.000    0.000    0.000 
#    0.000    0.000    0.000    0.000    0.000    0.000 
#
# Total GULP energy -148744.205084 kJ/mol
# GULP energy per Si atom -12395.350424 kJ/mol
# Density = 2.536817 g / cm^3
# Si number density = 25.426044 Si / 1000 Ang^3
#
#
#
# Elastic Constant Matrix: (Units=GPa)
#
#
# Indices 1 2 3 4 5 6 
#
# 1 103.1835 58.3677 33.7166 4.4715 4.3569 5.6772
# 2 58.3677 117.3313 21.7074 -14.8757 -6.5634 -1.9459
# 3 33.7166 21.7074 104.1805 -16.0142 8.9254 4.1776
# 4 4.4715 -14.8757 -16.0142 58.8424 12.2462 4.7184
# 5 4.3569 -6.5634 8.9254 12.2462 43.0915 -1.4077
# 6 5.6772 -1.9459 4.1776 4.7184 -1.4077 48.8412
#
#
#
# Elastic Compliance Matrix: (Units=1/GPa)
#
#
# Indices 1 2 3 4 5 6 
#
# 1 0.015531 -0.007564 -0.003914 -0.003864 -0.000860 -0.001423
# 2 -0.007564 0.012813 0.000103 0.003385 0.001769 0.001105
# 3 -0.003914 0.000103 0.011833 0.004316 -0.003301 -0.001065
# 4 -0.003864 0.003385 0.004316 0.020711 -0.005938 -0.001957
# 5 -0.000860 0.001769 -0.003301 -0.005938 0.025992 0.001776
# 6 -0.001423 0.001105 -0.001065 -0.001957 0.001776 0.021015
#
#
# Mechanical properties :
#
#
# Convention : Reuss Voigt Hill
#
# Bulk Modulus (GPa) = 57.38076 61.36432 59.37254
# Shear Modulus (GPa) = 36.64242 44.21524 40.42883
#
# Velocity S-wave (km/s) = 3.80035 4.17463 3.99188
# Velocity P-wave (km/s) = 6.47098 6.88647 6.68196
#
# Compressibility (1/GPa) = 0.01742745
#
# Stress axis : x y z
#
# Youngs Moduli (GPa) = 64.38782 78.04601 84.50989
#
# Poissons Ratio (x) = 0.59031 0.33074
# Poissons Ratio (y) = 0.48700 -0.00867
# Poissons Ratio (z) = 0.25199 -0.00801
#
# Static dielectric constant tensor:
#      x y z
#    x 4.558690 0.019880 0.208320 
#    y 0.019880 4.962930 -0.103820 
#    z 0.208320 -0.103820 4.804790 
# 
# 
# High freq. dielectric constant tensor:
#      x y z
#    x 1.999410 -0.000910 0.010980 
#    y -0.000910 2.030430 -0.009880 
#    z 0.010980 -0.009880 2.033650 
# 
# From -- ./inp_files/368208.got.cif
#   From: 2010.06.25/outbox.cif.g09.slc.cpg/sg2_185_cif.got.tgz:368208.got - 2010.06.27 13:26:56.
