data_PCOD8035448
_publ_section_title
;
Structure prediction by ZEFSAII (Michael W. Deem and Ramdas Pophale) SiO2 
 PCOD8035448
Probable space group: P -1
;
_chemical_formula_sum "Si O2"
_cell_formula_units_Z 16
_cell_length_a 12.437324
_cell_length_b 9.429894
_cell_length_c 14.537890
_cell_angle_alpha 132.301022
_cell_angle_beta 145.073536
_cell_angle_gamma 46.275501
_cell_volume 681.764366
_symmetry_space_group_name_H-M "P -1"
_symmetry_group_IT_number 2
_symmetry_cell_setting 'triclinic'
loop_
_space_group_symop_operation_xyz
x,y,z
-x,-y,-z
loop_
_atom_site_type_symbol
_atom_site_label
_atom_site_fract_x
_atom_site_fract_y
_atom_site_fract_z
Si Si1 0.597446 0.801168 0.421063
Si Si2 0.037772 0.561497 0.673909
Si Si3 0.674698 0.256273 0.141564
Si Si4 0.014469 0.216333 0.079886
Si Si5 0.360023 0.519728 0.158194
Si Si6 0.091118 0.805078 0.542905
Si Si7 0.576792 0.002193 0.799036
Si Si8 0.543824 0.344511 0.380166
O O1 0.836985 0.713580 0.552985
O O2 0.516884 0.636074 0.337290
O O3 0.500000 0.000000 0.500000
O O4 0.521895 0.835656 0.277820
O O5 0.053041 0.323467 0.584267
O O6 0.224479 0.581050 0.755081
O O7 0.052816 0.631849 0.817363
O O8 0.449274 0.370788 0.068935
O O9 0.810061 0.135338 0.269442
O O10 0.656776 0.104306 0.983443
O O11 0.237069 0.183933 0.190041
O O12 0.860117 0.324050 0.939225
O O13 0.000000 0.000000 0.000000
O O14 0.361762 0.401694 0.203572
O O15 0.258797 0.649038 0.529612
O O16 0.000000 0.000000 0.500000
O O17 0.420594 0.889240 0.667553
O O18 0.500000 0.500000 0.500000
#
# Coordination Sequence:
#
# PCOD8035448 Si02
#       8
#     2   2   2   2   2   2   2   2
#     4  12  22  41  73 103 134 182 231 289 342 394
#     4  12  23  45  74 101 142 180 236 287 342 411
#     4  11  26  46  67 106 140 177 234 281 354 412
#     4  12  23  44  68 105 135 174 234 291 344 405
#     4  11  25  45  66  96 145 182 219 288 348 407
#     4  11  27  46  68 101 142 187 229 286 345 413
#     4  12  26  42  73 107 135 182 231 286 345 416
#     4  11  25  47  70  99 137 182 235 280 348 416
#
# _framework density 23.468519000000001
#
# number of rings (size 3 to 8) (size 9 to 14) (size 15 to 20)
#    0.000    0.500    6.250    1.875    1.750    7.500 
#    0.000    0.000    0.000    0.000    0.000    0.000 
#    0.000    0.000    0.000    0.000    0.000    0.000 
#
# Total GULP energy -198354.032372 kJ/mol
# GULP energy per Si atom -12397.127023 kJ/mol
# Density = 2.341510 g / cm^3
# Si number density = 23.468519 Si / 1000 Ang^3
#
#
#
# Elastic Constant Matrix: (Units=GPa)
#
#
# Indices 1 2 3 4 5 6 
#
# 1 85.4527 22.2162 27.3312 -2.8681 -17.1011 12.3370
# 2 22.2162 122.4397 32.1856 -12.2440 -13.2372 17.9536
# 3 27.3312 32.1856 89.5222 2.7613 -19.4758 11.9424
# 4 -2.8681 -12.2440 2.7613 39.3407 -1.2429 5.0281
# 5 -17.1011 -13.2372 -19.4758 -1.2429 43.4048 0.0211
# 6 12.3370 17.9536 11.9424 5.0281 0.0211 24.6133
#
#
#
# Elastic Compliance Matrix: (Units=1/GPa)
#
#
# Indices 1 2 3 4 5 6 
#
# 1 0.014475 -0.000357 -0.002548 0.002056 0.004513 -0.006183
# 2 -0.000357 0.010612 -0.002401 0.004447 0.002149 -0.007307
# 3 -0.002548 -0.002401 0.014358 -0.001324 0.004670 -0.003672
# 4 0.002056 0.004447 -0.001324 0.028325 0.002388 -0.009420
# 5 0.004513 0.002149 0.004670 0.002388 0.027640 -0.006607
# 6 -0.006183 -0.007307 -0.003672 -0.009420 -0.006607 0.052769
#
#
# Mechanical properties :
#
#
# Convention : Reuss Voigt Hill
#
# Bulk Modulus (GPa) = 34.68175 51.20898 42.94537
# Shear Modulus (GPa) = 29.69110 35.85053 32.77082
#
# Velocity S-wave (km/s) = 3.56075 3.91269 3.74086
# Velocity P-wave (km/s) = 5.63163 6.50230 6.08256
#
# Compressibility (1/GPa) = 0.02883361
#
# Stress axis : x y z
#
# Youngs Moduli (GPa) = 69.08591 94.23589 69.64655
#
# Poissons Ratio (x) = 0.03360 0.17744
# Poissons Ratio (y) = 0.02463 0.16723
# Poissons Ratio (z) = 0.17602 0.22627
#
# Static dielectric constant tensor:
#      x y z
#    x 4.696430 -0.447230 0.101060 
#    y -0.447230 6.272800 -0.644530 
#    z 0.101060 -0.644530 4.318550 
# 
# 
# High freq. dielectric constant tensor:
#      x y z
#    x 1.939200 0.002610 -0.010890 
#    y 0.002610 1.933150 -0.007340 
#    z -0.010890 -0.007340 1.925640 
# 
# From -- ./inp_files/392782.got.cif
#   From: 2010.06.25/outbox.cif.g09.slc.cpg/sg2_197_cif.got.tgz:392782.got - 2010.06.27 13:26:56.
