data_PCOD8035151
_publ_section_title
;
Structure prediction by ZEFSAII (Michael W. Deem and Ramdas Pophale) SiO2 
 PCOD8035151
Probable space group: P -1
;
_chemical_formula_sum "Si O2"
_cell_formula_units_Z 10
_cell_length_a 9.980301
_cell_length_b 12.888811
_cell_length_c 7.748154
_cell_angle_alpha 112.842247
_cell_angle_beta 108.835131
_cell_angle_gamma 130.005394
_cell_volume 411.750357
_symmetry_space_group_name_H-M "P -1"
_symmetry_group_IT_number 2
_symmetry_cell_setting 'triclinic'
loop_
_space_group_symop_operation_xyz
x,y,z
-x,-y,-z
loop_
_atom_site_type_symbol
_atom_site_label
_atom_site_fract_x
_atom_site_fract_y
_atom_site_fract_z
Si Si1 0.613168 0.463600 0.322822
Si Si2 0.841051 0.275651 0.363971
Si Si3 0.193240 0.812181 0.343866
Si Si4 0.585450 0.424700 0.674564
Si Si5 0.723783 0.885858 0.337643
O O1 0.493302 0.343036 0.384409
O O2 0.490636 0.501175 0.250903
O O3 0.971356 0.701412 0.614839
O O4 0.511856 0.305558 0.032394
O O5 0.865995 0.316804 0.608469
O O6 0.000000 0.500000 0.500000
O O7 0.500000 0.000000 0.000000
O O8 0.067157 0.363490 0.019881
O O9 0.500000 0.000000 0.500000
O O10 0.193358 0.927300 0.527129
O O11 0.396622 0.211055 0.579843
O O12 0.000000 0.000000 0.500000
#
# Coordination Sequence:
#
# PCOD8035151 Si02
#       5
#     2   2   2   2   2
#     4  11  24  48  75 110 152 197 262 318 389 466
#     4  12  27  48  76 111 157 209 260 322 399 472
#     4  12  27  48  75 110 155 202 260 325 390 467
#     4  11  25  46  74 111 147 196 261 323 386 466
#     4  12  24  46  77 107 150 201 256 318 392 460
#
# _framework density 24.286560999999999
#
# number of rings (size 3 to 8) (size 9 to 14) (size 15 to 20)
#    0.000    0.400    4.000    4.200    2.800    1.600 
#    3.600    0.000    0.000    0.000    0.000    0.000 
#    0.000    0.000    0.000    0.000    0.000    0.000 
#
# Total GULP energy -123953.355898 kJ/mol
# GULP energy per Si atom -12395.335590 kJ/mol
# Density = 2.423128 g / cm^3
# Si number density = 24.286561 Si / 1000 Ang^3
#
#
#
# Elastic Constant Matrix: (Units=GPa)
#
#
# Indices 1 2 3 4 5 6 
#
# 1 109.5617 32.1043 22.2881 6.7092 40.2398 12.8822
# 2 32.1043 154.0043 38.1045 -7.4135 2.9788 14.0244
# 3 22.2881 38.1045 81.1053 3.3278 25.5392 -6.6419
# 4 6.7092 -7.4135 3.3278 41.6975 6.7583 -0.6611
# 5 40.2398 2.9788 25.5392 6.7583 51.3454 1.1363
# 6 12.8822 14.0244 -6.6419 -0.6611 1.1363 39.6220
#
#
#
# Elastic Compliance Matrix: (Units=1/GPa)
#
#
# Indices 1 2 3 4 5 6 
#
# 1 0.014348 -0.002675 0.000605 -0.001074 -0.011176 -0.003314
# 2 -0.002675 0.008518 -0.004790 0.001658 0.003833 -0.003031
# 3 0.000605 -0.004790 0.017659 -0.000829 -0.008975 0.004702
# 4 -0.001074 0.001658 -0.000829 0.024861 -0.002117 0.000099
# 5 -0.011176 0.003833 -0.008975 -0.002117 0.032759 -0.000203
# 6 -0.003314 -0.003031 0.004702 0.000099 -0.000203 0.028184
#
#
# Mechanical properties :
#
#
# Convention : Reuss Voigt Hill
#
# Bulk Modulus (GPa) = 37.30455 58.85169 48.07812
# Shear Modulus (GPa) = 33.56098 43.34461 38.45280
#
# Velocity S-wave (km/s) = 3.72139 4.22917 3.98338
# Velocity P-wave (km/s) = 5.81881 6.93777 6.40278
#
# Compressibility (1/GPa) = 0.02680638
#
# Stress axis : x y z
#
# Youngs Moduli (GPa) = 69.69652 117.40304 56.62851
#
# Poissons Ratio (x) = 0.31400 -0.03429
# Poissons Ratio (y) = 0.18641 0.27125
# Poissons Ratio (z) = -0.04220 0.56236
#
# Static dielectric constant tensor:
#      x y z
#    x 4.365070 -0.142530 0.551530 
#    y -0.142530 4.472940 -0.035850 
#    z 0.551530 -0.035850 4.163270 
# 
# 
# High freq. dielectric constant tensor:
#      x y z
#    x 1.980740 0.007170 0.021500 
#    y 0.007170 1.983500 -0.014620 
#    z 0.021500 -0.014620 1.955610 
# 
# From -- ./inp_files/182826.got.cif
#   From: 2010.06.25/outbox.cif.g09.slc.cpg/sg2_92_cif.got.tgz:182826.got - 2010.06.27 13:26:56.
