data_PCOD8035569
_publ_section_title
;
Structure prediction by ZEFSAII (Michael W. Deem and Ramdas Pophale) SiO2 
 PCOD8035569
Probable space group: P -1
;
_chemical_formula_sum "Si O2"
_cell_formula_units_Z 14
_cell_length_a 8.517806
_cell_length_b 12.248063
_cell_length_c 8.637102
_cell_angle_alpha 56.171542
_cell_angle_beta 108.154033
_cell_angle_gamma 128.830193
_cell_volume 582.134422
_symmetry_space_group_name_H-M "P -1"
_symmetry_group_IT_number 2
_symmetry_cell_setting 'triclinic'
loop_
_space_group_symop_operation_xyz
x,y,z
-x,-y,-z
loop_
_atom_site_type_symbol
_atom_site_label
_atom_site_fract_x
_atom_site_fract_y
_atom_site_fract_z
Si Si1 0.652620 0.302226 0.858993
Si Si2 0.906594 0.213116 0.177631
Si Si3 0.631766 0.548609 0.847965
Si Si4 0.676326 0.424588 0.428429
Si Si5 0.296041 0.830327 0.534505
Si Si6 0.215744 0.050210 0.853972
Si Si7 0.015217 0.208925 0.761276
O O1 0.643359 0.403888 0.912109
O O2 0.696862 0.385945 0.640521
O O3 0.438699 0.129542 0.926905
O O4 0.828174 0.278968 0.970245
O O5 0.849059 0.240676 0.305913
O O6 0.144611 0.299112 0.169821
O O7 0.799755 0.022093 0.264878
O O8 0.529744 0.587877 0.649050
O O9 0.500000 0.500000 0.000000
O O10 0.667346 0.302189 0.400225
O O11 0.870142 0.603953 0.311069
O O12 0.187333 0.858401 0.342352
O O13 0.500000 0.000000 0.500000
O O14 0.163998 0.181351 0.730605
O O15 0.046399 0.892686 0.021181
#
# Coordination Sequence:
#
# PCOD8035569 Si02
#       7
#     2   2   2   2   2   2   2
#     4  12  25  49  75 109 144 197 253 299 366 449
#     4  12  27  45  74 110 149 192 241 311 376 428
#     4  12  27  45  72 111 150 189 243 310 367 431
#     4  12  26  49  77 107 148 197 250 300 364 449
#     4  12  27  47  76 111 153 187 248 313 375 430
#     4  11  25  45  75 103 149 194 252 294 365 446
#     4  11  25  46  73 106 143 202 246 298 366 443
#
# _framework density 24.049427000000001
#
# number of rings (size 3 to 8) (size 9 to 14) (size 15 to 20)
#    0.000    0.286    1.429    6.857    6.000    2.857 
#    0.000    0.000    0.000    0.000    0.000    0.000 
#    0.000    0.000    0.000    0.000    0.000    0.000 
#
# Total GULP energy -173688.460643 kJ/mol
# GULP energy per Si atom -12406.318617 kJ/mol
# Density = 2.399469 g / cm^3
# Si number density = 24.049427 Si / 1000 Ang^3
#
#
#
# Elastic Constant Matrix: (Units=GPa)
#
#
# Indices 1 2 3 4 5 6 
#
# 1 97.3577 42.9118 18.4691 0.1817 10.3247 8.2666
# 2 42.9118 170.4554 25.1731 0.0748 4.4846 -1.1643
# 3 18.4691 25.1731 56.9949 -9.0135 4.5851 10.3394
# 4 0.1817 0.0748 -9.0135 32.5674 8.1027 4.5992
# 5 10.3247 4.4846 4.5851 8.1027 42.3870 10.9416
# 6 8.2666 -1.1643 10.3394 4.5992 10.9416 58.3402
#
#
#
# Elastic Compliance Matrix: (Units=1/GPa)
#
#
# Indices 1 2 3 4 5 6 
#
# 1 0.012221 -0.002664 -0.002449 -0.000066 -0.002175 -0.000938
# 2 -0.002664 0.006914 -0.002518 -0.000864 0.000094 0.001012
# 3 -0.002449 -0.002518 0.021359 0.006904 -0.001814 -0.003693
# 4 -0.000066 -0.000864 0.006904 0.034635 -0.006555 -0.002732
# 5 -0.002175 0.000094 -0.001814 -0.006555 0.026550 -0.003831
# 6 -0.000938 0.001012 -0.003693 -0.002732 -0.003831 0.018882
#
#
# Mechanical properties :
#
#
# Convention : Reuss Voigt Hill
#
# Bulk Modulus (GPa) = 39.63364 55.32402 47.47883
# Shear Modulus (GPa) = 34.66591 42.54252 38.60421
#
# Velocity S-wave (km/s) = 3.80075 4.21047 4.01085
# Velocity P-wave (km/s) = 5.98137 6.83313 6.42139
#
# Compressibility (1/GPa) = 0.02523109
#
# Stress axis : x y z
#
# Youngs Moduli (GPa) = 81.82932 144.63329 46.81910
#
# Poissons Ratio (x) = 0.38530 0.11465
# Poissons Ratio (y) = 0.21799 0.11791
# Poissons Ratio (z) = 0.20038 0.36424
#
# Static dielectric constant tensor:
#      x y z
#    x 4.699320 -0.157860 0.117900 
#    y -0.157860 4.559900 0.127370 
#    z 0.117900 0.127370 4.215430 
# 
# 
# High freq. dielectric constant tensor:
#      x y z
#    x 1.972990 -0.005590 0.004080 
#    y -0.005590 1.975990 0.008130 
#    z 0.004080 0.008130 1.945160 
# 
# From -- ./inp_files/185290.got.cif
#   From: 2010.06.25/outbox.cif.g09.slc.cpg/sg2_93_cif.got.tgz:185290.got - 2010.06.27 13:26:56.
