data_PCOD8035469
_publ_section_title
;
Structure prediction by ZEFSAII (Michael W. Deem and Ramdas Pophale) SiO2 
 PCOD8035469
Probable space group: P -1
;
_chemical_formula_sum "Si O2"
_cell_formula_units_Z 16
_cell_length_a 9.896247
_cell_length_b 9.806768
_cell_length_c 14.940265
_cell_angle_alpha 70.112266
_cell_angle_beta 106.779449
_cell_angle_gamma 50.599431
_cell_volume 758.114180
_symmetry_space_group_name_H-M "P -1"
_symmetry_group_IT_number 2
_symmetry_cell_setting 'triclinic'
loop_
_space_group_symop_operation_xyz
x,y,z
-x,-y,-z
loop_
_atom_site_type_symbol
_atom_site_label
_atom_site_fract_x
_atom_site_fract_y
_atom_site_fract_z
Si Si1 0.400781 0.932277 0.961441
Si Si2 0.319067 0.587756 0.873178
Si Si3 0.191919 0.887674 0.301695
Si Si4 0.073398 0.809716 0.120211
Si Si5 0.786163 0.230065 0.470180
Si Si6 0.226221 0.153542 0.685573
Si Si7 0.461855 0.700025 0.733378
Si Si8 0.307358 0.395743 0.581550
O O1 0.331149 0.996757 0.830059
O O2 0.158309 0.096106 0.930644
O O3 0.500000 0.000000 0.000000
O O4 0.605422 0.639719 0.083638
O O5 0.328822 0.683896 0.767627
O O6 0.500000 0.500000 0.000000
O O7 0.046556 0.811158 0.811267
O O8 0.185629 0.783422 0.239441
O O9 0.182535 0.800749 0.410069
O O10 0.435017 0.782974 0.376869
O O11 0.247400 0.558616 0.149469
O O12 0.000000 0.000000 0.000000
O O13 0.570252 0.307939 0.377197
O O14 0.738601 0.439124 0.391614
O O15 0.000000 0.000000 0.500000
O O16 0.336236 0.220802 0.677795
O O17 0.931426 0.409046 0.572844
O O18 0.340024 0.956140 0.674021
#
# Coordination Sequence:
#
# PCOD8035469 Si02
#       8
#     2   2   2   2   2   2   2   2
#     4  12  28  45  70 102 143 188 231 288 363 414
#     4  12  22  45  70 100 137 184 228 292 343 421
#     4  12  25  42  75 106 134 178 247 288 347 414
#     4  12  25  43  73 106 137 182 238 291 341 421
#     4  12  23  40  73 101 129 178 235 283 340 419
#     4  11  26  47  66 100 150 186 225 293 363 409
#     4  12  23  42  71 102 138 176 237 284 353 411
#     4  11  25  45  70 100 142 185 228 294 351 415
#
# _framework density 21.105001000000001
#
# number of rings (size 3 to 8) (size 9 to 14) (size 15 to 20)
#    0.000    0.250    7.500    1.125    5.250    1.000 
#    0.000    1.875    0.000    0.000    0.000    0.000 
#    0.000    0.000    0.000    0.000    0.000    0.000 
#
# Total GULP energy -198246.324582 kJ/mol
# GULP energy per Si atom -12390.395286 kJ/mol
# Density = 2.105696 g / cm^3
# Si number density = 21.105001 Si / 1000 Ang^3
#
#
#
# Elastic Constant Matrix: (Units=GPa)
#
#
# Indices 1 2 3 4 5 6 
#
# 1 142.6052 67.1651 37.2230 -18.5522 7.8663 0.5743
# 2 67.1651 133.9841 44.4838 -28.2946 3.0026 -3.9830
# 3 37.2230 44.4838 83.8288 -4.9921 1.2103 -3.5274
# 4 -18.5522 -28.2946 -4.9921 52.0902 -3.9918 6.8485
# 5 7.8663 3.0026 1.2103 -3.9918 37.2179 -8.0480
# 6 0.5743 -3.9830 -3.5274 6.8485 -8.0480 43.1515
#
#
#
# Elastic Compliance Matrix: (Units=1/GPa)
#
#
# Indices 1 2 3 4 5 6 
#
# 1 0.009659 -0.003866 -0.002192 0.001148 -0.001790 -0.001181
# 2 -0.003866 0.011790 -0.004264 0.004639 0.000536 0.000155
# 3 -0.002192 -0.004264 0.015105 -0.001781 0.000390 0.001226
# 4 0.001148 0.004639 -0.001781 0.022450 0.001184 -0.003075
# 5 -0.001790 0.000536 0.000390 0.001184 0.028448 0.005223
# 6 -0.001181 0.000155 0.001226 -0.003075 0.005223 0.024766
#
#
# Mechanical properties :
#
#
# Convention : Reuss Voigt Hill
#
# Bulk Modulus (GPa) = 62.86494 73.12910 67.99702
# Shear Modulus (GPa) = 36.18797 40.59499 38.39148
#
# Velocity S-wave (km/s) = 4.14534 4.39050 4.26968
# Velocity P-wave (km/s) = 7.26383 7.77351 7.52299
#
# Compressibility (1/GPa) = 0.01590712
#
# Stress axis : x y z
#
# Youngs Moduli (GPa) = 103.53570 84.81861 66.20132
#
# Poissons Ratio (x) = 0.32794 0.14515
# Poissons Ratio (y) = 0.40031 0.28231
# Poissons Ratio (z) = 0.22700 0.36170
#
# Static dielectric constant tensor:
#      x y z
#    x 3.682880 0.138210 0.294330 
#    y 0.138210 3.389310 -1.191540 
#    z 0.294330 -1.191540 2.170730 
# 
# 
# High freq. dielectric constant tensor:
#      x y z
#    x 1.813290 -0.007000 0.008820 
#    y -0.007000 1.836460 -0.014520 
#    z 0.008820 -0.014520 1.843250 
# 
# From -- ./inp_files/494689.got.cif
#   From: 2010.06.25/outbox.cif.g09.slc.cpg/sg2_248_cif.got.tgz:494689.got - 2010.06.27 13:26:56.
