data_PCOD8035201
_publ_section_title
;
Structure prediction by ZEFSAII (Michael W. Deem and Ramdas Pophale) SiO2 
 PCOD8035201
Probable space group: P -1
;
_chemical_formula_sum "Si O2"
_cell_formula_units_Z 14
_cell_length_a 22.281360
_cell_length_b 16.367304
_cell_length_c 8.440490
_cell_angle_alpha 43.868724
_cell_angle_beta 32.181732
_cell_angle_gamma 23.721896
_cell_volume 638.311260
_symmetry_space_group_name_H-M "P -1"
_symmetry_group_IT_number 2
_symmetry_cell_setting 'triclinic'
loop_
_space_group_symop_operation_xyz
x,y,z
-x,-y,-z
loop_
_atom_site_type_symbol
_atom_site_label
_atom_site_fract_x
_atom_site_fract_y
_atom_site_fract_z
Si Si1 0.933855 0.905622 0.220828
Si Si2 0.290849 0.450940 0.202195
Si Si3 0.229899 0.305951 0.315633
Si Si4 0.413823 0.439015 0.284559
Si Si5 0.574287 0.100793 0.615194
Si Si6 0.362519 0.720022 0.436921
Si Si7 0.118772 0.816204 0.607647
O O1 0.118921 0.691615 0.200691
O O2 0.743129 0.982678 0.535500
O O3 0.842456 0.095825 0.258533
O O4 0.985363 0.888310 0.949657
O O5 0.225343 0.376756 0.398566
O O6 0.347186 0.428817 0.288139
O O7 0.495917 0.288672 0.869117
O O8 0.000000 0.500000 0.500000
O O9 0.336835 0.088444 0.414125
O O10 0.359957 0.260339 0.953161
O O11 0.559696 0.225086 0.354316
O O12 0.206841 0.627548 0.582676
O O13 0.500000 0.500000 0.000000
O O14 0.500000 0.500000 0.500000
O O15 0.301883 0.739907 0.365684
O O16 0.000000 0.000000 0.500000
#
# Coordination Sequence:
#
# PCOD8035201 Si02
#       7
#     2   2   2   2   2   2   2
#     4  12  24  42  69 102 136 187 243 290 353 424
#     4  12  25  44  70 102 140 186 239 290 352 429
#     4  11  24  49  78 103 133 190 251 298 350 414
#     4  12  26  46  68 108 153 188 228 292 365 431
#     4  11  25  45  76 104 142 184 240 302 355 415
#     4  12  24  41  65  99 142 184 238 287 347 432
#     4  12  25  40  65 101 147 193 228 287 357 429
#
# _framework density 21.932872
#
# number of rings (size 3 to 8) (size 9 to 14) (size 15 to 20)
#    0.000    0.286    5.714    3.857    2.000    0.571 
#    0.000    0.714    0.000    0.000    0.000    0.000 
#    0.000    0.000    0.000    0.000    0.000    0.000 
#
# Total GULP energy -173450.736288 kJ/mol
# GULP energy per Si atom -12389.338306 kJ/mol
# Density = 2.188295 g / cm^3
# Si number density = 21.932872 Si / 1000 Ang^3
#
#
#
# Elastic Constant Matrix: (Units=GPa)
#
#
# Indices 1 2 3 4 5 6 
#
# 1 145.6451 58.4009 33.9474 10.6689 0.1693 8.1394
# 2 58.4009 151.2631 39.9345 4.4868 7.9727 5.2737
# 3 33.9474 39.9345 88.1219 18.3251 -1.0076 -0.7363
# 4 10.6689 4.4868 18.3251 44.3150 1.8176 0.4518
# 5 0.1693 7.9727 -1.0076 1.8176 31.9803 10.8508
# 6 8.1394 5.2737 -0.7363 0.4518 10.8508 46.4947
#
#
#
# Elastic Compliance Matrix: (Units=1/GPa)
#
#
# Indices 1 2 3 4 5 6 
#
# 1 0.008573 -0.002811 -0.001806 -0.001065 0.001158 -0.001470
# 2 -0.002811 0.008597 -0.003083 0.001175 -0.002289 -0.000009
# 3 -0.001806 -0.003083 0.014572 -0.005340 0.001324 0.000640
# 4 -0.001065 0.001175 -0.005340 0.024989 -0.001936 0.000178
# 5 0.001158 -0.002289 0.001324 -0.001936 0.034700 -0.008002
# 6 -0.001470 -0.000009 0.000640 0.000178 -0.008002 0.023642
#
#
# Mechanical properties :
#
#
# Convention : Reuss Voigt Hill
#
# Bulk Modulus (GPa) = 61.20065 72.17729 66.68897
# Shear Modulus (GPa) = 36.78600 41.40781 39.09691
#
# Velocity S-wave (km/s) = 4.09982 4.34975 4.22663
# Velocity P-wave (km/s) = 7.09757 7.62934 7.36825
#
# Compressibility (1/GPa) = 0.01633970
#
# Stress axis : x y z
#
# Youngs Moduli (GPa) = 116.64353 116.32562 68.62520
#
# Poissons Ratio (x) = 0.32703 0.12395
# Poissons Ratio (y) = 0.32792 0.21160
# Poissons Ratio (z) = 0.21068 0.35868
#
# Static dielectric constant tensor:
#      x y z
#    x 4.199430 0.225160 -0.104200 
#    y 0.225160 4.165190 0.519380 
#    z -0.104200 0.519380 4.506870 
# 
# 
# High freq. dielectric constant tensor:
#      x y z
#    x 1.877760 0.009090 -0.008960 
#    y 0.009090 1.868960 0.032900 
#    z -0.008960 0.032900 1.860470 
# 
# From -- ./inp_files/355004.got.cif
#   From: 2010.06.25/outbox.cif.g09.slc.cpg/sg2_178_cif.got.tgz:355004.got - 2010.06.27 13:26:56.
