data_PCOD8035430
_publ_section_title
;
Structure prediction by ZEFSAII (Michael W. Deem and Ramdas Pophale) SiO2 
 PCOD8035430
Probable space group: P -1
;
_chemical_formula_sum "Si O2"
_cell_formula_units_Z 14
_cell_length_a 13.132838
_cell_length_b 25.921068
_cell_length_c 25.587544
_cell_angle_alpha 169.323991
_cell_angle_beta 157.327359
_cell_angle_gamma 20.555371
_cell_volume 566.122355
_symmetry_space_group_name_H-M "P -1"
_symmetry_group_IT_number 2
_symmetry_cell_setting 'triclinic'
loop_
_space_group_symop_operation_xyz
x,y,z
-x,-y,-z
loop_
_atom_site_type_symbol
_atom_site_label
_atom_site_fract_x
_atom_site_fract_y
_atom_site_fract_z
Si Si1 0.511501 0.136614 0.488988
Si Si2 0.517781 0.288348 0.371212
Si Si3 0.883561 0.466809 0.967623
Si Si4 0.921497 0.146375 0.327672
Si Si5 0.969031 0.256736 0.280880
Si Si6 0.580509 0.721901 0.899980
Si Si7 0.304332 0.462138 0.823833
O O1 0.208898 0.172289 0.355964
O O2 0.478311 0.276263 0.670617
O O3 0.720262 0.779544 0.233272
O O4 0.666667 0.304004 0.694209
O O5 0.722058 0.414784 0.625766
O O6 0.224974 0.600900 0.535504
O O7 0.438262 0.035578 0.111169
O O8 0.319871 0.860911 0.753855
O O9 0.166397 0.249756 0.918069
O O10 0.000000 0.500000 0.000000
O O11 0.147571 0.262593 0.576909
O O12 0.080225 0.802727 0.038168
O O13 0.000000 0.500000 0.500000
O O14 0.655537 0.349668 0.250373
O O15 0.000000 0.000000 0.000000
O O16 0.500000 0.500000 0.000000
#
# Coordination Sequence:
#
# PCOD8035430 Si02
#       7
#     2   2   2   2   2   2   2
#     4  12  27  48  76 110 154 202 250 315 391 456
#     4  11  25  44  75 105 143 195 250 322 370 445
#     4  12  27  48  75 111 153 196 250 319 392 460
#     4  11  25  47  70 106 152 193 258 314 376 432
#     4  12  26  48  76 109 147 194 252 321 390 460
#     4  12  25  44  76 107 146 193 259 306 385 462
#     4  12  27  45  74 107 156 204 259 301 378 470
#
# _framework density 24.729635999999999
#
# number of rings (size 3 to 8) (size 9 to 14) (size 15 to 20)
#    0.000    0.286    0.000    8.571    6.000    4.571 
#    0.000    0.000    0.000    0.000    0.000    0.000 
#    0.000    0.000    0.000    0.000    0.000    0.000 
#
# Total GULP energy -173552.341385 kJ/mol
# GULP energy per Si atom -12396.595813 kJ/mol
# Density = 2.467335 g / cm^3
# Si number density = 24.729636 Si / 1000 Ang^3
#
#
#
# Elastic Constant Matrix: (Units=GPa)
#
#
# Indices 1 2 3 4 5 6 
#
# 1 107.0253 52.8252 37.4708 3.3777 7.3750 -1.7903
# 2 52.8252 101.1414 34.2346 4.8198 -6.2323 -7.2060
# 3 37.4708 34.2346 162.7321 5.1033 11.6606 -5.8130
# 4 3.3777 4.8198 5.1033 51.0343 9.6627 -1.8774
# 5 7.3750 -6.2323 11.6606 9.6627 36.5085 3.2061
# 6 -1.7903 -7.2060 -5.8130 -1.8774 3.2061 31.3661
#
#
#
# Elastic Compliance Matrix: (Units=1/GPa)
#
#
# Indices 1 2 3 4 5 6 
#
# 1 0.013425 -0.006810 -0.001449 0.000536 -0.003494 -0.000678
# 2 -0.006810 0.014525 -0.001696 -0.001551 0.004626 0.002068
# 3 -0.001449 -0.001696 0.007041 0.000036 -0.002350 0.001075
# 4 0.000536 -0.001551 0.000036 0.020905 -0.006054 0.001551
# 5 -0.003494 0.004626 -0.002350 -0.006054 0.031516 -0.003156
# 6 -0.000678 0.002068 0.001075 0.001551 -0.003156 0.032933
#
#
# Mechanical properties :
#
#
# Convention : Reuss Voigt Hill
#
# Bulk Modulus (GPa) = 66.31739 68.88444 67.60092
# Shear Modulus (GPa) = 34.41553 40.20631 37.31092
#
# Velocity S-wave (km/s) = 3.73456 4.03654 3.88848
# Velocity P-wave (km/s) = 6.74323 7.04559 6.89607
#
# Compressibility (1/GPa) = 0.01507900
#
# Stress axis : x y z
#
# Youngs Moduli (GPa) = 74.48855 68.84860 142.01990
#
# Poissons Ratio (x) = 0.46888 0.20581
# Poissons Ratio (y) = 0.50729 0.24093
# Poissons Ratio (z) = 0.10795 0.11680
#
# Static dielectric constant tensor:
#      x y z
#    x 4.360060 -0.013480 -0.088700 
#    y -0.013480 5.069810 -0.564000 
#    z -0.088700 -0.564000 5.183930 
# 
# 
# High freq. dielectric constant tensor:
#      x y z
#    x 1.987940 -0.001610 0.000130 
#    y -0.001610 1.982010 -0.008250 
#    z 0.000130 -0.008250 2.016070 
# 
# From -- ./inp_files/620002.got.cif
#   From: 2010.06.25/outbox.cif.g09.slc.cpg/sg2_311_cif.got.tgz:620002.got - 2010.06.27 13:26:56.
