data_PCOD8035450
_publ_section_title
;
Structure prediction by ZEFSAII (Michael W. Deem and Ramdas Pophale) SiO2 
 PCOD8035450
Probable space group: P -1
;
_chemical_formula_sum "Si O2"
_cell_formula_units_Z 16
_cell_length_a 19.088155
_cell_length_b 6.291393
_cell_length_c 21.147488
_cell_angle_alpha 125.363558
_cell_angle_beta 20.936004
_cell_angle_gamma 131.746603
_cell_volume 668.148345
_symmetry_space_group_name_H-M "P -1"
_symmetry_group_IT_number 2
_symmetry_cell_setting 'triclinic'
loop_
_space_group_symop_operation_xyz
x,y,z
-x,-y,-z
loop_
_atom_site_type_symbol
_atom_site_label
_atom_site_fract_x
_atom_site_fract_y
_atom_site_fract_z
Si Si1 0.726308 0.342054 0.947529
Si Si2 0.226215 0.934288 0.862133
Si Si3 0.424892 0.732910 0.129619
Si Si4 0.174554 0.327779 0.770470
Si Si5 0.521740 0.732703 0.404879
Si Si6 0.992361 0.593627 0.638649
Si Si7 0.468124 0.716584 0.237163
Si Si8 0.913002 0.767580 0.313676
O O1 0.864684 0.476865 0.791514
O O2 0.888077 0.320068 0.860984
O O3 0.597262 0.523865 0.110621
O O4 0.541791 0.017441 0.037159
O O5 0.308793 0.177122 0.780236
O O6 0.412305 0.999332 0.770653
O O7 0.155904 0.626896 0.835099
O O8 0.009706 0.922046 0.075164
O O9 0.488587 0.804072 0.161538
O O10 0.164416 0.604362 0.318740
O O11 0.500000 0.500000 0.000000
O O12 0.405709 0.398146 0.619028
O O13 0.138338 0.194384 0.708915
O O14 0.298738 0.491976 0.522735
O O15 0.500000 0.000000 0.500000
O O16 0.215327 0.556417 0.442938
O O17 0.037641 0.925314 0.643115
#
# Coordination Sequence:
#
# PCOD8035450 Si02
#       8
#     2   2   2   2   2   2   2   2
#     4  12  26  48  77 109 150 192 246 302 374 436
#     4  11  25  45  67 106 141 190 242 298 361 430
#     4  12  25  52  77 110 149 194 240 308 374 439
#     4  11  25  45  72  98 148 191 240 301 363 425
#     4  12  26  42  71 103 140 188 246 291 356 427
#     4  12  27  48  77 111 150 194 248 300 373 441
#     4  12  28  46  76 110 152 189 249 305 364 441
#     4  12  26  45  77 106 150 196 241 305 367 431
#
# _framework density 23.946774999999999
#
# number of rings (size 3 to 8) (size 9 to 14) (size 15 to 20)
#    0.000    0.250    3.750    4.500    5.250    5.500 
#    0.000    0.000    0.000    0.000    0.000    0.000 
#    0.000    0.000    0.000    0.000    0.000    0.000 
#
# Total GULP energy -198393.367385 kJ/mol
# GULP energy per Si atom -12399.585462 kJ/mol
# Density = 2.389227 g / cm^3
# Si number density = 23.946775 Si / 1000 Ang^3
#
#
#
# Elastic Constant Matrix: (Units=GPa)
#
#
# Indices 1 2 3 4 5 6 
#
# 1 113.1548 19.2941 25.3344 -5.4567 -13.6911 -0.5327
# 2 19.2941 90.3566 51.5793 -22.1312 -0.7603 -9.7620
# 3 25.3344 51.5793 133.6983 -8.6499 -14.8854 -13.7791
# 4 -5.4567 -22.1312 -8.6499 45.3988 -2.5629 -8.7980
# 5 -13.6911 -0.7603 -14.8854 -2.5629 51.0123 -1.0280
# 6 -0.5327 -9.7620 -13.7791 -8.7980 -1.0280 28.8907
#
#
#
# Elastic Compliance Matrix: (Units=1/GPa)
#
#
# Indices 1 2 3 4 5 6 
#
# 1 0.009601 -0.001430 -0.001070 0.000252 0.002243 -0.000660
# 2 -0.001430 0.016989 -0.005308 0.008121 -0.001158 0.005614
# 3 -0.001070 -0.005308 0.010371 0.000042 0.002727 0.003243
# 4 0.000252 0.008121 0.000042 0.028352 0.001856 0.011469
# 5 0.002243 -0.001158 0.002727 0.001856 0.021123 0.002268
# 6 -0.000660 0.005614 0.003243 0.011469 0.002268 0.041618
#
#
# Mechanical properties :
#
#
# Convention : Reuss Voigt Hill
#
# Bulk Modulus (GPa) = 46.85029 58.84727 52.84878
# Shear Modulus (GPa) = 33.16025 41.12717 37.14371
#
# Velocity S-wave (km/s) = 3.72526 4.14870 3.94267
# Velocity P-wave (km/s) = 6.17335 6.89757 6.54548
#
# Compressibility (1/GPa) = 0.02134459
#
# Stress axis : x y z
#
# Youngs Moduli (GPa) = 104.15362 58.86303 96.42728
#
# Poissons Ratio (x) = 0.08420 0.10313
# Poissons Ratio (y) = 0.14899 0.51183
# Poissons Ratio (z) = 0.11139 0.31244
#
# Static dielectric constant tensor:
#      x y z
#    x 4.432800 0.271550 -0.108600 
#    y 0.271550 3.645780 -0.466750 
#    z -0.108600 -0.466750 4.611920 
# 
# 
# High freq. dielectric constant tensor:
#      x y z
#    x 1.954980 0.002760 -0.009550 
#    y 0.002760 1.939360 -0.018300 
#    z -0.009550 -0.018300 1.968050 
# 
# From -- ./inp_files/613435.got.cif
#   From: 2010.06.25/outbox.cif.g09.slc.cpg/sg2_307_cif.got.tgz:613435.got - 2010.06.27 13:26:56.
