data_PCOD8035943
_publ_section_title
;
Structure prediction by ZEFSAII (Michael W. Deem and Ramdas Pophale) SiO2 
 PCOD8035943
Probable space group: P -1
;
_chemical_formula_sum "Si O2"
_cell_formula_units_Z 16
_cell_length_a 5.587332
_cell_length_b 12.245758
_cell_length_c 14.338887
_cell_angle_alpha 119.040747
_cell_angle_beta 86.870929
_cell_angle_gamma 56.853523
_cell_volume 645.899844
_symmetry_space_group_name_H-M "P -1"
_symmetry_group_IT_number 2
_symmetry_cell_setting 'triclinic'
loop_
_space_group_symop_operation_xyz
x,y,z
-x,-y,-z
loop_
_atom_site_type_symbol
_atom_site_label
_atom_site_fract_x
_atom_site_fract_y
_atom_site_fract_z
Si Si1 0.320122 0.234615 0.536742
Si Si2 0.373827 0.291062 0.092382
Si Si3 0.652914 0.029725 0.820058
Si Si4 0.624288 0.153604 0.217278
Si Si5 0.700360 0.504442 0.265471
Si Si6 0.312809 0.109855 0.684664
Si Si7 0.341378 0.574919 0.132342
Si Si8 0.654992 0.511356 0.589048
O O1 0.400712 0.350504 0.601382
O O2 0.266573 0.190150 0.619704
O O3 0.005122 0.336386 0.522582
O O4 0.599568 0.066695 0.406197
O O5 0.651324 0.173627 0.113625
O O6 0.293784 0.459677 0.136715
O O7 0.069397 0.348160 0.181269
O O8 0.441541 0.191801 0.956402
O O9 0.511177 0.939170 0.802882
O O10 0.023274 0.934131 0.787572
O O11 0.578429 0.083635 0.734472
O O12 0.369115 0.329459 0.351824
O O13 0.565507 0.580198 0.196847
O O14 0.545978 0.438012 0.290382
O O15 0.980301 0.237164 0.798973
O O16 0.500000 0.500000 0.000000
O O17 0.500000 0.500000 0.500000
#
# Coordination Sequence:
#
# PCOD8035943 Si02
#       8
#     2   2   2   2   2   2   2   2
#     4  11  25  48  75 104 153 197 258 324 396 462
#     4  12  26  49  75 110 154 203 260 323 396 464
#     4  12  30  45  78 113 156 208 258 326 392 470
#     4  12  26  51  73 114 155 201 264 321 394 469
#     4  12  23  46  77 110 146 206 252 326 388 461
#     4  11  25  51  69 114 152 196 263 319 392 471
#     4  12  27  47  80 112 154 205 259 322 389 473
#     4  12  26  47  78 109 149 205 261 320 396 470
#
# _framework density 24.771642
#
# number of rings (size 3 to 8) (size 9 to 14) (size 15 to 20)
#    0.000    0.250    5.000    3.000    7.000    2.000 
#    0.000    0.000    0.000    0.000    0.000    0.000 
#    0.000    0.000    0.000    0.000    0.000    0.000 
#
# Total GULP energy -198326.323912 kJ/mol
# GULP energy per Si atom -12395.395245 kJ/mol
# Density = 2.471526 g / cm^3
# Si number density = 24.771642 Si / 1000 Ang^3
#
#
#
# Elastic Constant Matrix: (Units=GPa)
#
#
# Indices 1 2 3 4 5 6 
#
# 1 103.2017 54.5981 26.6113 6.5660 4.2495 -20.9514
# 2 54.5981 138.8278 65.6629 8.1268 12.9238 -32.8988
# 3 26.6113 65.6629 154.0103 11.4653 11.8517 -25.7460
# 4 6.5660 8.1268 11.4653 49.0270 -9.9235 9.1550
# 5 4.2495 12.9238 11.8517 -9.9235 45.3154 -4.1581
# 6 -20.9514 -32.8988 -25.7460 9.1550 -4.1581 36.4531
#
#
#
# Elastic Compliance Matrix: (Units=1/GPa)
#
#
# Indices 1 2 3 4 5 6 
#
# 1 0.012753 -0.004016 0.000424 -0.002019 -0.000192 0.004490
# 2 -0.004016 0.012205 -0.002980 -0.002547 -0.002242 0.006986
# 3 0.000424 -0.002980 0.008727 -0.002731 -0.001684 0.004212
# 4 -0.002019 -0.002547 -0.002731 0.025012 0.006100 -0.010974
# 5 -0.000192 -0.002242 -0.001684 0.006100 0.024310 -0.002082
# 6 0.004490 0.006986 0.004212 -0.010974 -0.002082 0.041812
#
#
# Mechanical properties :
#
#
# Convention : Reuss Voigt Hill
#
# Bulk Modulus (GPa) = 48.67994 76.64271 62.66132
# Shear Modulus (GPa) = 34.52788 42.77027 38.64907
#
# Velocity S-wave (km/s) = 3.73748 4.15972 3.95424
# Velocity P-wave (km/s) = 6.19024 7.35377 6.79695
#
# Compressibility (1/GPa) = 0.02054234
#
# Stress axis : x y z
#
# Youngs Moduli (GPa) = 78.41348 81.93089 114.58256
#
# Poissons Ratio (x) = 0.32905 -0.04862
# Poissons Ratio (y) = 0.31492 0.34144
# Poissons Ratio (z) = -0.03327 0.24414
#
# Static dielectric constant tensor:
#      x y z
#    x 4.355920 -0.011540 0.267650 
#    y -0.011540 5.233930 -0.018410 
#    z 0.267650 -0.018410 4.827920 
# 
# 
# High freq. dielectric constant tensor:
#      x y z
#    x 1.970610 -0.005240 0.016070 
#    y -0.005240 2.007720 -0.007140 
#    z 0.016070 -0.007140 2.007380 
# 
# From -- ./inp_files/484399.got.cif
#   From: 2010.06.25/outbox.cif.g09.slc.cpg/sg2_243_cif.got.tgz:484399.got - 2010.06.27 13:26:56.
