data_PCOD8035940
_publ_section_title
;
Structure prediction by ZEFSAII (Michael W. Deem and Ramdas Pophale) SiO2 
 PCOD8035940
Probable space group: P -1
;
_chemical_formula_sum "Si O2"
_cell_formula_units_Z 16
_cell_length_a 8.267955
_cell_length_b 8.687806
_cell_length_c 23.005270
_cell_angle_alpha 33.821921
_cell_angle_beta 50.313356
_cell_angle_gamma 52.915542
_cell_volume 697.619723
_symmetry_space_group_name_H-M "P -1"
_symmetry_group_IT_number 2
_symmetry_cell_setting 'triclinic'
loop_
_space_group_symop_operation_xyz
x,y,z
-x,-y,-z
loop_
_atom_site_type_symbol
_atom_site_label
_atom_site_fract_x
_atom_site_fract_y
_atom_site_fract_z
Si Si1 0.230418 0.303059 0.494897
Si Si2 0.053601 0.301997 0.774575
Si Si3 0.235280 0.254260 0.868393
Si Si4 0.847046 0.762368 0.975211
Si Si5 0.687319 0.744826 0.726188
Si Si6 0.527367 0.257499 0.341052
Si Si7 0.491547 0.661277 0.391226
Si Si8 0.460171 0.657083 0.020335
O O1 0.299719 0.246327 0.429228
O O2 0.417479 0.461075 0.423723
O O3 0.000000 0.500000 0.500000
O O4 0.271579 0.992438 0.611776
O O5 0.056216 0.312138 0.841201
O O6 0.282407 0.261144 0.703958
O O7 0.917437 0.603061 0.692005
O O8 0.934893 0.053097 0.857533
O O9 0.412635 0.441275 0.752522
O O10 0.167103 0.326666 0.926841
O O11 0.302562 0.924889 0.951049
O O12 0.639173 0.785062 0.975393
O O13 0.000000 0.500000 0.000000
O O14 0.506433 0.773101 0.709948
O O15 0.638851 0.540572 0.851922
O O16 0.685760 0.055854 0.653883
O O17 0.500000 0.500000 0.500000
O O18 0.500000 0.500000 0.000000
#
# Coordination Sequence:
#
# PCOD8035940 Si02
#       8
#     2   2   2   2   2   2   2   2
#     4  11  27  50  76 105 143 192 249 310 378 431
#     4  12  28  47  73 109 150 198 247 304 375 436
#     4  12  24  48  70 106 155 189 244 309 363 441
#     4  12  25  44  73 106 147 197 246 298 369 440
#     4  12  26  46  76 105 148 197 239 301 375 433
#     4  11  25  48  74 109 147 187 246 309 368 442
#     4  12  27  50  71 107 145 186 249 312 363 447
#     4  12  26  47  72 108 154 197 246 300 362 443
#
# _framework density 22.935133
#
# number of rings (size 3 to 8) (size 9 to 14) (size 15 to 20)
#    0.000    0.250    5.000    3.750    5.250    0.500 
#    2.250    0.000    0.000    0.000    0.000    0.000 
#    0.000    0.000    0.000    0.000    0.000    0.000 
#
# Total GULP energy -198250.504957 kJ/mol
# GULP energy per Si atom -12390.656560 kJ/mol
# Density = 2.288293 g / cm^3
# Si number density = 22.935133 Si / 1000 Ang^3
#
#
#
# Elastic Constant Matrix: (Units=GPa)
#
#
# Indices 1 2 3 4 5 6 
#
# 1 83.2210 20.6378 28.3215 11.3379 10.1564 18.1122
# 2 20.6378 144.0002 46.6496 -7.1854 16.7790 -3.7070
# 3 28.3215 46.6496 125.3233 -13.3328 13.4783 -0.2990
# 4 11.3379 -7.1854 -13.3328 33.7746 -1.9838 1.8034
# 5 10.1564 16.7790 13.4783 -1.9838 36.1219 -6.8851
# 6 18.1122 -3.7070 -0.2990 1.8034 -6.8851 45.7915
#
#
#
# Elastic Compliance Matrix: (Units=1/GPa)
#
#
# Indices 1 2 3 4 5 6 
#
# 1 0.016607 -0.001232 -0.003586 -0.007139 -0.004502 -0.007087
# 2 -0.001232 0.008256 -0.002426 0.001033 -0.002385 0.000741
# 3 -0.003586 -0.002426 0.010328 0.004640 -0.001289 0.000913
# 4 -0.007139 0.001033 0.004640 0.034074 0.002030 0.001901
# 5 -0.004502 -0.002385 -0.001289 0.002030 0.031849 0.006288
# 6 -0.007087 0.000741 0.000913 0.001901 0.006288 0.025578
#
#
# Mechanical properties :
#
#
# Convention : Reuss Voigt Hill
#
# Bulk Modulus (GPa) = 48.31015 60.41803 54.36409
# Shear Modulus (GPa) = 33.76542 40.26663 37.01602
#
# Velocity S-wave (km/s) = 3.84111 4.19462 4.02175
# Velocity P-wave (km/s) = 6.38605 7.06116 6.73208
#
# Compressibility (1/GPa) = 0.02069958
#
# Stress axis : x y z
#
# Youngs Moduli (GPa) = 60.21624 121.13003 96.82859
#
# Poissons Ratio (x) = 0.14927 0.34727
# Poissons Ratio (y) = 0.07421 0.23494
# Poissons Ratio (z) = 0.21596 0.29391
#
# Static dielectric constant tensor:
#      x y z
#    x 4.226010 0.123530 0.080660 
#    y 0.123530 4.253630 -0.175750 
#    z 0.080660 -0.175750 4.266870 
# 
# 
# High freq. dielectric constant tensor:
#      x y z
#    x 1.907800 0.014110 0.009250 
#    y 0.014110 1.920290 -0.011100 
#    z 0.009250 -0.011100 1.917400 
# 
# From -- ./inp_files/606548.got.cif
#   From: 2010.06.25/outbox.cif.g09.slc.cpg/sg2_304_cif.got.tgz:606548.got - 2010.06.27 13:26:56.
