data_PCOD8035577
_publ_section_title
;
Structure prediction by ZEFSAII (Michael W. Deem and Ramdas Pophale) SiO2 
 PCOD8035577
Probable space group: P -1
;
_chemical_formula_sum "Si O2"
_cell_formula_units_Z 16
_cell_length_a 11.673784
_cell_length_b 5.724362
_cell_length_c 22.991375
_cell_angle_alpha 122.674604
_cell_angle_beta 31.654809
_cell_angle_gamma 110.717014
_cell_volume 658.953488
_symmetry_space_group_name_H-M "P -1"
_symmetry_group_IT_number 2
_symmetry_cell_setting 'triclinic'
loop_
_space_group_symop_operation_xyz
x,y,z
-x,-y,-z
loop_
_atom_site_type_symbol
_atom_site_label
_atom_site_fract_x
_atom_site_fract_y
_atom_site_fract_z
Si Si1 0.243473 0.357466 0.203448
Si Si2 0.049243 0.306655 0.896090
Si Si3 0.034773 0.264622 0.172700
Si Si4 0.961871 0.955380 0.443360
Si Si5 0.361562 0.400324 0.962711
Si Si6 0.653606 0.828281 0.740681
Si Si7 0.472747 0.644719 0.347158
Si Si8 0.431302 0.347177 0.567906
O O1 0.114291 0.175323 0.193166
O O2 0.439283 0.441062 0.091650
O O3 0.363379 0.188653 0.184538
O O4 0.053624 0.628196 0.343327
O O5 0.276950 0.327323 0.769612
O O6 0.056072 0.971315 0.856809
O O7 0.000000 0.500000 0.000000
O O8 0.838380 0.407817 0.960377
O O9 0.838087 0.554301 0.298316
O O10 0.258232 0.326313 0.057274
O O11 0.701698 0.050410 0.548434
O O12 0.000000 0.000000 0.500000
O O13 0.093221 0.160164 0.380998
O O14 0.470272 0.113997 0.839755
O O15 0.592388 0.570156 0.699066
O O16 0.460555 0.543364 0.405935
O O17 0.500000 0.500000 0.500000
O O18 0.500000 0.000000 0.500000
#
# Coordination Sequence:
#
# PCOD8035577 Si02
#       8
#     2   2   2   2   2   2   2   2
#     4  11  25  47  74 108 151 192 259 326 388 476
#     4  12  28  47  75 111 158 205 263 323 394 483
#     4  12  27  47  77 107 154 208 256 325 400 467
#     4  11  25  45  75 112 150 194 257 324 394 472
#     4  11  25  48  71 110 144 195 262 315 397 462
#     4  11  26  45  76 112 143 199 251 328 395 463
#     4  12  25  49  77 111 156 203 263 323 403 473
#     4  12  29  51  76 116 162 217 267 327 400 485
#
# _framework density 24.280923999999999
#
# number of rings (size 3 to 8) (size 9 to 14) (size 15 to 20)
#    0.000    0.500    2.500    4.500    5.250    6.000 
#    0.000    0.000    0.000    0.000    0.000    0.000 
#    0.000    0.000    0.000    0.000    0.000    0.000 
#
# Total GULP energy -198308.729226 kJ/mol
# GULP energy per Si atom -12394.295577 kJ/mol
# Density = 2.422566 g / cm^3
# Si number density = 24.280924 Si / 1000 Ang^3
#
#
#
# Elastic Constant Matrix: (Units=GPa)
#
#
# Indices 1 2 3 4 5 6 
#
# 1 128.2250 20.9424 34.1478 6.2852 24.1253 -2.4747
# 2 20.9424 97.1387 38.5803 3.2164 15.1592 -1.2182
# 3 34.1478 38.5803 140.7934 9.1038 -4.7841 -2.0041
# 4 6.2852 3.2164 9.1038 21.5994 -22.1798 4.0220
# 5 24.1253 15.1592 -4.7841 -22.1798 34.5610 2.4639
# 6 -2.4747 -1.2182 -2.0041 4.0220 2.4639 35.8444
#
#
#
# Elastic Compliance Matrix: (Units=1/GPa)
#
#
# Indices 1 2 3 4 5 6 
#
# 1 0.207072 0.141335 -0.053180 -0.954459 -0.839331 0.180918
# 2 0.141335 0.113909 -0.039899 -0.683748 -0.602179 0.129513
# 3 -0.053180 -0.039899 0.021867 0.244543 0.217882 -0.046221
# 4 -0.954459 -0.683748 0.244543 4.620408 4.027278 -0.870734
# 5 -0.839331 -0.602179 0.217882 4.027278 3.547981 -0.762004
# 6 0.180918 0.129513 -0.046221 -0.870734 -0.762004 0.192288
#
#
# Mechanical properties :
#
#
# Convention : Reuss Voigt Hill
#
# Bulk Modulus (GPa) = 2.27603 61.49980 31.88792
# Shear Modulus (GPa) = 0.57120 36.56673 18.56897
#
# Velocity S-wave (km/s) = 0.48555 3.88491 2.76842
# Velocity P-wave (km/s) = 1.11971 6.74588 4.83532
#
# Compressibility (1/GPa) = 0.43936109
#
# Stress axis : x y z
#
# Youngs Moduli (GPa) = 4.82923 8.77891 45.73103
#
# Poissons Ratio (x) = -1.24077 2.43197
# Poissons Ratio (y) = -0.68254 1.82461
# Poissons Ratio (z) = 0.25682 0.35027
#
# Static dielectric constant tensor:
#      x y z
#    x 4.314110 0.058900 -0.238950 
#    y 0.058900 4.206780 0.213120 
#    z -0.238950 0.213120 4.544240 
# 
# 
# High freq. dielectric constant tensor:
#      x y z
#    x 1.975810 -0.001410 -0.003350 
#    y -0.001410 1.950700 0.008400 
#    z -0.003350 0.008400 1.991490 
# 
# From -- ./inp_files/95089.got.cif
#   From: 2010.06.25/outbox.cif.g09.slc.cpg/sg2_48_cif.got.tgz:95089.got - 2010.06.27 13:26:56.
