data_PCOD8035737
_publ_section_title
;
Structure prediction by ZEFSAII (Michael W. Deem and Ramdas Pophale) SiO2 
 PCOD8035737
Probable space group: P -1
;
_chemical_formula_sum "Si O2"
_cell_formula_units_Z 12
_cell_length_a 17.958579
_cell_length_b 9.301834
_cell_length_c 6.188464
_cell_angle_alpha 62.674378
_cell_angle_beta 98.565581
_cell_angle_gamma 144.156638
_cell_volume 485.796804
_symmetry_space_group_name_H-M "P -1"
_symmetry_group_IT_number 2
_symmetry_cell_setting 'triclinic'
loop_
_space_group_symop_operation_xyz
x,y,z
-x,-y,-z
loop_
_atom_site_type_symbol
_atom_site_label
_atom_site_fract_x
_atom_site_fract_y
_atom_site_fract_z
Si Si1 0.492329 0.827478 0.941485
Si Si2 0.719500 0.036881 0.128518
Si Si3 0.247891 0.228176 0.512989
Si Si4 0.981739 0.596361 0.613102
Si Si5 0.614948 0.080766 0.371025
Si Si6 0.864373 0.698266 0.279640
O O1 0.470629 0.989935 0.827715
O O2 0.500855 0.833029 0.676775
O O3 0.356036 0.490873 0.202861
O O4 0.634364 0.993789 0.953907
O O5 0.689793 0.053790 0.343035
O O6 0.675693 0.766721 0.301844
O O7 0.884849 0.345577 0.933076
O O8 0.177727 0.241416 0.609988
O O9 0.132820 0.917700 0.546881
O O10 0.899947 0.604027 0.491180
O O11 0.000000 0.500000 0.500000
O O12 0.734625 0.426926 0.252099
O O13 0.000000 0.000000 0.000000
#
# Coordination Sequence:
#
# PCOD8035737 Si02
#       6
#     2   2   2   2   2   2
#     4  11  26  46  72 106 145 184 238 287 355 417
#     4  12  25  48  72 103 145 186 236 287 357 416
#     4  12  27  44  72 109 143 183 236 297 347 421
#     4  12  25  48  73 102 141 189 237 291 351 419
#     4  11  25  46  75 102 142 192 232 288 355 418
#     4  12  24  45  71 107 142 184 241 289 350 416
#
# _framework density 24.701685000000001
#
# number of rings (size 3 to 8) (size 9 to 14) (size 15 to 20)
#    0.000    0.333    1.667    7.000    4.667    0.667 
#    0.000    0.000    0.000    0.000    0.000    0.000 
#    0.000    0.000    0.000    0.000    0.000    0.000 
#
# Total GULP energy -148766.732206 kJ/mol
# GULP energy per Si atom -12397.227684 kJ/mol
# Density = 2.464546 g / cm^3
# Si number density = 24.701685 Si / 1000 Ang^3
#
#
#
# Elastic Constant Matrix: (Units=GPa)
#
#
# Indices 1 2 3 4 5 6 
#
# 1 186.6253 45.0266 70.8167 -11.1779 3.6935 -16.3140
# 2 45.0266 82.6803 30.2706 -10.4859 -4.6981 1.7815
# 3 70.8167 30.2706 175.5956 -44.5926 -9.0660 10.9680
# 4 -11.1779 -10.4859 -44.5926 27.8914 18.6747 3.8405
# 5 3.6935 -4.6981 -9.0660 18.6747 55.7292 -4.1669
# 6 -16.3140 1.7815 10.9680 3.8405 -4.1669 40.7819
#
#
#
# Elastic Compliance Matrix: (Units=1/GPa)
#
#
# Indices 1 2 3 4 5 6 
#
# 1 0.008056 -0.003620 -0.004772 -0.007363 0.001262 0.005487
# 2 -0.003620 0.014620 0.000511 0.005606 -0.000533 -0.002807
# 3 -0.004772 0.000511 0.014974 0.028512 -0.007462 -0.009406
# 4 -0.007363 0.005606 0.028512 0.104869 -0.031332 -0.023935
# 5 0.001262 -0.000533 -0.007462 -0.031332 0.027723 0.008318
# 6 0.005487 -0.002807 -0.009406 -0.023935 0.008318 0.032472
#
#
# Mechanical properties :
#
#
# Convention : Reuss Voigt Hill
#
# Bulk Modulus (GPa) = 45.68701 81.90324 63.79513
# Shear Modulus (GPa) = 22.14609 44.79964 33.47286
#
# Velocity S-wave (km/s) = 2.99748 4.26329 3.68514
# Velocity P-wave (km/s) = 5.52408 7.58044 6.63244
#
# Compressibility (1/GPa) = 0.02188806
#
# Stress axis : x y z
#
# Youngs Moduli (GPa) = 124.12502 68.39714 66.78134
#
# Poissons Ratio (x) = 0.24763 0.31870
# Poissons Ratio (y) = 0.44939 -0.03414
# Poissons Ratio (z) = 0.59236 -0.03497
#
# Static dielectric constant tensor:
#      x y z
#    x 4.883250 0.045200 -0.047460 
#    y 0.045200 4.320480 0.030130 
#    z -0.047460 0.030130 4.623590 
# 
# 
# High freq. dielectric constant tensor:
#      x y z
#    x 2.023060 0.008810 -0.000710 
#    y 0.008810 1.971890 0.003810 
#    z -0.000710 0.003810 2.008890 
# 
# From -- ./inp_files/20964.got.cif
#   From: 2010.06.25/outbox.cif.g09.slc.cpg/sg2_11_cif.got.tgz:20964.got - 2010.06.27 13:26:56.
