data_PCOD8035404
_publ_section_title
;
Structure prediction by ZEFSAII (Michael W. Deem and Ramdas Pophale) SiO2 
 PCOD8035404
Probable space group: P -1
;
_chemical_formula_sum "Si O2"
_cell_formula_units_Z 14
_cell_length_a 9.212726
_cell_length_b 5.219583
_cell_length_c 14.289853
_cell_angle_alpha 62.927235
_cell_angle_beta 92.926193
_cell_angle_gamma 90.143815
_cell_volume 610.894958
_symmetry_space_group_name_H-M "P -1"
_symmetry_group_IT_number 2
_symmetry_cell_setting 'triclinic'
loop_
_space_group_symop_operation_xyz
x,y,z
-x,-y,-z
loop_
_atom_site_type_symbol
_atom_site_label
_atom_site_fract_x
_atom_site_fract_y
_atom_site_fract_z
Si Si1 0.596355 0.072451 0.900803
Si Si2 0.615025 0.770428 0.505917
Si Si3 0.914103 0.255880 0.141303
Si Si4 0.784102 0.553630 0.915545
Si Si5 0.055567 0.313189 0.444579
Si Si6 0.566052 0.685125 0.322689
Si Si7 0.847259 0.598810 0.254432
O O1 0.688627 0.360698 0.873964
O O2 0.501628 0.124271 0.795079
O O3 0.689769 0.785254 0.931808
O O4 0.500000 0.000000 0.000000
O O5 0.774525 0.737619 0.559133
O O6 0.638256 0.855889 0.382908
O O7 0.551767 0.472243 0.591261
O O8 0.500000 0.000000 0.500000
O O9 0.836309 0.494732 0.164761
O O10 0.088721 0.270802 0.160954
O O11 0.855567 0.940800 0.210872
O O12 0.866753 0.326148 0.022802
O O13 0.000000 0.500000 0.500000
O O14 0.992060 0.458916 0.325401
O O15 0.000000 0.000000 0.500000
O O16 0.699244 0.492430 0.316799
#
# Coordination Sequence:
#
# PCOD8035404 Si02
#       7
#     2   2   2   2   2   2   2
#     4  12  26  45  73 106 148 190 244 296 368 438
#     4  11  27  48  74 105 149 197 242 309 369 436
#     4  11  25  44  73 101 145 187 244 299 368 430
#     4  11  25  46  67 106 144 189 242 302 357 438
#     4  12  26  48  73 106 144 185 248 302 364 438
#     4  11  27  45  71 106 146 191 245 299 370 436
#     4  12  25  45  74 105 139 193 242 301 366 441
#
# _framework density 22.917199
#
# number of rings (size 3 to 8) (size 9 to 14) (size 15 to 20)
#    0.000    0.571    1.429    5.571   10.000    2.286 
#    0.000    0.000    0.000    0.000    0.000    0.000 
#    0.000    0.000    0.000    0.000    0.000    0.000 
#
# Total GULP energy -173441.137596 kJ/mol
# GULP energy per Si atom -12388.652685 kJ/mol
# Density = 2.286504 g / cm^3
# Si number density = 22.917199 Si / 1000 Ang^3
#
#
#
# Elastic Constant Matrix: (Units=GPa)
#
#
# Indices 1 2 3 4 5 6 
#
# 1 143.8157 30.4573 33.2082 0.3621 1.8161 -14.6996
# 2 30.4573 117.6586 14.5968 -10.7680 -6.0465 -5.7836
# 3 33.2082 14.5968 117.1031 9.8245 8.5533 1.0946
# 4 0.3621 -10.7680 9.8245 33.2778 -3.2945 -1.0046
# 5 1.8161 -6.0465 8.5533 -3.2945 40.6519 0.6433
# 6 -14.6996 -5.7836 1.0946 -1.0046 0.6433 40.4412
#
#
#
# Elastic Compliance Matrix: (Units=1/GPa)
#
#
# Indices 1 2 3 4 5 6 
#
# 1 0.008082 -0.001704 -0.002093 0.000040 -0.000215 0.002755
# 2 -0.001704 0.009569 -0.001175 0.003689 0.002032 0.000840
# 3 -0.002093 -0.001175 0.009761 -0.003514 -0.002400 -0.001242
# 4 0.000040 0.003689 -0.003514 0.032710 0.003915 0.001388
# 5 -0.000215 0.002032 -0.002400 0.003915 0.025734 -0.000034
# 6 0.002755 0.000840 -0.001242 0.001388 -0.000034 0.025917
#
#
# Mechanical properties :
#
#
# Convention : Reuss Voigt Hill
#
# Bulk Modulus (GPa) = 57.24899 59.45579 58.35239
# Shear Modulus (GPa) = 39.20298 42.89518 41.04908
#
# Velocity S-wave (km/s) = 4.14047 4.33106 4.23684
# Velocity P-wave (km/s) = 6.92048 7.14219 7.03221
#
# Compressibility (1/GPa) = 0.01746756
#
# Stress axis : x y z
#
# Youngs Moduli (GPa) = 123.73587 104.49896 102.44594
#
# Poissons Ratio (x) = 0.17810 0.21440
# Poissons Ratio (y) = 0.21089 0.12040
# Poissons Ratio (z) = 0.25896 0.12281
#
# Static dielectric constant tensor:
#      x y z
#    x 4.433390 0.232470 -0.109770 
#    y 0.232470 4.157320 0.075660 
#    z -0.109770 0.075660 4.370640 
# 
# 
# High freq. dielectric constant tensor:
#      x y z
#    x 1.926290 -0.000920 -0.003250 
#    y -0.000920 1.907970 0.007340 
#    z -0.003250 0.007340 1.910630 
# 
# From -- ./inp_files/90629.got.cif
#   From: 2010.06.25/outbox.cif.g09.slc.cpg/sg2_46_cif.got.tgz:90629.got - 2010.06.27 13:26:56.
