data_PCOD8035271
_publ_section_title
;
Structure prediction by ZEFSAII (Michael W. Deem and Ramdas Pophale) SiO2 
 PCOD8035271
Probable space group: P -1
;
_chemical_formula_sum "Si O2"
_cell_formula_units_Z 14
_cell_length_a 13.209201
_cell_length_b 8.559102
_cell_length_c 10.454308
_cell_angle_alpha 118.889223
_cell_angle_beta 34.632363
_cell_angle_gamma 116.681815
_cell_volume 584.961823
_symmetry_space_group_name_H-M "P -1"
_symmetry_group_IT_number 2
_symmetry_cell_setting 'triclinic'
loop_
_space_group_symop_operation_xyz
x,y,z
-x,-y,-z
loop_
_atom_site_type_symbol
_atom_site_label
_atom_site_fract_x
_atom_site_fract_y
_atom_site_fract_z
Si Si1 0.197529 0.864961 0.548534
Si Si2 0.866219 0.433727 0.290391
Si Si3 0.500159 0.175828 0.981519
Si Si4 0.664411 0.883236 0.287305
Si Si5 0.485182 0.529168 0.718146
Si Si6 0.833700 0.920453 0.854916
Si Si7 0.817466 0.314738 0.021458
O O1 0.159024 0.692776 0.611325
O O2 0.377225 0.844847 0.276987
O O3 0.036561 0.869330 0.615174
O O4 0.221782 0.050910 0.678606
O O5 0.699599 0.552373 0.490922
O O6 0.885729 0.315995 0.096521
O O7 0.050622 0.562326 0.161685
O O8 0.566690 0.358935 0.058698
O O9 0.303373 0.205219 0.140227
O O10 0.500000 0.000000 0.000000
O O11 0.591422 0.676603 0.280163
O O12 0.500000 0.000000 0.500000
O O13 0.789542 0.918044 0.049508
O O14 0.383841 0.621439 0.744172
O O15 0.816222 0.115659 0.890988
#
# Coordination Sequence:
#
# PCOD8035271 Si02
#       7
#     2   2   2   2   2   2   2
#     4  12  27  47  76 107 148 189 243 303 362 429
#     4  11  25  44  71 111 146 181 238 299 369 423
#     4  12  29  50  72 105 148 197 244 295 365 433
#     4  12  23  47  79 111 144 187 243 303 366 426
#     4  12  26  47  75 103 149 193 241 296 359 433
#     4  12  25  46  77 105 149 188 242 302 362 429
#     4  11  25  42  73 114 142 185 240 300 359 429
#
# _framework density 23.933184000000001
#
# number of rings (size 3 to 8) (size 9 to 14) (size 15 to 20)
#    0.000    0.286    5.714    1.714    6.000    4.000 
#    0.000    2.143    0.000    0.000    0.000    0.000 
#    0.000    0.000    0.000    0.000    0.000    0.000 
#
# Total GULP energy -173617.808110 kJ/mol
# GULP energy per Si atom -12401.272008 kJ/mol
# Density = 2.387871 g / cm^3
# Si number density = 23.933184 Si / 1000 Ang^3
#
#
#
# Elastic Constant Matrix: (Units=GPa)
#
#
# Indices 1 2 3 4 5 6 
#
# 1 103.7279 29.1220 22.3017 4.9739 -22.5002 0.2659
# 2 29.1220 98.2347 23.2039 7.4576 4.0019 -7.9816
# 3 22.3017 23.2039 63.3426 -6.0192 -16.3269 -5.1385
# 4 4.9739 7.4576 -6.0192 29.7940 -2.9130 2.2050
# 5 -22.5002 4.0019 -16.3269 -2.9130 58.4313 5.6889
# 6 0.2659 -7.9816 -5.1385 2.2050 5.6889 35.0536
#
#
#
# Elastic Compliance Matrix: (Units=1/GPa)
#
#
# Indices 1 2 3 4 5 6 
#
# 1 0.012036 -0.003308 -0.002142 -0.001052 0.004386 -0.001804
# 2 -0.003308 0.013049 -0.004806 -0.004318 -0.004039 0.003219
# 3 -0.002142 -0.004806 0.020338 0.006154 0.005432 0.000635
# 4 -0.001052 -0.004318 0.006154 0.036649 0.003728 -0.002984
# 5 0.004386 -0.004039 0.005432 0.003728 0.021156 -0.003825
# 6 -0.001804 0.003219 0.000635 -0.002984 -0.003825 0.030176
#
#
# Mechanical properties :
#
#
# Convention : Reuss Voigt Hill
#
# Bulk Modulus (GPa) = 40.13988 46.06225 43.10106
# Shear Modulus (GPa) = 30.82243 37.36761 34.09502
#
# Velocity S-wave (km/s) = 3.59256 3.95565 3.77847
# Velocity P-wave (km/s) = 5.83238 6.33647 6.08965
#
# Compressibility (1/GPa) = 0.02491288
#
# Stress axis : x y z
#
# Youngs Moduli (GPa) = 83.08263 76.63185 49.16841
#
# Poissons Ratio (x) = 0.25347 0.10531
# Poissons Ratio (y) = 0.27481 0.23631
# Poissons Ratio (z) = 0.17795 0.36830
#
# Static dielectric constant tensor:
#      x y z
#    x 4.467050 0.133680 -0.253420 
#    y 0.133680 4.390140 -0.007970 
#    z -0.253420 -0.007970 4.417090 
# 
# 
# High freq. dielectric constant tensor:
#      x y z
#    x 1.958730 0.005920 -0.014480 
#    y 0.005920 1.948520 -0.003700 
#    z -0.014480 -0.003700 1.947040 
# 
# From -- ./inp_files/446252.got.cif
#   From: 2010.06.25/outbox.cif.g09.slc.cpg/sg2_224_cif.got.tgz:446252.got - 2010.06.27 13:26:56.
