data_PCOD8035468
_publ_section_title
;
Structure prediction by ZEFSAII (Michael W. Deem and Ramdas Pophale) SiO2 
 PCOD8035468
Probable space group: P -1
;
_chemical_formula_sum "Si O2"
_cell_formula_units_Z 16
_cell_length_a 11.862565
_cell_length_b 9.254643
_cell_length_c 9.476102
_cell_angle_alpha 70.935392
_cell_angle_beta 98.811734
_cell_angle_gamma 129.479604
_cell_volume 756.811713
_symmetry_space_group_name_H-M "P -1"
_symmetry_group_IT_number 2
_symmetry_cell_setting 'triclinic'
loop_
_space_group_symop_operation_xyz
x,y,z
-x,-y,-z
loop_
_atom_site_type_symbol
_atom_site_label
_atom_site_fract_x
_atom_site_fract_y
_atom_site_fract_z
Si Si1 0.394845 0.442274 0.874208
Si Si2 0.358230 0.755133 0.679456
Si Si3 0.858054 0.266336 0.877174
Si Si4 0.617201 0.185021 0.655015
Si Si5 0.113087 0.708905 0.806978
Si Si6 0.090863 0.177989 0.348382
Si Si7 0.864186 0.935417 0.908664
Si Si8 0.425010 0.531196 0.356812
O O1 0.343773 0.575316 0.802402
O O2 0.494003 0.462730 0.763838
O O3 0.500000 0.500000 0.000000
O O4 0.257842 0.224946 0.955773
O O5 0.325172 0.715268 0.519580
O O6 0.247417 0.790729 0.702878
O O7 0.520164 0.951746 0.688780
O O8 0.745242 0.273511 0.765882
O O9 0.017513 0.475367 0.850335
O O10 0.862041 0.115066 0.837137
O O11 0.813852 0.205406 0.051987
O O12 0.528983 0.253887 0.680248
O O13 0.014086 0.768607 0.724412
O O14 0.133384 0.125861 0.229904
O O15 0.247555 0.362751 0.381498
O O16 0.000000 0.000000 0.500000
O O17 0.000000 0.000000 0.000000
O O18 0.500000 0.500000 0.500000
#
# Coordination Sequence:
#
# PCOD8035468 Si02
#       8
#     2   2   2   2   2   2   2   2
#     4  12  26  46  73 104 145 191 237 301 351 416
#     4  11  27  45  69 104 145 185 235 294 352 421
#     4  11  25  45  70 100 140 186 232 288 350 420
#     4  11  26  46  70 103 142 189 235 286 357 419
#     4  11  26  47  69 103 144 182 234 294 352 421
#     4  12  29  48  73 106 144 188 237 300 357 424
#     4  12  26  46  72 105 143 188 240 289 358 423
#     4  12  27  48  72 105 144 186 242 289 355 427
#
# _framework density 21.141321999999999
#
# number of rings (size 3 to 8) (size 9 to 14) (size 15 to 20)
#    0.000    0.500    5.000    1.500   10.500    2.000 
#    0.000    0.000    0.000    0.000    0.000    0.000 
#    0.000    0.000    0.000    0.000    0.000    0.000 
#
# Total GULP energy -198272.202706 kJ/mol
# GULP energy per Si atom -12392.012669 kJ/mol
# Density = 2.109320 g / cm^3
# Si number density = 21.141322 Si / 1000 Ang^3
#
#
#
# Elastic Constant Matrix: (Units=GPa)
#
#
# Indices 1 2 3 4 5 6 
#
# 1 133.1947 35.6722 63.4882 9.8045 5.4834 -9.5408
# 2 35.6722 90.8835 41.6769 2.9871 3.0761 -8.0929
# 3 63.4882 41.6769 135.5569 10.9022 8.7352 4.5800
# 4 9.8045 2.9871 10.9022 38.6734 5.4784 3.9889
# 5 5.4834 3.0761 8.7352 5.4784 44.1687 0.5012
# 6 -9.5408 -8.0929 4.5800 3.9889 0.5012 47.6940
#
#
#
# Elastic Compliance Matrix: (Units=1/GPa)
#
#
# Indices 1 2 3 4 5 6 
#
# 1 0.010282 -0.001857 -0.004191 -0.001494 -0.000159 0.002271
# 2 -0.001857 0.013465 -0.003352 0.000159 -0.000089 0.002223
# 3 -0.004191 -0.003352 0.010626 -0.001271 -0.001164 -0.002309
# 4 -0.001494 0.000159 -0.001271 0.027244 -0.002926 -0.002398
# 5 -0.000159 -0.000089 -0.001164 -0.002926 0.023259 0.000065
# 6 0.002271 0.002223 -0.002309 -0.002398 0.000065 0.022220
#
#
# Mechanical properties :
#
#
# Convention : Reuss Voigt Hill
#
# Bulk Modulus (GPa) = 64.21760 71.25664 67.73712
# Shear Modulus (GPa) = 38.14272 40.69374 39.41823
#
# Velocity S-wave (km/s) = 4.25217 4.39206 4.32268
# Velocity P-wave (km/s) = 7.38575 7.71352 7.55141
#
# Compressibility (1/GPa) = 0.01557206
#
# Stress axis : x y z
#
# Youngs Moduli (GPa) = 97.25761 74.26669 94.11189
#
# Poissons Ratio (x) = 0.13793 0.39442
# Poissons Ratio (y) = 0.18063 0.31548
# Poissons Ratio (z) = 0.40760 0.24895
#
# Static dielectric constant tensor:
#      x y z
#    x 3.721600 0.252330 0.260230 
#    y 0.252330 3.484830 -0.291950 
#    z 0.260230 -0.291950 3.674250 
# 
# 
# High freq. dielectric constant tensor:
#      x y z
#    x 1.844670 -0.004560 0.005520 
#    y -0.004560 1.840620 0.008730 
#    z 0.005520 0.008730 1.842040 
# 
# From -- ./inp_files/187764.got.cif
#   From: 2010.06.25/outbox.cif.g09.slc.cpg/sg2_94_cif.got.tgz:187764.got - 2010.06.27 13:26:56.
