data_PCOD8035435
_publ_section_title
;
Structure prediction by ZEFSAII (Michael W. Deem and Ramdas Pophale) SiO2 
 PCOD8035435
Probable space group: P -1
;
_chemical_formula_sum "Si O2"
_cell_formula_units_Z 16
_cell_length_a 12.707612
_cell_length_b 8.553235
_cell_length_c 13.875778
_cell_angle_alpha 131.036237
_cell_angle_beta 133.616863
_cell_angle_gamma 81.883090
_cell_volume 676.242059
_symmetry_space_group_name_H-M "P -1"
_symmetry_group_IT_number 2
_symmetry_cell_setting 'triclinic'
loop_
_space_group_symop_operation_xyz
x,y,z
-x,-y,-z
loop_
_atom_site_type_symbol
_atom_site_label
_atom_site_fract_x
_atom_site_fract_y
_atom_site_fract_z
Si Si1 0.277670 0.131449 0.525301
Si Si2 0.673874 0.386413 0.333481
Si Si3 0.262551 0.973113 0.881161
Si Si4 0.208144 0.671793 0.216257
Si Si5 0.801582 0.042191 0.947181
Si Si6 0.071531 0.149910 0.701508
Si Si7 0.197783 0.417379 0.294943
Si Si8 0.354906 0.691268 0.120443
O O1 0.253618 0.343169 0.557799
O O2 0.451148 0.249562 0.750710
O O3 0.289317 0.971464 0.382092
O O4 0.100993 0.906961 0.375777
O O5 0.720742 0.425229 0.491627
O O6 0.764511 0.272706 0.285776
O O7 0.465338 0.198589 0.114719
O O8 0.175766 0.069531 0.797239
O O9 0.168200 0.907688 0.898844
O O10 0.262571 0.615610 0.329573
O O11 0.305928 0.624949 0.175338
O O12 0.000000 0.500000 0.000000
O O13 0.651873 0.080411 0.831404
O O14 0.735984 0.761336 0.760130
O O15 0.985204 0.246632 0.094158
O O16 0.204544 0.438655 0.867894
O O17 0.000000 0.000000 0.500000
#
# Coordination Sequence:
#
# PCOD8035435 Si02
#       8
#     2   2   2   2   2   2   2   2
#     4  12  27  47  76 105 146 197 242 300 372 435
#     4  11  27  48  73 109 146 196 248 300 368 446
#     4  11  27  49  73 106 154 189 245 310 364 438
#     4  12  24  46  75 109 151 191 244 307 365 439
#     4  11  25  45  73 108 145 192 243 302 367 437
#     4  12  28  48  76 106 146 195 248 303 364 439
#     4  11  25  44  76 107 143 193 248 295 369 439
#     4  12  26  49  73 111 148 192 248 304 368 439
#
# _framework density 23.660169
#
# number of rings (size 3 to 8) (size 9 to 14) (size 15 to 20)
#    0.000    0.500    3.750    2.625    8.750    3.000 
#    0.000    0.000    0.000    0.000    0.000    0.000 
#    0.000    0.000    0.000    0.000    0.000    0.000 
#
# Total GULP energy -198452.937320 kJ/mol
# GULP energy per Si atom -12403.308583 kJ/mol
# Density = 2.360632 g / cm^3
# Si number density = 23.660169 Si / 1000 Ang^3
#
#
#
# Elastic Constant Matrix: (Units=GPa)
#
#
# Indices 1 2 3 4 5 6 
#
# 1 73.6184 22.3955 25.0640 -3.0518 -25.4338 -17.6459
# 2 22.3955 101.2649 23.3707 -4.6148 -11.2220 -15.4386
# 3 25.0640 23.3707 119.3203 0.1279 -15.7531 -14.3560
# 4 -3.0518 -4.6148 0.1279 41.8592 -4.0488 -9.0312
# 5 -25.4338 -11.2220 -15.7531 -4.0488 48.0878 -8.5713
# 6 -17.6459 -15.4386 -14.3560 -9.0312 -8.5713 30.9442
#
#
#
# Elastic Compliance Matrix: (Units=1/GPa)
#
#
# Indices 1 2 3 4 5 6 
#
# 1 0.025441 0.000156 -0.000390 0.008314 0.017951 0.021803
# 2 0.000156 0.011849 -0.000863 0.003406 0.004236 0.007767
# 3 -0.000390 -0.000863 0.009786 0.001377 0.003869 0.005360
# 4 0.008314 0.003406 0.001377 0.030101 0.011577 0.019071
# 5 0.017951 0.004236 0.003869 0.011577 0.038547 0.028201
# 6 0.021803 0.007767 0.005360 0.019071 0.028201 0.064488
#
#
# Mechanical properties :
#
#
# Convention : Reuss Voigt Hill
#
# Bulk Modulus (GPa) = 22.28158 48.42932 35.35545
# Shear Modulus (GPa) = 25.33325 39.06981 32.20153
#
# Velocity S-wave (km/s) = 3.27573 4.06802 3.69318
# Velocity P-wave (km/s) = 4.87288 6.52519 5.75861
#
# Compressibility (1/GPa) = 0.04488012
#
# Stress axis : x y z
#
# Youngs Moduli (GPa) = 39.30590 84.39791 102.18435
#
# Poissons Ratio (x) = -0.01314 0.03989
# Poissons Ratio (y) = -0.00612 0.08823
# Poissons Ratio (z) = 0.01534 0.07287
#
# Static dielectric constant tensor:
#      x y z
#    x 4.693960 0.207830 -0.185490 
#    y 0.207830 4.480600 0.056690 
#    z -0.185490 0.056690 4.468020 
# 
# 
# High freq. dielectric constant tensor:
#      x y z
#    x 1.940240 -0.010360 -0.002810 
#    y -0.010360 1.940330 0.003340 
#    z -0.002810 0.003340 1.952510 
# 
# From -- ./inp_files/528984.got.cif
#   From: 2010.06.25/outbox.cif.g09.slc.cpg/sg2_265_cif.got.tgz:528984.got - 2010.06.27 13:26:56.
