data_PCOD8035721
_publ_section_title
;
Structure prediction by ZEFSAII (Michael W. Deem and Ramdas Pophale) SiO2 
 PCOD8035721
Probable space group: P -1
;
_chemical_formula_sum "Si O2"
_cell_formula_units_Z 16
_cell_length_a 15.358736
_cell_length_b 8.955645
_cell_length_c 8.355702
_cell_angle_alpha 82.582432
_cell_angle_beta 72.198034
_cell_angle_gamma 133.586842
_cell_volume 689.672402
_symmetry_space_group_name_H-M "P -1"
_symmetry_group_IT_number 2
_symmetry_cell_setting 'triclinic'
loop_
_space_group_symop_operation_xyz
x,y,z
-x,-y,-z
loop_
_atom_site_type_symbol
_atom_site_label
_atom_site_fract_x
_atom_site_fract_y
_atom_site_fract_z
Si Si1 0.900893 0.773078 0.700659
Si Si2 0.391068 0.466355 0.163424
Si Si3 0.398263 0.751442 0.676511
Si Si4 0.647727 0.612308 0.436695
Si Si5 0.446718 0.076105 0.104659
Si Si6 0.855749 0.412583 0.588975
Si Si7 0.131404 0.569175 0.771610
Si Si8 0.909515 0.146514 0.167301
O O1 0.753521 0.676526 0.837585
O O2 0.858918 0.561922 0.675424
O O3 0.984000 0.834966 0.806751
O O4 0.000000 0.000000 0.500000
O O5 0.331635 0.347093 0.388409
O O6 0.500000 0.500000 0.000000
O O7 0.499517 0.741687 0.085886
O O8 0.354380 0.558188 0.610614
O O9 0.474714 0.789520 0.788676
O O10 0.253286 0.662193 0.812328
O O11 0.500000 0.000000 0.500000
O O12 0.500000 0.500000 0.500000
O O13 0.768500 0.869186 0.247789
O O14 0.274941 0.863207 0.249179
O O15 0.500000 0.000000 0.000000
O O16 0.827886 0.441056 0.423812
O O17 0.000000 0.500000 0.500000
O O18 0.125913 0.744295 0.731556
O O19 0.979626 0.301336 0.943700
#
# Coordination Sequence:
#
# PCOD8035721 Si02
#       8
#     2   2   2   2   2   2   2   2
#     4  12  25  49  76 104 153 192 244 310 372 442
#     4  12  27  46  73 109 145 196 245 302 370 438
#     4  12  24  45  77 104 146 195 244 309 374 438
#     4  12  27  48  70 108 152 192 249 306 375 441
#     4  12  26  47  74 106 147 190 251 304 365 444
#     4  12  26  45  74 108 145 194 249 303 369 441
#     4  11  25  46  74 105 144 190 252 301 372 438
#     4  11  26  48  72 105 146 194 243 308 367 443
#
# _framework density 23.199418000000001
#
# number of rings (size 3 to 8) (size 9 to 14) (size 15 to 20)
#    0.000    0.250    5.000    3.750    3.500    1.500 
#    2.250    0.000    0.000    0.000    0.000    0.000 
#    0.000    0.000    0.000    0.000    0.000    0.000 
#
# Total GULP energy -198261.592190 kJ/mol
# GULP energy per Si atom -12391.349512 kJ/mol
# Density = 2.314662 g / cm^3
# Si number density = 23.199418 Si / 1000 Ang^3
#
#
#
# Elastic Constant Matrix: (Units=GPa)
#
#
# Indices 1 2 3 4 5 6 
#
# 1 138.1678 36.0943 19.2150 -18.0371 -31.2408 2.8248
# 2 36.0943 109.7521 45.6310 -32.0788 -6.8622 -6.2045
# 3 19.2150 45.6310 96.9534 -33.0703 -17.3167 -5.4357
# 4 -18.0371 -32.0788 -33.0703 52.1703 -0.6535 -1.7864
# 5 -31.2408 -6.8622 -17.3167 -0.6535 43.6103 -7.5816
# 6 2.8248 -6.2045 -5.4357 -1.7864 -7.5816 40.1232
#
#
#
# Elastic Compliance Matrix: (Units=1/GPa)
#
#
# Indices 1 2 3 4 5 6 
#
# 1 0.009702 -0.002500 0.001614 0.002955 0.007359 0.000671
# 2 -0.002500 0.013025 -0.004185 0.004534 -0.001052 0.001626
# 3 0.001614 -0.004185 0.016483 0.008644 0.007749 0.003321
# 4 0.002955 0.004534 0.008644 0.028699 0.007449 0.004349
# 5 0.007359 -0.001052 0.007749 0.007449 0.032411 0.006825
# 6 0.000671 0.001626 0.003321 0.004349 0.006825 0.027061
#
#
# Mechanical properties :
#
#
# Convention : Reuss Voigt Hill
#
# Bulk Modulus (GPa) = 34.40256 60.75043 47.57649
# Shear Modulus (GPa) = 33.96450 43.44295 38.70372
#
# Velocity S-wave (km/s) = 3.83041 4.33204 4.08892
# Velocity P-wave (km/s) = 5.86719 7.15996 6.54557
#
# Compressibility (1/GPa) = 0.02906761
#
# Stress axis : x y z
#
# Youngs Moduli (GPa) = 103.07027 76.77574 60.66968
#
# Poissons Ratio (x) = 0.19193 -0.09790
# Poissons Ratio (y) = 0.25766 0.25390
# Poissons Ratio (z) = -0.16632 0.32130
#
# Static dielectric constant tensor:
#      x y z
#    x 3.848490 -1.422440 -0.157380 
#    y -1.422440 1.280650 -0.609740 
#    z -0.157380 -0.609740 4.618630 
# 
# 
# High freq. dielectric constant tensor:
#      x y z
#    x 1.932270 -0.003030 -0.006120 
#    y -0.003030 1.914270 -0.020350 
#    z -0.006120 -0.020350 1.929570 
# 
# From -- ./inp_files/298218.got.cif
#   From: 2010.06.25/outbox.cif.g09.slc.cpg/sg2_150_cif.got.tgz:298218.got - 2010.06.27 13:26:56.
