data_PCOD8035220
_publ_section_title
;
Structure prediction by ZEFSAII (Michael W. Deem and Ramdas Pophale) SiO2 
 PCOD8035220
Probable space group: P -1
;
_chemical_formula_sum "Si O2"
_cell_formula_units_Z 16
_cell_length_a 13.994518
_cell_length_b 9.652942
_cell_length_c 9.221913
_cell_angle_alpha 36.860220
_cell_angle_beta 94.610310
_cell_angle_gamma 108.897729
_cell_volume 671.027260
_symmetry_space_group_name_H-M "P -1"
_symmetry_group_IT_number 2
_symmetry_cell_setting 'triclinic'
loop_
_space_group_symop_operation_xyz
x,y,z
-x,-y,-z
loop_
_atom_site_type_symbol
_atom_site_label
_atom_site_fract_x
_atom_site_fract_y
_atom_site_fract_z
Si Si1 0.229664 0.478953 0.462663
Si Si2 0.498149 0.570439 0.777265
Si Si3 0.727409 0.989703 0.445753
Si Si4 0.962550 0.022888 0.137569
Si Si5 0.129519 0.219538 0.211714
Si Si6 0.286483 0.622856 0.673132
Si Si7 0.123735 0.616642 0.083761
Si Si8 0.467138 0.693798 0.236870
O O1 0.239792 0.581004 0.541447
O O2 0.162947 0.591480 0.269128
O O3 0.340501 0.549301 0.340458
O O4 0.161269 0.172199 0.704380
O O5 0.610389 0.787776 0.554069
O O6 0.407190 0.658184 0.654501
O O7 0.481254 0.312131 0.906723
O O8 0.500000 0.500000 0.000000
O O9 0.810822 0.875061 0.585093
O O10 0.713986 0.119272 0.483754
O O11 0.772986 0.180566 0.157733
O O12 0.038484 0.988294 0.300660
O O13 0.969426 0.299478 0.955633
O O14 0.000000 0.000000 0.000000
O O15 0.077158 0.365631 0.184424
O O16 0.215451 0.390083 0.961979
O O17 0.500000 0.500000 0.500000
O O18 0.500000 0.000000 0.000000
#
# Coordination Sequence:
#
# PCOD8035220 Si02
#       8
#     2   2   2   2   2   2   2   2
#     4  12  28  47  74 114 153 202 255 320 396 475
#     4  12  25  46  76 112 147 202 261 323 389 468
#     4  11  26  47  76 107 151 198 259 316 394 471
#     4  12  27  47  78 108 152 195 261 322 395 467
#     4  11  24  50  72 108 143 197 256 320 387 463
#     4  11  25  44  73 110 150 196 255 321 390 459
#     4  11  27  46  75 105 151 196 256 316 390 474
#     4  12  30  50  79 116 162 211 259 324 404 472
#
# _framework density 23.844038000000001
#
# number of rings (size 3 to 8) (size 9 to 14) (size 15 to 20)
#    0.000    0.500    3.750    3.000    8.750    4.500 
#    0.000    0.000    0.000    0.000    0.000    0.000 
#    0.000    0.000    0.000    0.000    0.000    0.000 
#
# Total GULP energy -198265.266584 kJ/mol
# GULP energy per Si atom -12391.579161 kJ/mol
# Density = 2.378977 g / cm^3
# Si number density = 23.844038 Si / 1000 Ang^3
#
#
#
# Elastic Constant Matrix: (Units=GPa)
#
#
# Indices 1 2 3 4 5 6 
#
# 1 93.9459 49.7291 7.1709 -11.4643 1.0676 -3.6805
# 2 49.7291 165.6924 49.3604 8.5718 11.9710 -14.3312
# 3 7.1709 49.3604 80.3741 8.7218 8.3940 -5.4566
# 4 -11.4643 8.5718 8.7218 37.1740 4.1986 5.6247
# 5 1.0676 11.9710 8.3940 4.1986 29.9766 -3.9263
# 6 -3.6805 -14.3312 -5.4566 5.6247 -3.9263 51.9198
#
#
#
# Elastic Compliance Matrix: (Units=1/GPa)
#
#
# Indices 1 2 3 4 5 6 
#
# 1 0.013690 -0.004784 0.001073 0.005157 0.000299 -0.000773
# 2 -0.004784 0.009285 -0.004695 -0.002620 -0.001608 0.001893
# 3 0.001073 -0.004695 0.015721 -0.002100 -0.002207 0.000493
# 4 0.005157 -0.002620 -0.002100 0.030597 -0.003378 -0.004148
# 5 0.000299 -0.001608 -0.002207 -0.003378 0.035395 0.002388
# 6 -0.000773 0.001893 0.000493 -0.004148 0.002388 0.020410
#
#
# Mechanical properties :
#
#
# Convention : Reuss Voigt Hill
#
# Bulk Modulus (GPa) = 45.69176 61.39259 53.54217
# Shear Modulus (GPa) = 33.51117 39.39754 36.45436
#
# Velocity S-wave (km/s) = 3.75298 4.06926 3.91431
# Velocity P-wave (km/s) = 6.16313 6.91968 6.55233
#
# Compressibility (1/GPa) = 0.02188579
#
# Stress axis : x y z
#
# Youngs Moduli (GPa) = 73.04422 107.70040 63.60865
#
# Poissons Ratio (x) = 0.51522 -0.06826
# Poissons Ratio (y) = 0.34943 0.29863
# Poissons Ratio (z) = -0.07839 0.50562
#
# Static dielectric constant tensor:
#      x y z
#    x 4.594410 0.107350 -0.013100 
#    y 0.107350 4.746460 -0.014140 
#    z -0.013100 -0.014140 4.316420 
# 
# 
# High freq. dielectric constant tensor:
#      x y z
#    x 1.956910 -0.006160 -0.004600 
#    y -0.006160 1.968170 0.009730 
#    z -0.004600 0.009730 1.942090 
# 
# From -- ./inp_files/297302.got.cif
#   From: 2010.06.25/outbox.cif.g09.slc.cpg/sg2_149_cif.got.tgz:297302.got - 2010.06.27 13:26:56.
