data_PCOD8035173
_publ_section_title
;
Structure prediction by ZEFSAII (Michael W. Deem and Ramdas Pophale) SiO2 
 PCOD8035173
Probable space group: P -1
;
_chemical_formula_sum "Si O2"
_cell_formula_units_Z 16
_cell_length_a 9.187575
_cell_length_b 8.815989
_cell_length_c 11.848266
_cell_angle_alpha 134.653479
_cell_angle_beta 87.878435
_cell_angle_gamma 83.596170
_cell_volume 669.327048
_symmetry_space_group_name_H-M "P -1"
_symmetry_group_IT_number 2
_symmetry_cell_setting 'triclinic'
loop_
_space_group_symop_operation_xyz
x,y,z
-x,-y,-z
loop_
_atom_site_type_symbol
_atom_site_label
_atom_site_fract_x
_atom_site_fract_y
_atom_site_fract_z
Si Si1 0.377970 0.869525 0.902418
Si Si2 0.013808 0.935467 0.596094
Si Si3 0.077858 0.563971 0.920721
Si Si4 0.582791 0.431889 0.661674
Si Si5 0.421030 0.363908 0.844594
Si Si6 0.894728 0.531904 0.702387
Si Si7 0.693435 0.039727 0.293300
Si Si8 0.865689 0.999544 0.848899
O O1 0.445057 0.622800 0.738148
O O2 0.281235 0.953072 0.838640
O O3 0.500000 0.000000 0.000000
O O4 0.288225 0.893835 0.034400
O O5 0.864148 0.006062 0.713217
O O6 0.062417 0.678527 0.488373
O O7 0.146791 0.045839 0.698289
O O8 0.000000 0.000000 0.500000
O O9 0.255971 0.489928 0.881828
O O10 0.004096 0.457201 0.764778
O O11 0.000000 0.500000 0.000000
O O12 0.030831 0.825268 0.033823
O O13 0.532211 0.308969 0.706508
O O14 0.722467 0.546615 0.748656
O O15 0.614196 0.269879 0.469929
O O16 0.413006 0.131269 0.775068
O O17 0.500000 0.500000 0.000000
O O18 0.924403 0.753584 0.760941
#
# Coordination Sequence:
#
# PCOD8035173 Si02
#       8
#     2   2   2   2   2   2   2   2
#     4  12  25  48  71 111 145 192 250 310 371 443
#     4  11  26  51  73 107 151 196 244 308 379 451
#     4  12  26  44  69 107 145 192 244 311 370 440
#     4  11  24  49  70 105 146 198 242 309 369 443
#     4  12  25  44  71 107 145 199 251 299 370 442
#     4  11  25  46  73 106 146 191 251 303 375 440
#     4  11  27  46  75 105 152 190 249 309 369 448
#     4  12  26  44  77 105 144 193 248 311 372 438
#
# _framework density 23.904608
#
# number of rings (size 3 to 8) (size 9 to 14) (size 15 to 20)
#    0.000    0.500    2.500    5.250    5.250    1.000 
#    4.500    0.000    0.000    0.000    0.000    0.000 
#    0.000    0.000    0.000    0.000    0.000    0.000 
#
# Total GULP energy -198214.750029 kJ/mol
# GULP energy per Si atom -12388.421877 kJ/mol
# Density = 2.385020 g / cm^3
# Si number density = 23.904608 Si / 1000 Ang^3
#
#
#
# Elastic Constant Matrix: (Units=GPa)
#
#
# Indices 1 2 3 4 5 6 
#
# 1 121.5422 62.4087 66.1289 -21.6308 0.2479 9.7575
# 2 62.4087 116.4933 55.7895 -9.3536 -2.3227 20.7976
# 3 66.1289 55.7895 127.4790 -18.5720 -11.8605 13.5313
# 4 -21.6308 -9.3536 -18.5720 55.0396 10.4634 4.4112
# 5 0.2479 -2.3227 -11.8605 10.4634 47.4402 -5.0504
# 6 9.7575 20.7976 13.5313 4.4112 -5.0504 44.5228
#
#
#
# Elastic Compliance Matrix: (Units=1/GPa)
#
#
# Indices 1 2 3 4 5 6 
#
# 1 0.014019 -0.004999 -0.004805 0.003460 -0.002269 0.000123
# 2 -0.004999 0.013384 -0.002882 -0.000232 -0.000447 -0.004308
# 3 -0.004805 -0.002882 0.012147 0.001336 0.002505 -0.001140
# 4 0.003460 -0.000232 0.001336 0.021139 -0.004751 -0.003689
# 5 -0.002269 -0.000447 0.002505 -0.004751 0.023066 0.003032
# 6 0.000123 -0.004308 -0.001140 -0.003689 0.003032 0.025502
#
#
# Mechanical properties :
#
#
# Convention : Reuss Voigt Hill
#
# Bulk Modulus (GPa) = 70.52933 81.57430 76.05181
# Shear Modulus (GPa) = 35.87965 41.47970 38.67967
#
# Velocity S-wave (km/s) = 3.87841 4.17011 4.02691
# Velocity P-wave (km/s) = 7.04448 7.57532 7.31472
#
# Compressibility (1/GPa) = 0.01417850
#
# Stress axis : x y z
#
# Youngs Moduli (GPa) = 71.33137 74.71541 82.32455
#
# Poissons Ratio (x) = 0.37348 0.39555
# Poissons Ratio (y) = 0.35656 0.23730
# Poissons Ratio (z) = 0.34273 0.21537
#
# Static dielectric constant tensor:
#      x y z
#    x 4.158550 0.209040 -0.036130 
#    y 0.209040 4.473890 0.114310 
#    z -0.036130 0.114310 4.589350 
# 
# 
# High freq. dielectric constant tensor:
#      x y z
#    x 1.943630 0.021730 -0.002670 
#    y 0.021730 1.955090 0.011530 
#    z -0.002670 0.011530 1.966470 
# 
# From -- ./inp_files/383534.got.cif
#   From: 2010.06.25/outbox.cif.g09.slc.cpg/sg2_192_cif.got.tgz:383534.got - 2010.06.27 13:26:56.
