data_PCOD8035062
_publ_section_title
;
Structure prediction by ZEFSAII (Michael W. Deem and Ramdas Pophale) SiO2 
 PCOD8035062
Probable space group: P -1
;
_chemical_formula_sum "Si O2"
_cell_formula_units_Z 16
_cell_length_a 8.981141
_cell_length_b 20.968484
_cell_length_c 6.448366
_cell_angle_alpha 83.552074
_cell_angle_beta 83.535054
_cell_angle_gamma 35.394816
_cell_volume 698.450667
_symmetry_space_group_name_H-M "P -1"
_symmetry_group_IT_number 2
_symmetry_cell_setting 'triclinic'
loop_
_space_group_symop_operation_xyz
x,y,z
-x,-y,-z
loop_
_atom_site_type_symbol
_atom_site_label
_atom_site_fract_x
_atom_site_fract_y
_atom_site_fract_z
Si Si1 0.690703 0.212822 0.416033
Si Si2 0.201629 0.116296 0.024321
Si Si3 0.585712 0.628572 0.964690
Si Si4 0.066885 0.265640 0.335070
Si Si5 0.918253 0.983012 0.832468
Si Si6 0.934175 0.624484 0.021495
Si Si7 0.825819 0.267738 0.684493
Si Si8 0.611255 0.788041 0.359171
O O1 0.603083 0.295031 0.227262
O O2 0.847918 0.194165 0.577880
O O3 0.440777 0.266271 0.534301
O O4 0.865936 0.091368 0.354987
O O5 0.084022 0.188311 0.808747
O O6 0.148975 0.179381 0.205171
O O7 0.056346 0.099592 0.073254
O O8 0.500000 0.000000 0.000000
O O9 0.815307 0.502184 0.904433
O O10 0.696900 0.659203 0.000205
O O11 0.430690 0.646421 0.166238
O O12 0.314824 0.193432 0.465514
O O13 0.827816 0.326189 0.497442
O O14 0.992136 0.356621 0.192876
O O15 0.633304 0.097514 0.761583
O O16 0.000000 0.000000 0.000000
O O17 0.848385 0.701018 0.192837
#
# Coordination Sequence:
#
# PCOD8035062 Si02
#       8
#     2   2   2   2   2   2   2   2
#     4  12  24  45  73 108 144 186 244 291 362 429
#     4  12  27  45  69 101 150 195 236 290 361 428
#     4  11  24  47  77 104 147 185 242 306 353 421
#     4  12  26  46  70 103 150 188 237 293 360 432
#     4  12  25  44  72 107 145 188 237 299 356 426
#     4  11  25  47  73 110 143 189 240 302 359 420
#     4  12  24  47  72 103 144 192 236 298 354 427
#     4  12  26  43  73 108 145 185 243 295 358 433
#
# _framework density 22.907844000000001
#
# number of rings (size 3 to 8) (size 9 to 14) (size 15 to 20)
#    0.000    0.250    5.000    4.125    3.500    3.000 
#    0.000    4.375    0.000    0.000    0.000    0.000 
#    0.000    0.000    0.000    0.000    0.000    0.000 
#
# Total GULP energy -198403.614102 kJ/mol
# GULP energy per Si atom -12400.225881 kJ/mol
# Density = 2.285570 g / cm^3
# Si number density = 22.907844 Si / 1000 Ang^3
#
#
#
# Elastic Constant Matrix: (Units=GPa)
#
#
# Indices 1 2 3 4 5 6 
#
# 1 115.2682 25.9264 60.0235 -2.4495 1.5790 7.3924
# 2 25.9264 118.3344 57.0228 1.2411 8.5707 -4.9363
# 3 60.0235 57.0228 140.3456 3.9991 7.8680 2.7621
# 4 -2.4495 1.2411 3.9991 21.3925 2.5993 -6.3475
# 5 1.5790 8.5707 7.8680 2.5993 67.6686 -0.0433
# 6 7.3924 -4.9363 2.7621 -6.3475 -0.0433 29.6256
#
#
#
# Elastic Compliance Matrix: (Units=1/GPa)
#
#
# Indices 1 2 3 4 5 6 
#
# 1 0.011391 -0.000328 -0.004756 0.001550 0.000268 -0.002121
# 2 -0.000328 0.010725 -0.004244 0.000976 -0.000893 0.002472
# 3 -0.004756 -0.004244 0.011010 -0.002621 -0.000532 -0.001109
# 4 0.001550 0.000976 -0.002621 0.050810 -0.001800 0.010904
# 5 0.000268 -0.000893 -0.000532 -0.001800 0.015015 -0.000530
# 6 -0.002121 0.002472 -0.001109 0.010904 -0.000530 0.037135
#
#
# Mechanical properties :
#
#
# Convention : Reuss Voigt Hill
#
# Bulk Modulus (GPa) = 69.10572 73.32151 71.21362
# Shear Modulus (GPa) = 31.33517 39.13571 35.23544
#
# Velocity S-wave (km/s) = 3.70250 4.13776 3.92617
# Velocity P-wave (km/s) = 6.96493 7.40977 7.19079
#
# Compressibility (1/GPa) = 0.01447058
#
# Stress axis : x y z
#
# Youngs Moduli (GPa) = 87.78803 93.23980 90.82782
#
# Poissons Ratio (x) = 0.03059 0.43197
# Poissons Ratio (y) = 0.02880 0.38544
# Poissons Ratio (z) = 0.41751 0.39568
#
# Static dielectric constant tensor:
#      x y z
#    x 4.453040 -0.001900 -0.259050 
#    y -0.001900 3.787790 0.083360 
#    z -0.259050 0.083360 4.475390 
# 
# 
# High freq. dielectric constant tensor:
#      x y z
#    x 1.927240 0.001840 -0.007030 
#    y 0.001840 1.881240 0.002500 
#    z -0.007030 0.002500 1.919760 
# 
# From -- ./inp_files/53083.got.cif
#   From: 2010.06.25/outbox.cif.g09.slc.cpg/sg2_27_cif.got.tgz:53083.got - 2010.06.27 13:26:56.
