data_PCOD8035426
_publ_section_title
;
Structure prediction by ZEFSAII (Michael W. Deem and Ramdas Pophale) SiO2 
 PCOD8035426
Probable space group: P -1
;
_chemical_formula_sum "Si O2"
_cell_formula_units_Z 12
_cell_length_a 9.582862
_cell_length_b 8.042640
_cell_length_c 15.364771
_cell_angle_alpha 52.032047
_cell_angle_beta 146.466224
_cell_angle_gamma 112.597950
_cell_volume 492.742020
_symmetry_space_group_name_H-M "P -1"
_symmetry_group_IT_number 2
_symmetry_cell_setting 'triclinic'
loop_
_space_group_symop_operation_xyz
x,y,z
-x,-y,-z
loop_
_atom_site_type_symbol
_atom_site_label
_atom_site_fract_x
_atom_site_fract_y
_atom_site_fract_z
Si Si1 0.320945 0.900541 0.879458
Si Si2 0.481579 0.246897 0.151760
Si Si3 0.133266 0.690085 0.529815
Si Si4 0.518433 0.371494 0.433812
Si Si5 0.704769 0.147702 0.775739
Si Si6 0.034608 0.591700 0.894512
O O1 0.480753 0.742752 0.936372
O O2 0.196239 0.768400 0.925845
O O3 0.098203 0.084826 0.654238
O O4 0.500000 0.000000 0.000000
O O5 0.699458 0.340358 0.283835
O O6 0.495415 0.000344 0.270536
O O7 0.185117 0.396348 0.970723
O O8 0.334752 0.706480 0.554252
O O9 0.000000 0.500000 0.500000
O O10 0.711808 0.248527 0.650647
O O11 0.418474 0.639454 0.295829
O O12 0.257434 0.290169 0.332067
O O13 0.000000 0.000000 0.000000
O O14 0.000000 0.500000 0.000000
#
# Coordination Sequence:
#
# PCOD8035426 Si02
#       6
#     2   2   2   2   2   2
#     4  12  30  47  77 112 157 211 263 318 398 468
#     4  12  26  48  78 109 158 206 260 321 394 463
#     4  12  27  49  77 106 159 205 268 319 395 466
#     4  11  26  46  75 114 152 202 264 324 387 466
#     4  11  25  44  74 114 154 199 257 322 390 461
#     4  12  26  48  77 113 156 202 265 324 386 466
#
# _framework density 24.353514000000001
#
# number of rings (size 3 to 8) (size 9 to 14) (size 15 to 20)
#    0.000    0.333    3.333    4.000    7.000    4.000 
#    0.000    0.000    0.000    0.000    0.000    0.000 
#    0.000    0.000    0.000    0.000    0.000    0.000 
#
# Total GULP energy -148819.209679 kJ/mol
# GULP energy per Si atom -12401.600807 kJ/mol
# Density = 2.429808 g / cm^3
# Si number density = 24.353514 Si / 1000 Ang^3
#
#
#
# Elastic Constant Matrix: (Units=GPa)
#
#
# Indices 1 2 3 4 5 6 
#
# 1 153.9666 57.8178 53.9990 15.7301 5.4075 -5.8361
# 2 57.8178 141.2014 28.8353 25.5955 -3.9032 18.1902
# 3 53.9990 28.8353 141.2919 11.0954 5.2146 -4.6128
# 4 15.7301 25.5955 11.0954 42.1975 -1.8262 -6.5194
# 5 5.4075 -3.9032 5.2146 -1.8262 37.1235 -0.9990
# 6 -5.8361 18.1902 -4.6128 -6.5194 -0.9990 48.0140
#
#
#
# Elastic Compliance Matrix: (Units=1/GPa)
#
#
# Indices 1 2 3 4 5 6 
#
# 1 0.008783 -0.003307 -0.002544 -0.000343 -0.001233 0.002004
# 2 -0.003307 0.010255 -0.000604 -0.005559 0.001235 -0.005074
# 3 -0.002544 -0.000604 0.008289 -0.000812 -0.000881 0.000587
# 4 -0.000343 -0.005559 -0.000812 0.028366 0.001133 0.005862
# 5 -0.001233 0.001235 -0.000881 0.001133 0.027427 0.000022
# 6 0.002004 -0.005074 0.000587 0.005862 0.000022 0.023846
#
#
# Mechanical properties :
#
#
# Convention : Reuss Voigt Hill
#
# Bulk Modulus (GPa) = 69.36046 79.75158 74.55602
# Shear Modulus (GPa) = 40.10229 45.18750 42.64489
#
# Velocity S-wave (km/s) = 4.06232 4.31220 4.18913
# Velocity P-wave (km/s) = 7.10956 7.59026 7.35384
#
# Compressibility (1/GPa) = 0.01441744
#
# Stress axis : x y z
#
# Youngs Moduli (GPa) = 113.85228 97.51290 120.64882
#
# Poissons Ratio (x) = 0.32247 0.30694
# Poissons Ratio (y) = 0.37651 0.07283
# Poissons Ratio (z) = 0.28965 0.05887
#
# Static dielectric constant tensor:
#      x y z
#    x 4.390620 0.106710 0.273430 
#    y 0.106710 4.821400 0.045170 
#    z 0.273430 0.045170 4.594440 
# 
# 
# High freq. dielectric constant tensor:
#      x y z
#    x 1.972740 0.002390 0.008950 
#    y 0.002390 1.981430 -0.003380 
#    z 0.008950 -0.003380 1.973540 
# 
# From -- ./inp_files/492184.got.cif
#   From: 2010.06.25/outbox.cif.g09.slc.cpg/sg2_247_cif.got.tgz:492184.got - 2010.06.27 13:26:56.
