data_PCOD8035673
_publ_section_title
;
Structure prediction by ZEFSAII (Michael W. Deem and Ramdas Pophale) SiO2 
 PCOD8035673
Probable space group: P -1
;
_chemical_formula_sum "Si O2"
_cell_formula_units_Z 16
_cell_length_a 15.338317
_cell_length_b 9.217851
_cell_length_c 8.429673
_cell_angle_alpha 80.924730
_cell_angle_beta 86.955920
_cell_angle_gamma 37.869537
_cell_volume 717.440542
_symmetry_space_group_name_H-M "P -1"
_symmetry_group_IT_number 2
_symmetry_cell_setting 'triclinic'
loop_
_space_group_symop_operation_xyz
x,y,z
-x,-y,-z
loop_
_atom_site_type_symbol
_atom_site_label
_atom_site_fract_x
_atom_site_fract_y
_atom_site_fract_z
Si Si1 0.361828 0.247403 0.053558
Si Si2 0.115281 0.624057 0.570762
Si Si3 0.849161 0.108418 0.348039
Si Si4 0.944857 0.425805 0.095447
Si Si5 0.599233 0.251121 0.446554
Si Si6 0.352534 0.142649 0.422688
Si Si7 0.423941 0.476836 0.112702
Si Si8 0.126005 0.946709 0.002116
O O1 0.330872 0.234761 0.235227
O O2 0.395721 0.374224 0.022763
O O3 0.221335 0.390602 0.945349
O O4 0.500000 0.000000 0.000000
O O5 0.180065 0.679922 0.647981
O O6 0.036644 0.621554 0.707550
O O7 0.229260 0.371470 0.510276
O O8 0.008975 0.839960 0.416893
O O9 0.746295 0.141209 0.448595
O O10 0.811901 0.123237 0.167797
O O11 0.000000 0.500000 0.000000
O O12 0.055890 0.183214 0.031734
O O13 0.500000 0.500000 0.500000
O O14 0.524408 0.304479 0.280276
O O15 0.640182 0.043777 0.563606
O O16 0.500000 0.000000 0.500000
O O17 0.500000 0.500000 0.000000
O O18 0.262809 0.735019 0.139859
O O19 0.000000 0.000000 0.000000
#
# Coordination Sequence:
#
# PCOD8035673 Si02
#       8
#     2   2   2   2   2   2   2   2
#     4  12  28  49  74 107 147 193 239 298 368 437
#     4  11  26  46  72 104 144 191 241 297 370 428
#     4  11  25  46  72 104 143 190 242 303 356 439
#     4  12  29  45  73 108 146 191 243 301 361 435
#     4  12  29  45  73 105 142 190 247 299 367 433
#     4  12  26  47  72 102 146 189 236 301 363 436
#     4  12  27  47  75 105 144 193 242 303 357 432
#     4  12  24  47  72 105 146 192 243 294 361 428
#
# _framework density 22.301500999999998
#
# number of rings (size 3 to 8) (size 9 to 14) (size 15 to 20)
#    0.000    0.250    5.000    2.250    8.750    0.500 
#    0.000    0.000    0.000    0.000    0.000    0.000 
#    0.000    0.000    0.000    0.000    0.000    0.000 
#
# Total GULP energy -198263.633009 kJ/mol
# GULP energy per Si atom -12391.477063 kJ/mol
# Density = 2.225074 g / cm^3
# Si number density = 22.301501 Si / 1000 Ang^3
#
#
#
# Elastic Constant Matrix: (Units=GPa)
#
#
# Indices 1 2 3 4 5 6 
#
# 1 117.7504 59.1266 16.4655 -2.4784 -28.1507 0.3042
# 2 59.1266 177.5449 18.6576 8.1434 -9.4114 20.8892
# 3 16.4655 18.6576 82.8108 4.2036 -14.5692 10.5262
# 4 -2.4784 8.1434 4.2036 37.6639 -1.4966 4.2575
# 5 -28.1507 -9.4114 -14.5692 -1.4966 41.8702 -11.2829
# 6 0.3042 20.8892 10.5262 4.2575 -11.2829 38.4727
#
#
#
# Elastic Compliance Matrix: (Units=1/GPa)
#
#
# Indices 1 2 3 4 5 6 
#
# 1 0.012952 -0.004422 -0.000733 0.001687 0.008841 0.004905
# 2 -0.004422 0.007634 -0.000673 -0.001459 -0.002778 -0.004579
# 3 -0.000733 -0.000673 0.013291 -0.001007 0.003361 -0.002168
# 4 0.001687 -0.001459 -0.001007 0.027319 0.000979 -0.001681
# 5 0.008841 -0.002778 0.003361 0.000979 0.033137 0.010128
# 6 0.004905 -0.004579 -0.002168 -0.001681 0.010128 0.032190
#
#
# Mechanical properties :
#
#
# Convention : Reuss Voigt Hill
#
# Bulk Modulus (GPa) = 45.00217 62.95616 53.97916
# Shear Modulus (GPa) = 34.34399 42.52512 38.43455
#
# Velocity S-wave (km/s) = 3.92852 4.37146 4.15590
# Velocity P-wave (km/s) = 6.38753 7.33283 6.87644
#
# Compressibility (1/GPa) = 0.02222115
#
# Stress axis : x y z
#
# Youngs Moduli (GPa) = 77.20770 130.98821 75.23864
#
# Poissons Ratio (x) = 0.57926 0.05512
# Poissons Ratio (y) = 0.34143 0.05066
# Poissons Ratio (z) = 0.05656 0.08819
#
# Static dielectric constant tensor:
#      x y z
#    x 4.143030 0.051830 -0.023050 
#    y 0.051830 4.243400 -0.086070 
#    z -0.023050 -0.086070 4.171500 
# 
# 
# High freq. dielectric constant tensor:
#      x y z
#    x 1.890740 -0.001940 -0.003520 
#    y -0.001940 1.897420 -0.008130 
#    z -0.003520 -0.008130 1.884670 
# 
# From -- ./inp_files/297853.got.cif
#   From: 2010.06.25/outbox.cif.g09.slc.cpg/sg2_149_cif.got.tgz:297853.got - 2010.06.27 13:26:56.
