data_PCOD8035994
_publ_section_title
;
Structure prediction by ZEFSAII (Michael W. Deem and Ramdas Pophale) SiO2 
 PCOD8035994
Probable space group: P -1
;
_chemical_formula_sum "Si O2"
_cell_formula_units_Z 16
_cell_length_a 15.468831
_cell_length_b 8.721306
_cell_length_c 9.123749
_cell_angle_alpha 49.044027
_cell_angle_beta 72.641892
_cell_angle_gamma 101.851215
_cell_volume 737.329359
_symmetry_space_group_name_H-M "P -1"
_symmetry_group_IT_number 2
_symmetry_cell_setting 'triclinic'
loop_
_space_group_symop_operation_xyz
x,y,z
-x,-y,-z
loop_
_atom_site_type_symbol
_atom_site_label
_atom_site_fract_x
_atom_site_fract_y
_atom_site_fract_z
Si Si1 0.725282 0.046875 0.818313
Si Si2 0.745473 0.180823 0.042707
Si Si3 0.529818 0.570166 0.107620
Si Si4 0.386109 0.753975 0.698220
Si Si5 0.110560 0.113606 0.183803
Si Si6 0.708249 0.699346 0.475276
Si Si7 0.237702 0.540851 0.647633
Si Si8 0.126651 0.295334 0.387805
O O1 0.689016 0.070393 0.984278
O O2 0.791816 0.309159 0.538032
O O3 0.807277 0.963594 0.846802
O O4 0.611381 0.860610 0.908899
O O5 0.860358 0.442534 0.794515
O O6 0.677218 0.265396 0.110929
O O7 0.756333 0.987042 0.250643
O O8 0.601708 0.470579 0.185431
O O9 0.419593 0.453154 0.328768
O O10 0.500000 0.500000 0.000000
O O11 0.325135 0.745443 0.587408
O O12 0.500000 0.000000 0.500000
O O13 0.129747 0.199477 0.287062
O O14 0.134491 0.332152 0.925171
O O15 0.987076 0.890835 0.357193
O O16 0.716146 0.587726 0.389914
O O17 0.775681 0.678780 0.583260
#
# Coordination Sequence:
#
# PCOD8035994 Si02
#       8
#     2   2   2   2   2   2   2   2
#     4  12  26  45  71 102 140 181 229 282 346 409
#     4  12  24  45  69 102 140 179 229 286 340 414
#     4  12  25  43  71 102 143 184 226 279 343 420
#     4  12  24  42  69 102 141 183 223 278 344 411
#     4  11  25  49  72  99 140 180 229 290 345 407
#     4  12  26  45  69 103 140 182 228 284 345 405
#     4  12  26  45  68 103 139 181 231 285 342 411
#     4  11  26  47  73 101 136 181 233 286 343 415
#
# _framework density 21.699938
#
# number of rings (size 3 to 8) (size 9 to 14) (size 15 to 20)
#    0.000    0.250    6.250    2.250    3.500    3.500 
#    0.000    2.500    0.000    0.000    0.000    0.000 
#    0.000    0.000    0.000    0.000    0.000    0.000 
#
# Total GULP energy -198398.362815 kJ/mol
# GULP energy per Si atom -12399.897676 kJ/mol
# Density = 2.165055 g / cm^3
# Si number density = 21.699938 Si / 1000 Ang^3
#
#
#
# Elastic Constant Matrix: (Units=GPa)
#
#
# Indices 1 2 3 4 5 6 
#
# 1 68.4925 29.2450 39.0143 -5.2034 2.1235 -3.9546
# 2 29.2450 109.4508 44.4605 1.5500 -17.4497 6.5198
# 3 39.0143 44.4605 145.3835 -18.0587 4.6866 -4.0010
# 4 -5.2034 1.5500 -18.0587 47.7843 -0.9533 8.3892
# 5 2.1235 -17.4497 4.6866 -0.9533 29.2835 -0.9748
# 6 -3.9546 6.5198 -4.0010 8.3892 -0.9748 16.1617
#
#
#
# Elastic Compliance Matrix: (Units=1/GPa)
#
#
# Indices 1 2 3 4 5 6 
#
# 1 0.018896 -0.004498 -0.003454 -0.000124 -0.003321 0.005448
# 2 -0.004498 0.013551 -0.003514 -0.000957 0.008719 -0.006415
# 3 -0.003454 -0.003514 0.009390 0.003023 -0.003210 0.001134
# 4 -0.000124 -0.000957 0.003023 0.024082 -0.000642 -0.011435
# 5 -0.003321 0.008719 -0.003210 -0.000642 0.039999 -0.002379
# 6 0.005448 -0.006415 0.001134 -0.011435 -0.002379 0.071868
#
#
# Mechanical properties :
#
#
# Convention : Reuss Voigt Hill
#
# Bulk Modulus (GPa) = 52.89209 60.97404 56.93306
# Shear Modulus (GPa) = 24.15225 32.68637 28.41931
#
# Velocity S-wave (km/s) = 3.33980 3.88530 3.62283
# Velocity P-wave (km/s) = 6.26894 6.94890 6.61766
#
# Compressibility (1/GPa) = 0.01890642
#
# Stress axis : x y z
#
# Youngs Moduli (GPa) = 52.92099 73.79289 106.49703
#
# Poissons Ratio (x) = 0.33194 0.36781
# Poissons Ratio (y) = 0.23805 0.37419
# Poissons Ratio (z) = 0.18277 0.25928
#
# Static dielectric constant tensor:
#      x y z
#    x 3.622460 -0.036750 0.210380 
#    y -0.036750 4.227400 -0.440310 
#    z 0.210380 -0.440310 5.648610 
# 
# 
# High freq. dielectric constant tensor:
#      x y z
#    x 1.827290 0.001750 0.007630 
#    y 0.001750 1.874530 -0.002290 
#    z 0.007630 -0.002290 1.875280 
# 
# From -- ./inp_files/208043.got.cif
#   From: 2010.06.25/outbox.cif.g09.slc.cpg/sg2_105_cif.got.tgz:208043.got - 2010.06.27 13:26:56.
