data_PCOD8035509
_publ_section_title
;
Structure prediction by ZEFSAII (Michael W. Deem and Ramdas Pophale) SiO2 
 PCOD8035509
Probable space group: P -1
;
_chemical_formula_sum "Si O2"
_cell_formula_units_Z 16
_cell_length_a 15.295984
_cell_length_b 8.526922
_cell_length_c 8.913947
_cell_angle_alpha 112.151348
_cell_angle_beta 139.187207
_cell_angle_gamma 71.758867
_cell_volume 703.059694
_symmetry_space_group_name_H-M "P -1"
_symmetry_group_IT_number 2
_symmetry_cell_setting 'triclinic'
loop_
_space_group_symop_operation_xyz
x,y,z
-x,-y,-z
loop_
_atom_site_type_symbol
_atom_site_label
_atom_site_fract_x
_atom_site_fract_y
_atom_site_fract_z
Si Si1 0.271601 0.180465 0.224061
Si Si2 0.238379 0.824312 0.606943
Si Si3 0.581834 0.090499 0.861036
Si Si4 0.365847 0.554603 0.481970
Si Si5 0.715836 0.872520 0.436908
Si Si6 0.854955 0.591398 0.321872
Si Si7 0.953409 0.833348 0.297031
Si Si8 0.638157 0.381726 0.819831
O O1 0.290327 0.379957 0.324528
O O2 0.259690 0.103892 0.346718
O O3 0.395366 0.090185 0.258707
O O4 0.131800 0.131405 0.950576
O O5 0.333630 0.668275 0.624697
O O6 0.094820 0.739286 0.405820
O O7 0.222591 0.977050 0.522514
O O8 0.292046 0.892563 0.859075
O O9 0.445982 0.112709 0.790057
O O10 0.574077 0.228450 0.767757
O O11 0.525682 0.530437 0.696576
O O12 0.317110 0.662422 0.309231
O O13 0.787751 0.693262 0.412594
O O14 0.861737 0.723684 0.243630
O O15 0.000000 0.500000 0.500000
O O16 0.758442 0.443980 0.098534
O O17 0.000000 0.000000 0.500000
#
# Coordination Sequence:
#
# PCOD8035509 Si02
#       8
#     2   2   2   2   2   2   2   2
#     4  12  26  46  76 104 146 184 237 293 352 421
#     4  12  27  45  74  99 147 187 238 290 351 417
#     4  12  25  45  75 102 147 188 230 293 356 419
#     4  11  26  45  72 109 141 181 238 301 350 412
#     4  12  27  45  71 111 137 186 245 285 352 425
#     4  12  27  46  73 103 145 187 236 288 353 422
#     4  12  25  51  69  98 140 190 237 283 352 421
#     4  11  25  45  72 103 148 180 233 287 365 409
#
# _framework density 22.757667999999999
#
# number of rings (size 3 to 8) (size 9 to 14) (size 15 to 20)
#    0.000    0.250    5.000    3.000    7.000    3.000 
#    0.000    0.000    0.000    0.000    0.000    0.000 
#    0.000    0.000    0.000    0.000    0.000    0.000 
#
# Total GULP energy -198400.575096 kJ/mol
# GULP energy per Si atom -12400.035944 kJ/mol
# Density = 2.270587 g / cm^3
# Si number density = 22.757668 Si / 1000 Ang^3
#
#
#
# Elastic Constant Matrix: (Units=GPa)
#
#
# Indices 1 2 3 4 5 6 
#
# 1 95.3421 20.6571 23.7612 -4.5981 -8.3198 -9.0455
# 2 20.6571 70.8712 8.1177 0.7365 -10.5917 -8.0398
# 3 23.7612 8.1177 122.6298 -9.2937 0.6118 -13.2957
# 4 -4.5981 0.7365 -9.2937 31.4074 0.2699 3.6531
# 5 -8.3198 -10.5917 0.6118 0.2699 40.2349 -2.3640
# 6 -9.0455 -8.0398 -13.2957 3.6531 -2.3640 44.6415
#
#
#
# Elastic Compliance Matrix: (Units=1/GPa)
#
#
# Indices 1 2 3 4 5 6 
#
# 1 0.011917 -0.002843 -0.001903 0.001076 0.001816 0.001344
# 2 -0.002843 0.015829 -0.000339 -0.001207 0.003738 0.002470
# 3 -0.001903 -0.000339 0.008929 0.002142 -0.000515 0.002010
# 4 0.001076 -0.001207 0.002142 0.032905 -0.000471 -0.002079
# 5 0.001816 0.003738 -0.000515 -0.000471 0.026361 0.002322
# 6 0.001344 0.002470 0.002010 -0.002079 0.002322 0.024010
#
#
# Mechanical properties :
#
#
# Convention : Reuss Voigt Hill
#
# Bulk Modulus (GPa) = 37.72888 43.76834 40.74861
# Shear Modulus (GPa) = 35.98313 39.01056 37.49685
#
# Velocity S-wave (km/s) = 3.98067 4.14475 4.06354
# Velocity P-wave (km/s) = 6.14347 6.49456 6.32145
#
# Compressibility (1/GPa) = 0.02650489
#
# Stress axis : x y z
#
# Youngs Moduli (GPa) = 83.91697 63.17567 111.99986
#
# Poissons Ratio (x) = 0.17959 0.21309
# Poissons Ratio (y) = 0.23855 0.03800
# Poissons Ratio (z) = 0.15966 0.02144
#
# Static dielectric constant tensor:
#      x y z
#    x 4.739780 -0.069260 0.182710 
#    y -0.069260 3.983250 -0.071790 
#    z 0.182710 -0.071790 4.275620 
# 
# 
# High freq. dielectric constant tensor:
#      x y z
#    x 1.908490 -0.002220 -0.004920 
#    y -0.002220 1.896820 -0.005070 
#    z -0.004920 -0.005070 1.905320 
# 
# From -- ./inp_files/185336.got.cif
#   From: 2010.06.25/outbox.cif.g09.slc.cpg/sg2_93_cif.got.tgz:185336.got - 2010.06.27 13:26:56.
