data_PCOD8035665
_publ_section_title
;
Structure prediction by ZEFSAII (Michael W. Deem and Ramdas Pophale) SiO2 
 PCOD8035665
Probable space group: P -1
;
_chemical_formula_sum "Si O2"
_cell_formula_units_Z 16
_cell_length_a 14.941260
_cell_length_b 8.982267
_cell_length_c 11.605419
_cell_angle_alpha 102.416851
_cell_angle_beta 149.117713
_cell_angle_gamma 68.878767
_cell_volume 731.146621
_symmetry_space_group_name_H-M "P -1"
_symmetry_group_IT_number 2
_symmetry_cell_setting 'triclinic'
loop_
_space_group_symop_operation_xyz
x,y,z
-x,-y,-z
loop_
_atom_site_type_symbol
_atom_site_label
_atom_site_fract_x
_atom_site_fract_y
_atom_site_fract_z
Si Si1 0.595965 0.633751 0.632315
Si Si2 0.131325 0.321500 0.641184
Si Si3 0.915162 0.613831 0.140530
Si Si4 0.276696 0.974358 0.352701
Si Si5 0.724701 0.680894 0.536328
Si Si6 0.899752 0.113273 0.306035
Si Si7 0.488555 0.332643 0.917149
Si Si8 0.056733 0.088871 0.904849
O O1 0.500000 0.500000 0.500000
O O2 0.704824 0.624430 0.632892
O O3 0.465455 0.820590 0.537719
O O4 0.737000 0.582337 0.886591
O O5 0.139451 0.291418 0.782646
O O6 0.340563 0.280240 0.818936
O O7 0.000000 0.500000 0.500000
O O8 0.028145 0.219601 0.440856
O O9 0.979143 0.725948 0.141191
O O10 0.074322 0.438101 0.305920
O O11 0.293928 0.130360 0.462883
O O12 0.223654 0.025640 0.170462
O O13 0.130072 0.913504 0.244817
O O14 0.567661 0.654506 0.277211
O O15 0.881519 0.026706 0.154782
O O16 0.693351 0.205084 0.140118
O O17 0.000000 0.000000 0.500000
O O18 0.500000 0.500000 0.000000
#
# Coordination Sequence:
#
# PCOD8035665 Si02
#       8
#     2   2   2   2   2   2   2   2
#     4  12  28  43  70 110 143 184 239 295 361 428
#     4  12  25  49  72 106 145 191 244 297 362 430
#     4  12  26  46  72 101 145 185 236 302 355 431
#     4  11  26  45  73 103 140 188 235 294 359 434
#     4  12  25  46  73 102 143 187 241 292 362 427
#     4  12  26  46  73 107 144 187 241 305 359 425
#     4  12  27  45  76 104 141 195 243 292 362 433
#     4  11  25  46  72 100 145 183 238 293 365 422
#
# _framework density 21.883437000000001
#
# number of rings (size 3 to 8) (size 9 to 14) (size 15 to 20)
#    0.000    0.250    5.000    3.000    7.000    1.500 
#    0.000    0.000    0.000    0.000    0.000    0.000 
#    0.000    0.000    0.000    0.000    0.000    0.000 
#
# Total GULP energy -198455.363525 kJ/mol
# GULP energy per Si atom -12403.460220 kJ/mol
# Density = 2.183363 g / cm^3
# Si number density = 21.883437 Si / 1000 Ang^3
#
#
#
# Elastic Constant Matrix: (Units=GPa)
#
#
# Indices 1 2 3 4 5 6 
#
# 1 96.1455 26.3675 34.2682 -1.2137 6.2446 -6.9738
# 2 26.3675 138.6805 57.9570 10.1859 6.6272 -6.7551
# 3 34.2682 57.9570 148.5350 -0.1223 6.3524 -12.5925
# 4 -1.2137 10.1859 -0.1223 45.8047 -3.2573 4.2718
# 5 6.2446 6.6272 6.3524 -3.2573 43.1030 2.9556
# 6 -6.9738 -6.7551 -12.5925 4.2718 2.9556 40.6885
#
#
#
# Elastic Compliance Matrix: (Units=1/GPa)
#
#
# Indices 1 2 3 4 5 6 
#
# 1 0.011649 -0.001275 -0.002034 0.000386 -0.001245 0.001205
# 2 -0.001275 0.008993 -0.003125 -0.002165 -0.000942 0.000603
# 3 -0.002034 -0.003125 0.008598 0.000456 -0.000580 0.001788
# 4 0.000386 -0.002165 0.000456 0.022726 0.002112 -0.002692
# 5 -0.001245 -0.000942 -0.000580 0.002112 0.023943 -0.002510
# 6 0.001205 0.000603 0.001788 -0.002692 -0.002510 0.025902
#
#
# Mechanical properties :
#
#
# Convention : Reuss Voigt Hill
#
# Bulk Modulus (GPa) = 61.08377 68.94960 65.01669
# Shear Modulus (GPa) = 41.61982 43.57047 42.59515
#
# Velocity S-wave (km/s) = 4.36579 4.46693 4.41665
# Velocity P-wave (km/s) = 7.30667 7.62763 7.46887
#
# Compressibility (1/GPa) = 0.01637096
#
# Stress axis : x y z
#
# Youngs Moduli (GPa) = 85.84620 111.20177 116.30765
#
# Poissons Ratio (x) = 0.14175 0.23661
# Poissons Ratio (y) = 0.10943 0.36348
# Poissons Ratio (z) = 0.17464 0.34752
#
# Static dielectric constant tensor:
#      x y z
#    x 4.089110 -0.147780 -0.115220 
#    y -0.147780 4.255090 0.120040 
#    z -0.115220 0.120040 4.055700 
# 
# 
# High freq. dielectric constant tensor:
#      x y z
#    x 1.869600 -0.003200 -0.003360 
#    y -0.003200 1.874180 0.007900 
#    z -0.003360 0.007900 1.872080 
# 
# From -- ./inp_files/447699.got.cif
#   From: 2010.06.25/outbox.cif.g09.slc.cpg/sg2_224_cif.got.tgz:447699.got - 2010.06.27 13:26:56.
