data_PCOD8035213
_publ_section_title
;
Structure prediction by ZEFSAII (Michael W. Deem and Ramdas Pophale) SiO2 
 PCOD8035213
Probable space group: P -1
;
_chemical_formula_sum "Si O2"
_cell_formula_units_Z 16
_cell_length_a 11.750525
_cell_length_b 9.291819
_cell_length_c 9.772721
_cell_angle_alpha 58.074783
_cell_angle_beta 117.146307
_cell_angle_gamma 126.886606
_cell_volume 709.025742
_symmetry_space_group_name_H-M "P -1"
_symmetry_group_IT_number 2
_symmetry_cell_setting 'triclinic'
loop_
_space_group_symop_operation_xyz
x,y,z
-x,-y,-z
loop_
_atom_site_type_symbol
_atom_site_label
_atom_site_fract_x
_atom_site_fract_y
_atom_site_fract_z
Si Si1 0.218846 0.857587 0.902675
Si Si2 0.248630 0.409464 0.611712
Si Si3 0.962637 0.784167 0.623594
Si Si4 0.838834 0.705480 0.079019
Si Si5 0.258882 0.501801 0.141127
Si Si6 0.159020 0.915888 0.125659
Si Si7 0.588637 0.159731 0.579889
Si Si8 0.559952 0.766216 0.285514
O O1 0.113639 0.791590 0.746400
O O2 0.376784 0.033622 0.864625
O O3 0.226349 0.677588 0.064545
O O4 0.150589 0.927909 0.950240
O O5 0.094641 0.341476 0.483876
O O6 0.241468 0.342377 0.796305
O O7 0.329616 0.637832 0.552428
O O8 0.321467 0.310118 0.604577
O O9 0.845505 0.684127 0.732571
O O10 0.000000 0.000000 0.500000
O O11 0.003802 0.743887 0.175636
O O12 0.757489 0.535008 0.011639
O O13 0.829154 0.884827 0.913607
O O14 0.426371 0.584823 0.231845
O O15 0.295374 0.890881 0.260007
O O16 0.480188 0.180828 0.616566
O O17 0.500000 0.000000 0.500000
#
# Coordination Sequence:
#
# PCOD8035213 Si02
#       8
#     2   2   2   2   2   2   2   2
#     4  12  24  47  77 106 143 197 259 299 367 443
#     4  12  27  49  72 112 150 196 248 307 373 445
#     4  12  24  45  74 107 145 198 246 304 366 442
#     4  11  27  45  76 106 146 192 245 309 363 432
#     4  12  27  44  78 107 143 197 253 305 364 443
#     4  11  24  50  70 105 147 191 244 305 365 440
#     4  12  30  47  74 107 154 193 247 310 378 440
#     4  12  26  48  76 105 151 196 248 301 373 447
#
# _framework density 22.566175999999999
#
# number of rings (size 3 to 8) (size 9 to 14) (size 15 to 20)
#    0.000    0.250    6.250    1.125    7.000    2.000 
#    0.000    0.000    0.000    0.000    0.000    0.000 
#    0.000    0.000    0.000    0.000    0.000    0.000 
#
# Total GULP energy -198373.301493 kJ/mol
# GULP energy per Si atom -12398.331343 kJ/mol
# Density = 2.251481 g / cm^3
# Si number density = 22.566176 Si / 1000 Ang^3
#
#
#
# Elastic Constant Matrix: (Units=GPa)
#
#
# Indices 1 2 3 4 5 6 
#
# 1 68.6497 39.6842 28.7578 6.2104 -12.5666 14.1541
# 2 39.6842 150.2602 50.3385 6.0790 -11.9736 12.8750
# 3 28.7578 50.3385 98.4867 0.9452 -7.6685 9.6665
# 4 6.2104 6.0790 0.9452 46.4105 -0.0158 -9.3363
# 5 -12.5666 -11.9736 -7.6685 -0.0158 29.0946 0.3162
# 6 14.1541 12.8750 9.6665 -9.3363 0.3162 30.4585
#
#
#
# Elastic Compliance Matrix: (Units=1/GPa)
#
#
# Indices 1 2 3 4 5 6 
#
# 1 0.021163 -0.003029 -0.003161 -0.004159 0.007155 -0.008900
# 2 -0.003029 0.008881 -0.003373 -0.001011 0.001474 -0.001601
# 3 -0.003161 -0.003373 0.012958 0.000378 0.000674 -0.001109
# 4 -0.004159 -0.001011 0.000378 0.024173 -0.002204 0.009672
# 5 0.007155 0.001474 0.000674 -0.002204 0.038301 -0.005236
# 6 -0.008900 -0.001601 -0.001109 0.009672 -0.005236 0.041015
#
#
# Mechanical properties :
#
#
# Convention : Reuss Voigt Hill
#
# Bulk Modulus (GPa) = 41.88286 61.66196 51.77241
# Shear Modulus (GPa) = 28.80590 34.43382 31.61986
#
# Velocity S-wave (km/s) = 3.57670 3.91052 3.74733
# Velocity P-wave (km/s) = 5.97138 6.91186 6.45876
#
# Compressibility (1/GPa) = 0.02387611
#
# Stress axis : x y z
#
# Youngs Moduli (GPa) = 47.25262 112.60428 77.17098
#
# Poissons Ratio (x) = 0.34112 0.24390
# Poissons Ratio (y) = 0.14314 0.26029
# Poissons Ratio (z) = 0.14934 0.37980
#
# Static dielectric constant tensor:
#      x y z
#    x 4.097840 0.238200 0.078110 
#    y 0.238200 4.332450 0.029650 
#    z 0.078110 0.029650 4.044370 
# 
# 
# High freq. dielectric constant tensor:
#      x y z
#    x 1.882890 0.007430 0.001930 
#    y 0.007430 1.906010 -0.003040 
#    z 0.001930 -0.003040 1.892840 
# 
# From -- ./inp_files/206258.got.cif
#   From: 2010.06.25/outbox.cif.g09.slc.cpg/sg2_104_cif.got.tgz:206258.got - 2010.06.27 13:26:56.
