data_PCOD8035317
_publ_section_title
;
Structure prediction by ZEFSAII (Michael W. Deem and Ramdas Pophale) SiO2 
 PCOD8035317
Probable space group: P -1
;
_chemical_formula_sum "Si O2"
_cell_formula_units_Z 16
_cell_length_a 9.114629
_cell_length_b 17.459798
_cell_length_c 6.410824
_cell_angle_alpha 57.255786
_cell_angle_beta 64.421159
_cell_angle_gamma 56.612486
_cell_volume 703.299898
_symmetry_space_group_name_H-M "P -1"
_symmetry_group_IT_number 2
_symmetry_cell_setting 'triclinic'
loop_
_space_group_symop_operation_xyz
x,y,z
-x,-y,-z
loop_
_atom_site_type_symbol
_atom_site_label
_atom_site_fract_x
_atom_site_fract_y
_atom_site_fract_z
Si Si1 0.070435 0.554150 0.209080
Si Si2 0.791076 0.722728 0.893487
Si Si3 0.617652 0.641952 0.792428
Si Si4 0.553289 0.798087 0.289993
Si Si5 0.759418 0.155354 0.889735
Si Si6 0.625227 0.042475 0.477622
Si Si7 0.788963 0.286473 0.020001
Si Si8 0.032080 0.140865 0.431789
O O1 0.243626 0.473111 0.103684
O O2 0.000000 0.500000 0.500000
O O3 0.119495 0.637158 0.168259
O O4 0.921379 0.609771 0.045169
O O5 0.637628 0.711447 0.864870
O O6 0.901784 0.777244 0.631174
O O7 0.698290 0.799559 0.030753
O O8 0.656961 0.688801 0.489370
O O9 0.417201 0.651856 0.880233
O O10 0.384759 0.799027 0.269510
O O11 0.493102 0.884591 0.374528
O O12 0.944056 0.098820 0.729668
O O13 0.703584 0.092384 0.182810
O O14 0.788690 0.244414 0.853460
O O15 0.500000 0.000000 0.500000
O O16 0.795368 0.955729 0.612412
O O17 0.893782 0.194320 0.249838
#
# Coordination Sequence:
#
# PCOD8035317 Si02
#       8
#     2   2   2   2   2   2   2   2
#     4  11  25  43  72 107 139 185 237 290 346 420
#     4  11  25  45  73 103 142 187 230 293 352 414
#     4  12  22  47  68 100 142 184 233 288 352 415
#     4  12  23  45  72  99 145 180 236 288 346 421
#     4  12  24  45  71 101 143 187 231 289 350 414
#     4  12  27  46  72 107 140 188 233 287 354 419
#     4  11  25  46  69 103 143 186 230 288 353 408
#     4  11  26  44  69 105 139 184 234 288 348 416
#
# _framework density 22.749898000000002
#
# number of rings (size 3 to 8) (size 9 to 14) (size 15 to 20)
#    0.000    0.500    5.000    2.625    1.750    7.000 
#    0.000    1.250    0.000    0.000    0.000    0.000 
#    0.000    0.000    0.000    0.000    0.000    0.000 
#
# Total GULP energy -198308.094891 kJ/mol
# GULP energy per Si atom -12394.255931 kJ/mol
# Density = 2.269812 g / cm^3
# Si number density = 22.749898 Si / 1000 Ang^3
#
#
#
# Elastic Constant Matrix: (Units=GPa)
#
#
# Indices 1 2 3 4 5 6 
#
# 1 129.0330 45.0755 46.2670 -1.5735 5.3572 1.4303
# 2 45.0755 119.2900 43.0743 3.7956 10.5162 -14.8374
# 3 46.2670 43.0743 101.6206 -7.8177 -8.9986 1.9191
# 4 -1.5735 3.7956 -7.8177 31.1492 0.6831 2.3062
# 5 5.3572 10.5162 -8.9986 0.6831 32.6400 -0.6852
# 6 1.4303 -14.8374 1.9191 2.3062 -0.6852 51.4765
#
#
#
# Elastic Compliance Matrix: (Units=1/GPa)
#
#
# Indices 1 2 3 4 5 6 
#
# 1 0.009995 -0.002378 -0.003698 -0.000029 -0.001911 -0.000849
# 2 -0.002378 0.011938 -0.004681 -0.002926 -0.004606 0.003751
# 3 -0.003698 -0.004681 0.014379 0.004001 0.005956 -0.001883
# 4 -0.000029 -0.002926 0.004001 0.033618 0.001295 -0.002481
# 5 -0.001911 -0.004606 0.005956 0.001295 0.034027 -0.001102
# 6 -0.000849 0.003751 -0.001883 -0.002481 -0.001102 0.020698
#
#
# Mechanical properties :
#
#
# Convention : Reuss Voigt Hill
#
# Bulk Modulus (GPa) = 67.57901 68.75304 68.16602
# Shear Modulus (GPa) = 33.09025 37.42159 35.25592
#
# Velocity S-wave (km/s) = 3.81796 4.06015 3.94092
# Velocity P-wave (km/s) = 7.01466 7.22957 7.12292
#
# Compressibility (1/GPa) = 0.01479749
#
# Stress axis : x y z
#
# Youngs Moduli (GPa) = 100.04979 83.76949 69.54381
#
# Poissons Ratio (x) = 0.19917 0.25719
# Poissons Ratio (y) = 0.23788 0.32556
# Poissons Ratio (z) = 0.37001 0.39216
#
# Static dielectric constant tensor:
#      x y z
#    x 4.314190 -0.200910 0.013250 
#    y -0.200910 4.144280 -0.017580 
#    z 0.013250 -0.017580 4.113140 
# 
# 
# High freq. dielectric constant tensor:
#      x y z
#    x 1.917590 -0.015660 -0.002160 
#    y -0.015660 1.896930 -0.002310 
#    z -0.002160 -0.002310 1.894280 
# 
# From -- ./inp_files/46609.got.cif
#   From: 2010.06.25/outbox.cif.g09.slc.cpg/sg2_24_cif.got.tgz:46609.got - 2010.06.27 13:26:56.
