data_PCOD8035247
_publ_section_title
;
Structure prediction by ZEFSAII (Michael W. Deem and Ramdas Pophale) SiO2 
 PCOD8035247
Probable space group: P -1
;
_chemical_formula_sum "Si O2"
_cell_formula_units_Z 16
_cell_length_a 9.166200
_cell_length_b 13.808602
_cell_length_c 14.522596
_cell_angle_alpha 30.209622
_cell_angle_beta 97.841409
_cell_angle_gamma 77.950796
_cell_volume 692.084836
_symmetry_space_group_name_H-M "P -1"
_symmetry_group_IT_number 2
_symmetry_cell_setting 'triclinic'
loop_
_space_group_symop_operation_xyz
x,y,z
-x,-y,-z
loop_
_atom_site_type_symbol
_atom_site_label
_atom_site_fract_x
_atom_site_fract_y
_atom_site_fract_z
Si Si1 0.860600 0.147853 0.062578
Si Si2 0.931690 0.693310 0.138782
Si Si3 0.911967 0.452461 0.166693
Si Si4 0.545181 0.152223 0.796740
Si Si5 0.527553 0.458858 0.381031
Si Si6 0.150728 0.869533 0.464203
Si Si7 0.161244 0.271194 0.638649
Si Si8 0.277455 0.158052 0.325069
O O1 0.871233 0.925465 0.207609
O O2 0.641214 0.416222 0.813729
O O3 0.934220 0.097775 0.216284
O O4 0.001604 0.149119 0.008123
O O5 0.850003 0.655305 0.073245
O O6 0.115038 0.411030 0.421638
O O7 0.757149 0.867311 0.056035
O O8 0.864137 0.274834 0.337722
O O9 0.141637 0.277925 0.305799
O O10 0.784116 0.612886 0.934441
O O11 0.535021 0.263173 0.605257
O O12 0.513504 0.324235 0.736147
O O13 0.381964 0.125791 0.808884
O O14 0.727354 0.317646 0.458407
O O15 0.249505 0.977010 0.421894
O O16 0.000000 0.500000 0.500000
O O17 0.500000 0.000000 0.500000
#
# Coordination Sequence:
#
# PCOD8035247 Si02
#       8
#     2   2   2   2   2   2   2   2
#     4  12  25  43  69 100 136 189 234 285 348 409
#     4  12  25  46  71  99 148 186 234 293 347 410
#     4  11  26  47  75 105 140 180 228 292 354 423
#     4  11  25  43  66 100 144 191 241 289 338 406
#     4  11  25  41  71  99 142 190 239 285 347 403
#     4  12  25  48  71 104 141 179 235 286 351 423
#     4  12  27  42  69 101 139 191 248 288 343 403
#     4  11  27  48  78 106 138 175 228 291 363 425
#
# _framework density 23.118552000000001
#
# number of rings (size 3 to 8) (size 9 to 14) (size 15 to 20)
#    0.000    0.500    5.000    1.875    5.250    4.500 
#    0.000    0.000    0.000    0.000    0.000    0.000 
#    0.000    0.000    0.000    0.000    0.000    0.000 
#
# Total GULP energy -198467.101503 kJ/mol
# GULP energy per Si atom -12404.193844 kJ/mol
# Density = 2.306593 g / cm^3
# Si number density = 23.118552 Si / 1000 Ang^3
#
#
#
# Elastic Constant Matrix: (Units=GPa)
#
#
# Indices 1 2 3 4 5 6 
#
# 1 137.9252 21.3097 60.2013 12.4321 -2.1879 5.0124
# 2 21.3097 69.7595 11.9952 -3.7561 1.8755 -2.6292
# 3 60.2013 11.9952 120.1196 11.5905 5.2129 0.6304
# 4 12.4321 -3.7561 11.5905 34.2791 -2.4357 -2.0025
# 5 -2.1879 1.8755 5.2129 -2.4357 50.4535 5.5124
# 6 5.0124 -2.6292 0.6304 -2.0025 5.5124 38.4122
#
#
#
# Elastic Compliance Matrix: (Units=1/GPa)
#
#
# Indices 1 2 3 4 5 6 
#
# 1 0.009894 -0.002462 -0.004523 -0.002351 0.001056 -0.001659
# 2 -0.002462 0.015414 -0.000557 0.002818 -0.000664 0.001628
# 3 -0.004523 -0.000557 0.010920 -0.002189 -0.001461 0.000468
# 4 -0.002351 0.002818 -0.002189 0.031283 0.001314 0.001978
# 5 0.001056 -0.000664 -0.001461 0.001314 0.020435 -0.003023
# 6 -0.001659 0.001628 0.000468 0.001978 -0.003023 0.026891
#
#
# Mechanical properties :
#
#
# Convention : Reuss Voigt Hill
#
# Bulk Modulus (GPa) = 47.29645 57.20183 52.24914
# Shear Modulus (GPa) = 36.50498 40.24884 38.37691
#
# Velocity S-wave (km/s) = 3.97802 4.17703 4.07874
# Velocity P-wave (km/s) = 6.44997 6.93253 6.69560
#
# Compressibility (1/GPa) = 0.02114324
#
# Stress axis : x y z
#
# Youngs Moduli (GPa) = 101.07333 64.87708 91.57810
#
# Poissons Ratio (x) = 0.15973 0.41421
# Poissons Ratio (y) = 0.24885 0.05100
# Poissons Ratio (z) = 0.45715 0.03613
#
# Static dielectric constant tensor:
#      x y z
#    x 5.855260 -0.554070 -3.401870 
#    y -0.554070 4.237720 1.233330 
#    z -3.401870 1.233330 11.847000 
# 
# 
# High freq. dielectric constant tensor:
#      x y z
#    x 1.917370 -0.002870 -0.008700 
#    y -0.002870 1.904150 0.011400 
#    z -0.008700 0.011400 1.939460 
# 
# From -- ./inp_files/505000.got.cif
#   From: 2010.06.25/outbox.cif.g09.slc.cpg/sg2_253_cif.got.tgz:505000.got - 2010.06.27 13:26:56.
