data_PCOD8035065
_publ_section_title
;
Structure prediction by ZEFSAII (Michael W. Deem and Ramdas Pophale) SiO2 
 PCOD8035065
Probable space group: P -1
;
_chemical_formula_sum "Si O2"
_cell_formula_units_Z 16
_cell_length_a 6.617253
_cell_length_b 11.347518
_cell_length_c 14.014569
_cell_angle_alpha 48.095819
_cell_angle_beta 78.701991
_cell_angle_gamma 61.183802
_cell_volume 673.301514
_symmetry_space_group_name_H-M "P -1"
_symmetry_group_IT_number 2
_symmetry_cell_setting 'triclinic'
loop_
_space_group_symop_operation_xyz
x,y,z
-x,-y,-z
loop_
_atom_site_type_symbol
_atom_site_label
_atom_site_fract_x
_atom_site_fract_y
_atom_site_fract_z
Si Si1 0.782292 0.184922 0.889033
Si Si2 0.959029 0.446956 0.779551
Si Si3 0.520492 0.804146 0.613742
Si Si4 0.428412 0.707573 0.881870
Si Si5 0.323714 0.239877 0.001779
Si Si6 0.904409 0.993010 0.803738
Si Si7 0.672686 0.247305 0.534244
Si Si8 0.790980 0.554293 0.416816
O O1 0.788234 0.357231 0.840768
O O2 0.541002 0.192083 0.937821
O O3 0.819112 0.178272 0.773758
O O4 0.000000 0.000000 0.000000
O O5 0.796962 0.659906 0.659657
O O6 0.092321 0.413548 0.886497
O O7 0.154032 0.355571 0.728037
O O8 0.425657 0.770938 0.740073
O O9 0.370233 0.773722 0.561358
O O10 0.500000 0.000000 0.500000
O O11 0.172864 0.839134 0.879199
O O12 0.500000 0.500000 0.000000
O O13 0.627294 0.724336 0.914352
O O14 0.268649 0.075754 0.101682
O O15 0.864544 0.052647 0.664222
O O16 0.765254 0.389314 0.463785
O O17 0.438619 0.300362 0.587538
O O18 0.000000 0.500000 0.500000
#
# Coordination Sequence:
#
# PCOD8035065 Si02
#       8
#     2   2   2   2   2   2   2   2
#     4  12  24  44  74 116 152 182 242 319 382 448
#     4  12  27  45  78 109 150 193 250 307 381 440
#     4  12  29  52  74 109 156 207 259 308 365 454
#     4  12  29  50  73 103 154 198 259 311 358 447
#     4  12  25  46  74 109 145 195 243 308 385 440
#     4  12  26  45  75 109 147 192 245 306 380 448
#     4  11  27  46  75 112 146 195 248 312 380 446
#     4  11  24  47  77 109 149 188 245 316 389 445
#
# _framework density 23.763497000000001
#
# number of rings (size 3 to 8) (size 9 to 14) (size 15 to 20)
#    0.000    0.250    3.750    4.125    8.750    5.500 
#    0.000    0.000    0.000    0.000    0.000    0.000 
#    0.000    0.000    0.000    0.000    0.000    0.000 
#
# Total GULP energy -198383.011511 kJ/mol
# GULP energy per Si atom -12398.938219 kJ/mol
# Density = 2.370941 g / cm^3
# Si number density = 23.763497 Si / 1000 Ang^3
#
#
#
# Elastic Constant Matrix: (Units=GPa)
#
#
# Indices 1 2 3 4 5 6 
#
# 1 125.2610 49.0710 48.9458 5.3662 13.2971 17.8208
# 2 49.0710 111.8574 49.5349 6.2350 7.8767 12.8321
# 3 48.9458 49.5349 149.0900 6.4175 18.9345 15.7978
# 4 5.3662 6.2350 6.4175 51.4032 1.1397 3.2961
# 5 13.2971 7.8767 18.9345 1.1397 48.9897 11.6545
# 6 17.8208 12.8321 15.7978 3.2961 11.6545 31.4523
#
#
#
# Elastic Compliance Matrix: (Units=1/GPa)
#
#
# Indices 1 2 3 4 5 6 
#
# 1 0.010616 -0.003360 -0.001900 -0.000230 -0.000800 -0.003369
# 2 -0.003360 0.011791 -0.002668 -0.000650 0.000460 -0.001669
# 3 -0.001900 -0.002668 0.008643 -0.000424 -0.002060 -0.001368
# 4 -0.000230 -0.000650 -0.000424 0.019703 0.000240 -0.001546
# 5 -0.000800 0.000460 -0.002060 0.000240 0.023077 -0.007276
# 6 -0.003369 -0.001669 -0.001368 -0.001546 -0.007276 0.037929
#
#
# Mechanical properties :
#
#
# Convention : Reuss Voigt Hill
#
# Bulk Modulus (GPa) = 65.82102 75.70132 70.76117
# Shear Modulus (GPa) = 37.68446 42.27948 39.98197
#
# Velocity S-wave (km/s) = 3.98655 4.22261 4.10627
# Velocity P-wave (km/s) = 6.99633 7.46319 7.23352
#
# Compressibility (1/GPa) = 0.01519272
#
# Stress axis : x y z
#
# Youngs Moduli (GPa) = 94.19443 84.81228 115.70702
#
# Poissons Ratio (x) = 0.28497 0.21989
# Poissons Ratio (y) = 0.31650 0.30870
# Poissons Ratio (z) = 0.17901 0.22627
#
# Static dielectric constant tensor:
#      x y z
#    x 4.721220 0.370160 0.934960 
#    y 0.370160 4.923240 1.670570 
#    z 0.934960 1.670570 11.109670 
# 
# 
# High freq. dielectric constant tensor:
#      x y z
#    x 1.954080 0.001530 0.009830 
#    y 0.001530 1.933410 0.012440 
#    z 0.009830 0.012440 1.961100 
# 
# From -- ./inp_files/482634.got.cif
#   From: 2010.06.25/outbox.cif.g09.slc.cpg/sg2_242_cif.got.tgz:482634.got - 2010.06.27 13:26:56.
