data_PCOD8035154
_publ_section_title
;
Structure prediction by ZEFSAII (Michael W. Deem and Ramdas Pophale) SiO2 
 PCOD8035154
Probable space group: P -1
;
_chemical_formula_sum "Si O2"
_cell_formula_units_Z 16
_cell_length_a 11.761481
_cell_length_b 9.427115
_cell_length_c 11.376317
_cell_angle_alpha 123.993339
_cell_angle_beta 134.186645
_cell_angle_gamma 49.169665
_cell_volume 671.845895
_symmetry_space_group_name_H-M "P -1"
_symmetry_group_IT_number 2
_symmetry_cell_setting 'triclinic'
loop_
_space_group_symop_operation_xyz
x,y,z
-x,-y,-z
loop_
_atom_site_type_symbol
_atom_site_label
_atom_site_fract_x
_atom_site_fract_y
_atom_site_fract_z
Si Si1 0.362224 0.514431 0.607406
Si Si2 0.108814 0.835894 0.412886
Si Si3 0.723798 0.405024 0.928274
Si Si4 0.217179 0.239037 0.880275
Si Si5 0.910396 0.009888 0.774918
Si Si6 0.343448 0.132265 0.368311
Si Si7 0.461853 0.971002 0.123094
Si Si8 0.298893 0.701623 0.885930
O O1 0.284221 0.681118 0.531362
O O2 0.571552 0.449363 0.740864
O O3 0.316444 0.347677 0.452175
O O4 0.274143 0.582138 0.704333
O O5 0.167538 0.915367 0.377474
O O6 0.976579 0.747166 0.237348
O O7 0.000000 0.000000 0.500000
O O8 0.872475 0.190088 0.914907
O O9 0.817968 0.542086 0.053029
O O10 0.640130 0.420911 0.006245
O O11 0.327119 0.104084 0.785750
O O12 0.341567 0.150603 0.040810
O O13 0.831826 0.875402 0.712875
O O14 0.118509 0.889867 0.863319
O O15 0.500000 0.000000 0.500000
O O16 0.402853 0.035643 0.241008
O O17 0.437458 0.781777 0.984527
#
# Coordination Sequence:
#
# PCOD8035154 Si02
#       8
#     2   2   2   2   2   2   2   2
#     4  12  27  48  74 113 149 199 248 308 373 446
#     4  12  28  50  72 110 157 195 246 309 376 443
#     4  12  27  45  77 111 144 195 253 309 363 449
#     4  11  27  45  78 108 142 202 248 300 364 450
#     4  12  27  47  74 106 152 194 245 308 378 428
#     4  12  28  46  73 112 151 195 246 313 376 436
#     4  11  24  48  76 104 147 196 251 297 369 447
#     4  12  24  49  75 106 152 194 250 303 374 444
#
# _framework density 23.814985
#
# number of rings (size 3 to 8) (size 9 to 14) (size 15 to 20)
#    0.000    0.250    6.250    0.750    8.750    1.500 
#    0.000    0.000    0.000    0.000    0.000    0.000 
#    0.000    0.000    0.000    0.000    0.000    0.000 
#
# Total GULP energy -198462.123698 kJ/mol
# GULP energy per Si atom -12403.882731 kJ/mol
# Density = 2.376078 g / cm^3
# Si number density = 23.814985 Si / 1000 Ang^3
#
#
#
# Elastic Constant Matrix: (Units=GPa)
#
#
# Indices 1 2 3 4 5 6 
#
# 1 81.8402 -7.6138 17.4971 5.8476 -18.0155 3.8565
# 2 -7.6138 74.7148 11.4330 10.4074 0.1216 10.4529
# 3 17.4971 11.4330 71.5309 5.8792 -11.6454 4.4110
# 4 5.8476 10.4074 5.8792 46.1579 -1.3710 0.8846
# 5 -18.0155 0.1216 -11.6454 -1.3710 36.3855 -8.6610
# 6 3.8565 10.4529 4.4110 0.8846 -8.6610 40.9741
#
#
#
# Elastic Compliance Matrix: (Units=1/GPa)
#
#
# Indices 1 2 3 4 5 6 
#
# 1 0.014503 0.002174 -0.002726 -0.001792 0.006166 -0.000284
# 2 0.002174 0.014996 -0.002557 -0.003282 -0.000834 -0.003860
# 3 -0.002726 -0.002557 0.015731 -0.000973 0.003659 0.000010
# 4 -0.001792 -0.003282 -0.000973 0.022739 -0.000193 0.000579
# 5 0.006166 -0.000834 0.003659 -0.000193 0.033193 0.006259
# 6 -0.000284 -0.003860 0.000010 0.000579 0.006259 0.026727
#
#
# Mechanical properties :
#
#
# Convention : Reuss Voigt Hill
#
# Bulk Modulus (GPa) = 25.63348 30.07983 27.85665
# Shear Modulus (GPa) = 33.98845 38.48814 36.23829
#
# Velocity S-wave (km/s) = 3.78191 4.02447 3.90508
# Velocity P-wave (km/s) = 5.46420 5.85263 5.66174
#
# Compressibility (1/GPa) = 0.03901148
#
# Stress axis : x y z
#
# Youngs Moduli (GPa) = 68.95220 66.68610 63.57025
#
# Poissons Ratio (x) = -0.14500 0.17332
# Poissons Ratio (y) = -0.14993 0.16253
# Poissons Ratio (z) = 0.18800 0.17050
#
# Static dielectric constant tensor:
#      x y z
#    x 3.751770 -0.281200 -0.165270 
#    y -0.281200 4.174760 -0.157420 
#    z -0.165270 -0.157420 4.162410 
# 
# 
# High freq. dielectric constant tensor:
#      x y z
#    x 1.951780 -0.001790 -0.009370 
#    y -0.001790 1.963180 -0.002770 
#    z -0.009370 -0.002770 1.940040 
# 
# From -- ./inp_files/419807.got.cif
#   From: 2010.06.25/outbox.cif.g09.slc.cpg/sg2_210_cif.got.tgz:419807.got - 2010.06.27 13:26:56.
