data_PCOD8035257
_publ_section_title
;
Structure prediction by ZEFSAII (Michael W. Deem and Ramdas Pophale) SiO2 
 PCOD8035257
Probable space group: P -1
;
_chemical_formula_sum "Si O2"
_cell_formula_units_Z 12
_cell_length_a 9.936062
_cell_length_b 9.155826
_cell_length_c 12.786401
_cell_angle_alpha 108.697382
_cell_angle_beta 46.257292
_cell_angle_gamma 136.999043
_cell_volume 531.160916
_symmetry_space_group_name_H-M "P -1"
_symmetry_group_IT_number 2
_symmetry_cell_setting 'triclinic'
loop_
_space_group_symop_operation_xyz
x,y,z
-x,-y,-z
loop_
_atom_site_type_symbol
_atom_site_label
_atom_site_fract_x
_atom_site_fract_y
_atom_site_fract_z
Si Si1 0.682579 0.580688 0.175542
Si Si2 0.284823 0.877608 0.492667
Si Si3 0.739905 0.811219 0.525140
Si Si4 0.633200 0.308478 0.970438
Si Si5 0.066312 0.813056 0.197997
Si Si6 0.332062 0.619130 0.265352
O O1 0.522163 0.388112 0.307824
O O2 0.523426 0.637843 0.244256
O O3 0.258630 0.478744 0.974436
O O4 0.980477 0.796515 0.119815
O O5 0.343346 0.798063 0.346842
O O6 0.971699 0.645651 0.643972
O O7 0.500000 0.000000 0.500000
O O8 0.319542 0.073416 0.482478
O O9 0.817858 0.716515 0.385425
O O10 0.000000 0.000000 0.500000
O O11 0.880840 0.335352 0.843741
O O12 0.548196 0.303554 0.898034
O O13 0.355671 0.079201 0.126393
#
# Coordination Sequence:
#
# PCOD8035257 Si02
#       6
#     2   2   2   2   2   2
#     4  12  25  43  69  97 128 174 218 262 324 382
#     4  11  25  42  66  99 131 169 214 267 325 379
#     4  12  22  44  70  94 132 169 217 269 315 383
#     4  11  25  43  65  96 137 166 214 269 322 382
#     4  11  25  42  67  98 128 172 217 265 323 381
#     4  11  25  42  66  96 132 170 214 268 321 381
#
# _framework density 22.592025
#
# number of rings (size 3 to 8) (size 9 to 14) (size 15 to 20)
#    0.000    0.667    3.333    3.500    7.000    2.000 
#    0.000    0.000    0.000    0.000    0.000    0.000 
#    0.000    0.000    0.000    0.000    0.000    0.000 
#
# Total GULP energy -148835.051453 kJ/mol
# GULP energy per Si atom -12402.920954 kJ/mol
# Density = 2.254060 g / cm^3
# Si number density = 22.592025 Si / 1000 Ang^3
#
#
#
# Elastic Constant Matrix: (Units=GPa)
#
#
# Indices 1 2 3 4 5 6 
#
# 1 146.4200 21.9047 30.8941 3.4910 -15.0079 6.8575
# 2 21.9047 50.6960 32.3118 22.3098 -12.0819 2.5652
# 3 30.8941 32.3118 86.7245 22.8916 7.3091 -14.2904
# 4 3.4910 22.3098 22.8916 31.5973 3.3865 0.9674
# 5 -15.0079 -12.0819 7.3091 3.3865 36.8594 6.7401
# 6 6.8575 2.5652 -14.2904 0.9674 6.7401 43.0041
#
#
#
# Elastic Compliance Matrix: (Units=1/GPa)
#
#
# Indices 1 2 3 4 5 6 
#
# 1 0.008405 -0.000631 -0.004311 0.002265 0.004500 -0.003492
# 2 -0.000631 0.044403 -0.013508 -0.023438 0.020919 -0.009788
# 3 -0.004311 -0.013508 0.022283 -0.005164 -0.012123 0.010914
# 4 0.002265 -0.023438 -0.005164 0.052825 -0.010550 -0.000214
# 5 0.004500 0.020919 -0.012123 -0.010550 0.041433 -0.012250
# 6 -0.003492 -0.009788 0.010914 -0.000214 -0.012250 0.029946
#
#
# Mechanical properties :
#
#
# Convention : Reuss Voigt Hill
#
# Bulk Modulus (GPa) = 26.18572 50.45131 38.31851
# Shear Modulus (GPa) = 20.08638 35.54084 27.81361
#
# Velocity S-wave (km/s) = 2.98500 3.97061 3.51255
# Velocity P-wave (km/s) = 4.84728 6.58794 5.78347
#
# Compressibility (1/GPa) = 0.03818876
#
# Stress axis : x y z
#
# Youngs Moduli (GPa) = 118.98280 22.52116 44.87778
#
# Poissons Ratio (x) = 0.01421 0.19348
# Poissons Ratio (y) = 0.07509 0.60622
# Poissons Ratio (z) = 0.51298 0.30422
#
# Static dielectric constant tensor:
#      x y z
#    x 4.179510 0.220610 -0.179310 
#    y 0.220610 4.111580 0.030270 
#    z -0.179310 0.030270 4.291170 
# 
# 
# High freq. dielectric constant tensor:
#      x y z
#    x 1.908000 0.011020 -0.004090 
#    y 0.011020 1.896560 0.011590 
#    z -0.004090 0.011590 1.887270 
# 
# From -- ./inp_files/244736.got.cif
#   From: 2010.06.25/outbox.cif.g09.slc.cpg/sg2_123_cif.got.tgz:244736.got - 2010.06.27 13:26:56.
