data_PCOD8035246
_publ_section_title
;
Structure prediction by ZEFSAII (Michael W. Deem and Ramdas Pophale) SiO2 
 PCOD8035246
Probable space group: P -1
;
_chemical_formula_sum "Si O2"
_cell_formula_units_Z 16
_cell_length_a 6.468345
_cell_length_b 14.016913
_cell_length_c 22.466150
_cell_angle_alpha 159.701550
_cell_angle_beta 87.748436
_cell_angle_gamma 89.385639
_cell_volume 699.403228
_symmetry_space_group_name_H-M "P -1"
_symmetry_group_IT_number 2
_symmetry_cell_setting 'triclinic'
loop_
_space_group_symop_operation_xyz
x,y,z
-x,-y,-z
loop_
_atom_site_type_symbol
_atom_site_label
_atom_site_fract_x
_atom_site_fract_y
_atom_site_fract_z
Si Si1 0.007090 0.495184 0.648137
Si Si2 0.627764 0.711824 0.849325
Si Si3 0.881220 0.004035 0.305129
Si Si4 0.673996 0.738076 0.396291
Si Si5 0.145528 0.025010 0.900970
Si Si6 0.671026 0.795872 0.295690
Si Si7 0.191859 0.801150 0.087857
Si Si8 0.534792 0.173049 0.317386
O O1 0.763932 0.593642 0.722337
O O2 0.006148 0.269672 0.463856
O O3 0.122240 0.363755 0.628281
O O4 0.126599 0.741367 0.769266
O O5 0.477337 0.496570 0.745869
O O6 0.500000 0.000000 0.000000
O O7 0.793312 0.749708 0.921599
O O8 0.653999 0.092242 0.330324
O O9 0.844505 0.901228 0.312319
O O10 0.025709 0.780984 0.131710
O O11 0.750481 0.804506 0.367987
O O12 0.553005 0.011067 0.590599
O O13 0.332836 0.971664 0.822203
O O14 0.929114 0.139711 0.938575
O O15 0.652140 0.485651 0.090125
O O16 0.316346 0.054147 0.250038
O O17 0.500000 0.500000 0.500000
#
# Coordination Sequence:
#
# PCOD8035246 Si02
#       8
#     2   2   2   2   2   2   2   2
#     4  12  25  44  71 104 142 178 231 286 352 411
#     4  12  25  42  72 105 141 179 229 287 352 412
#     4  11  26  45  68 103 134 189 233 285 342 407
#     4  11  26  47  70 105 137 190 225 288 351 403
#     4  11  25  41  70 106 136 176 225 291 349 413
#     4  11  25  49  69  97 144 183 239 280 338 418
#     4  11  25  47  71 102 139 184 233 283 348 408
#     4  11  25  44  72 101 137 177 230 292 352 404
#
# _framework density 22.876643999999999
#
# number of rings (size 3 to 8) (size 9 to 14) (size 15 to 20)
#    0.000    0.750    2.500    3.750    8.750    3.000 
#    9.000    0.000    0.000    0.000    0.000    0.000 
#    0.000    0.000    0.000    0.000    0.000    0.000 
#
# Total GULP energy -198445.844898 kJ/mol
# GULP energy per Si atom -12402.865306 kJ/mol
# Density = 2.282458 g / cm^3
# Si number density = 22.876644 Si / 1000 Ang^3
#
#
#
# Elastic Constant Matrix: (Units=GPa)
#
#
# Indices 1 2 3 4 5 6 
#
# 1 100.7690 44.2909 43.8542 1.9515 2.0979 -12.1056
# 2 44.2909 120.3127 35.9915 -1.8672 -10.9192 3.1569
# 3 43.8542 35.9915 139.1348 1.4541 -6.6699 -5.3800
# 4 1.9515 -1.8672 1.4541 33.2815 -4.3362 -0.9135
# 5 2.0979 -10.9192 -6.6699 -4.3362 39.6817 -9.1477
# 6 -12.1056 3.1569 -5.3800 -0.9135 -9.1477 29.8069
#
#
#
# Elastic Compliance Matrix: (Units=1/GPa)
#
#
# Indices 1 2 3 4 5 6 
#
# 1 0.013889 -0.004468 -0.003083 -0.000975 -0.001414 0.005094
# 2 -0.004468 0.010666 -0.001334 0.001183 0.002529 -0.002372
# 3 -0.003083 -0.001334 0.008608 -0.000058 0.001440 0.000883
# 4 -0.000975 0.001183 -0.000058 0.030755 0.004114 0.001673
# 5 -0.001414 0.002529 0.001440 0.004114 0.028580 0.008315
# 6 0.005094 -0.002372 0.000883 0.001673 0.008315 0.038632
#
#
# Mechanical properties :
#
#
# Convention : Reuss Voigt Hill
#
# Bulk Modulus (GPa) = 64.96001 67.60998 66.28500
# Shear Modulus (GPa) = 32.46150 36.29268 34.37709
#
# Velocity S-wave (km/s) = 3.77102 3.98735 3.88069
# Velocity P-wave (km/s) = 6.88609 7.12860 7.00839
#
# Compressibility (1/GPa) = 0.01539409
#
# Stress axis : x y z
#
# Youngs Moduli (GPa) = 71.99765 93.75933 116.17572
#
# Poissons Ratio (x) = 0.41892 0.35813
# Poissons Ratio (y) = 0.32169 0.15492
# Poissons Ratio (z) = 0.22194 0.12503
#
# Static dielectric constant tensor:
#      x y z
#    x 4.114520 -0.125490 -0.289180 
#    y -0.125490 4.299850 0.081820 
#    z -0.289180 0.081820 4.467920 
# 
# 
# High freq. dielectric constant tensor:
#      x y z
#    x 1.898730 0.004740 -0.009260 
#    y 0.004740 1.910020 -0.006660 
#    z -0.009260 -0.006660 1.915840 
# 
# From -- ./inp_files/71672.got.cif
#   From: 2010.06.25/outbox.cif.g09.slc.cpg/sg2_36_cif.got.tgz:71672.got - 2010.06.27 13:26:56.
