data_PCOD8035945
_publ_section_title
;
Structure prediction by ZEFSAII (Michael W. Deem and Ramdas Pophale) SiO2 
 PCOD8035945
Probable space group: P -1
;
_chemical_formula_sum "Si O2"
_cell_formula_units_Z 12
_cell_length_a 11.529411
_cell_length_b 13.616610
_cell_length_c 7.136353
_cell_angle_alpha 81.661966
_cell_angle_beta 82.710732
_cell_angle_gamma 147.992103
_cell_volume 516.584781
_symmetry_space_group_name_H-M "P -1"
_symmetry_group_IT_number 2
_symmetry_cell_setting 'triclinic'
loop_
_space_group_symop_operation_xyz
x,y,z
-x,-y,-z
loop_
_atom_site_type_symbol
_atom_site_label
_atom_site_fract_x
_atom_site_fract_y
_atom_site_fract_z
Si Si1 0.755703 0.384074 0.631634
Si Si2 0.773634 0.570044 0.308871
Si Si3 0.886478 0.054582 0.637476
Si Si4 0.103511 0.472315 0.044135
Si Si5 0.346067 0.327304 0.240621
Si Si6 0.650472 0.017259 0.413060
O O1 0.780251 0.513999 0.515412
O O2 0.711659 0.363588 0.868418
O O3 0.000000 0.500000 0.500000
O O4 0.500286 0.149633 0.672434
O O5 0.524141 0.445094 0.352714
O O6 0.007763 0.820298 0.222477
O O7 0.773788 0.488125 0.167990
O O8 0.682652 0.972681 0.602515
O O9 0.111230 0.212503 0.396590
O O10 0.755976 0.853065 0.771723
O O11 0.910211 0.246276 0.216286
O O12 0.000000 0.500000 0.000000
O O13 0.500000 0.500000 0.000000
O O14 0.500000 0.000000 0.500000
#
# Coordination Sequence:
#
# PCOD8035945 Si02
#       6
#     2   2   2   2   2   2
#     4  12  23  45  69  98 150 189 228 298 362 429
#     4  12  24  47  73 104 146 190 242 303 362 436
#     4  11  25  48  75 108 147 192 244 304 370 431
#     4  12  26  42  69 109 145 193 244 286 366 443
#     4  11  26  48  77 108 144 191 252 304 363 436
#     4  12  23  44  73 103 145 190 235 299 371 434
#
# _framework density 23.229488
#
# number of rings (size 3 to 8) (size 9 to 14) (size 15 to 20)
#    0.000    0.333    6.667    1.500    0.000    2.667 
#    0.000    0.000    0.000    0.000    0.000    0.000 
#    0.000    0.000    0.000    0.000    0.000    0.000 
#
# Total GULP energy -148745.564105 kJ/mol
# GULP energy per Si atom -12395.463675 kJ/mol
# Density = 2.317662 g / cm^3
# Si number density = 23.229488 Si / 1000 Ang^3
#
#
#
# Elastic Constant Matrix: (Units=GPa)
#
#
# Indices 1 2 3 4 5 6 
#
# 1 123.7837 42.3640 32.5860 11.0225 18.4791 -0.6958
# 2 42.3640 177.7579 28.5775 36.8835 10.7066 -18.2857
# 3 32.5860 28.5775 85.9843 18.3214 12.3112 -9.1232
# 4 11.0225 36.8835 18.3214 51.3179 -6.1575 4.0502
# 5 18.4791 10.7066 12.3112 -6.1575 36.7421 3.7399
# 6 -0.6958 -18.2857 -9.1232 4.0502 3.7399 42.5318
#
#
#
# Elastic Compliance Matrix: (Units=1/GPa)
#
#
# Indices 1 2 3 4 5 6 
#
# 1 0.009938 -0.001750 -0.002709 -0.000269 -0.003541 -0.000834
# 2 -0.001750 0.007876 0.000201 -0.006041 -0.002926 0.004233
# 3 -0.002709 0.000201 0.015037 -0.005888 -0.005157 0.004282
# 4 -0.000269 -0.006041 -0.005888 0.027675 0.009251 -0.007314
# 5 -0.003541 -0.002926 -0.005157 0.009251 0.033767 -0.006272
# 6 -0.000834 0.004233 0.004282 -0.007314 -0.006272 0.027484
#
#
# Mechanical properties :
#
#
# Convention : Reuss Voigt Hill
#
# Bulk Modulus (GPa) = 41.09234 66.06454 53.57844
# Shear Modulus (GPa) = 36.12568 45.05159 40.58864
#
# Velocity S-wave (km/s) = 3.94784 4.40866 4.18459
# Velocity P-wave (km/s) = 6.20554 7.37677 6.81635
#
# Compressibility (1/GPa) = 0.02433544
#
# Stress axis : x y z
#
# Youngs Moduli (GPa) = 100.61882 126.97587 66.50184
#
# Poissons Ratio (x) = 0.22217 0.18016
# Poissons Ratio (y) = 0.17606 -0.01336
# Poissons Ratio (z) = 0.27258 -0.02551
#
# Static dielectric constant tensor:
#      x y z
#    x 4.864890 -0.095740 -0.242050 
#    y -0.095740 4.573150 0.250770 
#    z -0.242050 0.250770 4.319330 
# 
# 
# High freq. dielectric constant tensor:
#      x y z
#    x 1.935590 -0.007870 0.010680 
#    y -0.007870 1.944430 0.010240 
#    z 0.010680 0.010240 1.895990 
# 
# From -- ./inp_files/77634.got.cif
#   From: 2010.06.25/outbox.cif.g09.slc.cpg/sg2_39_cif.got.tgz:77634.got - 2010.06.27 13:26:56.
