data_PCOD8035294
_publ_section_title
;
Structure prediction by ZEFSAII (Michael W. Deem and Ramdas Pophale) SiO2 
 PCOD8035294
Probable space group: P -1
;
_chemical_formula_sum "Si O2"
_cell_formula_units_Z 16
_cell_length_a 9.462242
_cell_length_b 12.249610
_cell_length_c 18.833995
_cell_angle_alpha 152.043703
_cell_angle_beta 124.834415
_cell_angle_gamma 45.035899
_cell_volume 714.803910
_symmetry_space_group_name_H-M "P -1"
_symmetry_group_IT_number 2
_symmetry_cell_setting 'triclinic'
loop_
_space_group_symop_operation_xyz
x,y,z
-x,-y,-z
loop_
_atom_site_type_symbol
_atom_site_label
_atom_site_fract_x
_atom_site_fract_y
_atom_site_fract_z
Si Si1 0.184241 0.721684 0.366312
Si Si2 0.714107 0.876101 0.156162
Si Si3 0.203258 0.325732 0.416157
Si Si4 0.869519 0.390393 0.145838
Si Si5 0.571927 0.023577 0.456555
Si Si6 0.738114 0.983367 0.872888
Si Si7 0.032276 0.390452 0.049618
Si Si8 0.272263 0.652101 0.507171
O O1 0.131226 0.554043 0.202269
O O2 0.266037 0.564273 0.374039
O O3 0.327094 0.794830 0.404982
O O4 0.000000 0.000000 0.500000
O O5 0.836782 0.569205 0.045981
O O6 0.473277 0.994609 0.155052
O O7 0.795339 0.032439 0.318093
O O8 0.790037 0.865226 0.090671
O O9 0.227256 0.067518 0.231228
O O10 0.179208 0.543420 0.474990
O O11 0.000000 0.500000 0.500000
O O12 0.390005 0.195639 0.448744
O O13 0.730817 0.719019 0.298290
O O14 0.067858 0.281258 0.188296
O O15 0.952922 0.287109 0.031189
O O16 0.737077 0.256490 0.051634
O O17 0.500000 0.000000 0.500000
O O18 0.500000 0.500000 0.500000
#
# Coordination Sequence:
#
# PCOD8035294 Si02
#       8
#     2   2   2   2   2   2   2   2
#     4  12  23  44  74 100 135 181 231 285 342 402
#     4  11  25  44  68 102 137 176 229 278 343 405
#     4  12  27  44  71 103 138 181 228 283 343 408
#     4  11  25  46  67  97 138 179 224 279 343 407
#     4  12  27  45  70 103 137 180 231 283 342 410
#     4  11  25  46  67  97 139 179 222 282 343 405
#     4  11  25  43  69 103 135 178 228 280 337 411
#     4  12  23  46  72 100 135 182 229 287 341 405
#
# _framework density 22.383761
#
# number of rings (size 3 to 8) (size 9 to 14) (size 15 to 20)
#    0.000    0.500    5.000    2.250    5.250    2.500 
#    0.000    0.000    0.000    0.000    0.000    0.000 
#    0.000    0.000    0.000    0.000    0.000    0.000 
#
# Total GULP energy -198231.713193 kJ/mol
# GULP energy per Si atom -12389.482075 kJ/mol
# Density = 2.233281 g / cm^3
# Si number density = 22.383761 Si / 1000 Ang^3
#
#
#
# Elastic Constant Matrix: (Units=GPa)
#
#
# Indices 1 2 3 4 5 6 
#
# 1 134.8013 37.2933 28.5616 -4.7834 -6.7886 9.1145
# 2 37.2933 94.7793 5.5998 -3.6457 1.8626 -4.3699
# 3 28.5616 5.5998 80.2722 -4.5122 -1.7036 -8.5162
# 4 -4.7834 -3.6457 -4.5122 31.4197 4.1509 -3.8719
# 5 -6.7886 1.8626 -1.7036 4.1509 48.1982 -0.9958
# 6 9.1145 -4.3699 -8.5162 -3.8719 -0.9958 40.9097
#
#
#
# Elastic Compliance Matrix: (Units=1/GPa)
#
#
# Indices 1 2 3 4 5 6 
#
# 1 0.009440 -0.003686 -0.003414 -0.000043 0.001289 -0.003180
# 2 -0.003686 0.012139 0.000774 0.001389 -0.001031 0.002385
# 3 -0.003414 0.000774 0.014158 0.002109 -0.000110 0.003988
# 4 -0.000043 0.001389 0.002109 0.033101 -0.002760 0.003663
# 5 0.001289 -0.001031 -0.000110 -0.002760 0.021200 -0.000165
# 6 -0.003180 0.002385 0.003988 0.003663 -0.000165 0.026580
#
#
# Mechanical properties :
#
#
# Convention : Reuss Voigt Hill
#
# Bulk Modulus (GPa) = 43.31998 50.30691 46.81344
# Shear Modulus (GPa) = 36.50575 39.99874 38.25224
#
# Velocity S-wave (km/s) = 4.04283 4.23182 4.13840
# Velocity P-wave (km/s) = 6.41778 6.81185 6.61775
#
# Compressibility (1/GPa) = 0.02308403
#
# Stress axis : x y z
#
# Youngs Moduli (GPa) = 105.93230 82.37752 70.63311
#
# Poissons Ratio (x) = 0.30367 0.24115
# Poissons Ratio (y) = 0.39050 -0.05467
# Poissons Ratio (z) = 0.36167 -0.06376
#
# Static dielectric constant tensor:
#      x y z
#    x 5.203960 3.035540 -1.875560 
#    y 3.035540 12.756920 -4.880340 
#    z -1.875560 -4.880340 6.474280 
# 
# 
# High freq. dielectric constant tensor:
#      x y z
#    x 1.887230 -0.001010 0.000740 
#    y -0.001010 1.897960 -0.007200 
#    z 0.000740 -0.007200 1.882930 
# 
# From -- ./inp_files/307892.got.cif
#   From: 2010.06.25/outbox.cif.g09.slc.cpg/sg2_154_cif.got.tgz:307892.got - 2010.06.27 13:26:56.
