data_PCOD8035767
_publ_section_title
;
Structure prediction by ZEFSAII (Michael W. Deem and Ramdas Pophale) SiO2 
 PCOD8035767
Probable space group: P -1
;
_chemical_formula_sum "Si O2"
_cell_formula_units_Z 14
_cell_length_a 11.536151
_cell_length_b 21.037583
_cell_length_c 14.478966
_cell_angle_alpha 20.910227
_cell_angle_beta 28.458225
_cell_angle_gamma 30.105364
_cell_volume 577.423801
_symmetry_space_group_name_H-M "P -1"
_symmetry_group_IT_number 2
_symmetry_cell_setting 'triclinic'
loop_
_space_group_symop_operation_xyz
x,y,z
-x,-y,-z
loop_
_atom_site_type_symbol
_atom_site_label
_atom_site_fract_x
_atom_site_fract_y
_atom_site_fract_z
Si Si1 0.662988 0.671499 0.230626
Si Si2 0.212991 0.322350 0.072664
Si Si3 0.959600 0.920313 0.038738
Si Si4 0.895510 0.308714 0.994263
Si Si5 0.379568 0.580265 0.238772
Si Si6 0.117917 0.916491 0.304122
Si Si7 0.362676 0.342884 0.400947
O O1 0.685239 0.483107 0.527835
O O2 0.412148 0.816053 0.250719
O O3 0.648694 0.658741 0.147132
O O4 0.931878 0.713982 0.003953
O O5 0.076613 0.155547 0.397330
O O6 0.398813 0.318638 0.033945
O O7 0.000000 0.500000 0.000000
O O8 0.702523 0.854534 0.292504
O O9 0.177021 0.737307 0.114709
O O10 0.949232 0.094977 0.741684
O O11 0.000000 0.000000 0.000000
O O12 0.614028 0.301691 0.220323
O O13 0.869875 0.499775 0.695805
O O14 0.057184 0.137905 0.054010
O O15 0.434880 0.404479 0.368736
#
# Coordination Sequence:
#
# PCOD8035767 Si02
#       7
#     2   2   2   2   2   2   2
#     4  12  26  49  76 108 152 201 250 304 381 443
#     4  12  28  47  72 113 153 198 253 305 374 446
#     4  12  27  46  78 112 149 196 251 315 373 443
#     4  11  25  46  77 109 151 199 250 312 371 450
#     4  12  24  49  79 104 152 204 246 310 377 447
#     4  12  28  48  73 114 152 195 255 308 375 444
#     4  11  25  49  75 112 151 194 254 309 381 439
#
# _framework density 24.245625
#
# number of rings (size 3 to 8) (size 9 to 14) (size 15 to 20)
#    0.000    0.286    4.286    3.857    6.000    3.429 
#    0.000    0.000    0.000    0.000    0.000    0.000 
#    0.000    0.000    0.000    0.000    0.000    0.000 
#
# Total GULP energy -173433.484674 kJ/mol
# GULP energy per Si atom -12388.106048 kJ/mol
# Density = 2.419044 g / cm^3
# Si number density = 24.245625 Si / 1000 Ang^3
#
#
#
# Elastic Constant Matrix: (Units=GPa)
#
#
# Indices 1 2 3 4 5 6 
#
# 1 130.9785 23.5528 29.0311 7.0645 -5.1366 -3.9961
# 2 23.5528 94.2785 20.8776 3.7681 -0.2405 -11.4962
# 3 29.0311 20.8776 83.8671 8.6000 7.2563 -5.1960
# 4 7.0645 3.7681 8.6000 28.2128 0.1602 1.2900
# 5 -5.1366 -0.2405 7.2563 0.1602 46.4262 -3.1260
# 6 -3.9961 -11.4962 -5.1960 1.2900 -3.1260 44.7716
#
#
#
# Elastic Compliance Matrix: (Units=1/GPa)
#
#
# Indices 1 2 3 4 5 6 
#
# 1 0.008602 -0.001499 -0.002588 -0.001182 0.001367 0.000212
# 2 -0.001499 0.011831 -0.002230 -0.000651 0.000428 0.002694
# 3 -0.002588 -0.002230 0.013972 -0.003333 -0.002420 0.000745
# 4 -0.001182 -0.000651 -0.003333 0.036921 0.000144 -0.001713
# 5 0.001367 0.000428 -0.002420 0.000144 0.022171 0.001495
# 6 0.000212 0.002694 0.000745 -0.001713 0.001495 0.023286
#
#
# Mechanical properties :
#
#
# Convention : Reuss Voigt Hill
#
# Bulk Modulus (GPa) = 45.93357 50.67190 48.30273
# Shear Modulus (GPa) = 36.58320 39.59298 38.08809
#
# Velocity S-wave (km/s) = 3.88862 4.04542 3.96779
# Velocity P-wave (km/s) = 6.25684 6.53952 6.39974
#
# Compressibility (1/GPa) = 0.02177057
#
# Stress axis : x y z
#
# Youngs Moduli (GPa) = 116.25264 84.52584 71.57183
#
# Poissons Ratio (x) = 0.12672 0.18525
# Poissons Ratio (y) = 0.17429 0.15957
# Poissons Ratio (z) = 0.30090 0.18845
#
# Static dielectric constant tensor:
#      x y z
#    x 4.262000 -0.570880 -0.700570 
#    y -0.570880 3.976640 -1.040140 
#    z -0.700570 -1.040140 1.586890 
# 
# 
# High freq. dielectric constant tensor:
#      x y z
#    x 1.980220 -0.012290 -0.000700 
#    y -0.012290 1.960300 0.003210 
#    z -0.000700 0.003210 1.958970 
# 
# From -- ./inp_files/523988.got.cif
#   From: 2010.06.25/outbox.cif.g09.slc.cpg/sg2_262_cif.got.tgz:523988.got - 2010.06.27 13:26:56.
