data_PCOD8035937
_publ_section_title
;
Structure prediction by ZEFSAII (Michael W. Deem and Ramdas Pophale) SiO2 
 PCOD8035937
Probable space group: P -1
;
_chemical_formula_sum "Si O2"
_cell_formula_units_Z 12
_cell_length_a 11.249111
_cell_length_b 5.123100
_cell_length_c 9.249959
_cell_angle_alpha 104.322658
_cell_angle_beta 69.777656
_cell_angle_gamma 96.926956
_cell_volume 484.309302
_symmetry_space_group_name_H-M "P -1"
_symmetry_group_IT_number 2
_symmetry_cell_setting 'triclinic'
loop_
_space_group_symop_operation_xyz
x,y,z
-x,-y,-z
loop_
_atom_site_type_symbol
_atom_site_label
_atom_site_fract_x
_atom_site_fract_y
_atom_site_fract_z
Si Si1 0.024829 0.690446 0.345122
Si Si2 0.785312 0.580470 0.592555
Si Si3 0.969102 0.086048 0.184852
Si Si4 0.410238 0.252601 0.063719
Si Si5 0.299610 0.078115 0.809102
Si Si6 0.371229 0.528581 0.631267
O O1 0.157639 0.666477 0.373419
O O2 0.912373 0.768031 0.518393
O O3 0.047897 0.915369 0.243496
O O4 0.991867 0.403309 0.242147
O O5 0.668186 0.704173 0.747575
O O6 0.738749 0.476901 0.442519
O O7 0.824096 0.987843 0.242147
O O8 0.000000 0.000000 0.000000
O O9 0.500000 0.500000 0.000000
O O10 0.293803 0.193619 0.990654
O O11 0.500000 0.000000 0.000000
O O12 0.374726 0.295831 0.714021
O O13 0.375005 0.805767 0.755783
O O14 0.500000 0.500000 0.500000
#
# Coordination Sequence:
#
# PCOD8035937 Si02
#       6
#     2   2   2   2   2   2
#     4  11  26  44  73 108 143 191 238 296 365 429
#     4  11  25  48  74 107 148 188 242 300 360 432
#     4  12  24  45  70 107 144 186 234 293 362 431
#     4  12  28  47  71 104 144 193 243 296 360 425
#     4  12  24  46  67 102 139 181 238 286 352 425
#     4  12  25  45  72 101 138 186 236 294 349 419
#
# _framework density 24.777553000000001
#
# number of rings (size 3 to 8) (size 9 to 14) (size 15 to 20)
#    0.000    0.333    3.333    5.000    0.000   10.667 
#    0.000    0.000    0.000    0.000    0.000    0.000 
#    0.000    0.000    0.000    0.000    0.000    0.000 
#
# Total GULP energy -148659.737616 kJ/mol
# GULP energy per Si atom -12388.311468 kJ/mol
# Density = 2.472116 g / cm^3
# Si number density = 24.777553 Si / 1000 Ang^3
#
#
#
# Elastic Constant Matrix: (Units=GPa)
#
#
# Indices 1 2 3 4 5 6 
#
# 1 65.8517 11.3369 10.8930 1.9447 8.2393 -18.7399
# 2 11.3369 165.2725 68.3636 -7.0831 -0.0163 -26.0907
# 3 10.8930 68.3636 156.7749 -2.5109 0.3474 -17.5354
# 4 1.9447 -7.0831 -2.5109 35.2316 1.9003 2.6117
# 5 8.2393 -0.0163 0.3474 1.9003 63.8815 0.5253
# 6 -18.7399 -26.0907 -17.5354 2.6117 0.5253 34.9065
#
#
#
# Elastic Compliance Matrix: (Units=1/GPa)
#
#
# Indices 1 2 3 4 5 6 
#
# 1 0.018416 0.000418 -0.000343 -0.001582 -0.002410 0.010182
# 2 0.000418 0.008041 -0.002998 0.001041 -0.000105 0.004652
# 3 -0.000343 -0.002998 0.007880 -0.000136 -0.000008 0.001544
# 4 -0.001582 0.001041 -0.000136 0.028875 -0.000635 -0.002291
# 5 -0.002410 -0.000105 -0.000008 -0.000635 0.015997 -0.001569
# 6 0.010182 0.004652 0.001544 -0.002291 -0.001569 0.038562
#
#
# Mechanical properties :
#
#
# Convention : Reuss Voigt Hill
#
# Bulk Modulus (GPa) = 35.09881 63.23178 49.16530
# Shear Modulus (GPa) = 37.56173 46.62431 42.09302
#
# Velocity S-wave (km/s) = 3.89775 4.34258 4.12617
# Velocity P-wave (km/s) = 5.86967 7.12174 6.52580
#
# Compressibility (1/GPa) = 0.02849100
#
# Stress axis : x y z
#
# Youngs Moduli (GPa) = 54.30023 124.36030 126.89817
#
# Poissons Ratio (x) = -0.05197 0.04352
# Poissons Ratio (y) = -0.02269 0.38047
# Poissons Ratio (z) = 0.01862 0.37286
#
# Static dielectric constant tensor:
#      x y z
#    x 2.727820 -0.114050 -0.340820 
#    y -0.114050 4.373310 0.094750 
#    z -0.340820 0.094750 4.480700 
# 
# 
# High freq. dielectric constant tensor:
#      x y z
#    x 2.000710 -0.002670 0.016580 
#    y -0.002670 1.987170 0.003690 
#    z 0.016580 0.003690 2.004060 
# 
# From -- ./inp_files/229215.got.cif
#   From: 2010.06.25/outbox.cif.g09.slc.cpg/sg2_115_cif.got.tgz:229215.got - 2010.06.27 13:26:56.
