data_PCOD8035475
_publ_section_title
;
Structure prediction by ZEFSAII (Michael W. Deem and Ramdas Pophale) SiO2 
 PCOD8035475
Probable space group: P -1
;
_chemical_formula_sum "Si O2"
_cell_formula_units_Z 12
_cell_length_a 7.984377
_cell_length_b 9.963277
_cell_length_c 10.483355
_cell_angle_alpha 92.386828
_cell_angle_beta 138.052360
_cell_angle_gamma 67.890962
_cell_volume 476.709448
_symmetry_space_group_name_H-M "P -1"
_symmetry_group_IT_number 2
_symmetry_cell_setting 'triclinic'
loop_
_space_group_symop_operation_xyz
x,y,z
-x,-y,-z
loop_
_atom_site_type_symbol
_atom_site_label
_atom_site_fract_x
_atom_site_fract_y
_atom_site_fract_z
Si Si1 0.952257 0.433778 0.291726
Si Si2 0.488370 0.376594 0.154094
Si Si3 0.331466 0.979242 0.726850
Si Si4 0.820950 0.898390 0.632746
Si Si5 0.079494 0.083381 0.858668
Si Si6 0.543420 0.413019 0.649526
O O1 0.746044 0.411044 0.271343
O O2 0.091171 0.274701 0.282338
O O3 0.225930 0.436352 0.512649
O O4 0.750464 0.582430 0.092101
O O5 0.624248 0.194389 0.253956
O O6 0.337161 0.500363 0.188369
O O7 0.153573 0.068872 0.502548
O O8 0.156379 0.091905 0.753082
O O9 0.650533 0.957160 0.899276
O O10 0.500000 0.000000 0.500000
O O11 0.032160 0.936662 0.834697
O O12 0.791723 0.233690 0.757946
O O13 0.500000 0.500000 0.500000
#
# Coordination Sequence:
#
# PCOD8035475 Si02
#       6
#     2   2   2   2   2   2
#     4  11  26  47  70 105 139 183 232 286 346 408
#     4  11  26  48  72  99 144 184 228 286 347 410
#     4  11  26  47  74  99 141 187 229 282 347 413
#     4  12  25  45  74 103 140 179 236 288 342 407
#     4  11  25  45  70 105 134 185 233 280 343 414
#     4  12  26  43  73 104 140 182 235 282 346 413
#
# _framework density 25.172564999999999
#
# number of rings (size 3 to 8) (size 9 to 14) (size 15 to 20)
#    0.000    0.667    3.333    3.000    4.667    3.333 
#    3.000    0.000    0.000    0.000    0.000    0.000 
#    0.000    0.000    0.000    0.000    0.000    0.000 
#
# Total GULP energy -148658.354347 kJ/mol
# GULP energy per Si atom -12388.196196 kJ/mol
# Density = 2.511527 g / cm^3
# Si number density = 25.172565 Si / 1000 Ang^3
#
#
#
# Elastic Constant Matrix: (Units=GPa)
#
#
# Indices 1 2 3 4 5 6 
#
# 1 46.4008 11.1756 15.7653 -3.2660 10.6899 -2.3225
# 2 11.1756 88.7379 35.3430 22.4165 6.3362 -10.1987
# 3 15.7653 35.3430 106.9714 24.2670 39.6879 11.0794
# 4 -3.2660 22.4165 24.2670 40.9738 2.7076 6.4729
# 5 10.6899 6.3362 39.6879 2.7076 33.2732 -6.2134
# 6 -2.3225 -10.1987 11.0794 6.4729 -6.2134 38.4158
#
#
#
# Elastic Compliance Matrix: (Units=1/GPa)
#
#
# Indices 1 2 3 4 5 6 
#
# 1 0.024615 -0.003663 -0.001013 0.005185 -0.006636 -0.001139
# 2 -0.003663 0.017172 -0.008333 -0.006935 0.010196 0.009558
# 3 -0.001013 -0.008333 0.027831 -0.007520 -0.033367 -0.014430
# 4 0.005185 -0.006935 -0.007520 0.033384 0.005133 -0.004154
# 5 -0.006636 0.010196 -0.033367 0.005133 0.073925 0.023021
# 6 -0.001139 0.009558 -0.014430 -0.004154 0.023021 0.037085
#
#
# Mechanical properties :
#
#
# Convention : Reuss Voigt Hill
#
# Bulk Modulus (GPa) = 22.93676 40.74197 31.83937
# Shear Modulus (GPa) = 19.64142 34.52097 27.08120
#
# Velocity S-wave (km/s) = 2.79636 3.70722 3.28353
# Velocity P-wave (km/s) = 4.42242 5.87749 5.20109
#
# Compressibility (1/GPa) = 0.04359813
#
# Stress axis : x y z
#
# Youngs Moduli (GPa) = 40.62600 58.23487 35.93111
#
# Poissons Ratio (x) = 0.21332 0.03641
# Poissons Ratio (y) = 0.14882 0.29942
# Poissons Ratio (z) = 0.04117 0.48528
#
# Static dielectric constant tensor:
#      x y z
#    x 4.779990 -0.184710 0.342840 
#    y -0.184710 4.299020 0.359390 
#    z 0.342840 0.359390 4.631400 
# 
# 
# High freq. dielectric constant tensor:
#      x y z
#    x 2.005730 -0.006180 0.027370 
#    y -0.006180 2.015830 0.006770 
#    z 0.027370 0.006770 2.007150 
# 
# From -- ./inp_files/173847.got.cif
#   From: 2010.06.25/outbox.cif.g09.slc.cpg/sg2_87_cif.got.tgz:173847.got - 2010.06.27 13:26:56.
