data_PCOD8035832
_publ_section_title
;
Structure prediction by ZEFSAII (Michael W. Deem and Ramdas Pophale) SiO2 
 PCOD8035832
Probable space group: P -1
;
_chemical_formula_sum "Si O2"
_cell_formula_units_Z 14
_cell_length_a 6.364513
_cell_length_b 14.673507
_cell_length_c 14.994128
_cell_angle_alpha 152.655816
_cell_angle_beta 110.429622
_cell_angle_gamma 78.594744
_cell_volume 581.871367
_symmetry_space_group_name_H-M "P -1"
_symmetry_group_IT_number 2
_symmetry_cell_setting 'triclinic'
loop_
_space_group_symop_operation_xyz
x,y,z
-x,-y,-z
loop_
_atom_site_type_symbol
_atom_site_label
_atom_site_fract_x
_atom_site_fract_y
_atom_site_fract_z
Si Si1 0.905256 0.771472 0.677753
Si Si2 0.399419 0.541820 0.338012
Si Si3 0.816803 0.126064 0.360497
Si Si4 0.008247 0.254622 0.135735
Si Si5 0.549274 0.278833 0.809073
Si Si6 0.456161 0.744679 0.009091
Si Si7 0.133794 0.974307 0.408042
O O1 0.640521 0.650600 0.516055
O O2 0.074297 0.745363 0.599316
O O3 0.990328 0.688671 0.709935
O O4 0.932779 0.012555 0.899091
O O5 0.252962 0.707307 0.441006
O O6 0.259250 0.357640 0.220784
O O7 0.434816 0.445173 0.163472
O O8 0.586185 0.946068 0.146324
O O9 0.995181 0.016120 0.337764
O O10 0.812000 0.338742 0.130538
O O11 0.504043 0.190320 0.825580
O O12 0.802981 0.247677 0.789106
O O13 0.373312 0.150129 0.598732
O O14 0.500000 0.500000 0.000000
O O15 0.000000 0.000000 0.500000
#
# Coordination Sequence:
#
# PCOD8035832 Si02
#       7
#     2   2   2   2   2   2   2
#     4  11  25  47  74 103 148 192 245 299 368 427
#     4  12  27  44  75 104 145 197 242 296 369 432
#     4  12  26  46  73 105 148 193 238 305 365 433
#     4  11  25  47  73 107 143 193 246 303 357 439
#     4  11  28  45  75 106 143 191 244 300 362 442
#     4  12  26  46  71 108 149 184 248 299 365 438
#     4  11  26  48  72 104 145 187 241 299 365 428
#
# _framework density 24.060302
#
# number of rings (size 3 to 8) (size 9 to 14) (size 15 to 20)
#    0.000    0.571    4.286    2.143    6.000    4.571 
#    0.000    0.000    0.000    0.000    0.000    0.000 
#    0.000    0.000    0.000    0.000    0.000    0.000 
#
# Total GULP energy -173553.630883 kJ/mol
# GULP energy per Si atom -12396.687920 kJ/mol
# Density = 2.400554 g / cm^3
# Si number density = 24.060302 Si / 1000 Ang^3
#
#
#
# Elastic Constant Matrix: (Units=GPa)
#
#
# Indices 1 2 3 4 5 6 
#
# 1 130.7941 31.7658 56.1777 -1.2808 -11.7061 6.1926
# 2 31.7658 65.2024 14.2947 -9.7628 3.8737 2.7244
# 3 56.1777 14.2947 109.9542 0.8810 -2.7455 0.7789
# 4 -1.2808 -9.7628 0.8810 31.2148 -2.2317 -1.1598
# 5 -11.7061 3.8737 -2.7455 -2.2317 65.8285 7.7824
# 6 6.1926 2.7244 0.7789 -1.1598 7.7824 33.4334
#
#
#
# Elastic Compliance Matrix: (Units=1/GPa)
#
#
# Indices 1 2 3 4 5 6 
#
# 1 0.011214 -0.004507 -0.005066 -0.000723 0.002277 -0.002147
# 2 -0.004507 0.018499 -0.000188 0.005481 -0.001702 -0.000082
# 3 -0.005066 -0.000188 0.011694 -0.000605 -0.000515 0.000780
# 4 -0.000723 0.005481 -0.000605 0.033807 0.000582 0.000739
# 5 0.002277 -0.001702 -0.000515 0.000582 0.016169 -0.004015
# 6 -0.002147 -0.000082 0.000780 0.000739 -0.004015 0.031257
#
#
# Mechanical properties :
#
#
# Convention : Reuss Voigt Hill
#
# Bulk Modulus (GPa) = 45.69222 56.71412 51.20317
# Shear Modulus (GPa) = 33.45444 39.67617 36.56530
#
# Velocity S-wave (km/s) = 3.73291 4.06523 3.90261
# Velocity P-wave (km/s) = 6.13281 6.75704 6.45248
#
# Compressibility (1/GPa) = 0.02188556
#
# Stress axis : x y z
#
# Youngs Moduli (GPa) = 89.17076 54.05673 85.51479
#
# Poissons Ratio (x) = 0.24362 0.43321
# Poissons Ratio (y) = 0.40188 0.01610
# Poissons Ratio (z) = 0.45173 0.01017
#
# Static dielectric constant tensor:
#      x y z
#    x 4.717960 0.017350 -0.152110 
#    y 0.017350 4.165360 -0.059260 
#    z -0.152110 -0.059260 4.549110 
# 
# 
# High freq. dielectric constant tensor:
#      x y z
#    x 1.969440 -0.001760 -0.010060 
#    y -0.001760 1.932860 0.001410 
#    z -0.010060 0.001410 1.973520 
# 
# From -- ./inp_files/97765.got.cif
#   From: 2010.06.25/outbox.cif.g09.slc.cpg/sg2_49_cif.got.tgz:97765.got - 2010.06.27 13:26:56.
