data_PCOD8035510
_publ_section_title
;
Structure prediction by ZEFSAII (Michael W. Deem and Ramdas Pophale) SiO2 
 PCOD8035510
Probable space group: P -1
;
_chemical_formula_sum "Si O2"
_cell_formula_units_Z 14
_cell_length_a 12.136025
_cell_length_b 6.165715
_cell_length_c 10.738507
_cell_angle_alpha 108.531973
_cell_angle_beta 87.335210
_cell_angle_gamma 128.165014
_cell_volume 586.770020
_symmetry_space_group_name_H-M "P -1"
_symmetry_group_IT_number 2
_symmetry_cell_setting 'triclinic'
loop_
_space_group_symop_operation_xyz
x,y,z
-x,-y,-z
loop_
_atom_site_type_symbol
_atom_site_label
_atom_site_fract_x
_atom_site_fract_y
_atom_site_fract_z
Si Si1 0.999775 0.329409 0.172271
Si Si2 0.721706 0.844028 0.231977
Si Si3 0.850284 0.136425 0.907648
Si Si4 0.340809 0.716998 0.993644
Si Si5 0.748394 0.590122 0.683449
Si Si6 0.632012 0.547423 0.435674
Si Si7 0.489324 0.897908 0.257048
O O1 0.060113 0.653588 0.178859
O O2 0.115988 0.358066 0.257301
O O3 0.865581 0.165750 0.243441
O O4 0.953292 0.149029 0.008366
O O5 0.709277 0.807022 0.375804
O O6 0.592168 0.832509 0.192656
O O7 0.714099 0.585659 0.122211
O O8 0.773076 0.230955 0.012074
O O9 0.733667 0.810341 0.798600
O O10 0.349476 0.703824 0.139591
O O11 0.500000 0.000000 0.000000
O O12 0.757939 0.648671 0.545447
O O13 0.593756 0.256996 0.637431
O O14 0.500000 0.500000 0.500000
O O15 0.574199 0.246238 0.313400
#
# Coordination Sequence:
#
# PCOD8035510 Si02
#       7
#     2   2   2   2   2   2   2
#     4  11  27  44  71 105 141 184 231 285 355 414
#     4  12  27  44  71 106 145 180 232 291 346 410
#     4  11  25  45  72 104 144 181 228 289 352 414
#     4  12  22  42  73 107 139 175 229 292 352 403
#     4  12  25  45  75  99 139 192 235 274 349 421
#     4  12  27  47  73 102 140 185 238 289 339 413
#     4  12  24  46  73 104 137 183 232 291 350 409
#
# _framework density 23.859435999999999
#
# number of rings (size 3 to 8) (size 9 to 14) (size 15 to 20)
#    0.000    0.286    4.286    4.714    4.000    0.571 
#    0.000    1.429    0.000    0.000    0.000    0.000 
#    0.000    0.000    0.000    0.000    0.000    0.000 
#
# Total GULP energy -173467.834419 kJ/mol
# GULP energy per Si atom -12390.559601 kJ/mol
# Density = 2.380513 g / cm^3
# Si number density = 23.859436 Si / 1000 Ang^3
#
#
#
# Elastic Constant Matrix: (Units=GPa)
#
#
# Indices 1 2 3 4 5 6 
#
# 1 115.4006 30.8965 43.0135 -7.3981 17.3400 -1.9438
# 2 30.8965 115.2541 23.5674 -29.9168 1.5362 14.9003
# 3 43.0135 23.5674 96.4745 -16.8320 21.8199 -8.9016
# 4 -7.3981 -29.9168 -16.8320 41.6106 -5.4285 -3.7893
# 5 17.3400 1.5362 21.8199 -5.4285 36.9822 -0.4850
# 6 -1.9438 14.9003 -8.9016 -3.7893 -0.4850 34.2926
#
#
#
# Elastic Compliance Matrix: (Units=1/GPa)
#
#
# Indices 1 2 3 4 5 6 
#
# 1 0.011207 -0.002730 -0.003909 -0.001906 -0.003108 0.000552
# 2 -0.002730 0.012322 -0.001540 0.007650 0.002734 -0.005025
# 3 -0.003909 -0.001540 0.015027 0.003876 -0.006339 0.004687
# 4 -0.001906 0.007650 0.003876 0.031235 0.002888 0.001066
# 5 -0.003108 0.002734 -0.006339 0.002888 0.032518 -0.002230
# 6 0.000552 -0.005025 0.004687 0.001066 -0.002230 0.032678
#
#
# Mechanical properties :
#
#
# Convention : Reuss Voigt Hill
#
# Bulk Modulus (GPa) = 45.04808 58.00932 51.52870
# Shear Modulus (GPa) = 31.49701 37.88722 34.69212
#
# Velocity S-wave (km/s) = 3.63727 3.98921 3.81730
# Velocity P-wave (km/s) = 6.04659 6.75160 6.40880
#
# Compressibility (1/GPa) = 0.02219851
#
# Stress axis : x y z
#
# Youngs Moduli (GPa) = 89.22744 81.15488 66.54784
#
# Poissons Ratio (x) = 0.22155 0.26011
# Poissons Ratio (y) = 0.24359 0.10250
# Poissons Ratio (z) = 0.34876 0.12500
#
# Static dielectric constant tensor:
#      x y z
#    x 4.289300 -0.159320 0.393240 
#    y -0.159320 4.600180 -0.361510 
#    z 0.393240 -0.361510 4.530780 
# 
# 
# High freq. dielectric constant tensor:
#      x y z
#    x 1.946910 -0.004430 0.020390 
#    y -0.004430 1.962020 -0.018840 
#    z 0.020390 -0.018840 1.935120 
# 
# From -- ./inp_files/411061.got.cif
#   From: 2010.06.25/outbox.cif.g09.slc.cpg/sg2_206_cif.got.tgz:411061.got - 2010.06.27 13:26:56.
