data_PCOD8035574
_publ_section_title
;
Structure prediction by ZEFSAII (Michael W. Deem and Ramdas Pophale) SiO2 
 PCOD8035574
Probable space group: P -1
;
_chemical_formula_sum "Si O2"
_cell_formula_units_Z 14
_cell_length_a 8.946232
_cell_length_b 8.726564
_cell_length_c 8.925696
_cell_angle_alpha 93.149462
_cell_angle_beta 97.535602
_cell_angle_gamma 68.984885
_cell_volume 644.837595
_symmetry_space_group_name_H-M "P -1"
_symmetry_group_IT_number 2
_symmetry_cell_setting 'triclinic'
loop_
_space_group_symop_operation_xyz
x,y,z
-x,-y,-z
loop_
_atom_site_type_symbol
_atom_site_label
_atom_site_fract_x
_atom_site_fract_y
_atom_site_fract_z
Si Si1 0.590654 0.547408 0.650200
Si Si2 0.315771 0.011698 0.107377
Si Si3 0.823561 0.235332 0.812647
Si Si4 0.409403 0.875439 0.797306
Si Si5 0.113614 0.356843 0.408456
Si Si6 0.024298 0.326349 0.068792
Si Si7 0.091958 0.095780 0.605997
O O1 0.500000 0.500000 0.500000
O O2 0.667573 0.388560 0.754928
O O3 0.465842 0.686922 0.743291
O O4 0.724263 0.614449 0.609887
O O5 0.220698 0.929006 0.199370
O O6 0.457960 0.042002 0.222292
O O7 0.196975 0.188696 0.040829
O O8 0.389233 0.885801 0.974675
O O9 0.967855 0.217076 0.713931
O O10 0.882912 0.266210 0.987112
O O11 0.241206 0.968823 0.703143
O O12 0.013680 0.343367 0.247272
O O13 0.161391 0.192365 0.502799
O O14 0.000000 0.500000 0.500000
O O15 0.000000 0.500000 0.000000
O O16 0.000000 0.000000 0.500000
#
# Coordination Sequence:
#
# PCOD8035574 Si02
#       7
#     2   2   2   2   2   2   2
#     4  12  27  48  70 105 150 189 238 296 363 434
#     4  11  25  45  75 106 141 185 243 303 358 420
#     4  12  25  47  74 104 139 193 247 291 354 434
#     4  11  26  47  70 105 146 187 235 302 366 421
#     4  12  26  46  71 105 141 188 237 295 355 422
#     4  12  22  45  74 102 143 182 240 297 349 428
#     4  12  26  44  72 105 140 188 239 290 357 427
#
# _framework density 21.710891
#
# number of rings (size 3 to 8) (size 9 to 14) (size 15 to 20)
#    0.000    0.286    5.714    2.143    4.000    1.143 
#    0.000    0.000    0.000    0.000    0.000    0.000 
#    0.000    0.000    0.000    0.000    0.000    0.000 
#
# Total GULP energy -173661.683322 kJ/mol
# GULP energy per Si atom -12404.405952 kJ/mol
# Density = 2.166148 g / cm^3
# Si number density = 21.710891 Si / 1000 Ang^3
#
#
#
# Elastic Constant Matrix: (Units=GPa)
#
#
# Indices 1 2 3 4 5 6 
#
# 1 81.6215 34.7733 35.7409 -5.4365 20.5023 4.9738
# 2 34.7733 141.5765 48.7943 8.4175 0.5702 -14.8307
# 3 35.7409 48.7943 130.2079 16.1768 23.3440 -12.6586
# 4 -5.4365 8.4175 16.1768 42.7087 1.1327 -5.3358
# 5 20.5023 0.5702 23.3440 1.1327 48.7822 -3.8254
# 6 4.9738 -14.8307 -12.6586 -5.3358 -3.8254 40.5844
#
#
#
# Elastic Compliance Matrix: (Units=1/GPa)
#
#
# Indices 1 2 3 4 5 6 
#
# 1 0.017351 -0.003869 -0.003113 0.003739 -0.006206 -0.004604
# 2 -0.003869 0.009264 -0.002503 -0.001047 0.002992 0.003223
# 3 -0.003113 -0.002503 0.010759 -0.003632 -0.003569 0.002009
# 4 0.003739 -0.001047 -0.003632 0.025652 -0.000309 0.001370
# 5 -0.006206 0.002992 -0.003569 -0.000309 0.025027 0.003059
# 6 -0.004604 0.003223 0.002009 0.001370 0.003059 0.027477
#
#
# Mechanical properties :
#
#
# Convention : Reuss Voigt Hill
#
# Bulk Modulus (GPa) = 54.33052 65.78032 60.05542
# Shear Modulus (GPa) = 35.55341 42.02156 38.78749
#
# Velocity S-wave (km/s) = 4.05110 4.40421 4.23134
# Velocity P-wave (km/s) = 6.85279 7.49846 7.18288
#
# Compressibility (1/GPa) = 0.01840586
#
# Stress axis : x y z
#
# Youngs Moduli (GPa) = 57.63293 107.94598 92.94754
#
# Poissons Ratio (x) = 0.41760 0.28932
# Poissons Ratio (y) = 0.22296 0.23262
# Poissons Ratio (z) = 0.17939 0.27016
#
# Static dielectric constant tensor:
#      x y z
#    x 4.248160 0.002110 -0.023610 
#    y 0.002110 3.831250 0.060470 
#    z -0.023610 0.060470 4.113130 
# 
# 
# High freq. dielectric constant tensor:
#      x y z
#    x 1.853370 -0.000740 0.013000 
#    y -0.000740 1.867240 0.011750 
#    z 0.013000 0.011750 1.862170 
# 
# From -- ./inp_files/151407.got.cif
#   From: 2010.06.25/outbox.cif.g09.slc.cpg/sg2_76_cif.got.tgz:151407.got - 2010.06.27 13:26:56.
