data_PCOD8035529
_publ_section_title
;
Structure prediction by ZEFSAII (Michael W. Deem and Ramdas Pophale) SiO2 
 PCOD8035529
Probable space group: P -1
;
_chemical_formula_sum "Si O2"
_cell_formula_units_Z 16
_cell_length_a 12.251509
_cell_length_b 16.237182
_cell_length_c 19.113742
_cell_angle_alpha 153.561850
_cell_angle_beta 152.864869
_cell_angle_gamma 44.401523
_cell_volume 705.682204
_symmetry_space_group_name_H-M "P -1"
_symmetry_group_IT_number 2
_symmetry_cell_setting 'triclinic'
loop_
_space_group_symop_operation_xyz
x,y,z
-x,-y,-z
loop_
_atom_site_type_symbol
_atom_site_label
_atom_site_fract_x
_atom_site_fract_y
_atom_site_fract_z
Si Si1 0.578975 0.123885 0.526844
Si Si2 0.835096 0.241990 0.905816
Si Si3 0.779718 0.935680 0.383323
Si Si4 0.257101 0.638702 0.614419
Si Si5 0.143101 0.215446 0.282922
Si Si6 0.652578 0.126465 0.016257
Si Si7 0.807403 0.600421 0.238041
Si Si8 0.389799 0.265639 0.239459
O O1 0.745560 0.254582 0.785365
O O2 0.416615 0.241781 0.492261
O O3 0.391324 0.904850 0.283974
O O4 0.765156 0.106063 0.557359
O O5 0.921310 0.463618 0.155505
O O6 0.075049 0.174963 0.987525
O O7 0.503229 0.834128 0.108025
O O8 0.861288 0.793783 0.370229
O O9 0.000000 0.000000 0.500000
O O10 0.200416 0.400229 0.402469
O O11 0.487851 0.754444 0.779695
O O12 0.986151 0.660435 0.455791
O O13 0.373709 0.751426 0.838770
O O14 0.957602 0.229372 0.249240
O O15 0.000000 0.000000 0.000000
O O16 0.548296 0.883084 0.784469
O O17 0.500000 0.500000 0.000000
O O18 0.500000 0.500000 0.500000
#
# Coordination Sequence:
#
# PCOD8035529 Si02
#       8
#     2   2   2   2   2   2   2   2
#     4  11  25  45  73 102 139 185 240 292 349 416
#     4  11  25  45  74 103 133 192 241 291 343 423
#     4  12  28  44  68 102 146 181 220 292 364 413
#     4  12  28  43  72 106 141 187 235 294 353 418
#     4  12  23  46  72 100 137 182 239 294 343 413
#     4  12  27  46  70 102 144 185 235 288 356 420
#     4  12  25  45  70  99 142 186 234 282 348 426
#     4  12  25  47  73 101 140 189 241 288 351 421
#
# _framework density 22.673096000000001
#
# number of rings (size 3 to 8) (size 9 to 14) (size 15 to 20)
#    0.000    0.250    5.000    3.750    7.000    0.000 
#    0.000    1.250    0.000    0.000    0.000    0.000 
#    0.000    0.000    0.000    0.000    0.000    0.000 
#
# Total GULP energy -198418.634896 kJ/mol
# GULP energy per Si atom -12401.164681 kJ/mol
# Density = 2.262149 g / cm^3
# Si number density = 22.673096 Si / 1000 Ang^3
#
#
#
# Elastic Constant Matrix: (Units=GPa)
#
#
# Indices 1 2 3 4 5 6 
#
# 1 118.7086 15.4545 3.1635 -15.3529 10.1184 -6.6704
# 2 15.4545 144.9675 20.1517 -8.4299 -6.0563 9.2354
# 3 3.1635 20.1517 43.7709 -3.1018 -9.9919 1.5702
# 4 -15.3529 -8.4299 -3.1018 30.3753 5.0801 0.5381
# 5 10.1184 -6.0563 -9.9919 5.0801 41.3485 -6.0947
# 6 -6.6704 9.2354 1.5702 0.5381 -6.0947 36.4314
#
#
#
# Elastic Compliance Matrix: (Units=1/GPa)
#
#
# Indices 1 2 3 4 5 6 
#
# 1 0.009536 -0.000847 -0.000687 0.004997 -0.003030 0.001410
# 2 -0.000847 0.007652 -0.003276 0.001383 0.000077 -0.001961
# 3 -0.000687 -0.003276 0.025769 0.000368 0.005957 0.000585
# 4 0.004997 0.001383 0.000368 0.036820 -0.005592 -0.000931
# 5 -0.003030 0.000077 0.005957 -0.005592 0.027635 0.003875
# 6 0.001410 -0.001961 0.000585 -0.000931 0.003875 0.028841
#
#
# Mechanical properties :
#
#
# Convention : Reuss Voigt Hill
#
# Bulk Modulus (GPa) = 29.99656 42.77629 36.38643
# Shear Modulus (GPa) = 31.84992 39.54286 35.69639
#
# Velocity S-wave (km/s) = 3.75206 4.18071 3.97217
# Velocity P-wave (km/s) = 5.65945 6.49707 6.09267
#
# Compressibility (1/GPa) = 0.03333715
#
# Stress axis : x y z
#
# Youngs Moduli (GPa) = 104.86297 130.67888 38.80639
#
# Poissons Ratio (x) = 0.11067 0.02668
# Poissons Ratio (y) = 0.08881 0.12712
# Poissons Ratio (z) = 0.07209 0.42808
#
# Static dielectric constant tensor:
#      x y z
#    x 4.225710 -0.144110 0.116570 
#    y -0.144110 4.396310 -0.144990 
#    z 0.116570 -0.144990 3.852090 
# 
# 
# High freq. dielectric constant tensor:
#      x y z
#    x 1.911510 -0.001340 0.001840 
#    y -0.001340 1.911630 -0.008580 
#    z 0.001840 -0.008580 1.874370 
# 
# From -- ./inp_files/216536.got.cif
#   From: 2010.06.25/outbox.cif.g09.slc.cpg/sg2_109_cif.got.tgz:216536.got - 2010.06.27 13:26:56.
