data_PCOD8035530
_publ_section_title
;
Structure prediction by ZEFSAII (Michael W. Deem and Ramdas Pophale) SiO2 
 PCOD8035530
Probable space group: P -1
;
_chemical_formula_sum "Si O2"
_cell_formula_units_Z 16
_cell_length_a 15.328790
_cell_length_b 9.081077
_cell_length_c 8.529132
_cell_angle_alpha 68.818332
_cell_angle_beta 99.401586
_cell_angle_gamma 139.807839
_cell_volume 701.811609
_symmetry_space_group_name_H-M "P -1"
_symmetry_group_IT_number 2
_symmetry_cell_setting 'triclinic'
loop_
_space_group_symop_operation_xyz
x,y,z
-x,-y,-z
loop_
_atom_site_type_symbol
_atom_site_label
_atom_site_fract_x
_atom_site_fract_y
_atom_site_fract_z
Si Si1 0.854396 0.329341 0.451073
Si Si2 0.611280 0.975354 0.736462
Si Si3 0.621485 0.483054 0.331528
Si Si4 0.099854 0.750777 0.837920
Si Si5 0.088785 0.232520 0.160699
Si Si6 0.117400 0.294143 0.790633
Si Si7 0.397594 0.198719 0.883595
Si Si8 0.363565 0.636971 0.284608
O O1 0.847184 0.240939 0.314335
O O2 0.831788 0.486222 0.376516
O O3 0.000000 0.500000 0.500000
O O4 0.740449 0.100863 0.619968
O O5 0.478146 0.792051 0.655240
O O6 0.635626 0.177878 0.744213
O O7 0.585624 0.805983 0.924406
O O8 0.764842 0.676895 0.204218
O O9 0.553648 0.560959 0.249603
O O10 0.649838 0.494048 0.518656
O O11 0.017988 0.802276 0.763242
O O12 0.236634 0.957448 0.898631
O O13 0.000000 0.500000 0.000000
O O14 0.234630 0.422173 0.216898
O O15 0.103193 0.325569 0.955130
O O16 0.025013 0.969449 0.221649
O O17 0.492944 0.202463 0.821259
#
# Coordination Sequence:
#
# PCOD8035530 Si02
#       8
#     2   2   2   2   2   2   2   2
#     4  12  26  43  69 106 143 192 240 293 357 424
#     4  12  27  46  74 104 146 190 241 295 358 426
#     4  12  26  48  72 106 145 187 239 301 359 424
#     4  12  24  44  72 106 146 183 240 294 353 424
#     4  11  25  47  74 106 144 189 235 294 362 428
#     4  11  25  45  73 102 147 188 235 294 363 426
#     4  12  27  47  72 106 142 192 241 294 360 425
#     4  12  26  47  76 108 141 189 243 297 359 423
#
# _framework density 22.798138999999999
#
# number of rings (size 3 to 8) (size 9 to 14) (size 15 to 20)
#    0.000    0.250    3.750    5.250    1.750    2.500 
#    0.000    0.000    0.000    0.000    0.000    0.000 
#    0.000    0.000    0.000    0.000    0.000    0.000 
#
# Total GULP energy -198479.435078 kJ/mol
# GULP energy per Si atom -12404.964692 kJ/mol
# Density = 2.274625 g / cm^3
# Si number density = 22.798139 Si / 1000 Ang^3
#
#
#
# Elastic Constant Matrix: (Units=GPa)
#
#
# Indices 1 2 3 4 5 6 
#
# 1 104.1426 29.3054 45.7705 -0.0118 -9.7144 7.7951
# 2 29.3054 137.9467 39.8136 12.2821 0.5506 13.2403
# 3 45.7705 39.8136 116.9700 -4.6927 -4.5491 -10.6256
# 4 -0.0118 12.2821 -4.6927 30.0051 6.5605 -3.9421
# 5 -9.7144 0.5506 -4.5491 6.5605 39.7906 -3.0933
# 6 7.7951 13.2403 -10.6256 -3.9421 -3.0933 37.4931
#
#
#
# Elastic Compliance Matrix: (Units=1/GPa)
#
#
# Indices 1 2 3 4 5 6 
#
# 1 0.012483 -0.000756 -0.004925 -0.001475 0.002452 -0.003677
# 2 -0.000756 0.009306 -0.003503 -0.004912 -0.000266 -0.004660
# 3 -0.004925 -0.003503 0.012404 0.004176 0.000059 0.006220
# 4 -0.001475 -0.004912 0.004176 0.038098 -0.005570 0.006771
# 5 0.002452 -0.000266 0.000059 -0.005570 0.026754 0.001223
# 6 -0.003677 -0.004660 0.006220 0.006771 0.001223 0.031657
#
#
# Mechanical properties :
#
#
# Convention : Reuss Voigt Hill
#
# Bulk Modulus (GPa) = 63.18871 65.42649 64.30760
# Shear Modulus (GPa) = 32.39479 37.73574 35.06527
#
# Velocity S-wave (km/s) = 3.77363 4.07284 3.92609
# Velocity P-wave (km/s) = 6.83840 7.13287 6.98719
#
# Compressibility (1/GPa) = 0.01582561
#
# Stress axis : x y z
#
# Youngs Moduli (GPa) = 80.10608 107.45362 80.62217
#
# Poissons Ratio (x) = 0.08123 0.39709
# Poissons Ratio (y) = 0.06056 0.28239
# Poissons Ratio (z) = 0.39455 0.37636
#
# Static dielectric constant tensor:
#      x y z
#    x 3.818750 0.398160 -0.143250 
#    y 0.398160 3.554080 0.123950 
#    z -0.143250 0.123950 4.002350 
# 
# 
# High freq. dielectric constant tensor:
#      x y z
#    x 1.907070 0.004160 -0.008070 
#    y 0.004160 1.910090 0.000990 
#    z -0.008070 0.000990 1.906490 
# 
# From -- ./inp_files/207103.got.cif
#   From: 2010.06.25/outbox.cif.g09.slc.cpg/sg2_104_cif.got.tgz:207103.got - 2010.06.27 13:26:56.
