data_PCOD8035975
_publ_section_title
;
Structure prediction by ZEFSAII (Michael W. Deem and Ramdas Pophale) SiO2 
 PCOD8035975
Probable space group: P -1
;
_chemical_formula_sum "Si O2"
_cell_formula_units_Z 14
_cell_length_a 13.688585
_cell_length_b 14.911808
_cell_length_c 9.282845
_cell_angle_alpha 39.610666
_cell_angle_beta 40.992541
_cell_angle_gamma 30.389866
_cell_volume 586.732352
_symmetry_space_group_name_H-M "P -1"
_symmetry_group_IT_number 2
_symmetry_cell_setting 'triclinic'
loop_
_space_group_symop_operation_xyz
x,y,z
-x,-y,-z
loop_
_atom_site_type_symbol
_atom_site_label
_atom_site_fract_x
_atom_site_fract_y
_atom_site_fract_z
Si Si1 0.772560 0.002379 0.553972
Si Si2 0.085881 0.595208 0.633167
Si Si3 0.747988 0.595770 0.025258
Si Si4 0.307212 0.523164 0.189244
Si Si5 0.335740 0.998584 0.023778
Si Si6 0.466639 0.129987 0.503797
Si Si7 0.892407 0.235024 0.149473
O O1 0.650825 0.995843 0.823770
O O2 0.674447 0.043251 0.455837
O O3 0.776333 0.163058 0.392955
O O4 0.994996 0.795501 0.555020
O O5 0.217105 0.430421 0.809503
O O6 0.233921 0.548703 0.400790
O O7 0.903624 0.609303 0.765325
O O8 0.520291 0.791616 0.009005
O O9 0.780388 0.421184 0.140798
O O10 0.361934 0.333943 0.300000
O O11 0.500000 0.500000 0.000000
O O12 0.129188 0.702964 0.069591
O O13 0.123673 0.059821 0.147344
O O14 0.329776 0.152124 0.757873
O O15 0.500000 0.000000 0.500000
#
# Coordination Sequence:
#
# PCOD8035975 Si02
#       7
#     2   2   2   2   2   2   2
#     4  12  26  50  74 114 155 198 253 322 376 450
#     4  11  26  47  77 112 152 203 261 313 374 457
#     4  11  25  48  79 114 150 199 262 314 375 454
#     4  12  28  51  74 108 158 204 249 314 389 451
#     4  12  26  47  83 111 155 200 256 317 382 447
#     4  12  27  49  78 108 146 204 259 308 379 454
#     4  12  28  49  72 117 157 198 255 310 388 456
#
# _framework density 23.860966000000001
#
# number of rings (size 3 to 8) (size 9 to 14) (size 15 to 20)
#    0.000    0.286    4.286    3.429    4.000    4.571 
#    0.000    0.000    0.000    0.000    0.000    0.000 
#    0.000    0.000    0.000    0.000    0.000    0.000 
#
# Total GULP energy -173654.021313 kJ/mol
# GULP energy per Si atom -12403.858665 kJ/mol
# Density = 2.380666 g / cm^3
# Si number density = 23.860966 Si / 1000 Ang^3
#
#
#
# Elastic Constant Matrix: (Units=GPa)
#
#
# Indices 1 2 3 4 5 6 
#
# 1 84.8656 41.1966 25.1489 -1.4670 -2.8914 -0.5893
# 2 41.1966 127.9735 51.1794 -1.9762 -18.1917 2.1975
# 3 25.1489 51.1794 131.9597 3.0297 -1.6916 11.0812
# 4 -1.4670 -1.9762 3.0297 44.7911 2.6393 -1.8547
# 5 -2.8914 -18.1917 -1.6916 2.6393 31.4079 -11.6146
# 6 -0.5893 2.1975 11.0812 -1.8547 -11.6146 45.5581
#
#
#
# Elastic Compliance Matrix: (Units=1/GPa)
#
#
# Indices 1 2 3 4 5 6 
#
# 1 0.014157 -0.004280 -0.001095 0.000431 -0.001128 0.000386
# 2 -0.004280 0.011661 -0.003800 0.000311 0.006898 0.002078
# 3 -0.001095 -0.003800 0.009485 -0.000800 -0.002790 -0.002882
# 4 0.000431 0.000311 -0.000800 0.022523 -0.001445 0.000734
# 5 -0.001128 0.006898 -0.002790 -0.001445 0.039529 0.010350
# 6 0.000386 0.002078 -0.002882 0.000734 0.010350 0.025224
#
#
# Mechanical properties :
#
#
# Convention : Reuss Voigt Hill
#
# Bulk Modulus (GPa) = 58.98457 64.42763 61.70610
# Shear Modulus (GPa) = 34.11069 39.50301 36.80685
#
# Velocity S-wave (km/s) = 3.78505 4.07326 3.93180
# Velocity P-wave (km/s) = 6.62389 7.01297 6.82121
#
# Compressibility (1/GPa) = 0.01695359
#
# Stress axis : x y z
#
# Youngs Moduli (GPa) = 70.63602 85.75334 105.42677
#
# Poissons Ratio (x) = 0.36701 0.11544
# Poissons Ratio (y) = 0.30231 0.40065
# Poissons Ratio (z) = 0.07734 0.32589
#
# Static dielectric constant tensor:
#      x y z
#    x 4.275400 -0.124250 0.170270 
#    y -0.124250 4.273520 -0.299760 
#    z 0.170270 -0.299760 4.529470 
# 
# 
# High freq. dielectric constant tensor:
#      x y z
#    x 1.945310 -0.004640 0.008740 
#    y -0.004640 1.946750 -0.016660 
#    z 0.008740 -0.016660 1.956910 
# 
# From -- ./inp_files/279143.got.cif
#   From: 2010.06.25/outbox.cif.g09.slc.cpg/sg2_140_cif.got.tgz:279143.got - 2010.06.27 13:26:56.
