data_PCOD8035290
_publ_section_title
;
Structure prediction by ZEFSAII (Michael W. Deem and Ramdas Pophale) SiO2 
 PCOD8035290
Probable space group: P -1
;
_chemical_formula_sum "Si O2"
_cell_formula_units_Z 14
_cell_length_a 6.124136
_cell_length_b 22.184924
_cell_length_c 5.136777
_cell_angle_alpha 77.734421
_cell_angle_beta 88.291312
_cell_angle_gamma 55.165801
_cell_volume 556.109687
_symmetry_space_group_name_H-M "P -1"
_symmetry_group_IT_number 2
_symmetry_cell_setting 'triclinic'
loop_
_space_group_symop_operation_xyz
x,y,z
-x,-y,-z
loop_
_atom_site_type_symbol
_atom_site_label
_atom_site_fract_x
_atom_site_fract_y
_atom_site_fract_z
Si Si1 0.235002 0.445043 0.737332
Si Si2 0.369077 0.087646 0.929628
Si Si3 0.045890 0.592713 0.845089
Si Si4 0.510828 0.855583 0.625529
Si Si5 0.782867 0.187520 0.997358
Si Si6 0.739817 0.724442 0.406049
Si Si7 0.793636 0.320861 0.927693
O O1 0.250658 0.503309 0.869013
O O2 0.540357 0.382767 0.692491
O O3 0.000000 0.500000 0.500000
O O4 0.158330 0.394782 0.934883
O O5 0.520281 0.104010 0.688785
O O6 0.049453 0.133726 0.863299
O O7 0.395197 0.111450 0.194820
O O8 0.500000 0.000000 0.000000
O O9 0.860479 0.637394 0.554874
O O10 0.198897 0.630477 0.883990
O O11 0.727002 0.765830 0.640846
O O12 0.248569 0.863117 0.744761
O O13 0.550700 0.228111 0.752787
O O14 0.766777 0.255204 0.093848
O O15 0.938491 0.726690 0.204968
#
# Coordination Sequence:
#
# PCOD8035290 Si02
#       7
#     2   2   2   2   2   2   2
#     4  11  25  46  67 100 148 200 257 327 394 455
#     4  12  29  53  83 118 159 205 257 316 390 465
#     4  11  25  43  68 104 145 197 265 316 392 465
#     4  12  26  53  75 121 156 201 265 311 385 470
#     4  12  26  48  80 110 159 206 253 325 386 455
#     4  12  25  46  73 110 150 198 268 314 379 469
#     4  12  24  45  71 105 147 205 256 323 388 462
#
# _framework density 25.174886000000001
#
# number of rings (size 3 to 8) (size 9 to 14) (size 15 to 20)
#    0.000    0.286    2.857    6.000    2.000    8.000 
#    2.571    0.000    0.000    0.000    0.000    0.000 
#    0.000    0.000    0.000    0.000    0.000    0.000 
#
# Total GULP energy -173493.884179 kJ/mol
# GULP energy per Si atom -12392.420298 kJ/mol
# Density = 2.511759 g / cm^3
# Si number density = 25.174886 Si / 1000 Ang^3
#
#
#
# Elastic Constant Matrix: (Units=GPa)
#
#
# Indices 1 2 3 4 5 6 
#
# 1 126.4717 74.6373 36.5849 -8.2041 -1.9417 0.9592
# 2 74.6373 130.6862 26.2312 -12.1708 -2.0896 0.7458
# 3 36.5849 26.2312 100.8469 -4.6913 -17.6721 5.9847
# 4 -8.2041 -12.1708 -4.6913 43.3038 8.6525 -2.8294
# 5 -1.9417 -2.0896 -17.6721 8.6525 35.0805 -7.8026
# 6 0.9592 0.7458 5.9847 -2.8294 -7.8026 38.1582
#
#
#
# Elastic Compliance Matrix: (Units=1/GPa)
#
#
# Indices 1 2 3 4 5 6 
#
# 1 0.012724 -0.006618 -0.003115 0.000490 -0.001368 0.000055
# 2 -0.006618 0.011747 -0.000648 0.002081 -0.000486 0.000093
# 3 -0.003115 -0.000648 0.012272 -0.000683 0.005993 -0.000659
# 4 0.000490 0.002081 -0.000683 0.024979 -0.006213 0.000636
# 5 -0.001368 -0.000486 0.005993 -0.006213 0.034207 0.005638
# 6 0.000055 0.000093 -0.000659 0.000636 0.005638 0.027507
#
#
# Mechanical properties :
#
#
# Convention : Reuss Voigt Hill
#
# Bulk Modulus (GPa) = 62.57536 70.32351 66.44943
# Shear Modulus (GPa) = 33.43896 38.01192 35.72544
#
# Velocity S-wave (km/s) = 3.64849 3.88998 3.77117
# Velocity P-wave (km/s) = 6.53138 6.94050 6.73904
#
# Compressibility (1/GPa) = 0.01598073
#
# Stress axis : x y z
#
# Youngs Moduli (GPa) = 78.59118 85.12516 81.48527
#
# Poissons Ratio (x) = 0.56339 0.25380
# Poissons Ratio (y) = 0.52014 0.05284
# Poissons Ratio (z) = 0.24478 0.05520
#
# Static dielectric constant tensor:
#      x y z
#    x 4.731270 0.244720 -0.055820 
#    y 0.244720 4.904150 -0.004580 
#    z -0.055820 -0.004580 4.367120 
# 
# 
# High freq. dielectric constant tensor:
#      x y z
#    x 2.005050 0.016010 -0.002110 
#    y 0.016010 2.020050 0.002070 
#    z -0.002110 0.002070 1.990930 
# 
# From -- ./inp_files/10651.got.cif
#   From: 2010.06.25/outbox.cif.g09.slc.cpg/sg2_6_cif.got.tgz:10651.got - 2010.06.27 13:26:56.
