data_PCOD8035684
_publ_section_title
;
Structure prediction by ZEFSAII (Michael W. Deem and Ramdas Pophale) SiO2 
 PCOD8035684
Probable space group: P -1
;
_chemical_formula_sum "Si O2"
_cell_formula_units_Z 16
_cell_length_a 9.007110
_cell_length_b 9.367147
_cell_length_c 15.289950
_cell_angle_alpha 70.620393
_cell_angle_beta 34.439405
_cell_angle_gamma 79.372089
_cell_volume 678.523073
_symmetry_space_group_name_H-M "P -1"
_symmetry_group_IT_number 2
_symmetry_cell_setting 'triclinic'
loop_
_space_group_symop_operation_xyz
x,y,z
-x,-y,-z
loop_
_atom_site_type_symbol
_atom_site_label
_atom_site_fract_x
_atom_site_fract_y
_atom_site_fract_z
Si Si1 0.174817 0.303513 0.847334
Si Si2 0.915344 0.627199 0.324677
Si Si3 0.115818 0.956418 0.154255
Si Si4 0.650301 0.121792 0.646451
Si Si5 0.511482 0.595737 0.675219
Si Si6 0.377018 0.104919 0.157800
Si Si7 0.830042 0.644694 0.690213
Si Si8 0.715110 0.128343 0.219402
O O1 0.158466 0.352915 0.744353
O O2 0.389363 0.192837 0.780580
O O3 0.271579 0.452380 0.830559
O O4 0.890527 0.216775 0.037768
O O5 0.662550 0.559258 0.520831
O O6 0.021825 0.794125 0.281585
O O7 0.135823 0.515941 0.248695
O O8 0.253652 0.091571 0.123467
O O9 0.314702 0.915413 0.990840
O O10 0.868156 0.013905 0.219789
O O11 0.881697 0.247501 0.469973
O O12 0.771576 0.042793 0.686486
O O13 0.557871 0.974669 0.659284
O O14 0.707095 0.609691 0.661092
O O15 0.378958 0.747027 0.696034
O O16 0.361428 0.270062 0.174324
#
# Coordination Sequence:
#
# PCOD8035684 Si02
#       8
#     2   2   2   2   2   2   2   2
#     4  12  26  48  74 103 145 191 237 299 359 423
#     4  12  27  45  69 109 147 185 238 294 362 421
#     4  11  26  45  74 105 144 186 241 299 358 419
#     4  12  23  46  76  98 142 189 240 297 350 423
#     4  12  28  47  73 106 147 192 237 293 359 430
#     4  11  25  46  72 107 141 188 243 296 352 429
#     4  12  28  46  72 106 147 193 236 292 364 424
#     4  12  26  48  75 105 140 189 245 296 358 419
#
# _framework density 23.580629999999999
#
# number of rings (size 3 to 8) (size 9 to 14) (size 15 to 20)
#    0.000    0.250    5.000    3.375    5.250    1.000 
#    0.000    0.000    0.000    0.000    0.000    0.000 
#    0.000    0.000    0.000    0.000    0.000    0.000 
#
# Total GULP energy -198387.993134 kJ/mol
# GULP energy per Si atom -12399.249571 kJ/mol
# Density = 2.352696 g / cm^3
# Si number density = 23.580630 Si / 1000 Ang^3
#
#
#
# Elastic Constant Matrix: (Units=GPa)
#
#
# Indices 1 2 3 4 5 6 
#
# 1 113.6420 59.7662 36.9745 -1.9636 3.8821 -0.8207
# 2 59.7662 154.9586 19.0124 2.7603 10.2905 -17.1645
# 3 36.9745 19.0124 29.6378 -0.0309 7.2055 -12.2123
# 4 -1.9636 2.7603 -0.0309 41.9063 3.9075 -6.2400
# 5 3.8821 10.2905 7.2055 3.9075 29.1031 -3.6195
# 6 -0.8207 -17.1645 -12.2123 -6.2400 -3.6195 39.1430
#
#
#
# Elastic Compliance Matrix: (Units=1/GPa)
#
#
# Indices 1 2 3 4 5 6 
#
# 1 0.020633 -0.006074 -0.027339 -0.000666 0.004959 -0.010408
# 2 -0.006074 0.008977 0.004580 0.000141 -0.002896 0.004993
# 3 -0.027339 0.004580 0.078937 0.003623 -0.014860 0.025267
# 4 -0.000666 0.000141 0.003623 0.024877 -0.003600 0.004811
# 5 0.004959 -0.002896 -0.014860 -0.003600 0.038536 -0.002813
# 6 -0.010408 0.004993 0.025267 0.004811 -0.002813 0.035908
#
#
# Mechanical properties :
#
#
# Convention : Reuss Voigt Hill
#
# Bulk Modulus (GPa) = 19.65353 58.86052 39.25703
# Shear Modulus (GPa) = 17.69952 34.19617 25.94785
#
# Velocity S-wave (km/s) = 2.74267 3.81226 3.32081
# Velocity P-wave (km/s) = 4.28747 6.66283 5.60248
#
# Compressibility (1/GPa) = 0.05088143
#
# Stress axis : x y z
#
# Youngs Moduli (GPa) = 48.46622 111.39746 12.66836
#
# Poissons Ratio (x) = 0.67662 0.34634
# Poissons Ratio (y) = 0.29438 -0.05803
# Poissons Ratio (z) = 1.32502 -0.51025
#
# Static dielectric constant tensor:
#      x y z
#    x 4.110540 -0.006710 -0.144410 
#    y -0.006710 4.547990 -0.072160 
#    z -0.144410 -0.072160 4.195750 
# 
# 
# High freq. dielectric constant tensor:
#      x y z
#    x 1.935120 -0.000420 -0.010360 
#    y -0.000420 1.956090 -0.003800 
#    z -0.010360 -0.003800 1.923890 
# 
# From -- ./inp_files/298442.got.cif
#   From: 2010.06.25/outbox.cif.g09.slc.cpg/sg2_150_cif.got.tgz:298442.got - 2010.06.27 13:26:56.
