data_PCOD8035465
_publ_section_title
;
Structure prediction by ZEFSAII (Michael W. Deem and Ramdas Pophale) SiO2 
 PCOD8035465
Probable space group: P -1
;
_chemical_formula_sum "Si O2"
_cell_formula_units_Z 14
_cell_length_a 6.308169
_cell_length_b 13.319550
_cell_length_c 9.291159
_cell_angle_alpha 88.642330
_cell_angle_beta 86.664284
_cell_angle_gamma 48.016962
_cell_volume 579.194012
_symmetry_space_group_name_H-M "P -1"
_symmetry_group_IT_number 2
_symmetry_cell_setting 'triclinic'
loop_
_space_group_symop_operation_xyz
x,y,z
-x,-y,-z
loop_
_atom_site_type_symbol
_atom_site_label
_atom_site_fract_x
_atom_site_fract_y
_atom_site_fract_z
Si Si1 0.351003 0.211416 0.555061
Si Si2 0.356625 0.196676 0.063224
Si Si3 0.688597 0.197286 0.283338
Si Si4 0.219292 0.528096 0.022561
Si Si5 0.867275 0.551407 0.245223
Si Si6 0.215185 0.623811 0.586429
Si Si7 0.672012 0.008675 0.791590
O O1 0.557052 0.173818 0.417931
O O2 0.323634 0.321932 0.647007
O O3 0.493367 0.079848 0.649237
O O4 0.039261 0.268824 0.517989
O O5 0.496224 0.244168 0.146376
O O6 0.351500 0.101027 0.169171
O O7 0.545494 0.117950 0.917775
O O8 0.034244 0.319665 0.026006
O O9 0.708333 0.308554 0.316482
O O10 0.005268 0.056277 0.243722
O O11 0.169392 0.510076 0.193286
O O12 0.500000 0.500000 0.000000
O O13 0.259419 0.419869 0.914819
O O14 0.916570 0.426730 0.315027
O O15 0.500000 0.500000 0.500000
#
# Coordination Sequence:
#
# PCOD8035465 Si02
#       7
#     2   2   2   2   2   2   2
#     4  12  26  48  74 110 152 189 257 305 363 456
#     4  11  26  51  76 108 151 192 252 313 364 453
#     4  12  26  48  76 106 150 201 249 302 378 435
#     4  11  26  46  77 109 150 192 243 313 383 436
#     4  11  25  45  69 111 152 189 246 305 370 452
#     4  12  28  45  76 109 151 201 239 308 380 440
#     4  11  26  50  76 107 144 202 251 309 370 433
#
# _framework density 24.171520000000001
#
# number of rings (size 3 to 8) (size 9 to 14) (size 15 to 20)
#    0.000    0.571    2.857    3.857    4.000    8.000 
#    5.143    0.000    0.000    0.000    0.000    0.000 
#    0.000    0.000    0.000    0.000    0.000    0.000 
#
# Total GULP energy -173620.583173 kJ/mol
# GULP energy per Si atom -12401.470227 kJ/mol
# Density = 2.411650 g / cm^3
# Si number density = 24.171520 Si / 1000 Ang^3
#
#
#
# Elastic Constant Matrix: (Units=GPa)
#
#
# Indices 1 2 3 4 5 6 
#
# 1 147.4569 76.9849 70.2731 3.5371 -9.6210 -25.2424
# 2 76.9849 118.0597 49.8163 2.6865 5.5417 -30.4542
# 3 70.2731 49.8163 133.7758 3.8771 -9.8194 -20.2659
# 4 3.5371 2.6865 3.8771 49.6744 3.5909 -3.1216
# 5 -9.6210 5.5417 -9.8194 3.5909 44.6305 8.7697
# 6 -25.2424 -30.4542 -20.2659 -3.1216 8.7697 45.6520
#
#
#
# Elastic Compliance Matrix: (Units=1/GPa)
#
#
# Indices 1 2 3 4 5 6 
#
# 1 0.012111 -0.006352 -0.003756 -0.000393 0.002551 0.000275
# 2 -0.006352 0.015364 -0.001714 0.000561 -0.005073 0.006989
# 3 -0.003756 -0.001714 0.010373 -0.000493 0.001517 0.001059
# 4 -0.000393 0.000561 -0.000493 0.020441 -0.002255 0.001769
# 5 0.002551 -0.005073 0.001517 -0.002255 0.025344 -0.006323
# 6 0.000275 0.006989 0.001059 0.001769 -0.006323 0.028525
#
#
# Mechanical properties :
#
#
# Convention : Reuss Voigt Hill
#
# Bulk Modulus (GPa) = 70.41245 88.16009 79.28627
# Shear Modulus (GPa) = 35.57770 41.47259 38.52515
#
# Velocity S-wave (km/s) = 3.84068 4.14667 3.99660
# Velocity P-wave (km/s) = 6.99009 7.71222 7.36002
#
# Compressibility (1/GPa) = 0.01420203
#
# Stress axis : x y z
#
# Youngs Moduli (GPa) = 82.56878 65.08679 96.40593
#
# Poissons Ratio (x) = 0.41346 0.36212
# Poissons Ratio (y) = 0.52451 0.16527
# Poissons Ratio (z) = 0.31015 0.11158
#
# Static dielectric constant tensor:
#      x y z
#    x 4.580670 0.016240 -0.228320 
#    y 0.016240 4.449950 0.048110 
#    z -0.228320 0.048110 4.809650 
# 
# 
# High freq. dielectric constant tensor:
#      x y z
#    x 1.962280 -0.002160 -0.011210 
#    y -0.002160 1.967300 0.007960 
#    z -0.011210 0.007960 1.981640 
# 
# From -- ./inp_files/124166.got.cif
#   From: 2010.06.25/outbox.cif.g09.slc.cpg/sg2_63_cif.got.tgz:124166.got - 2010.06.27 13:26:56.
