data_PCOD8035526
_publ_section_title
;
Structure prediction by ZEFSAII (Michael W. Deem and Ramdas Pophale) SiO2 
 PCOD8035526
Probable space group: P -1
;
_chemical_formula_sum "Si O2"
_cell_formula_units_Z 12
_cell_length_a 10.415588
_cell_length_b 4.953196
_cell_length_c 11.141221
_cell_angle_alpha 112.519068
_cell_angle_beta 101.113282
_cell_angle_gamma 97.372785
_cell_volume 507.877213
_symmetry_space_group_name_H-M "P -1"
_symmetry_group_IT_number 2
_symmetry_cell_setting 'triclinic'
loop_
_space_group_symop_operation_xyz
x,y,z
-x,-y,-z
loop_
_atom_site_type_symbol
_atom_site_label
_atom_site_fract_x
_atom_site_fract_y
_atom_site_fract_z
Si Si1 0.907536 0.273635 0.827035
Si Si2 0.294474 0.427515 0.032190
Si Si3 0.146929 0.026233 0.480724
Si Si4 0.439782 0.685330 0.876534
Si Si5 0.238260 0.688496 0.642769
Si Si6 0.915652 0.157474 0.140341
O O1 0.855704 0.189262 0.669494
O O2 0.032807 0.569201 0.898184
O O3 0.782073 0.334053 0.887445
O O4 0.959351 0.001248 0.849811
O O5 0.320034 0.494704 0.905743
O O6 0.214233 0.081091 0.972226
O O7 0.436368 0.480024 0.137387
O O8 0.244589 0.939966 0.585541
O O9 0.206871 0.370008 0.515666
O O10 0.000000 0.000000 0.500000
O O11 0.380684 0.733908 0.744071
O O12 0.500000 0.000000 0.000000
O O13 0.118066 0.705117 0.716488
#
# Coordination Sequence:
#
# PCOD8035526 Si02
#       6
#     2   2   2   2   2   2
#     4  12  26  41  68 103 142 175 212 280 341 404
#     4  11  26  44  66 103 134 177 228 275 345 389
#     4  12  23  42  67  99 139 176 219 266 333 408
#     4  11  25  45  72  92 131 182 230 283 322 399
#     4  12  23  43  68 101 130 176 231 266 327 398
#     4  12  22  41  69 103 138 169 218 282 340 397
#
# _framework density 23.627761
#
# number of rings (size 3 to 8) (size 9 to 14) (size 15 to 20)
#    0.000    0.333    5.000    4.500    4.667    0.000 
#    0.000    1.667    0.000    0.000    0.000    0.000 
#    0.000    0.000    0.000    0.000    0.000    0.000 
#
# Total GULP energy -148880.887148 kJ/mol
# GULP energy per Si atom -12406.740596 kJ/mol
# Density = 2.357398 g / cm^3
# Si number density = 23.627761 Si / 1000 Ang^3
#
#
#
# Elastic Constant Matrix: (Units=GPa)
#
#
# Indices 1 2 3 4 5 6 
#
# 1 132.3593 25.7357 56.0831 -2.2616 -6.2428 -11.4648
# 2 25.7357 99.2139 12.7526 3.3963 0.9519 -11.2984
# 3 56.0831 12.7526 95.0651 2.5876 12.1579 -13.6185
# 4 -2.2616 3.3963 2.5876 38.2315 -6.3916 6.7531
# 5 -6.2428 0.9519 12.1579 -6.3916 32.3429 -2.4158
# 6 -11.4648 -11.2984 -13.6185 6.7531 -2.4158 32.0502
#
#
#
# Elastic Compliance Matrix: (Units=1/GPa)
#
#
# Indices 1 2 3 4 5 6 
#
# 1 0.011275 -0.002116 -0.007080 0.002189 0.005349 0.000221
# 2 -0.002116 0.011063 0.000476 -0.001962 -0.001026 0.003682
# 3 -0.007080 0.000476 0.016439 -0.003752 -0.007942 0.004812
# 4 0.002189 -0.001962 -0.003752 0.029161 0.007122 -0.007110
# 5 0.005349 -0.001026 -0.007942 0.007122 0.036331 -0.000585
# 6 0.000221 0.003682 0.004812 -0.007110 -0.000585 0.036077
#
#
# Mechanical properties :
#
#
# Convention : Reuss Voigt Hill
#
# Bulk Modulus (GPa) = 46.86424 57.30903 52.08663
# Shear Modulus (GPa) = 30.32173 35.99607 33.15890
#
# Velocity S-wave (km/s) = 3.58622 3.90739 3.75025
# Velocity P-wave (km/s) = 6.08485 6.68316 6.39101
#
# Compressibility (1/GPa) = 0.02133823
#
# Stress axis : x y z
#
# Youngs Moduli (GPa) = 88.68860 90.39036 60.82983
#
# Poissons Ratio (x) = 0.19125 0.43068
# Poissons Ratio (y) = 0.18765 -0.02896
# Poissons Ratio (z) = 0.62792 -0.04304
#
# Static dielectric constant tensor:
#      x y z
#    x 4.566770 -0.299560 0.184740 
#    y -0.299560 4.503810 0.016820 
#    z 0.184740 0.016820 4.476550 
# 
# 
# High freq. dielectric constant tensor:
#      x y z
#    x 1.925550 -0.024430 0.008440 
#    y -0.024430 1.950270 0.003030 
#    z 0.008440 0.003030 1.929750 
# 
# From -- ./inp_files/72401.got.cif
#   From: 2010.06.25/outbox.cif.g09.slc.cpg/sg2_37_cif.got.tgz:72401.got - 2010.06.27 13:26:56.
