data_PCOD8035906
_publ_section_title
;
Structure prediction by ZEFSAII (Michael W. Deem and Ramdas Pophale) SiO2 
 PCOD8035906
Probable space group: P -1
;
_chemical_formula_sum "Si O2"
_cell_formula_units_Z 14
_cell_length_a 15.590008
_cell_length_b 22.362723
_cell_length_c 12.977556
_cell_angle_alpha 152.800009
_cell_angle_beta 26.523052
_cell_angle_gamma 161.371524
_cell_volume 617.413715
_symmetry_space_group_name_H-M "P -1"
_symmetry_group_IT_number 2
_symmetry_cell_setting 'triclinic'
loop_
_space_group_symop_operation_xyz
x,y,z
-x,-y,-z
loop_
_atom_site_type_symbol
_atom_site_label
_atom_site_fract_x
_atom_site_fract_y
_atom_site_fract_z
Si Si1 0.874879 0.659076 0.654760
Si Si2 0.696092 0.448386 0.104090
Si Si3 0.397576 0.023372 0.746281
Si Si4 0.151747 0.342294 0.548404
Si Si5 0.900759 0.375966 0.245714
Si Si6 0.401875 0.067369 0.439712
Si Si7 0.427366 0.571932 0.103699
O O1 0.988122 0.691995 0.465804
O O2 0.056750 0.850239 0.825344
O O3 0.869991 0.517268 0.499649
O O4 0.570727 0.582396 0.861761
O O5 0.469842 0.452346 0.350990
O O6 0.826487 0.518822 0.188395
O O7 0.962759 0.604411 0.977911
O O8 0.523342 0.231494 0.930661
O O9 0.471533 0.989775 0.720701
O O10 0.500000 0.000000 0.500000
O O11 0.940748 0.131464 0.510144
O O12 0.093729 0.425658 0.211271
O O13 0.577586 0.158176 0.281119
O O14 0.436793 0.220316 0.696458
O O15 0.500000 0.500000 0.000000
#
# Coordination Sequence:
#
# PCOD8035906 Si02
#       7
#     2   2   2   2   2   2   2
#     4  12  23  42  71 104 137 184 228 282 347 401
#     4  11  25  48  69  99 143 182 238 282 336 418
#     4  12  22  40  69 104 135 176 231 287 334 410
#     4  11  26  45  71 100 138 192 229 281 346 406
#     4  12  24  42  69 103 138 178 229 284 341 414
#     4  12  24  41  67 105 140 178 230 283 352 404
#     4  12  23  40  68 102 144 178 221 288 348 402
#
# _framework density 22.675232999999999
#
# number of rings (size 3 to 8) (size 9 to 14) (size 15 to 20)
#    0.000    0.286    7.143    2.143    0.000    4.000 
#    0.000    0.000    0.000    4.286    0.000    0.000 
#    0.000    0.000    0.000    0.000    0.000    0.000 
#
# Total GULP energy -173476.976366 kJ/mol
# GULP energy per Si atom -12391.212598 kJ/mol
# Density = 2.262362 g / cm^3
# Si number density = 22.675233 Si / 1000 Ang^3
#
#
#
# Elastic Constant Matrix: (Units=GPa)
#
#
# Indices 1 2 3 4 5 6 
#
# 1 67.6520 15.9783 29.3904 0.9837 9.8748 -14.4648
# 2 15.9783 97.8753 21.3098 -22.6156 14.3459 -14.6777
# 3 29.3904 21.3098 87.1112 -17.0442 14.8168 -2.7019
# 4 0.9837 -22.6156 -17.0442 40.8356 5.2755 4.7601
# 5 9.8748 14.3459 14.8168 5.2755 38.3507 -0.7306
# 6 -14.4648 -14.6777 -2.7019 4.7601 -0.7306 31.4163
#
#
#
# Elastic Compliance Matrix: (Units=1/GPa)
#
#
# Indices 1 2 3 4 5 6 
#
# 1 0.020303 -0.001493 -0.007034 -0.005138 -0.001077 0.008799
# 2 -0.001493 0.013813 -0.000246 0.007800 -0.005676 0.004431
# 3 -0.007034 -0.000246 0.016309 0.007940 -0.005553 -0.003283
# 4 -0.005138 0.007800 0.007940 0.033853 -0.009384 -0.003386
# 5 -0.001077 -0.005676 -0.005553 -0.009384 0.031884 -0.001462
# 6 0.008799 0.004431 -0.003283 -0.003386 -0.001462 0.038149
#
#
# Mechanical properties :
#
#
# Convention : Reuss Voigt Hill
#
# Bulk Modulus (GPa) = 30.41453 42.88838 36.65145
# Shear Modulus (GPa) = 27.34953 34.51785 30.93369
#
# Velocity S-wave (km/s) = 3.47672 3.90586 3.69752
# Velocity P-wave (km/s) = 5.43682 6.26867 5.86751
#
# Compressibility (1/GPa) = 0.03287902
#
# Stress axis : x y z
#
# Youngs Moduli (GPa) = 49.25294 72.39457 61.31459
#
# Poissons Ratio (x) = 0.10808 0.43130
# Poissons Ratio (y) = 0.07353 0.01511
# Poissons Ratio (z) = 0.34645 0.01784
#
# Static dielectric constant tensor:
#      x y z
#    x 2.635050 -2.058530 -0.351000 
#    y -2.058530 1.595850 -1.080260 
#    z -0.351000 -1.080260 4.207160 
# 
# 
# High freq. dielectric constant tensor:
#      x y z
#    x 1.887050 -0.002590 -0.002130 
#    y -0.002590 1.896960 -0.026100 
#    z -0.002130 -0.026100 1.901430 
# 
# From -- ./inp_files/258436.got.cif
#   From: 2010.06.25/outbox.cif.g09.slc.cpg/sg2_130_cif.got.tgz:258436.got - 2010.06.27 13:26:56.
