data_PCOD8035157
_publ_section_title
;
Structure prediction by ZEFSAII (Michael W. Deem and Ramdas Pophale) SiO2 
 PCOD8035157
Probable space group: P -1
;
_chemical_formula_sum "Si O2"
_cell_formula_units_Z 10
_cell_length_a 9.262626
_cell_length_b 7.355611
_cell_length_c 8.681562
_cell_angle_alpha 128.187506
_cell_angle_beta 62.688824
_cell_angle_gamma 83.994819
_cell_volume 343.355930
_symmetry_space_group_name_H-M "P -1"
_symmetry_group_IT_number 2
_symmetry_cell_setting 'triclinic'
loop_
_space_group_symop_operation_xyz
x,y,z
-x,-y,-z
loop_
_atom_site_type_symbol
_atom_site_label
_atom_site_fract_x
_atom_site_fract_y
_atom_site_fract_z
Si Si1 0.119959 0.700792 0.649853
Si Si2 0.249296 0.399557 0.727085
Si Si3 0.566807 0.752501 0.952241
Si Si4 0.151818 0.897576 0.234687
Si Si5 0.315146 0.998460 0.726707
O O1 0.128993 0.500251 0.675718
O O2 0.293875 0.537512 0.354307
O O3 0.159241 0.928436 0.823684
O O4 0.918622 0.855360 0.730875
O O5 0.249517 0.140802 0.663410
O O6 0.473343 0.292333 0.527814
O O7 0.148644 0.651926 0.026226
O O8 0.369618 0.783239 0.127430
O O9 0.683509 0.775349 0.048224
O O10 0.500000 0.000000 0.000000
O O11 0.000000 0.000000 0.500000
#
# Coordination Sequence:
#
# PCOD8035157 Si02
#       5
#     2   2   2   2   2
#     4  12  26  52  80 111 158 202 260 322 385 460
#     4  11  24  48  76 113 150 207 257 310 388 459
#     4  12  26  51  80 112 153 207 258 316 390 461
#     4  12  29  48  77 119 160 198 259 327 385 460
#     4  11  25  47  82 108 152 208 255 312 389 462
#
# _framework density 29.124298
#
# number of rings (size 3 to 8) (size 9 to 14) (size 15 to 20)
#    0.000    0.400    4.000    3.600    5.600    3.200 
#    3.600    0.000    0.000    0.000    0.000    0.000 
#    0.000    0.000    0.000    0.000    0.000    0.000 
#
# Total GULP energy -124025.185954 kJ/mol
# GULP energy per Si atom -12402.518595 kJ/mol
# Density = 2.905801 g / cm^3
# Si number density = 29.124298 Si / 1000 Ang^3
#
#
#
# Elastic Constant Matrix: (Units=GPa)
#
#
# Indices 1 2 3 4 5 6 
#
# 1 113.8755 16.7691 29.7465 -12.9372 -8.1213 -20.0536
# 2 16.7691 157.7457 17.1983 2.0758 -14.6847 -45.9280
# 3 29.7465 17.1983 109.3033 -13.8241 14.8901 -13.3486
# 4 -12.9372 2.0758 -13.8241 42.0737 -5.9762 -13.2958
# 5 -8.1213 -14.6847 14.8901 -5.9762 28.8623 -6.1591
# 6 -20.0536 -45.9280 -13.3486 -13.2958 -6.1591 37.1978
#
#
#
# Elastic Compliance Matrix: (Units=1/GPa)
#
#
# Indices 1 2 3 4 5 6 
#
# 1 0.015367 0.006865 -0.003101 0.013112 0.017074 0.023161
# 2 0.006865 0.017219 -0.001688 0.014194 0.021544 0.032997
# 3 -0.003101 -0.001688 0.011454 0.001785 -0.007318 -0.000219
# 4 0.013112 0.014194 0.001785 0.046699 0.029655 0.046837
# 5 0.017074 0.021544 -0.007318 0.029655 0.072222 0.055737
# 6 0.023161 0.032997 -0.000219 0.046837 0.055737 0.106002
#
#
# Mechanical properties :
#
#
# Convention : Reuss Voigt Hill
#
# Bulk Modulus (GPa) = 20.75005 56.48356 38.61681
# Shear Modulus (GPa) = 17.80147 42.77414 30.28781
#
# Velocity S-wave (km/s) = 2.47498 3.83649 3.22832
# Velocity P-wave (km/s) = 3.91248 6.24987 5.21385
#
# Compressibility (1/GPa) = 0.04819265
#
# Stress axis : x y z
#
# Youngs Moduli (GPa) = 65.07561 58.07417 87.30406
#
# Poissons Ratio (x) = -0.39868 0.27075
# Poissons Ratio (y) = -0.44674 0.14733
# Poissons Ratio (z) = 0.20181 0.09800
#
# Static dielectric constant tensor:
#      x y z
#    x 5.496990 -0.572500 -0.099870 
#    y -0.572500 5.450280 0.004670 
#    z -0.099870 0.004670 6.007030 
# 
# 
# High freq. dielectric constant tensor:
#      x y z
#    x 2.169520 -0.016520 -0.012080 
#    y -0.016520 2.190850 0.002290 
#    z -0.012080 0.002290 2.210200 
# 
# From -- ./inp_files/156318.got.cif
#   From: 2010.06.25/outbox.cif.g09.slc.cpg/sg2_79_cif.got.tgz:156318.got - 2010.06.27 13:26:56.
