data_PCOD8035555
_publ_section_title
;
Structure prediction by ZEFSAII (Michael W. Deem and Ramdas Pophale) SiO2 
 PCOD8035555
Probable space group: P -1
;
_chemical_formula_sum "Si O2"
_cell_formula_units_Z 14
_cell_length_a 11.445788
_cell_length_b 15.323697
_cell_length_c 9.369143
_cell_angle_alpha 145.011134
_cell_angle_beta 140.367538
_cell_angle_gamma 48.286469
_cell_volume 598.371157
_symmetry_space_group_name_H-M "P -1"
_symmetry_group_IT_number 2
_symmetry_cell_setting 'triclinic'
loop_
_space_group_symop_operation_xyz
x,y,z
-x,-y,-z
loop_
_atom_site_type_symbol
_atom_site_label
_atom_site_fract_x
_atom_site_fract_y
_atom_site_fract_z
Si Si1 0.860618 0.936217 0.391260
Si Si2 0.583875 0.103065 0.528110
Si Si3 0.998917 0.467083 0.288141
Si Si4 0.540821 0.215291 0.936751
Si Si5 0.881469 0.306188 0.524262
Si Si6 0.649260 0.753637 0.745331
Si Si7 0.668390 0.459670 0.783341
O O1 0.957177 0.801833 0.397414
O O2 0.779669 0.083842 0.604538
O O3 0.683885 0.876477 0.064520
O O4 0.000000 0.000000 0.500000
O O5 0.592407 0.221068 0.824823
O O6 0.416621 0.162892 0.349647
O O7 0.564926 0.931911 0.334809
O O8 0.035265 0.615611 0.429256
O O9 0.154452 0.334270 0.220330
O O10 0.000000 0.500000 0.500000
O O11 0.797254 0.420292 0.990231
O O12 0.725813 0.202155 0.185778
O O13 0.410943 0.364967 0.057587
O O14 0.793616 0.432473 0.723280
O O15 0.499903 0.644847 0.515108
#
# Coordination Sequence:
#
# PCOD8035555 Si02
#       7
#     2   2   2   2   2   2   2
#     4  12  26  47  74 109 152 198 248 300 369 451
#     4  11  26  45  69 105 151 197 243 300 375 446
#     4  12  28  44  73 114 152 188 242 310 378 435
#     4  11  25  45  74 104 146 196 245 307 374 434
#     4  12  25  46  78 109 146 195 249 310 370 435
#     4  12  26  47  75 108 147 195 252 304 369 435
#     4  12  25  48  79 107 146 190 254 312 365 436
#
# _framework density 23.396851000000002
#
# number of rings (size 3 to 8) (size 9 to 14) (size 15 to 20)
#    0.000    0.286    2.857    5.571    4.000    2.857 
#    0.000    0.000    0.000    0.000    0.000    0.000 
#    0.000    0.000    0.000    0.000    0.000    0.000 
#
# Total GULP energy -173680.912448 kJ/mol
# GULP energy per Si atom -12405.779461 kJ/mol
# Density = 2.334360 g / cm^3
# Si number density = 23.396851 Si / 1000 Ang^3
#
#
#
# Elastic Constant Matrix: (Units=GPa)
#
#
# Indices 1 2 3 4 5 6 
#
# 1 69.7106 15.7081 24.3804 -15.1417 1.1583 14.1018
# 2 15.7081 115.6346 25.2255 -18.0643 0.5507 8.0117
# 3 24.3804 25.2255 103.4508 -26.0420 -4.5644 0.7445
# 4 -15.1417 -18.0643 -26.0420 40.1057 8.1111 3.2422
# 5 1.1583 0.5507 -4.5644 8.1111 37.1902 -12.3650
# 6 14.1018 8.0117 0.7445 3.2422 -12.3650 32.3098
#
#
#
# Elastic Compliance Matrix: (Units=1/GPa)
#
#
# Indices 1 2 3 4 5 6 
#
# 1 0.019519 0.000037 -0.002846 0.007818 -0.006574 -0.011763
# 2 0.000037 0.009917 -0.001405 0.004400 -0.002565 -0.003866
# 3 -0.002846 -0.001405 0.012217 0.006028 0.000605 0.000936
# 4 0.007818 0.004400 0.006028 0.037260 -0.012010 -0.012978
# 5 -0.006574 -0.002565 0.000605 -0.012010 0.035963 0.018460
# 6 -0.011763 -0.003866 0.000936 -0.012978 0.018460 0.045388
#
#
# Mechanical properties :
#
#
# Convention : Reuss Voigt Hill
#
# Bulk Modulus (GPa) = 30.09760 46.60266 38.35013
# Shear Modulus (GPa) = 27.81380 36.81993 32.31686
#
# Velocity S-wave (km/s) = 3.45162 3.97131 3.72055
# Velocity P-wave (km/s) = 5.36440 6.40234 5.90621
#
# Compressibility (1/GPa) = 0.03322524
#
# Stress axis : x y z
#
# Youngs Moduli (GPa) = 51.23144 100.83954 81.85278
#
# Poissons Ratio (x) = -0.00374 0.23299
# Poissons Ratio (y) = -0.00190 0.11497
# Poissons Ratio (z) = 0.14583 0.14164
#
# Static dielectric constant tensor:
#      x y z
#    x 4.501260 -0.153120 -0.235490 
#    y -0.153120 4.634470 -0.051880 
#    z -0.235490 -0.051880 4.553490 
# 
# 
# High freq. dielectric constant tensor:
#      x y z
#    x 1.936710 -0.002910 -0.003420 
#    y -0.002910 1.939190 -0.010230 
#    z -0.003420 -0.010230 1.932660 
# 
# From -- ./inp_files/269366.got.cif
#   From: 2010.06.25/outbox.cif.g09.slc.cpg/sg2_135_cif.got.tgz:269366.got - 2010.06.27 13:26:56.
