data_PCOD8035180
_publ_section_title
;
Structure prediction by ZEFSAII (Michael W. Deem and Ramdas Pophale) SiO2 
 PCOD8035180
Probable space group: P -1
;
_chemical_formula_sum "Si O2"
_cell_formula_units_Z 14
_cell_length_a 11.616607
_cell_length_b 12.873891
_cell_length_c 6.778404
_cell_angle_alpha 45.271189
_cell_angle_beta 118.990781
_cell_angle_gamma 105.800279
_cell_volume 626.076191
_symmetry_space_group_name_H-M "P -1"
_symmetry_group_IT_number 2
_symmetry_cell_setting 'triclinic'
loop_
_space_group_symop_operation_xyz
x,y,z
-x,-y,-z
loop_
_atom_site_type_symbol
_atom_site_label
_atom_site_fract_x
_atom_site_fract_y
_atom_site_fract_z
Si Si1 0.850235 0.681816 0.107682
Si Si2 0.744042 0.278118 0.095338
Si Si3 0.855738 0.010722 0.770541
Si Si4 0.622526 0.525913 0.930767
Si Si5 0.411237 0.984103 0.254241
Si Si6 0.509273 0.781952 0.259540
Si Si7 0.928882 0.465530 0.788244
O O1 0.880482 0.619250 0.436104
O O2 0.974409 0.637254 0.132018
O O3 0.827490 0.857558 0.853529
O O4 0.720029 0.617582 0.009662
O O5 0.849431 0.141225 0.429953
O O6 0.697540 0.371461 0.127324
O O7 0.624023 0.210297 0.985420
O O8 0.805366 0.377638 0.850824
O O9 0.736460 0.053210 0.768969
O O10 0.000000 0.000000 0.000000
O O11 0.574231 0.615969 0.572580
O O12 0.500000 0.500000 0.000000
O O13 0.484543 0.853529 0.358746
O O14 0.500000 0.000000 0.500000
O O15 0.393510 0.132319 0.908868
O O16 0.000000 0.500000 0.000000
#
# Coordination Sequence:
#
# PCOD8035180 Si02
#       7
#     2   2   2   2   2   2   2
#     4  11  27  46  75 102 145 196 240 301 370 434
#     4  12  26  46  73 108 148 186 246 306 367 438
#     4  12  28  45  74 111 149 192 240 308 370 434
#     4  12  26  45  76 109 147 191 252 306 366 443
#     4  11  24  49  73 103 152 189 247 302 365 444
#     4  11  26  44  76 104 138 199 243 302 369 430
#     4  11  24  49  72 100 143 191 244 294 363 444
#
# _framework density 22.361495999999999
#
# number of rings (size 3 to 8) (size 9 to 14) (size 15 to 20)
#    0.000    0.571    2.857    3.857   10.000    1.714 
#    0.000    0.000    0.000    0.000    0.000    0.000 
#    0.000    0.000    0.000    0.000    0.000    0.000 
#
# Total GULP energy -173674.346527 kJ/mol
# GULP energy per Si atom -12405.310466 kJ/mol
# Density = 2.231060 g / cm^3
# Si number density = 22.361496 Si / 1000 Ang^3
#
#
#
# Elastic Constant Matrix: (Units=GPa)
#
#
# Indices 1 2 3 4 5 6 
#
# 1 122.3553 25.7547 31.0251 2.2984 -11.2422 9.1438
# 2 25.7547 128.1114 47.2485 0.3514 4.8590 4.4660
# 3 31.0251 47.2485 142.0723 -7.2352 5.1838 -10.1155
# 4 2.2984 0.3514 -7.2352 43.1207 6.1921 7.4249
# 5 -11.2422 4.8590 5.1838 6.1921 42.6914 5.6546
# 6 9.1438 4.4660 -10.1155 7.4249 5.6546 32.1134
#
#
#
# Elastic Compliance Matrix: (Units=1/GPa)
#
#
# Indices 1 2 3 4 5 6 
#
# 1 0.009565 -0.001137 -0.002138 -0.000727 0.003502 -0.003687
# 2 -0.001137 0.009196 -0.002910 -0.000099 -0.000751 -0.001717
# 3 -0.002138 -0.002910 0.008886 0.001249 -0.002006 0.003877
# 4 -0.000727 -0.000099 0.001249 0.024693 -0.003316 -0.004511
# 5 0.003502 -0.000751 -0.002006 -0.003316 0.025860 -0.005311
# 6 -0.003687 -0.001717 0.003877 -0.004511 -0.005311 0.035628
#
#
# Mechanical properties :
#
#
# Convention : Reuss Voigt Hill
#
# Bulk Modulus (GPa) = 65.45378 66.73285 66.09331
# Shear Modulus (GPa) = 38.08369 42.81914 40.45142
#
# Velocity S-wave (km/s) = 4.13133 4.38066 4.25782
# Velocity P-wave (km/s) = 7.21744 7.44946 7.33437
#
# Compressibility (1/GPa) = 0.01527796
#
# Stress axis : x y z
#
# Youngs Moduli (GPa) = 104.54419 108.74270 112.53434
#
# Poissons Ratio (x) = 0.12360 0.24062
# Poissons Ratio (y) = 0.11883 0.32747
# Poissons Ratio (z) = 0.22353 0.31644
#
# Static dielectric constant tensor:
#      x y z
#    x 4.155510 0.058920 -0.081730 
#    y 0.058920 4.081430 -0.198270 
#    z -0.081730 -0.198270 4.266280 
# 
# 
# High freq. dielectric constant tensor:
#      x y z
#    x 1.889930 0.006480 -0.005280 
#    y 0.006480 1.884820 -0.006110 
#    z -0.005280 -0.006110 1.896120 
# 
# From -- ./inp_files/60939.got.cif
#   From: 2010.06.25/outbox.cif.g09.slc.cpg/sg2_31_cif.got.tgz:60939.got - 2010.06.27 13:26:56.
