data_PCOD8035868
_publ_section_title
;
Structure prediction by ZEFSAII (Michael W. Deem and Ramdas Pophale) SiO2 
 PCOD8035868
Probable space group: P -1
;
_chemical_formula_sum "Si O2"
_cell_formula_units_Z 14
_cell_length_a 11.411114
_cell_length_b 9.258117
_cell_length_c 7.470782
_cell_angle_alpha 48.069817
_cell_angle_beta 101.149102
_cell_angle_gamma 94.441977
_cell_volume 574.641274
_symmetry_space_group_name_H-M "P -1"
_symmetry_group_IT_number 2
_symmetry_cell_setting 'triclinic'
loop_
_space_group_symop_operation_xyz
x,y,z
-x,-y,-z
loop_
_atom_site_type_symbol
_atom_site_label
_atom_site_fract_x
_atom_site_fract_y
_atom_site_fract_z
Si Si1 0.614838 0.850276 0.162742
Si Si2 0.114872 0.541937 0.611301
Si Si3 0.365138 0.587080 0.469861
Si Si4 0.254890 0.223322 0.107148
Si Si5 0.881124 0.097209 0.465532
Si Si6 0.321882 0.813822 0.905944
Si Si7 0.500732 0.230211 0.310777
O O1 0.684854 0.947179 0.267246
O O2 0.572915 0.631428 0.377021
O O3 0.500000 0.000000 0.000000
O O4 0.690178 0.858847 0.995930
O O5 0.233797 0.537598 0.532562
O O6 0.078860 0.754381 0.498671
O O7 0.000000 0.500000 0.500000
O O8 0.144055 0.382347 0.908874
O O9 0.426355 0.717704 0.888517
O O10 0.436827 0.692240 0.558841
O O11 0.362856 0.317595 0.171420
O O12 0.206315 0.047781 0.348891
O O13 0.806298 0.221148 0.188772
O O14 0.000000 0.000000 0.500000
O O15 0.343504 0.718524 0.182717
O O16 0.500000 0.000000 0.500000
#
# Coordination Sequence:
#
# PCOD8035868 Si02
#       7
#     2   2   2   2   2   2   2
#     4  11  25  47  75 116 156 203 251 313 388 472
#     4  11  27  52  76 110 152 208 264 319 388 456
#     4  11  28  49  78 118 158 207 256 321 397 464
#     4  11  26  50  79 109 160 204 253 326 392 461
#     4  12  29  50  77 110 148 212 265 320 388 455
#     4  12  26  48  76 115 159 199 262 321 391 473
#     4  12  23  51  81 114 164 203 253 320 403 472
#
# _framework density 24.363025
#
# number of rings (size 3 to 8) (size 9 to 14) (size 15 to 20)
#    0.000    0.571    4.286    1.714    6.000    6.286 
#    2.571    0.000    0.000    0.000    0.000    0.000 
#    0.000    0.000    0.000    0.000    0.000    0.000 
#
# Total GULP energy -173556.030598 kJ/mol
# GULP energy per Si atom -12396.859328 kJ/mol
# Density = 2.430757 g / cm^3
# Si number density = 24.363025 Si / 1000 Ang^3
#
#
#
# Elastic Constant Matrix: (Units=GPa)
#
#
# Indices 1 2 3 4 5 6 
#
# 1 134.1958 73.2711 57.2748 9.1174 30.9065 23.7376
# 2 73.2711 134.8753 81.6693 5.7291 -13.2277 26.9936
# 3 57.2748 81.6693 144.5979 8.4131 14.8095 14.6902
# 4 9.1174 5.7291 8.4131 46.1325 -0.2640 5.5537
# 5 30.9065 -13.2277 14.8095 -0.2640 36.7867 10.3912
# 6 23.7376 26.9936 14.6902 5.5537 10.3912 48.3913
#
#
#
# Elastic Compliance Matrix: (Units=1/GPa)
#
#
# Indices 1 2 3 4 5 6 
#
# 1 0.020168 -0.016256 0.003581 -0.003235 -0.025357 0.003904
# 2 -0.016256 0.029139 -0.012338 0.003464 0.032491 -0.011909
# 3 0.003581 -0.012338 0.013611 -0.002255 -0.014153 0.004292
# 4 -0.003235 0.003464 -0.002255 0.022762 0.006044 -0.003570
# 5 -0.025357 0.032491 -0.014153 0.006044 0.070795 -0.017285
# 6 0.003904 -0.011909 0.004292 -0.003570 -0.017285 0.028212
#
#
# Mechanical properties :
#
#
# Convention : Reuss Voigt Hill
#
# Bulk Modulus (GPa) = 77.56342 93.12217 85.34279
# Shear Modulus (GPa) = 20.91972 39.69234 30.30603
#
# Velocity S-wave (km/s) = 2.93348 4.04072 3.53077
# Velocity P-wave (km/s) = 6.58630 7.75085 7.19218
#
# Compressibility (1/GPa) = 0.01289268
#
# Stress axis : x y z
#
# Youngs Moduli (GPa) = 49.58295 34.31803 73.47189
#
# Poissons Ratio (x) = 0.55787 -0.26313
# Poissons Ratio (y) = 0.80601 0.90652
# Poissons Ratio (z) = -0.17758 0.42343
#
# Static dielectric constant tensor:
#      x y z
#    x 4.766280 1.504370 -0.533320 
#    y 1.504370 10.160430 -2.210470 
#    z -0.533320 -2.210470 5.536460 
# 
# 
# High freq. dielectric constant tensor:
#      x y z
#    x 1.970030 0.003820 -0.000680 
#    y 0.003820 1.987320 -0.000520 
#    z -0.000680 -0.000520 1.979240 
# 
# From -- ./inp_files/236769.got.cif
#   From: 2010.06.25/outbox.cif.g09.slc.cpg/sg2_119_cif.got.tgz:236769.got - 2010.06.27 13:26:56.
