data_PCOD8035849
_publ_section_title
;
Structure prediction by ZEFSAII (Michael W. Deem and Ramdas Pophale) SiO2 
 PCOD8035849
Probable space group: P -1
;
_chemical_formula_sum "Si O2"
_cell_formula_units_Z 16
_cell_length_a 5.176630
_cell_length_b 17.514829
_cell_length_c 9.171776
_cell_angle_alpha 99.663981
_cell_angle_beta 123.300779
_cell_angle_gamma 89.606183
_cell_volume 681.494138
_symmetry_space_group_name_H-M "P -1"
_symmetry_group_IT_number 2
_symmetry_cell_setting 'triclinic'
loop_
_space_group_symop_operation_xyz
x,y,z
-x,-y,-z
loop_
_atom_site_type_symbol
_atom_site_label
_atom_site_fract_x
_atom_site_fract_y
_atom_site_fract_z
Si Si1 0.820250 0.668157 0.075588
Si Si2 0.876440 0.318604 0.136119
Si Si3 0.176176 0.536561 0.210984
Si Si4 0.897457 0.141629 0.144762
Si Si5 0.575416 0.107109 0.322740
Si Si6 0.502227 0.071255 0.772366
Si Si7 0.189105 0.437050 0.467630
Si Si8 0.937324 0.159047 0.706624
O O1 0.976993 0.607986 0.211685
O O2 0.919514 0.755148 0.184436
O O3 0.453050 0.647011 0.973028
O O4 0.917594 0.656147 0.933836
O O5 0.819054 0.226260 0.099648
O O6 0.021679 0.351716 0.346524
O O7 0.234456 0.471724 0.328452
O O8 0.535047 0.576027 0.335277
O O9 0.000000 0.500000 0.000000
O O10 0.845645 0.130811 0.297101
O O11 0.233616 0.127561 0.181282
O O12 0.637746 0.076158 0.979742
O O13 0.656997 0.160253 0.506059
O O14 0.568130 0.016432 0.333129
O O15 0.789880 0.116049 0.788460
O O16 0.187872 0.112210 0.686014
O O17 0.000000 0.500000 0.500000
#
# Coordination Sequence:
#
# PCOD8035849 Si02
#       8
#     2   2   2   2   2   2   2   2
#     4  12  25  46  73 101 140 195 234 288 359 428
#     4  12  26  47  73 100 147 187 235 295 353 423
#     4  11  25  47  74 107 147 187 238 289 356 428
#     4  12  24  44  66 101 139 183 236 288 359 419
#     4  12  26  41  69 101 139 181 237 301 352 416
#     4  12  23  46  68  96 137 188 237 292 355 424
#     4  11  27  46  75 112 144 189 239 296 352 424
#     4  12  24  44  67 102 137 184 240 288 357 419
#
# _framework density 23.477823999999998
#
# number of rings (size 3 to 8) (size 9 to 14) (size 15 to 20)
#    0.000    0.250    3.750    5.250    5.250    2.000 
#    0.000    0.000    0.000    0.000    0.000    0.000 
#    0.000    0.000    0.000    0.000    0.000    0.000 
#
# Total GULP energy -198239.804170 kJ/mol
# GULP energy per Si atom -12389.987761 kJ/mol
# Density = 2.342439 g / cm^3
# Si number density = 23.477824 Si / 1000 Ang^3
#
#
#
# Elastic Constant Matrix: (Units=GPa)
#
#
# Indices 1 2 3 4 5 6 
#
# 1 93.0892 21.3922 19.4465 4.9819 11.2973 -17.0044
# 2 21.3922 67.0598 33.6580 -1.3657 5.7247 -11.4167
# 3 19.4465 33.6580 137.6219 15.4165 17.3325 -11.8152
# 4 4.9819 -1.3657 15.4165 36.5475 -6.0984 1.5530
# 5 11.2973 5.7247 17.3325 -6.0984 33.8663 -4.1159
# 6 -17.0044 -11.4167 -11.8152 1.5530 -4.1159 30.7665
#
#
#
# Elastic Compliance Matrix: (Units=1/GPa)
#
#
# Indices 1 2 3 4 5 6 
#
# 1 0.013065 -0.003005 0.000178 -0.002841 -0.003746 0.005816
# 2 -0.003005 0.018598 -0.004270 0.002921 0.001006 0.003588
# 3 0.000178 -0.004270 0.009647 -0.005162 -0.004984 0.001813
# 4 -0.002841 0.002921 -0.005162 0.031566 0.008423 -0.002935
# 5 -0.003746 0.001006 -0.004984 0.008423 0.034750 0.000612
# 6 0.005816 0.003588 0.001813 -0.002935 0.000612 0.037975
#
#
# Mechanical properties :
#
#
# Convention : Reuss Voigt Hill
#
# Bulk Modulus (GPa) = 36.87761 49.64047 43.25904
# Shear Modulus (GPa) = 29.61521 35.12100 32.36810
#
# Velocity S-wave (km/s) = 3.55549 3.87191 3.71707
# Velocity P-wave (km/s) = 5.70937 6.41704 6.07352
#
# Compressibility (1/GPa) = 0.02711673
#
# Stress axis : x y z
#
# Youngs Moduli (GPa) = 76.54125 53.76881 103.66012
#
# Poissons Ratio (x) = 0.16157 -0.01847
# Poissons Ratio (y) = 0.23000 0.44261
# Poissons Ratio (z) = -0.01364 0.22958
#
# Static dielectric constant tensor:
#      x y z
#    x 4.219450 -0.046770 0.178600 
#    y -0.046770 4.333830 0.272660 
#    z 0.178600 0.272660 4.463430 
# 
# 
# High freq. dielectric constant tensor:
#      x y z
#    x 1.930240 -0.006860 0.008820 
#    y -0.006860 1.934940 0.013500 
#    z 0.008820 0.013500 1.942990 
# 
# From -- ./inp_files/120064.got.cif
#   From: 2010.06.25/outbox.cif.g09.slc.cpg/sg2_61_cif.got.tgz:120064.got - 2010.06.27 13:26:56.
