data_PCOD8035131
_publ_section_title
;
Structure prediction by ZEFSAII (Michael W. Deem and Ramdas Pophale) SiO2 
 PCOD8035131
Probable space group: P -1
;
_chemical_formula_sum "Si O2"
_cell_formula_units_Z 12
_cell_length_a 9.078998
_cell_length_b 14.305981
_cell_length_c 6.497506
_cell_angle_alpha 92.073698
_cell_angle_beta 75.615070
_cell_angle_gamma 41.833375
_cell_volume 512.239723
_symmetry_space_group_name_H-M "P -1"
_symmetry_group_IT_number 2
_symmetry_cell_setting 'triclinic'
loop_
_space_group_symop_operation_xyz
x,y,z
-x,-y,-z
loop_
_atom_site_type_symbol
_atom_site_label
_atom_site_fract_x
_atom_site_fract_y
_atom_site_fract_z
Si Si1 0.924560 0.824534 0.362503
Si Si2 0.921332 0.486720 0.228737
Si Si3 0.783967 0.359104 0.367349
Si Si4 0.527104 0.993893 0.230326
Si Si5 0.832780 0.167671 0.038221
Si Si6 0.613268 0.728562 0.672882
O O1 0.686282 0.967278 0.592365
O O2 0.095284 0.684991 0.449517
O O3 0.094649 0.824402 0.209397
O O4 0.791805 0.833563 0.215506
O O5 0.855769 0.410511 0.199440
O O6 0.686050 0.650618 0.420321
O O7 0.145167 0.376145 0.293450
O O8 0.000000 0.500000 0.000000
O O9 0.500000 0.500000 0.500000
O O10 0.873049 0.221835 0.214751
O O11 0.511232 0.111445 0.305621
O O12 0.500000 0.000000 0.000000
O O13 0.557675 0.262724 0.143934
O O14 0.000000 0.000000 0.000000
#
# Coordination Sequence:
#
# PCOD8035131 Si02
#       6
#     2   2   2   2   2   2
#     4  11  26  44  75 105 149 196 245 305 374 441
#     4  11  27  48  75 104 147 201 256 308 369 441
#     4  12  27  50  72 109 151 200 253 302 377 447
#     4  11  24  48  73 109 146 196 247 309 376 449
#     4  12  27  47  71 113 153 189 245 312 378 450
#     4  11  25  47  69 110 147 186 262 305 365 453
#
# _framework density 23.426532999999999
#
# number of rings (size 3 to 8) (size 9 to 14) (size 15 to 20)
#    0.000    0.667    5.000    1.000    4.667    2.667 
#    0.000    0.000    0.000    0.000    0.000    0.000 
#    0.000    0.000    0.000    0.000    0.000    0.000 
#
# Total GULP energy -148658.731930 kJ/mol
# GULP energy per Si atom -12388.227661 kJ/mol
# Density = 2.337321 g / cm^3
# Si number density = 23.426533 Si / 1000 Ang^3
#
#
#
# Elastic Constant Matrix: (Units=GPa)
#
#
# Indices 1 2 3 4 5 6 
#
# 1 134.3389 55.1081 71.1748 10.5781 -29.4293 6.3094
# 2 55.1081 104.4618 49.5828 -5.6391 4.0325 -2.3302
# 3 71.1748 49.5828 160.4020 -8.0203 -32.8011 11.8095
# 4 10.5781 -5.6391 -8.0203 40.1196 -1.1382 1.9786
# 5 -29.4293 4.0325 -32.8011 -1.1382 62.1386 1.3961
# 6 6.3094 -2.3302 11.8095 1.9786 1.3961 46.2993
#
#
#
# Elastic Compliance Matrix: (Units=1/GPa)
#
#
# Indices 1 2 3 4 5 6 
#
# 1 0.012960 -0.005826 -0.003108 -0.004661 0.004817 -0.001213
# 2 -0.005826 0.014476 -0.003008 0.002704 -0.005289 0.002334
# 3 -0.003108 -0.003008 0.009650 0.002556 0.003918 -0.002417
# 4 -0.004661 0.002704 0.002556 0.027081 -0.000515 -0.001023
# 5 0.004817 -0.005289 0.003918 -0.000515 0.020833 -0.002528
# 6 -0.001213 0.002334 -0.002417 -0.001023 -0.002528 0.022618
#
#
# Mechanical properties :
#
#
# Convention : Reuss Voigt Hill
#
# Bulk Modulus (GPa) = 75.74735 83.43712 79.59224
# Shear Modulus (GPa) = 36.79048 44.60065 40.69556
#
# Velocity S-wave (km/s) = 3.96720 4.36805 4.17244
# Velocity P-wave (km/s) = 7.30679 7.81880 7.56713
#
# Compressibility (1/GPa) = 0.01320178
#
# Stress axis : x y z
#
# Youngs Moduli (GPa) = 77.16075 69.07837 103.62196
#
# Poissons Ratio (x) = 0.40246 0.32211
# Poissons Ratio (y) = 0.44955 0.31168
# Poissons Ratio (z) = 0.23985 0.20778
#
# Static dielectric constant tensor:
#      x y z
#    x 4.805170 0.065160 -0.505370 
#    y 0.065160 4.555150 0.140810 
#    z -0.505370 0.140810 4.273530 
# 
# 
# High freq. dielectric constant tensor:
#      x y z
#    x 1.930320 -0.013120 -0.026890 
#    y -0.013120 1.922100 0.000240 
#    z -0.026890 0.000240 1.939800 
# 
# From -- ./inp_files/38577.got.cif
#   From: 2010.06.25/outbox.cif.g09.slc.cpg/sg2_20_cif.got.tgz:38577.got - 2010.06.27 13:26:56.
