data_PCOD8035287
_publ_section_title
;
Structure prediction by ZEFSAII (Michael W. Deem and Ramdas Pophale) SiO2 
 PCOD8035287
Probable space group: P -1
;
_chemical_formula_sum "Si O2"
_cell_formula_units_Z 14
_cell_length_a 14.291050
_cell_length_b 20.997483
_cell_length_c 12.268209
_cell_angle_alpha 21.343100
_cell_angle_beta 30.932049
_cell_angle_gamma 29.244364
_cell_volume 633.182444
_symmetry_space_group_name_H-M "P -1"
_symmetry_group_IT_number 2
_symmetry_cell_setting 'triclinic'
loop_
_space_group_symop_operation_xyz
x,y,z
-x,-y,-z
loop_
_atom_site_type_symbol
_atom_site_label
_atom_site_fract_x
_atom_site_fract_y
_atom_site_fract_z
Si Si1 0.368925 0.756919 0.698889
Si Si2 0.684271 0.850641 0.791274
Si Si3 0.896272 0.573892 0.207643
Si Si4 0.205194 0.488227 0.366404
Si Si5 0.640948 0.281721 0.680850
Si Si6 0.833888 0.205741 0.375287
Si Si7 0.001508 0.175586 0.650759
O O1 0.597450 0.641187 0.692005
O O2 0.331759 0.716291 0.676029
O O3 0.324235 0.977576 0.398268
O O4 0.218841 0.696781 0.020421
O O5 0.794093 0.865607 0.548775
O O6 0.784756 0.662814 0.065276
O O7 0.475301 0.851932 0.958598
O O8 0.761044 0.614828 0.385470
O O9 0.979941 0.346650 0.479903
O O10 0.071603 0.640735 0.948548
O O11 0.000000 0.500000 0.500000
O O12 0.500000 0.500000 0.500000
O O13 0.714117 0.216770 0.588206
O O14 0.831923 0.231155 0.642774
O O15 0.000000 0.000000 0.500000
O O16 0.000000 0.000000 0.000000
#
# Coordination Sequence:
#
# PCOD8035287 Si02
#       7
#     2   2   2   2   2   2   2
#     4  11  25  43  67 107 140 181 238 293 356 434
#     4  12  25  46  74 102 139 187 245 295 358 429
#     4  12  23  43  74  98 141 187 234 295 361 420
#     4  11  25  44  66 100 146 185 225 295 363 421
#     4  12  26  46  75 105 141 195 247 295 356 436
#     4  12  24  43  76 108 142 186 243 299 362 430
#     4  12  27  49  70 105 146 184 240 306 361 431
#
# _framework density 22.110530000000001
#
# number of rings (size 3 to 8) (size 9 to 14) (size 15 to 20)
#    0.000    0.286    5.714    3.000    2.000    4.000 
#    0.000    0.000    0.000    0.000    0.000    0.000 
#    0.000    0.000    0.000    0.000    0.000    0.000 
#
# Total GULP energy -173517.055039 kJ/mol
# GULP energy per Si atom -12394.075360 kJ/mol
# Density = 2.206021 g / cm^3
# Si number density = 22.110530 Si / 1000 Ang^3
#
#
#
# Elastic Constant Matrix: (Units=GPa)
#
#
# Indices 1 2 3 4 5 6 
#
# 1 -13.9091 -16.9381 -2.4571 25.7375 4.5227 -12.0804
# 2 -16.9381 73.5853 30.2853 23.6612 3.8495 -4.0823
# 3 -2.4571 30.2853 153.4883 22.1596 -6.5181 -0.5715
# 4 25.7375 23.6612 22.1596 47.2861 -2.5669 -1.6875
# 5 4.5227 3.8495 -6.5181 -2.5669 47.2627 8.3531
# 6 -12.0804 -4.0823 -0.5715 -1.6875 8.3531 28.2184
#
#
#
# Elastic Compliance Matrix: (Units=1/GPa)
#
#
# Indices 1 2 3 4 5 6 
#
# 1 -0.019390 -0.010236 -0.000380 0.015771 0.005336 -0.010426
# 2 -0.010236 0.011913 -0.002626 0.000753 0.000168 -0.002716
# 3 -0.000380 -0.002626 0.007352 -0.001885 0.001320 -0.000897
# 4 0.015771 0.000753 -0.001885 0.013228 -0.002593 0.008381
# 5 0.005336 0.000168 0.001320 -0.002593 0.021410 -0.004157
# 6 -0.010426 -0.002716 -0.000897 0.008381 -0.004157 0.032295
#
#
# Mechanical properties :
#
#
# Convention : Reuss Voigt Hill
#
# Bulk Modulus (GPa) = -37.58173 26.10495 -5.73839
# Shear Modulus (GPa) = 59.22601 38.03841 48.63221
#
# Velocity S-wave (km/s) = 5.18117 4.15224 4.69498
# Velocity P-wave (km/s) = 4.33111 5.90088 5.17585
#
# Compressibility (1/GPa) = -0.02660867
#
# Stress axis : x y z
#
# Youngs Moduli (GPa) = -51.57267 83.94357 136.01555
#
# Poissons Ratio (x) = 0.85922 0.05168
# Poissons Ratio (y) = -0.52788 0.35719
# Poissons Ratio (z) = -0.01959 0.22045
#
# Static dielectric constant tensor:
#      x y z
#    x 3.402020 0.186760 -0.399920 
#    y 0.186760 4.074050 -0.034060 
#    z -0.399920 -0.034060 4.647920 
# 
# 
# High freq. dielectric constant tensor:
#      x y z
#    x 1.872150 0.000790 -0.013190 
#    y 0.000790 1.864400 0.009710 
#    z -0.013190 0.009710 1.895300 
# 
# From -- ./inp_files/189733.got.cif
#   From: 2010.06.25/outbox.cif.g09.slc.cpg/sg2_95_cif.got.tgz:189733.got - 2010.06.27 13:26:56.
