data_PCOD8035706
_publ_section_title
;
Structure prediction by ZEFSAII (Michael W. Deem and Ramdas Pophale) SiO2 
 PCOD8035706
Probable space group: P -1
;
_chemical_formula_sum "Si O2"
_cell_formula_units_Z 16
_cell_length_a 8.898815
_cell_length_b 9.230080
_cell_length_c 16.025917
_cell_angle_alpha 86.898783
_cell_angle_beta 33.154702
_cell_angle_gamma 78.512165
_cell_volume 689.718319
_symmetry_space_group_name_H-M "P -1"
_symmetry_group_IT_number 2
_symmetry_cell_setting 'triclinic'
loop_
_space_group_symop_operation_xyz
x,y,z
-x,-y,-z
loop_
_atom_site_type_symbol
_atom_site_label
_atom_site_fract_x
_atom_site_fract_y
_atom_site_fract_z
Si Si1 0.400790 0.737688 0.136279
Si Si2 0.040855 0.424079 0.576636
Si Si3 0.961863 0.941880 0.745666
Si Si4 0.260349 0.654230 0.906721
Si Si5 0.267716 0.938821 0.437245
Si Si6 0.294137 0.329188 0.162728
Si Si7 0.357746 0.333646 0.811303
Si Si8 0.611744 0.165622 0.298396
O O1 0.615779 0.757042 0.109443
O O2 0.177924 0.672419 0.294157
O O3 0.260233 0.892435 0.147547
O O4 0.592239 0.624106 0.981019
O O5 0.357092 0.310314 0.442687
O O6 0.000000 0.500000 0.500000
O O7 0.986855 0.551084 0.671184
O O8 0.783060 0.826413 0.810317
O O9 0.180249 0.952179 0.572402
O O10 0.154631 0.898484 0.738342
O O11 0.448055 0.690083 0.892224
O O12 0.419917 0.494862 0.792785
O O13 0.211388 0.787108 0.858979
O O14 0.955673 0.644420 0.083019
O O15 0.411195 0.762198 0.357728
O O16 0.490686 0.035852 0.319230
O O17 0.000000 0.000000 0.500000
#
# Coordination Sequence:
#
# PCOD8035706 Si02
#       8
#     2   2   2   2   2   2   2   2
#     4  12  25  49  71 105 149 188 241 301 361 435
#     4  12  25  46  79 104 144 191 245 301 360 432
#     4  12  28  46  71 109 147 191 242 301 363 432
#     4  11  26  46  72 104 145 186 247 300 356 433
#     4  12  25  46  76 103 139 197 241 294 367 429
#     4  12  27  45  76 107 145 197 240 292 374 424
#     4  11  25  46  73 104 141 186 247 298 363 422
#     4  12  26  48  70 107 147 185 245 305 354 434
#
# _framework density 23.197875
#
# number of rings (size 3 to 8) (size 9 to 14) (size 15 to 20)
#    0.000    0.250    5.000    2.625    5.250    1.000 
#    2.250    0.000    0.000    0.000    0.000    0.000 
#    0.000    0.000    0.000    0.000    0.000    0.000 
#
# Total GULP energy -198329.772076 kJ/mol
# GULP energy per Si atom -12395.610755 kJ/mol
# Density = 2.314508 g / cm^3
# Si number density = 23.197875 Si / 1000 Ang^3
#
#
#
# Elastic Constant Matrix: (Units=GPa)
#
#
# Indices 1 2 3 4 5 6 
#
# 1 114.9707 51.4735 -4.7642 -12.9744 -8.6262 11.8545
# 2 51.4735 102.9792 15.7364 1.3958 -11.1223 10.2381
# 3 -4.7642 15.7364 59.7600 5.5619 8.4863 14.8433
# 4 -12.9744 1.3958 5.5619 35.7734 4.5330 -0.4634
# 5 -8.6262 -11.1223 8.4863 4.5330 34.0048 -1.9277
# 6 11.8545 10.2381 14.8433 -0.4634 -1.9277 36.9663
#
#
#
# Elastic Compliance Matrix: (Units=1/GPa)
#
#
# Indices 1 2 3 4 5 6 
#
# 1 0.012579 -0.006557 0.003275 0.004333 -0.000547 -0.003507
# 2 -0.006557 0.014212 -0.004718 -0.002772 0.004547 0.000264
# 3 0.003275 -0.004718 0.021420 -0.001262 -0.006383 -0.008693
# 4 0.004333 -0.002772 -0.001262 0.030277 -0.003524 0.000081
# 5 -0.000547 0.004547 -0.006383 -0.003524 0.032997 0.003156
# 6 -0.003507 0.000264 -0.008693 0.000081 0.003156 0.031759
#
#
# Mechanical properties :
#
#
# Convention : Reuss Voigt Hill
#
# Bulk Modulus (GPa) = 31.04619 44.73346 37.88983
# Shear Modulus (GPa) = 29.41494 35.69986 32.55740
#
# Velocity S-wave (km/s) = 3.56476 3.92717 3.75035
# Velocity P-wave (km/s) = 5.50960 6.31576 5.92640
#
# Compressibility (1/GPa) = 0.03221007
#
# Stress axis : x y z
#
# Youngs Moduli (GPa) = 79.49954 70.36492 46.68489
#
# Poissons Ratio (x) = 0.46138 -0.15289
# Poissons Ratio (y) = 0.52128 0.22027
# Poissons Ratio (z) = -0.26036 0.33200
#
# Static dielectric constant tensor:
#      x y z
#    x 4.043610 0.376440 -0.483680 
#    y 0.376440 3.124230 1.833550 
#    z -0.483680 1.833550 2.021800 
# 
# 
# High freq. dielectric constant tensor:
#      x y z
#    x 1.916320 0.001120 -0.004230 
#    y 0.001120 1.926160 -0.000370 
#    z -0.004230 -0.000370 1.928090 
# 
# From -- ./inp_files/495020.got.cif
#   From: 2010.06.25/outbox.cif.g09.slc.cpg/sg2_248_cif.got.tgz:495020.got - 2010.06.27 13:26:56.
