data_PCOD8035423
_publ_section_title
;
Structure prediction by ZEFSAII (Michael W. Deem and Ramdas Pophale) SiO2 
 PCOD8035423
Probable space group: P -1
;
_chemical_formula_sum "Si O2"
_cell_formula_units_Z 14
_cell_length_a 5.385109
_cell_length_b 18.021138
_cell_length_c 6.692004
_cell_angle_alpha 76.865048
_cell_angle_beta 105.313882
_cell_angle_gamma 100.998168
_cell_volume 604.044295
_symmetry_space_group_name_H-M "P -1"
_symmetry_group_IT_number 2
_symmetry_cell_setting 'triclinic'
loop_
_space_group_symop_operation_xyz
x,y,z
-x,-y,-z
loop_
_atom_site_type_symbol
_atom_site_label
_atom_site_fract_x
_atom_site_fract_y
_atom_site_fract_z
Si Si1 0.473463 0.409374 0.549642
Si Si2 0.223615 0.066652 0.936231
Si Si3 0.706452 0.963789 0.435999
Si Si4 0.266574 0.307136 0.233140
Si Si5 0.520306 0.835181 0.720523
Si Si6 0.993903 0.200923 0.575165
Si Si7 0.989801 0.337698 0.763874
O O1 0.500000 0.500000 0.500000
O O2 0.419766 0.383376 0.321426
O O3 0.750612 0.386197 0.686292
O O4 0.244929 0.378691 0.676504
O O5 0.386995 0.030760 0.817463
O O6 0.098727 0.133289 0.756813
O O7 0.418440 0.107440 0.115670
O O8 0.000000 0.000000 0.000000
O O9 0.703452 0.874201 0.555623
O O10 0.500000 0.000000 0.500000
O O11 0.000000 0.000000 0.500000
O O12 0.440518 0.253312 0.176760
O O13 0.181842 0.257355 0.441227
O O14 0.052497 0.328120 0.019208
O O15 0.227631 0.839382 0.594081
O O16 0.890865 0.255136 0.692146
#
# Coordination Sequence:
#
# PCOD8035423 Si02
#       7
#     2   2   2   2   2   2   2
#     4  11  26  48  75 114 155 190 242 301 362 446
#     4  12  26  47  73 106 142 197 259 314 388 439
#     4  12  27  50  68 101 143 189 245 314 381 446
#     4  11  25  44  74 106 148 195 249 301 371 440
#     4  12  25  44  73  98 145 190 248 313 376 441
#     4  11  25  45  69 105 147 188 254 309 365 447
#     4  11  25  45  76 108 147 201 242 295 371 442
#
# _framework density 23.177106999999999
#
# number of rings (size 3 to 8) (size 9 to 14) (size 15 to 20)
#    0.000    0.571    5.714    1.286    2.000    2.857 
#    2.571    0.000    0.000    0.000    0.000    0.000 
#    0.000    0.000    0.000    0.000    0.000    0.000 
#
# Total GULP energy -173481.799759 kJ/mol
# GULP energy per Si atom -12391.557126 kJ/mol
# Density = 2.312436 g / cm^3
# Si number density = 23.177107 Si / 1000 Ang^3
#
#
#
# Elastic Constant Matrix: (Units=GPa)
#
#
# Indices 1 2 3 4 5 6 
#
# 1 112.5836 37.3030 37.0975 0.1716 1.4490 -1.1181
# 2 37.3030 145.3598 68.3545 19.4368 -3.5576 0.8089
# 3 37.0975 68.3545 158.1778 16.0192 11.1886 -4.7818
# 4 0.1716 19.4368 16.0192 38.2882 0.5117 4.5384
# 5 1.4490 -3.5576 11.1886 0.5117 38.9305 6.1319
# 6 -1.1181 0.8089 -4.7818 4.5384 6.1319 31.2358
#
#
#
# Elastic Compliance Matrix: (Units=1/GPa)
#
#
# Indices 1 2 3 4 5 6 
#
# 1 0.010102 -0.002044 -0.001652 0.001693 -0.000100 -0.000065
# 2 -0.002044 0.009540 -0.003481 -0.003312 0.002116 -0.000787
# 3 -0.001652 -0.003481 0.008714 -0.002100 -0.003092 0.002277
# 4 0.001693 -0.003312 -0.002100 0.029199 0.000567 -0.004529
# 5 -0.000100 0.002116 -0.003092 0.000567 0.027719 -0.006056
# 6 -0.000065 -0.000787 0.002277 -0.004529 -0.006056 0.034228
#
#
# Mechanical properties :
#
#
# Convention : Reuss Voigt Hill
#
# Bulk Modulus (GPa) = 71.42190 77.95902 74.69046
# Shear Modulus (GPa) = 36.09467 39.91534 38.00500
#
# Velocity S-wave (km/s) = 3.95060 4.15443 4.05379
# Velocity P-wave (km/s) = 7.18973 7.53137 7.36253
#
# Compressibility (1/GPa) = 0.01400131
#
# Stress axis : x y z
#
# Youngs Moduli (GPa) = 98.99027 104.82045 114.75609
#
# Poissons Ratio (x) = 0.21424 0.18961
# Poissons Ratio (y) = 0.20232 0.39950
# Poissons Ratio (z) = 0.16356 0.36491
#
# Static dielectric constant tensor:
#      x y z
#    x 4.061950 -0.068430 -0.299030 
#    y -0.068430 4.809080 0.041600 
#    z -0.299030 0.041600 5.369500 
# 
# 
# High freq. dielectric constant tensor:
#      x y z
#    x 1.910710 -0.009530 0.004240 
#    y -0.009530 1.931820 0.007640 
#    z 0.004240 0.007640 1.935430 
# 
# From -- ./inp_files/7746.got.cif
#   From: 2010.06.25/outbox.cif.g09.slc.cpg/sg2_4_cif.got.tgz:7746.got - 2010.06.27 13:26:56.
