data_PCOD8035601
_publ_section_title
;
Structure prediction by ZEFSAII (Michael W. Deem and Ramdas Pophale) SiO2 
 PCOD8035601
Probable space group: P -1
;
_chemical_formula_sum "Si O2"
_cell_formula_units_Z 12
_cell_length_a 10.961536
_cell_length_b 13.847076
_cell_length_c 13.491700
_cell_angle_alpha 20.204829
_cell_angle_beta 46.326984
_cell_angle_gamma 44.974848
_cell_volume 496.911864
_symmetry_space_group_name_H-M "P -1"
_symmetry_group_IT_number 2
_symmetry_cell_setting 'triclinic'
loop_
_space_group_symop_operation_xyz
x,y,z
-x,-y,-z
loop_
_atom_site_type_symbol
_atom_site_label
_atom_site_fract_x
_atom_site_fract_y
_atom_site_fract_z
Si Si1 0.112242 0.982036 0.553527
Si Si2 0.288811 0.934717 0.894013
Si Si3 0.969704 0.562509 0.157306
Si Si4 0.577651 0.695603 0.200587
Si Si5 0.508070 0.394684 0.337188
Si Si6 0.015118 0.710993 0.376261
O O1 0.306609 0.801086 0.604747
O O2 0.000000 0.000000 0.500000
O O3 0.109537 0.308598 0.268505
O O4 0.029343 0.855065 0.817706
O O5 0.385452 0.180557 0.639610
O O6 0.166520 0.044558 0.761197
O O7 0.417030 0.630130 0.078318
O O8 0.174579 0.862756 0.121322
O O9 0.784300 0.604824 0.169332
O O10 0.958973 0.486709 0.350843
O O11 0.500000 0.500000 0.500000
O O12 0.516685 0.637276 0.181413
O O13 0.500000 0.000000 0.000000
O O14 0.000000 0.500000 0.500000
#
# Coordination Sequence:
#
# PCOD8035601 Si02
#       6
#     2   2   2   2   2   2
#     4  12  27  50  73 104 152 204 243 299 361 444
#     4  11  25  45  78 107 146 192 246 303 380 431
#     4  12  28  47  74 108 145 200 251 290 376 445
#     4  12  26  41  70 111 148 179 241 309 374 436
#     4  12  25  45  75 107 148 196 246 308 364 435
#     4  11  26  49  77 107 153 194 241 311 383 433
#
# _framework density 24.149149999999999
#
# number of rings (size 3 to 8) (size 9 to 14) (size 15 to 20)
#    0.000    0.333    3.333    4.500    9.333    0.000 
#    0.000    5.000    0.000    0.000    0.000    0.000 
#    0.000    0.000    0.000    0.000    0.000    0.000 
#
# Total GULP energy -148685.803209 kJ/mol
# GULP energy per Si atom -12390.483601 kJ/mol
# Density = 2.409419 g / cm^3
# Si number density = 24.149150 Si / 1000 Ang^3
#
#
#
# Elastic Constant Matrix: (Units=GPa)
#
#
# Indices 1 2 3 4 5 6 
#
# 1 101.3702 42.0054 48.6843 5.4264 3.2584 -27.9556
# 2 42.0054 101.3571 32.7701 -22.0581 -6.6582 -34.0992
# 3 48.6843 32.7701 151.1245 -3.8849 1.5708 -12.0384
# 4 5.4264 -22.0581 -3.8849 55.8422 -0.5698 9.0041
# 5 3.2584 -6.6582 1.5708 -0.5698 42.8841 -4.1002
# 6 -27.9556 -34.0992 -12.0384 9.0041 -4.1002 50.5666
#
#
#
# Elastic Compliance Matrix: (Units=1/GPa)
#
#
# Indices 1 2 3 4 5 6 
#
# 1 0.015112 -0.004358 -0.003605 -0.004295 -0.001251 0.005221
# 2 -0.004358 0.016047 -0.001383 0.005510 0.003654 0.007398
# 3 -0.003605 -0.001383 0.008005 0.000542 -0.000336 -0.001144
# 4 -0.004295 0.005510 0.000542 0.020899 0.001234 -0.002151
# 5 -0.001251 0.003654 -0.000336 0.001234 0.024339 0.003446
# 6 0.005221 0.007398 -0.001144 -0.002151 0.003446 0.028041
#
#
# Mechanical properties :
#
#
# Convention : Reuss Voigt Hill
#
# Bulk Modulus (GPa) = 48.84506 66.75237 57.79871
# Shear Modulus (GPa) = 36.24287 45.21803 40.73045
#
# Velocity S-wave (km/s) = 3.87821 4.33187 4.11130
# Velocity P-wave (km/s) = 6.35014 7.26098 6.82079
#
# Compressibility (1/GPa) = 0.02047290
#
# Stress axis : x y z
#
# Youngs Moduli (GPa) = 66.17347 62.31562 124.92907
#
# Poissons Ratio (x) = 0.27155 0.45034
# Poissons Ratio (y) = 0.28836 0.17277
# Poissons Ratio (z) = 0.23854 0.08618
#
# Static dielectric constant tensor:
#      x y z
#    x 4.852090 -0.475520 0.541450 
#    y -0.475520 4.291750 -0.197200 
#    z 0.541450 -0.197200 5.237830 
# 
# 
# High freq. dielectric constant tensor:
#      x y z
#    x 1.962270 -0.032300 0.004560 
#    y -0.032300 1.945390 -0.021440 
#    z 0.004560 -0.021440 1.988790 
# 
# From -- ./inp_files/444560.got.cif
#   From: 2010.06.25/outbox.cif.g09.slc.cpg/sg2_223_cif.got.tgz:444560.got - 2010.06.27 13:26:56.
