data_PCOD8035043
_publ_section_title
;
Structure prediction by ZEFSAII (Michael W. Deem and Ramdas Pophale) SiO2 
 PCOD8035043
Probable space group: P -1
;
_chemical_formula_sum "Si O2"
_cell_formula_units_Z 16
_cell_length_a 8.714238
_cell_length_b 23.703253
_cell_length_c 9.504083
_cell_angle_alpha 37.043353
_cell_angle_beta 83.585217
_cell_angle_gamma 56.593984
_cell_volume 748.814346
_symmetry_space_group_name_H-M "P -1"
_symmetry_group_IT_number 2
_symmetry_cell_setting 'triclinic'
loop_
_space_group_symop_operation_xyz
x,y,z
-x,-y,-z
loop_
_atom_site_type_symbol
_atom_site_label
_atom_site_fract_x
_atom_site_fract_y
_atom_site_fract_z
Si Si1 0.011442 0.068767 0.240241
Si Si2 0.232089 0.622652 0.340251
Si Si3 0.527982 0.907263 0.563286
Si Si4 0.790734 0.085504 0.959297
Si Si5 0.728818 0.599074 0.684242
Si Si6 0.717185 0.907756 0.268954
Si Si7 0.932368 0.386321 0.332370
Si Si8 0.977290 0.601940 0.208907
O O1 0.833171 0.238714 0.929886
O O2 0.922701 0.050178 0.157563
O O3 0.000000 0.000000 0.500000
O O4 0.280743 0.983877 0.372269
O O5 0.500000 0.500000 0.500000
O O6 0.206557 0.583318 0.573295
O O7 0.061388 0.652410 0.186338
O O8 0.682103 0.867078 0.494803
O O9 0.500000 0.000000 0.500000
O O10 0.688839 0.747085 0.925827
O O11 0.554522 0.259087 0.605664
O O12 0.722254 0.010092 0.119113
O O13 0.000000 0.000000 0.000000
O O14 0.844383 0.648563 0.586526
O O15 0.867259 0.477536 0.790792
O O16 0.748502 0.529618 0.964845
O O17 0.962158 0.755945 0.471005
O O18 0.500000 0.000000 0.000000
O O19 0.000000 0.500000 0.500000
#
# Coordination Sequence:
#
# PCOD8035043 Si02
#       8
#     2   2   2   2   2   2   2   2
#     4  12  29  46  70 107 148 194 245 308 375 436
#     4  12  27  48  72 107 153 192 240 309 378 442
#     4  12  26  48  76 107 142 195 257 305 367 445
#     4  12  27  46  70 106 148 191 241 305 371 434
#     4  11  25  45  74 108 145 192 249 302 366 442
#     4  12  24  45  76 104 141 195 247 308 366 438
#     4  11  24  47  74 108 143 193 251 302 366 445
#     4  12  26  46  76 109 142 193 247 306 367 441
#
# _framework density 21.367111000000001
#
# number of rings (size 3 to 8) (size 9 to 14) (size 15 to 20)
#    0.000    0.250    5.000    3.750    5.250    1.000 
#    0.000    1.875    0.000    0.000    0.000    0.000 
#    0.000    0.000    0.000    0.000    0.000    0.000 
#
# Total GULP energy -198377.843891 kJ/mol
# GULP energy per Si atom -12398.615243 kJ/mol
# Density = 2.131848 g / cm^3
# Si number density = 21.367111 Si / 1000 Ang^3
#
#
#
# Elastic Constant Matrix: (Units=GPa)
#
#
# Indices 1 2 3 4 5 6 
#
# 1 112.1676 47.9318 58.1691 2.7426 7.6847 17.3959
# 2 47.9318 149.4159 72.6686 2.7927 4.2036 1.9466
# 3 58.1691 72.6686 160.8083 -1.2776 4.5340 -5.4136
# 4 2.7426 2.7927 -1.2776 41.4484 -3.0740 3.2182
# 5 7.6847 4.2036 4.5340 -3.0740 44.8582 1.3748
# 6 17.3959 1.9466 -5.4136 3.2182 1.3748 47.4676
#
#
#
# Elastic Compliance Matrix: (Units=1/GPa)
#
#
# Indices 1 2 3 4 5 6 
#
# 1 0.012632 -0.002118 -0.003739 -0.000538 -0.001475 -0.004890
# 2 -0.002118 0.008989 -0.003292 -0.000587 -0.000189 0.000078
# 3 -0.003739 -0.003292 0.009148 0.000555 -0.000014 0.002512
# 4 -0.000538 -0.000587 0.000555 0.024464 0.001811 -0.001426
# 5 -0.001475 -0.000189 -0.000014 0.001811 0.022696 -0.000234
# 6 -0.004890 0.000078 0.002512 -0.001426 -0.000234 0.023246
#
#
# Mechanical properties :
#
#
# Convention : Reuss Voigt Hill
#
# Bulk Modulus (GPa) = 80.19932 86.65896 83.42914
# Shear Modulus (GPa) = 40.44268 42.99633 41.71950
#
# Velocity S-wave (km/s) = 4.35530 4.49070 4.42352
# Velocity P-wave (km/s) = 7.93139 8.21789 8.07591
#
# Compressibility (1/GPa) = 0.01246893
#
# Stress axis : x y z
#
# Youngs Moduli (GPa) = 79.16228 111.24854 109.30768
#
# Poissons Ratio (x) = 0.23567 0.40875
# Poissons Ratio (y) = 0.16770 0.35989
# Poissons Ratio (z) = 0.29603 0.36628
#
# Static dielectric constant tensor:
#      x y z
#    x 3.846720 0.042010 -0.049890 
#    y 0.042010 4.014120 -0.034440 
#    z -0.049890 -0.034440 3.954220 
# 
# 
# High freq. dielectric constant tensor:
#      x y z
#    x 1.841130 0.010630 -0.002910 
#    y 0.010630 1.855060 0.002560 
#    z -0.002910 0.002560 1.859160 
# 
# From -- ./inp_files/190906.got.cif
#   From: 2010.06.25/outbox.cif.g09.slc.cpg/sg2_96_cif.got.tgz:190906.got - 2010.06.27 13:26:56.
