data_PCOD8035598
_publ_section_title
;
Structure prediction by ZEFSAII (Michael W. Deem and Ramdas Pophale) SiO2 
 PCOD8035598
Probable space group: P -1
;
_chemical_formula_sum "Si O2"
_cell_formula_units_Z 16
_cell_length_a 8.912434
_cell_length_b 14.169553
_cell_length_c 10.905189
_cell_angle_alpha 128.144109
_cell_angle_beta 68.590940
_cell_angle_gamma 70.700560
_cell_volume 656.165357
_symmetry_space_group_name_H-M "P -1"
_symmetry_group_IT_number 2
_symmetry_cell_setting 'triclinic'
loop_
_space_group_symop_operation_xyz
x,y,z
-x,-y,-z
loop_
_atom_site_type_symbol
_atom_site_label
_atom_site_fract_x
_atom_site_fract_y
_atom_site_fract_z
Si Si1 0.039837 0.385843 0.007142
Si Si2 0.180567 0.741481 0.422666
Si Si3 0.970516 0.701263 0.659118
Si Si4 0.725856 0.398555 0.964891
Si Si5 0.509667 0.627408 0.654993
Si Si6 0.263696 0.853158 0.138188
Si Si7 0.696120 0.724538 0.547653
Si Si8 0.589855 0.895593 0.140270
O O1 0.914100 0.520976 0.266397
O O2 0.310494 0.196982 0.827758
O O3 0.000000 0.500000 0.000000
O O4 0.921816 0.327614 0.951225
O O5 0.173505 0.640510 0.236653
O O6 0.057095 0.768264 0.608340
O O7 0.470503 0.613195 0.245416
O O8 0.021138 0.947318 0.596913
O O9 0.797818 0.719589 0.639735
O O10 0.224705 0.495322 0.458819
O O11 0.805659 0.822097 0.925772
O O12 0.675168 0.283723 0.890490
O O13 0.500000 0.500000 0.500000
O O14 0.477587 0.751022 0.662570
O O15 0.294197 0.768051 0.930768
O O16 0.446077 0.863193 0.102198
O O17 0.599046 0.884816 0.614887
#
# Coordination Sequence:
#
# PCOD8035598 Si02
#       8
#     2   2   2   2   2   2   2   2
#     4  12  29  49  72 104 151 194 239 306 369 437
#     4  11  25  45  78 103 142 196 243 302 358 432
#     4  12  22  46  74 105 146 189 243 297 357 439
#     4  11  27  49  70 106 146 192 247 297 370 427
#     4  12  25  43  71 109 150 195 234 304 377 426
#     4  12  24  46  76 107 145 186 253 298 358 443
#     4  12  24  47  71 105 147 186 247 299 355 443
#     4  12  27  45  78 113 138 196 248 299 373 431
#
# _framework density 24.384094999999999
#
# number of rings (size 3 to 8) (size 9 to 14) (size 15 to 20)
#    0.000    0.250    5.000    4.125    3.500    1.500 
#    0.000    1.250    0.000    0.000    0.000    0.000 
#    0.000    0.000    0.000    0.000    0.000    0.000 
#
# Total GULP energy -198263.082267 kJ/mol
# GULP energy per Si atom -12391.442642 kJ/mol
# Density = 2.432860 g / cm^3
# Si number density = 24.384095 Si / 1000 Ang^3
#
#
#
# Elastic Constant Matrix: (Units=GPa)
#
#
# Indices 1 2 3 4 5 6 
#
# 1 88.6273 45.6006 26.5184 20.2406 10.2551 0.2387
# 2 45.6006 118.9958 18.0116 22.8752 -1.9495 -0.9469
# 3 26.5184 18.0116 94.7077 21.7144 -7.2883 -6.2214
# 4 20.2406 22.8752 21.7144 37.6846 1.8895 -3.8003
# 5 10.2551 -1.9495 -7.2883 1.8895 26.6280 0.4818
# 6 0.2387 -0.9469 -6.2214 -3.8003 0.4818 33.0767
#
#
#
# Elastic Compliance Matrix: (Units=1/GPa)
#
#
# Indices 1 2 3 4 5 6 
#
# 1 0.016767 -0.005358 -0.003546 -0.003456 -0.007553 -0.001228
# 2 -0.005358 0.011283 0.000646 -0.004522 0.003389 -0.000086
# 3 -0.003546 0.000646 0.013416 -0.006317 0.005501 0.001762
# 4 -0.003456 -0.004522 -0.006317 0.035224 -0.003279 0.002802
# 5 -0.007553 0.003389 0.005501 -0.003279 0.042446 0.000191
# 6 -0.001228 -0.000086 0.001762 0.002802 0.000191 0.030890
#
#
# Mechanical properties :
#
#
# Convention : Reuss Voigt Hill
#
# Bulk Modulus (GPa) = 40.07632 53.62134 46.84883
# Shear Modulus (GPa) = 28.59459 33.62453 31.10956
#
# Velocity S-wave (km/s) = 3.42815 3.71745 3.57573
# Velocity P-wave (km/s) = 5.66928 6.36113 6.02514
#
# Compressibility (1/GPa) = 0.02495239
#
# Stress axis : x y z
#
# Youngs Moduli (GPa) = 59.63988 88.62695 74.53795
#
# Poissons Ratio (x) = 0.47486 0.26428
# Poissons Ratio (y) = 0.31955 -0.04818
# Poissons Ratio (z) = 0.21145 -0.05729
#
# Static dielectric constant tensor:
#      x y z
#    x 4.247040 -0.043070 0.020720 
#    y -0.043070 4.953520 -0.155600 
#    z 0.020720 -0.155600 4.518100 
# 
# 
# High freq. dielectric constant tensor:
#      x y z
#    x 1.948480 0.006330 0.000340 
#    y 0.006330 1.984040 -0.000670 
#    z 0.000340 -0.000670 1.968900 
# 
# From -- ./inp_files/399596.got.cif
#   From: 2010.06.25/outbox.cif.g09.slc.cpg/sg2_200_cif.got.tgz:399596.got - 2010.06.27 13:26:56.
