data_PCOD8035190
_publ_section_title
;
Structure prediction by ZEFSAII (Michael W. Deem and Ramdas Pophale) SiO2 
 PCOD8035190
Probable space group: P -1
;
_chemical_formula_sum "Si O2"
_cell_formula_units_Z 16
_cell_length_a 16.318381
_cell_length_b 12.028843
_cell_length_c 19.178927
_cell_angle_alpha 150.403456
_cell_angle_beta 21.047934
_cell_angle_gamma 139.619750
_cell_volume 640.972552
_symmetry_space_group_name_H-M "P -1"
_symmetry_group_IT_number 2
_symmetry_cell_setting 'triclinic'
loop_
_space_group_symop_operation_xyz
x,y,z
-x,-y,-z
loop_
_atom_site_type_symbol
_atom_site_label
_atom_site_fract_x
_atom_site_fract_y
_atom_site_fract_z
Si Si1 0.071015 0.664247 0.090185
Si Si2 0.448186 0.967919 0.444849
Si Si3 0.401622 0.606258 0.454754
Si Si4 0.524025 0.886979 0.075804
Si Si5 0.028963 0.040851 0.223955
Si Si6 0.865343 0.679446 0.408559
Si Si7 0.730383 0.471140 0.888272
Si Si8 0.876903 0.482425 0.501932
O O1 0.900406 0.664921 0.290529
O O2 0.025056 0.932673 0.245640
O O3 0.341568 0.579951 0.854991
O O4 0.000000 0.500000 0.000000
O O5 0.159221 0.061133 0.723715
O O6 0.500000 0.000000 0.500000
O O7 0.566159 0.147075 0.408951
O O8 0.554675 0.712745 0.187916
O O9 0.238481 0.531060 0.600327
O O10 0.274289 0.632426 0.494107
O O11 0.692774 0.021957 0.058106
O O12 0.715954 0.743442 0.788204
O O13 0.425924 0.708570 0.104224
O O14 0.320387 0.067743 0.292165
O O15 0.931278 0.325773 0.444752
O O16 0.103451 0.658741 0.251294
O O17 0.877560 0.507988 0.724404
#
# Coordination Sequence:
#
# PCOD8035190 Si02
#       8
#     2   2   2   2   2   2   2   2
#     4  12  26  46  71 104 152 187 238 295 362 425
#     4  12  23  47  76 105 146 186 243 296 358 427
#     4  11  24  49  74 104 143 190 240 300 349 431
#     4  12  25  49  70 105 155 181 243 296 355 433
#     4  12  26  45  74 109 141 197 226 306 365 413
#     4  11  27  46  73 110 139 198 239 287 365 424
#     4  11  27  45  78 107 138 198 240 297 350 432
#     4  11  26  47  75 105 141 192 242 291 364 421
#
# _framework density 24.962067999999999
#
# number of rings (size 3 to 8) (size 9 to 14) (size 15 to 20)
#    0.000    0.500    5.000    2.250    1.750    7.000 
#    0.000    0.000    0.000    0.000    0.000    0.000 
#    0.000    0.000    0.000    0.000    0.000    0.000 
#
# Total GULP energy -198235.017166 kJ/mol
# GULP energy per Si atom -12389.688573 kJ/mol
# Density = 2.490525 g / cm^3
# Si number density = 24.962068 Si / 1000 Ang^3
#
#
#
# Elastic Constant Matrix: (Units=GPa)
#
#
# Indices 1 2 3 4 5 6 
#
# 1 65.8342 49.4995 52.5027 -6.3381 -14.7888 -14.4172
# 2 49.4995 180.2433 55.6530 -13.7993 -15.7249 -1.4070
# 3 52.5027 55.6530 117.3026 -8.0098 -19.3360 -8.7769
# 4 -6.3381 -13.7993 -8.0098 44.3963 -3.6831 -13.4714
# 5 -14.7888 -15.7249 -19.3360 -3.6831 38.0256 -7.5803
# 6 -14.4172 -1.4070 -8.7769 -13.4714 -7.5803 46.1748
#
#
#
# Elastic Compliance Matrix: (Units=1/GPa)
#
#
# Indices 1 2 3 4 5 6 
#
# 1 0.030199 -0.004341 -0.009022 0.005143 0.007931 0.010384
# 2 -0.004341 0.007308 -0.001435 0.001135 0.000516 -0.000990
# 3 -0.009022 -0.001435 0.013912 0.001250 0.003228 0.000678
# 4 0.005143 0.001135 0.001250 0.027954 0.008077 0.011360
# 5 0.007931 0.000516 0.003228 0.008077 0.034229 0.011081
# 6 0.010384 -0.000990 0.000678 0.011360 0.011081 0.030131
#
#
# Mechanical properties :
#
#
# Convention : Reuss Voigt Hill
#
# Bulk Modulus (GPa) = 45.82399 75.41005 60.61702
# Shear Modulus (GPa) = 27.68492 39.43433 33.55963
#
# Velocity S-wave (km/s) = 3.33390 3.97894 3.67062
# Velocity P-wave (km/s) = 5.76343 7.16832 6.50392
#
# Compressibility (1/GPa) = 0.02182263
#
# Stress axis : x y z
#
# Youngs Moduli (GPa) = 33.11346 136.84162 71.87978
#
# Poissons Ratio (x) = 0.59406 0.64847
# Poissons Ratio (y) = 0.14375 0.10318
# Poissons Ratio (z) = 0.29873 0.19643
#
# Static dielectric constant tensor:
#      x y z
#    x 4.505410 0.312730 -0.562480 
#    y 0.312730 5.613700 0.090530 
#    z -0.562480 0.090530 4.820700 
# 
# 
# High freq. dielectric constant tensor:
#      x y z
#    x 1.980290 0.004770 -0.041770 
#    y 0.004770 2.033510 -0.008650 
#    z -0.041770 -0.008650 1.986520 
# 
# From -- ./inp_files/600107.got.cif
#   From: 2010.06.25/outbox.cif.g09.slc.cpg/sg2_301_cif.got.tgz:600107.got - 2010.06.27 13:26:56.
