data_PCOD8035516
_publ_section_title
;
Structure prediction by ZEFSAII (Michael W. Deem and Ramdas Pophale) SiO2 
 PCOD8035516
Probable space group: P -1
;
_chemical_formula_sum "Si O2"
_cell_formula_units_Z 14
_cell_length_a 8.973548
_cell_length_b 11.305547
_cell_length_c 17.272793
_cell_angle_alpha 32.349047
_cell_angle_beta 142.770208
_cell_angle_gamma 127.125933
_cell_volume 554.216334
_symmetry_space_group_name_H-M "P -1"
_symmetry_group_IT_number 2
_symmetry_cell_setting 'triclinic'
loop_
_space_group_symop_operation_xyz
x,y,z
-x,-y,-z
loop_
_atom_site_type_symbol
_atom_site_label
_atom_site_fract_x
_atom_site_fract_y
_atom_site_fract_z
Si Si1 0.032521 0.741128 0.316028
Si Si2 0.028026 0.951744 0.743117
Si Si3 0.171478 0.330146 0.502493
Si Si4 0.665143 0.582992 0.086566
Si Si5 0.386187 0.920478 0.266307
Si Si6 0.409097 0.183682 0.426426
Si Si7 0.506769 0.633146 0.159870
O O1 0.157273 0.474341 0.498042
O O2 0.112821 0.863051 0.204719
O O3 0.138414 0.859305 0.369786
O O4 0.736635 0.761459 0.196054
O O5 0.128146 0.083856 0.642267
O O6 0.889775 0.774396 0.740856
O O7 0.248604 0.815417 0.964272
O O8 0.449356 0.282232 0.605705
O O9 0.956555 0.448441 0.286948
O O10 0.525717 0.541759 0.130667
O O11 0.500000 0.500000 0.000000
O O12 0.663391 0.845012 0.928553
O O13 0.538036 0.926297 0.406174
O O14 0.504872 0.420425 0.332818
O O15 0.500000 0.000000 0.500000
#
# Coordination Sequence:
#
# PCOD8035516 Si02
#       7
#     2   2   2   2   2   2   2
#     4  11  26  47  74 104 148 195 240 302 359 433
#     4  12  24  47  76 107 148 187 249 299 363 433
#     4  11  26  46  73 108 145 196 241 298 367 429
#     4  11  25  45  72 105 152 189 235 305 368 427
#     4  12  26  47  75 108 149 187 246 302 363 429
#     4  12  25  45  75 109 142 194 240 302 364 432
#     4  11  26  46  73 110 144 191 247 293 368 432
#
# _framework density 25.260892999999999
#
# number of rings (size 3 to 8) (size 9 to 14) (size 15 to 20)
#    0.000    0.571    2.857    5.143    4.000    4.571 
#    2.571    0.000    0.000    0.000    0.000    0.000 
#    0.000    0.000    0.000    0.000    0.000    0.000 
#
# Total GULP energy -173486.776386 kJ/mol
# GULP energy per Si atom -12391.912599 kJ/mol
# Density = 2.520340 g / cm^3
# Si number density = 25.260893 Si / 1000 Ang^3
#
#
#
# Elastic Constant Matrix: (Units=GPa)
#
#
# Indices 1 2 3 4 5 6 
#
# 1 65.6159 6.1917 18.9771 2.0240 0.6090 12.2239
# 2 6.1917 135.6513 20.0693 12.3534 11.1941 14.7446
# 3 18.9771 20.0693 130.8911 -8.1393 6.2581 12.2843
# 4 2.0240 12.3534 -8.1393 31.4022 1.5437 -10.3722
# 5 0.6090 11.1941 6.2581 1.5437 30.8447 2.1733
# 6 12.2239 14.7446 12.2843 -10.3722 2.1733 39.4988
#
#
#
# Elastic Compliance Matrix: (Units=1/GPa)
#
#
# Indices 1 2 3 4 5 6 
#
# 1 0.017039 0.000488 -0.002266 -0.003814 0.000544 -0.005782
# 2 0.000488 0.008632 -0.001200 -0.005005 -0.002353 -0.004185
# 3 -0.002266 -0.001200 0.008446 0.002637 -0.001315 -0.000713
# 4 -0.003814 -0.005005 0.002637 0.038958 -0.001477 0.012540
# 5 0.000544 -0.002353 -0.001315 -0.001477 0.033684 -0.001122
# 6 -0.005782 -0.004185 -0.000713 0.012540 -0.001122 0.032245
#
#
# Mechanical properties :
#
#
# Convention : Reuss Voigt Hill
#
# Bulk Modulus (GPa) = 35.50866 46.95937 41.23402
# Shear Modulus (GPa) = 32.39457 39.47715 35.93586
#
# Velocity S-wave (km/s) = 3.58495 3.95749 3.77581
# Velocity P-wave (km/s) = 5.58776 6.28589 5.94708
#
# Compressibility (1/GPa) = 0.02816214
#
# Stress axis : x y z
#
# Youngs Moduli (GPa) = 58.68790 115.84790 118.39620
#
# Poissons Ratio (x) = -0.05659 0.26827
# Poissons Ratio (y) = -0.02867 0.14211
# Poissons Ratio (z) = 0.13298 0.13905
#
# Static dielectric constant tensor:
#      x y z
#    x 4.705850 0.385190 0.111680 
#    y 0.385190 5.427330 0.201990 
#    z 0.111680 0.201990 4.619460 
# 
# 
# High freq. dielectric constant tensor:
#      x y z
#    x 2.008470 0.010450 0.002840 
#    y 0.010450 2.021130 0.007000 
#    z 0.002840 0.007000 2.010710 
# 
# From -- ./inp_files/559617.got.cif
#   From: 2010.06.25/outbox.cif.g09.slc.cpg/sg2_280_cif.got.tgz:559617.got - 2010.06.27 13:26:56.
