data_PCOD8035969
_publ_section_title
;
Structure prediction by ZEFSAII (Michael W. Deem and Ramdas Pophale) SiO2 
 PCOD8035969
Probable space group: P -1
;
_chemical_formula_sum "Si O2"
_cell_formula_units_Z 14
_cell_length_a 11.327067
_cell_length_b 10.744200
_cell_length_c 9.498712
_cell_angle_alpha 127.046241
_cell_angle_beta 38.197858
_cell_angle_gamma 118.043027
_cell_volume 570.539120
_symmetry_space_group_name_H-M "P -1"
_symmetry_group_IT_number 2
_symmetry_cell_setting 'triclinic'
loop_
_space_group_symop_operation_xyz
x,y,z
-x,-y,-z
loop_
_atom_site_type_symbol
_atom_site_label
_atom_site_fract_x
_atom_site_fract_y
_atom_site_fract_z
Si Si1 0.847509 0.875127 0.114697
Si Si2 0.130013 0.796745 0.328788
Si Si3 0.594008 0.967005 0.647486
Si Si4 0.743284 0.805601 0.867535
Si Si5 0.053043 0.673475 0.016183
Si Si6 0.552135 0.442816 0.063441
Si Si7 0.534157 0.359191 0.472748
O O1 0.674366 0.975354 0.416633
O O2 0.785509 0.767875 0.967361
O O3 0.906573 0.757170 0.105224
O O4 0.000000 0.000000 0.000000
O O5 0.243928 0.645414 0.178767
O O6 0.940073 0.827130 0.616380
O O7 0.262998 0.948326 0.321497
O O8 0.080626 0.779854 0.200297
O O9 0.575787 0.787492 0.589423
O O10 0.380670 0.035959 0.903459
O O11 0.620253 0.673874 0.814071
O O12 0.242203 0.670415 0.742685
O O13 0.000000 0.500000 0.000000
O O14 0.500000 0.500000 0.000000
O O15 0.553078 0.595216 0.263821
O O16 0.500000 0.500000 0.500000
#
# Coordination Sequence:
#
# PCOD8035969 Si02
#       7
#     2   2   2   2   2   2   2
#     4  12  25  48  77 112 149 202 255 313 382 457
#     4  11  26  51  73 114 152 200 257 315 389 454
#     4  11  26  49  81 107 154 195 262 314 382 458
#     4  11  25  48  78 110 151 198 257 316 381 455
#     4  12  28  48  77 111 159 204 253 314 389 462
#     4  11  26  46  77 110 151 196 256 318 376 455
#     4  12  25  50  74 111 153 201 253 316 389 455
#
# _framework density 24.538195999999999
#
# number of rings (size 3 to 8) (size 9 to 14) (size 15 to 20)
#    0.000    0.571    2.857    3.857    4.000    2.857 
#    2.571    0.000    0.000    0.000    0.000    0.000 
#    0.000    0.000    0.000    0.000    0.000    0.000 
#
# Total GULP energy -173578.864328 kJ/mol
# GULP energy per Si atom -12398.490309 kJ/mol
# Density = 2.448235 g / cm^3
# Si number density = 24.538196 Si / 1000 Ang^3
#
#
#
# Elastic Constant Matrix: (Units=GPa)
#
#
# Indices 1 2 3 4 5 6 
#
# 1 138.6584 45.3416 70.5911 9.6516 3.7631 -7.6259
# 2 45.3416 135.1452 56.5690 11.5219 -3.4317 -1.1382
# 3 70.5911 56.5690 190.7125 5.0418 -12.5236 4.8134
# 4 9.6516 11.5219 5.0418 36.8854 12.0290 4.0219
# 5 3.7631 -3.4317 -12.5236 12.0290 45.6302 -3.8555
# 6 -7.6259 -1.1382 4.8134 4.0219 -3.8555 41.3032
#
#
#
# Elastic Compliance Matrix: (Units=1/GPa)
#
#
# Indices 1 2 3 4 5 6 
#
# 1 0.009646 -0.001826 -0.003129 -0.001345 -0.001259 0.002109
# 2 -0.001826 0.009041 -0.001887 -0.002466 0.001002 0.000466
# 3 -0.003129 -0.001887 0.007126 -0.000075 0.001984 -0.001268
# 4 -0.001345 -0.002466 -0.000075 0.031562 -0.008770 -0.004200
# 5 -0.001259 0.001002 0.001984 -0.008770 0.025185 0.002769
# 6 0.002109 0.000466 -0.001268 -0.004200 0.002769 0.025429
#
#
# Mechanical properties :
#
#
# Convention : Reuss Voigt Hill
#
# Bulk Modulus (GPa) = 82.44427 89.94663 86.19545
# Shear Modulus (GPa) = 39.77257 44.23139 42.00198
#
# Velocity S-wave (km/s) = 4.03034 4.25025 4.14176
# Velocity P-wave (km/s) = 7.43838 7.79882 7.62073
#
# Compressibility (1/GPa) = 0.01212941
#
# Stress axis : x y z
#
# Youngs Moduli (GPa) = 103.67153 110.60186 140.33850
#
# Poissons Ratio (x) = 0.20195 0.43913
# Poissons Ratio (y) = 0.18930 0.26478
# Poissons Ratio (z) = 0.32439 0.20868
#
# Static dielectric constant tensor:
#      x y z
#    x 4.893590 0.441210 -0.433850 
#    y 0.441210 4.612550 -0.007680 
#    z -0.433850 -0.007680 5.005810 
# 
# 
# High freq. dielectric constant tensor:
#      x y z
#    x 1.980310 0.013830 -0.003960 
#    y 0.013830 1.982380 0.002160 
#    z -0.003960 0.002160 1.995200 
# 
# From -- ./inp_files/263268.got.cif
#   From: 2010.06.25/outbox.cif.g09.slc.cpg/sg2_132_cif.got.tgz:263268.got - 2010.06.27 13:26:56.
