data_PCOD8035954
_publ_section_title
;
Structure prediction by ZEFSAII (Michael W. Deem and Ramdas Pophale) SiO2 
 PCOD8035954
Probable space group: P -1
;
_chemical_formula_sum "Si O2"
_cell_formula_units_Z 12
_cell_length_a 5.450185
_cell_length_b 17.236129
_cell_length_c 11.956090
_cell_angle_alpha 145.978241
_cell_angle_beta 92.247701
_cell_angle_gamma 66.547374
_cell_volume 475.174063
_symmetry_space_group_name_H-M "P -1"
_symmetry_group_IT_number 2
_symmetry_cell_setting 'triclinic'
loop_
_space_group_symop_operation_xyz
x,y,z
-x,-y,-z
loop_
_atom_site_type_symbol
_atom_site_label
_atom_site_fract_x
_atom_site_fract_y
_atom_site_fract_z
Si Si1 0.151869 0.154065 0.980489
Si Si2 0.810839 0.135971 0.761520
Si Si3 0.120590 0.506885 0.128339
Si Si4 0.064031 0.478382 0.624302
Si Si5 0.208660 0.728999 0.668958
Si Si6 0.849844 0.886554 0.640418
O O1 0.166481 0.316360 0.185133
O O2 0.928236 0.171604 0.095101
O O3 0.020207 0.171653 0.874537
O O4 0.507182 0.953471 0.760998
O O5 0.738689 0.042261 0.736657
O O6 0.492679 0.328332 0.939591
O O7 0.000000 0.000000 0.500000
O O8 0.902267 0.520912 0.239872
O O9 0.072581 0.690511 0.348561
O O10 0.000000 0.500000 0.000000
O O11 0.410903 0.378655 0.454137
O O12 0.883859 0.399691 0.502419
O O13 0.042995 0.874297 0.737074
#
# Coordination Sequence:
#
# PCOD8035954 Si02
#       6
#     2   2   2   2   2   2
#     4  12  25  47  75 109 159 199 255 318 382 458
#     4  12  29  48  78 113 149 205 258 319 384 458
#     4  11  26  50  76 108 155 203 255 321 383 454
#     4  11  25  48  76 117 151 204 260 316 381 453
#     4  11  27  46  79 114 157 204 256 313 385 454
#     4  11  27  47  74 113 151 198 259 312 383 458
#
# _framework density 25.253903000000001
#
# number of rings (size 3 to 8) (size 9 to 14) (size 15 to 20)
#    0.000    0.667    1.667    4.500   11.667    2.667 
#    0.000    0.000    0.000    0.000    0.000    0.000 
#    0.000    0.000    0.000    0.000    0.000    0.000 
#
# Total GULP energy -148750.662341 kJ/mol
# GULP energy per Si atom -12395.888528 kJ/mol
# Density = 2.519642 g / cm^3
# Si number density = 25.253903 Si / 1000 Ang^3
#
#
#
# Elastic Constant Matrix: (Units=GPa)
#
#
# Indices 1 2 3 4 5 6 
#
# 1 85.6870 -10.1064 31.8876 7.5544 -9.1044 5.8942
# 2 -10.1064 104.1639 32.1210 -5.4586 -8.1258 -14.0619
# 3 31.8876 32.1210 129.6025 22.6489 -28.5426 4.1286
# 4 7.5544 -5.4586 22.6489 58.1562 4.5327 -6.7916
# 5 -9.1044 -8.1258 -28.5426 4.5327 27.1372 2.9215
# 6 5.8942 -14.0619 4.1286 -6.7916 2.9215 34.2257
#
#
#
# Elastic Compliance Matrix: (Units=1/GPa)
#
#
# Indices 1 2 3 4 5 6 
#
# 1 0.013522 0.002293 -0.003332 -0.000542 0.001944 -0.001258
# 2 0.002293 0.012164 -0.004815 0.003575 -0.001902 0.006055
# 3 -0.003332 -0.004815 0.014399 -0.007437 0.014457 -0.005851
# 4 -0.000542 0.003575 -0.007437 0.022313 -0.011508 0.007869
# 5 0.001944 -0.001902 0.014457 -0.011508 0.055121 -0.009849
# 6 -0.001258 0.006055 -0.005851 0.007869 -0.009849 0.035030
#
#
# Mechanical properties :
#
#
# Convention : Reuss Voigt Hill
#
# Bulk Modulus (GPa) = 35.24160 47.47311 41.35736
# Shear Modulus (GPa) = 28.78233 41.60724 35.19478
#
# Velocity S-wave (km/s) = 3.37963 4.06341 3.73720
# Velocity P-wave (km/s) = 5.40504 6.39173 5.91898
#
# Compressibility (1/GPa) = 0.02837555
#
# Stress axis : x y z
#
# Youngs Moduli (GPa) = 73.95477 82.20938 69.44803
#
# Poissons Ratio (x) = -0.18850 0.23142
# Poissons Ratio (y) = -0.16957 0.33442
# Poissons Ratio (z) = 0.24643 0.39588
#
# Static dielectric constant tensor:
#      x y z
#    x 4.291260 0.166100 0.046320 
#    y 0.166100 4.992310 -0.129760 
#    z 0.046320 -0.129760 4.844330 
# 
# 
# High freq. dielectric constant tensor:
#      x y z
#    x 1.995800 0.005190 0.002710 
#    y 0.005190 2.029570 0.000680 
#    z 0.002710 0.000680 2.027050 
# 
# From -- ./inp_files/28669.got.cif
#   From: 2010.06.25/outbox.cif.g09.slc.cpg/sg2_15_cif.got.tgz:28669.got - 2010.06.27 13:26:56.
