data_PCOD8035427
_publ_section_title
;
Structure prediction by ZEFSAII (Michael W. Deem and Ramdas Pophale) SiO2 
 PCOD8035427
Probable space group: P -1
;
_chemical_formula_sum "Si O2"
_cell_formula_units_Z 16
_cell_length_a 9.443430
_cell_length_b 13.689386
_cell_length_c 14.170054
_cell_angle_alpha 41.672093
_cell_angle_beta 57.364173
_cell_angle_gamma 89.250369
_cell_volume 736.330589
_symmetry_space_group_name_H-M "P -1"
_symmetry_group_IT_number 2
_symmetry_cell_setting 'triclinic'
loop_
_space_group_symop_operation_xyz
x,y,z
-x,-y,-z
loop_
_atom_site_type_symbol
_atom_site_label
_atom_site_fract_x
_atom_site_fract_y
_atom_site_fract_z
Si Si1 0.639766 0.149821 0.664048
Si Si2 0.508914 0.752094 0.984490
Si Si3 0.885330 0.492537 0.854907
Si Si4 0.904109 0.799167 0.735330
Si Si5 0.248129 0.331888 0.669200
Si Si6 0.751075 0.375964 0.639516
Si Si7 0.759977 0.131725 0.277111
Si Si8 0.791248 0.977081 0.192620
O O1 0.653685 0.185251 0.746251
O O2 0.847422 0.358870 0.383567
O O3 0.667073 0.994329 0.743097
O O4 0.383707 0.046312 0.798607
O O5 0.667549 0.706500 0.939859
O O6 0.289963 0.634555 0.077652
O O7 0.429717 0.693109 0.163798
O O8 0.831717 0.621337 0.821954
O O9 0.858229 0.346133 0.047288
O O10 0.089788 0.843909 0.709356
O O11 0.000000 0.000000 0.500000
O O12 0.500000 0.500000 0.500000
O O13 0.181506 0.450146 0.576151
O O14 0.252783 0.223256 0.657285
O O15 0.061365 0.170636 0.931182
O O16 0.000000 0.500000 0.500000
O O17 0.747356 0.998130 0.299521
O O18 0.500000 0.000000 0.500000
#
# Coordination Sequence:
#
# PCOD8035427 Si02
#       8
#     2   2   2   2   2   2   2   2
#     4  12  23  46  74 101 150 188 240 297 358 434
#     4  12  26  44  73 106 143 190 237 300 364 436
#     4  12  25  49  76 100 146 195 241 295 369 431
#     4  12  27  48  73 105 147 183 240 310 364 428
#     4  11  25  45  70 103 146 190 237 295 360 428
#     4  12  25  43  70 108 143 190 237 291 368 427
#     4  12  27  48  76 108 141 192 251 292 362 440
#     4  11  25  44  75 101 142 191 241 299 350 431
#
# _framework density 21.729368999999998
#
# number of rings (size 3 to 8) (size 9 to 14) (size 15 to 20)
#    0.000    0.250    5.000    4.125    1.750    3.000 
#    0.000    0.000    0.000    0.000    0.000    0.000 
#    0.000    0.000    0.000    0.000    0.000    0.000 
#
# Total GULP energy -198395.492273 kJ/mol
# GULP energy per Si atom -12399.718267 kJ/mol
# Density = 2.167991 g / cm^3
# Si number density = 21.729369 Si / 1000 Ang^3
#
#
#
# Elastic Constant Matrix: (Units=GPa)
#
#
# Indices 1 2 3 4 5 6 
#
# 1 109.1034 34.7312 35.3910 -8.6527 -10.8654 2.9466
# 2 34.7312 160.8224 52.4863 -2.8328 -5.4276 3.7701
# 3 35.3910 52.4863 131.8383 1.4860 -10.5099 -0.9817
# 4 -8.6527 -2.8328 1.4860 40.5240 -6.0820 -3.5490
# 5 -10.8654 -5.4276 -10.5099 -6.0820 37.2792 2.4199
# 6 2.9466 3.7701 -0.9817 -3.5490 2.4199 36.1170
#
#
#
# Elastic Compliance Matrix: (Units=1/GPa)
#
#
# Indices 1 2 3 4 5 6 
#
# 1 0.010840 -0.001488 -0.002128 0.002649 0.002822 -0.000716
# 2 -0.001488 0.007393 -0.002551 0.000233 0.000007 -0.000697
# 3 -0.002128 -0.002551 0.009302 -0.000705 0.001482 0.000524
# 4 0.002649 0.000233 -0.000705 0.026172 0.004748 0.001994
# 5 0.002822 0.000007 0.001482 0.004748 0.028948 -0.001664
# 6 -0.000716 -0.000697 0.000524 0.001994 -0.001664 0.028141
#
#
# Mechanical properties :
#
#
# Convention : Reuss Voigt Hill
#
# Bulk Modulus (GPa) = 65.78513 71.88678 68.83595
# Shear Modulus (GPa) = 39.00304 41.39440 40.19872
#
# Velocity S-wave (km/s) = 4.24128 4.36936 4.30580
# Velocity P-wave (km/s) = 7.37055 7.65570 7.51448
#
# Compressibility (1/GPa) = 0.01520100
#
# Stress axis : x y z
#
# Youngs Moduli (GPa) = 92.25164 135.27122 107.50643
#
# Poissons Ratio (x) = 0.20127 0.22875
# Poissons Ratio (y) = 0.13726 0.27424
# Poissons Ratio (z) = 0.19629 0.34507
#
# Static dielectric constant tensor:
#      x y z
#    x 3.855660 -0.110460 -0.056230 
#    y -0.110460 4.477430 0.003720 
#    z -0.056230 0.003720 4.166880 
# 
# 
# High freq. dielectric constant tensor:
#      x y z
#    x 1.855520 -0.006350 -0.010380 
#    y -0.006350 1.879840 -0.003420 
#    z -0.010380 -0.003420 1.862600 
# 
# From -- ./inp_files/503806.got.cif
#   From: 2010.06.25/outbox.cif.g09.slc.cpg/sg2_252_cif.got.tgz:503806.got - 2010.06.27 13:26:56.
