data_PCOD8035772
_publ_section_title
;
Structure prediction by ZEFSAII (Michael W. Deem and Ramdas Pophale) SiO2 
 PCOD8035772
Probable space group: P -1
;
_chemical_formula_sum "Si O2"
_cell_formula_units_Z 16
_cell_length_a 13.668543
_cell_length_b 6.072340
_cell_length_c 10.934500
_cell_angle_alpha 60.843578
_cell_angle_beta 63.552527
_cell_angle_gamma 59.473802
_cell_volume 658.664244
_symmetry_space_group_name_H-M "P -1"
_symmetry_group_IT_number 2
_symmetry_cell_setting 'triclinic'
loop_
_space_group_symop_operation_xyz
x,y,z
-x,-y,-z
loop_
_atom_site_type_symbol
_atom_site_label
_atom_site_fract_x
_atom_site_fract_y
_atom_site_fract_z
Si Si1 0.564429 0.831295 0.342958
Si Si2 0.086042 0.969924 0.071583
Si Si3 0.817284 0.610781 0.726057
Si Si4 0.004856 0.706556 0.742093
Si Si5 0.193677 0.960378 0.556260
Si Si6 0.800477 0.860686 0.229244
Si Si7 0.412803 0.585587 0.373758
Si Si8 0.426097 0.398299 0.164161
O O1 0.705239 0.726387 0.296398
O O2 0.519132 0.695091 0.294079
O O3 0.533840 0.725832 0.519275
O O4 0.513706 0.151093 0.261558
O O5 0.025522 0.236848 0.113997
O O6 0.110892 0.710402 0.215668
O O7 0.204608 0.961644 0.939100
O O8 0.000000 0.000000 0.000000
O O9 0.825967 0.726585 0.554504
O O10 0.679865 0.670200 0.821287
O O11 0.876864 0.780322 0.729265
O O12 0.074507 0.388256 0.765818
O O13 0.080362 0.884990 0.607262
O O14 0.217936 0.949895 0.691435
O O15 0.306535 0.766094 0.471527
O O16 0.371123 0.613801 0.247476
O O17 0.500000 0.500000 0.000000
#
# Coordination Sequence:
#
# PCOD8035772 Si02
#       8
#     2   2   2   2   2   2   2   2
#     4  11  25  46  78 106 141 191 244 299 351 430
#     4  12  26  49  69 106 146 189 239 295 354 434
#     4  12  28  47  73 106 150 188 239 301 356 431
#     4  12  26  46  78 103 145 189 244 289 367 417
#     4  12  26  48  73 110 146 188 243 299 360 424
#     4  12  26  46  76 107 144 189 246 296 356 427
#     4  11  26  47  75 107 143 191 246 296 357 422
#     4  12  28  50  73 108 150 189 237 299 365 428
#
# _framework density 24.291588999999998
#
# number of rings (size 3 to 8) (size 9 to 14) (size 15 to 20)
#    0.000    0.250    5.000    2.625    5.250    3.500 
#    0.000    0.000    0.000    0.000    0.000    0.000 
#    0.000    0.000    0.000    0.000    0.000    0.000 
#
# Total GULP energy -198251.144907 kJ/mol
# GULP energy per Si atom -12390.696557 kJ/mol
# Density = 2.423630 g / cm^3
# Si number density = 24.291589 Si / 1000 Ang^3
#
#
#
# Elastic Constant Matrix: (Units=GPa)
#
#
# Indices 1 2 3 4 5 6 
#
# 1 168.2815 28.1948 58.6219 11.5079 -29.3524 14.6903
# 2 28.1948 91.1463 67.5551 9.5802 6.0151 1.3766
# 3 58.6219 67.5551 149.3977 2.9343 -13.7103 14.0963
# 4 11.5079 9.5802 2.9343 47.1512 5.1872 4.5707
# 5 -29.3524 6.0151 -13.7103 5.1872 39.2376 -10.4040
# 6 14.6903 1.3766 14.0963 4.5707 -10.4040 30.5026
#
#
#
# Elastic Compliance Matrix: (Units=1/GPa)
#
#
# Indices 1 2 3 4 5 6 
#
# 1 0.008009 -0.001105 -0.002029 -0.002153 0.005564 -0.000649
# 2 -0.001105 0.018187 -0.008458 -0.002470 -0.005701 0.002046
# 3 -0.002029 -0.008458 0.011864 0.001492 0.002830 -0.003382
# 4 -0.002153 -0.002470 0.001492 0.023154 -0.005024 -0.004724
# 5 0.005564 -0.005701 0.002830 -0.005024 0.034506 0.008792
# 6 -0.000649 0.002046 -0.003382 -0.004724 0.008792 0.038274
#
#
# Mechanical properties :
#
#
# Convention : Reuss Voigt Hill
#
# Bulk Modulus (GPa) = 67.22139 79.72988 73.47564
# Shear Modulus (GPa) = 30.83846 40.34184 35.59015
#
# Velocity S-wave (km/s) = 3.56689 4.07963 3.83184
# Velocity P-wave (km/s) = 6.68553 7.42189 7.06331
#
# Compressibility (1/GPa) = 0.01487622
#
# Stress axis : x y z
#
# Youngs Moduli (GPa) = 124.86466 54.98464 84.29060
#
# Poissons Ratio (x) = 0.06074 0.17101
# Poissons Ratio (y) = 0.13795 0.71293
# Poissons Ratio (z) = 0.25333 0.46506
#
# Static dielectric constant tensor:
#      x y z
#    x 4.564070 0.085750 -0.513160 
#    y 0.085750 4.139580 -0.460680 
#    z -0.513160 -0.460680 6.480370 
# 
# 
# High freq. dielectric constant tensor:
#      x y z
#    x 1.980400 0.007320 -0.012350 
#    y 0.007320 1.948350 -0.015790 
#    z -0.012350 -0.015790 1.969060 
# 
# From -- ./inp_files/441616.got.cif
#   From: 2010.06.25/outbox.cif.g09.slc.cpg/sg2_221_cif.got.tgz:441616.got - 2010.06.27 13:26:56.
