data_PCOD8035314
_publ_section_title
;
Structure prediction by ZEFSAII (Michael W. Deem and Ramdas Pophale) SiO2 
 PCOD8035314
Probable space group: P -1
;
_chemical_formula_sum "Si O2"
_cell_formula_units_Z 16
_cell_length_a 9.411581
_cell_length_b 9.717866
_cell_length_c 15.615395
_cell_angle_alpha 35.862351
_cell_angle_beta 115.870450
_cell_angle_gamma 104.532245
_cell_volume 738.415788
_symmetry_space_group_name_H-M "P -1"
_symmetry_group_IT_number 2
_symmetry_cell_setting 'triclinic'
loop_
_space_group_symop_operation_xyz
x,y,z
-x,-y,-z
loop_
_atom_site_type_symbol
_atom_site_label
_atom_site_fract_x
_atom_site_fract_y
_atom_site_fract_z
Si Si1 0.392868 0.262198 0.830564
Si Si2 0.110259 0.739723 0.158836
Si Si3 0.620479 0.127533 0.216816
Si Si4 0.010131 0.023887 0.589589
Si Si5 0.554857 0.549248 0.857222
Si Si6 0.951315 0.530526 0.373352
Si Si7 0.888076 0.575682 0.850866
Si Si8 0.531215 0.289394 0.682651
O O1 0.434549 0.437429 0.824358
O O2 0.203635 0.256599 0.789899
O O3 0.411467 0.375953 0.685438
O O4 0.500000 0.000000 0.000000
O O5 0.076140 0.606783 0.128552
O O6 0.293603 0.766560 0.200359
O O7 0.085078 0.590154 0.313108
O O8 0.000000 0.000000 0.000000
O O9 0.802913 0.985248 0.334088
O O10 0.552159 0.211576 0.250442
O O11 0.502276 0.959758 0.236803
O O12 0.624221 0.360575 0.043656
O O13 0.925659 0.829488 0.708813
O O14 0.000000 0.000000 0.500000
O O15 0.908097 0.277765 0.463712
O O16 0.701332 0.611336 0.809441
O O17 0.000000 0.500000 0.500000
O O18 0.000000 0.500000 0.000000
O O19 0.500000 0.500000 0.500000
#
# Coordination Sequence:
#
# PCOD8035314 Si02
#       8
#     2   2   2   2   2   2   2   2
#     4  12  24  46  73 102 141 191 243 290 351 441
#     4  12  28  46  73 108 145 189 248 301 357 433
#     4  11  25  44  73 103 142 190 239 298 360 426
#     4  12  25  48  72 103 153 191 238 301 370 438
#     4  11  25  43  71 107 136 187 249 295 355 420
#     4  12  28  46  74 109 145 195 237 294 377 433
#     4  12  27  46  73 107 147 192 248 305 361 432
#     4  12  26  46  70 103 149 184 231 295 366 428
#
# _framework density 21.668009999999999
#
# number of rings (size 3 to 8) (size 9 to 14) (size 15 to 20)
#    0.000    0.250    5.000    3.750    3.500    1.000 
#    0.000    1.875    0.000    0.000    0.000    0.000 
#    0.000    0.000    0.000    0.000    0.000    0.000 
#
# Total GULP energy -198398.938986 kJ/mol
# GULP energy per Si atom -12399.933687 kJ/mol
# Density = 2.161869 g / cm^3
# Si number density = 21.668010 Si / 1000 Ang^3
#
#
#
# Elastic Constant Matrix: (Units=GPa)
#
#
# Indices 1 2 3 4 5 6 
#
# 1 107.4809 39.8131 24.5979 -2.5286 -5.3516 -1.6198
# 2 39.8131 145.3220 29.9247 6.4923 -0.5957 -5.6448
# 3 24.5979 29.9247 90.1327 -3.0754 -8.1310 -2.6498
# 4 -2.5286 6.4923 -3.0754 41.5384 -3.0051 -3.3545
# 5 -5.3516 -0.5957 -8.1310 -3.0051 45.3389 4.4368
# 6 -1.6198 -5.6448 -2.6498 -3.3545 4.4368 42.2602
#
#
#
# Elastic Compliance Matrix: (Units=1/GPa)
#
#
# Indices 1 2 3 4 5 6 
#
# 1 0.010784 -0.002593 -0.001965 0.000979 0.000959 -0.000079
# 2 -0.002593 0.008120 -0.002086 -0.001571 -0.000757 0.000809
# 3 -0.001965 -0.002086 0.012563 0.001311 0.002049 0.000323
# 4 0.000979 -0.001571 0.001311 0.024743 0.001805 0.001684
# 5 0.000959 -0.000757 0.002049 0.001805 0.022861 -0.002193
# 6 -0.000079 0.000809 0.000323 0.001684 -0.002193 0.024152
#
#
# Mechanical properties :
#
#
# Convention : Reuss Voigt Hill
#
# Bulk Modulus (GPa) = 55.00900 59.06744 57.03822
# Shear Modulus (GPa) = 40.79348 42.40081 41.59714
#
# Velocity S-wave (km/s) = 4.34367 4.42842 4.38625
# Velocity P-wave (km/s) = 7.11329 7.31213 7.21340
#
# Compressibility (1/GPa) = 0.01817884
#
# Stress axis : x y z
#
# Youngs Moduli (GPa) = 92.73386 123.15754 79.60124
#
# Poissons Ratio (x) = 0.31931 0.15638
# Poissons Ratio (y) = 0.24043 0.16607
# Poissons Ratio (z) = 0.18218 0.25695
#
# Static dielectric constant tensor:
#      x y z
#    x -1.145520 -2.798100 -4.839660 
#    y -2.798100 2.751450 -2.358860 
#    z -4.839660 -2.358860 -0.383120 
# 
# 
# High freq. dielectric constant tensor:
#      x y z
#    x 1.866170 -0.003660 -0.004350 
#    y -0.003660 1.869430 0.006550 
#    z -0.004350 0.006550 1.855130 
# 
# From -- ./inp_files/205012.got.cif
#   From: 2010.06.25/outbox.cif.g09.slc.cpg/sg2_103_cif.got.tgz:205012.got - 2010.06.27 13:26:56.
