data_PCOD8035858
_publ_section_title
;
Structure prediction by ZEFSAII (Michael W. Deem and Ramdas Pophale) SiO2 
 PCOD8035858
Probable space group: P -1
;
_chemical_formula_sum "Si O2"
_cell_formula_units_Z 14
_cell_length_a 13.183803
_cell_length_b 8.537746
_cell_length_c 4.932476
_cell_angle_alpha 95.565983
_cell_angle_beta 86.642600
_cell_angle_gamma 85.339800
_cell_volume 549.517991
_symmetry_space_group_name_H-M "P -1"
_symmetry_group_IT_number 2
_symmetry_cell_setting 'triclinic'
loop_
_space_group_symop_operation_xyz
x,y,z
-x,-y,-z
loop_
_atom_site_type_symbol
_atom_site_label
_atom_site_fract_x
_atom_site_fract_y
_atom_site_fract_z
Si Si1 0.022322 0.676117 0.573216
Si Si2 0.596518 0.239307 0.332591
Si Si3 0.368654 0.262341 0.355708
Si Si4 0.227103 0.707759 0.297153
Si Si5 0.942711 0.856668 0.101538
Si Si6 0.260823 0.003474 0.047795
Si Si7 0.665705 0.528985 0.107155
O O1 0.144041 0.687471 0.538336
O O2 0.000000 0.500000 0.500000
O O3 0.981374 0.708768 0.885662
O O4 0.967477 0.805684 0.397404
O O5 0.482493 0.210192 0.439680
O O6 0.661262 0.284495 0.589962
O O7 0.591264 0.391931 0.160744
O O8 0.647450 0.079437 0.160240
O O9 0.307388 0.109830 0.290345
O O10 0.308770 0.376774 0.606226
O O11 0.383436 0.347688 0.081756
O O12 0.197032 0.872161 0.176349
O O13 0.231764 0.562047 0.056719
O O14 0.819918 0.892316 0.108858
O O15 0.000000 0.000000 0.000000
#
# Coordination Sequence:
#
# PCOD8035858 Si02
#       7
#     2   2   2   2   2   2   2
#     4  12  29  50  77 111 146 189 248 309 372 435
#     4  11  25  47  75 104 153 192 241 298 367 433
#     4  12  27  45  73 110 145 193 246 300 356 435
#     4  11  26  48  75 105 150 195 240 303 373 435
#     4  12  26  51  77 107 148 192 246 303 370 442
#     4  11  28  45  74 109 148 194 243 299 368 439
#     4  11  26  46  71 106 147 194 244 297 363 429
#
# _framework density 25.476873999999999
#
# number of rings (size 3 to 8) (size 9 to 14) (size 15 to 20)
#    0.000    0.571    2.857    3.000   12.000    1.714 
#    0.000    0.000    0.000    0.000    0.000    0.000 
#    0.000    0.000    0.000    0.000    0.000    0.000 
#
# Total GULP energy -173618.682409 kJ/mol
# GULP energy per Si atom -12401.334458 kJ/mol
# Density = 2.541889 g / cm^3
# Si number density = 25.476874 Si / 1000 Ang^3
#
#
#
# Elastic Constant Matrix: (Units=GPa)
#
#
# Indices 1 2 3 4 5 6 
#
# 1 90.7627 21.7591 5.8588 12.0918 1.8218 -1.3422
# 2 21.7591 93.8429 19.8539 33.6737 -7.1172 -3.1398
# 3 5.8588 19.8539 105.8429 27.8341 -0.3402 -2.8862
# 4 12.0918 33.6737 27.8341 55.5477 -4.0186 4.1668
# 5 1.8218 -7.1172 -0.3402 -4.0186 29.4717 4.3046
# 6 -1.3422 -3.1398 -2.8862 4.1668 4.3046 20.2240
#
#
#
# Elastic Compliance Matrix: (Units=1/GPa)
#
#
# Indices 1 2 3 4 5 6 
#
# 1 0.011810 -0.002349 0.000191 -0.001444 -0.001652 0.001096
# 2 -0.002349 0.014478 -0.000333 -0.008199 0.002038 0.003300
# 3 0.000191 -0.000333 0.011075 -0.005697 -0.001174 0.002965
# 4 -0.001444 -0.008199 -0.005697 0.026982 0.002945 -0.008368
# 5 -0.001652 0.002038 -0.001174 0.002945 0.036119 -0.008255
# 6 0.001096 0.003300 0.002965 -0.008368 -0.008255 0.053936
#
#
# Mechanical properties :
#
#
# Convention : Reuss Voigt Hill
#
# Bulk Modulus (GPa) = 30.88208 42.82134 36.85171
# Shear Modulus (GPa) = 29.38130 37.24712 33.31421
#
# Velocity S-wave (km/s) = 3.39964 3.82776 3.62003
# Velocity P-wave (km/s) = 5.24957 6.03159 5.65412
#
# Compressibility (1/GPa) = 0.03238124
#
# Stress axis : x y z
#
# Youngs Moduli (GPa) = 84.67124 69.06944 90.29332
#
# Poissons Ratio (x) = 0.16226 -0.01727
# Poissons Ratio (y) = 0.19892 0.03009
# Poissons Ratio (z) = -0.01620 0.02301
#
# Static dielectric constant tensor:
#      x y z
#    x 4.308640 -0.154050 0.033540 
#    y -0.154050 4.742350 0.099060 
#    z 0.033540 0.099060 4.613300 
# 
# 
# High freq. dielectric constant tensor:
#      x y z
#    x 2.002420 -0.010530 -0.000310 
#    y -0.010530 2.028570 0.007750 
#    z -0.000310 0.007750 2.023380 
# 
# From -- ./inp_files/60914.got.cif
#   From: 2010.06.25/outbox.cif.g09.slc.cpg/sg2_31_cif.got.tgz:60914.got - 2010.06.27 13:26:56.
