data_PCOD8035890
_publ_section_title
;
Structure prediction by ZEFSAII (Michael W. Deem and Ramdas Pophale) SiO2 
 PCOD8035890
Probable space group: P -1
;
_chemical_formula_sum "Si O2"
_cell_formula_units_Z 12
_cell_length_a 9.405019
_cell_length_b 11.969719
_cell_length_c 14.459308
_cell_angle_alpha 46.409227
_cell_angle_beta 29.287159
_cell_angle_gamma 38.010532
_cell_volume 490.340035
_symmetry_space_group_name_H-M "P -1"
_symmetry_group_IT_number 2
_symmetry_cell_setting 'triclinic'
loop_
_space_group_symop_operation_xyz
x,y,z
-x,-y,-z
loop_
_atom_site_type_symbol
_atom_site_label
_atom_site_fract_x
_atom_site_fract_y
_atom_site_fract_z
Si Si1 0.086459 0.939017 0.766620
Si Si2 0.260805 0.701319 0.136225
Si Si3 0.465960 0.201302 0.234424
Si Si4 0.696077 0.076811 0.556657
Si Si5 0.210084 0.439009 0.558787
Si Si6 0.792499 0.423192 0.113878
O O1 0.422965 0.846991 0.694308
O O2 0.172889 0.964417 0.599651
O O3 0.961313 0.794106 0.918473
O O4 0.804537 0.134028 0.854098
O O5 0.634266 0.528987 0.047375
O O6 0.969676 0.653066 0.341542
O O7 0.284343 0.750060 0.988589
O O8 0.073739 0.366041 0.353007
O O9 0.502391 0.029030 0.257920
O O10 0.439432 0.294107 0.592521
O O11 0.000000 0.000000 0.500000
O O12 0.461971 0.464504 0.336668
O O13 0.000000 0.500000 0.000000
#
# Coordination Sequence:
#
# PCOD8035890 Si02
#       6
#     2   2   2   2   2   2
#     4  11  25  47  78 103 146 196 246 303 361 438
#     4  12  25  45  76 112 144 193 253 299 359 443
#     4  12  25  45  76 112 144 193 253 299 359 443
#     4  11  27  46  71 110 148 190 249 303 376 429
#     4  11  25  47  78 103 146 196 246 303 361 438
#     4  11  27  46  71 110 148 190 249 303 376 429
#
# _framework density 24.472812000000001
#
# number of rings (size 3 to 8) (size 9 to 14) (size 15 to 20)
#    0.000    0.667    3.333    3.000    9.333    1.333 
#    6.000    0.000    0.000    0.000    0.000    0.000 
#    0.000    0.000    0.000    0.000    0.000    0.000 
#
# Total GULP energy -148756.164754 kJ/mol
# GULP energy per Si atom -12396.347063 kJ/mol
# Density = 2.441711 g / cm^3
# Si number density = 24.472812 Si / 1000 Ang^3
#
#
#
# Elastic Constant Matrix: (Units=GPa)
#
#
# Indices 1 2 3 4 5 6 
#
# 1 121.7361 18.8631 50.8251 -18.9579 -18.1970 -23.9239
# 2 18.8631 126.4150 19.4886 -10.2634 0.3300 -5.4967
# 3 50.8251 19.4886 94.0450 -23.2682 -2.3191 1.5603
# 4 -18.9579 -10.2634 -23.2682 37.0047 9.2403 -5.8104
# 5 -18.1970 0.3300 -2.3191 9.2403 34.9728 -4.3742
# 6 -23.9239 -5.4967 1.5603 -5.8104 -4.3742 44.5722
#
#
#
# Elastic Compliance Matrix: (Units=1/GPa)
#
#
# Indices 1 2 3 4 5 6 
#
# 1 0.014561 -0.000507 -0.007146 0.002345 0.007620 0.009057
# 2 -0.000507 0.008332 -0.001062 0.001719 -0.000749 0.000943
# 3 -0.007146 -0.001062 0.016377 0.006936 -0.004971 -0.004124
# 4 0.002345 0.001719 0.006936 0.035651 -0.007108 0.005178
# 5 0.007620 -0.000749 -0.004971 -0.007108 0.034949 0.006675
# 6 0.009057 0.000943 -0.004124 0.005178 0.006675 0.028887
#
#
# Mechanical properties :
#
#
# Convention : Reuss Voigt Hill
#
# Bulk Modulus (GPa) = 45.78579 57.83885 51.81232
# Shear Modulus (GPa) = 30.58726 40.17789 35.38258
#
# Velocity S-wave (km/s) = 3.53915 4.05623 3.80648
# Velocity P-wave (km/s) = 5.95401 6.75445 6.36682
#
# Compressibility (1/GPa) = 0.02184084
#
# Stress axis : x y z
#
# Youngs Moduli (GPa) = 68.67838 120.01545 61.06047
#
# Poissons Ratio (x) = 0.06081 0.43635
# Poissons Ratio (y) = 0.03480 0.06482
# Poissons Ratio (z) = 0.49079 0.12741
#
# Static dielectric constant tensor:
#      x y z
#    x 4.173150 -0.164390 -0.001900 
#    y -0.164390 5.194620 -0.302020 
#    z -0.001900 -0.302020 4.168570 
# 
# 
# High freq. dielectric constant tensor:
#      x y z
#    x 1.952120 -0.010670 0.004320 
#    y -0.010670 2.006940 -0.019650 
#    z 0.004320 -0.019650 1.957800 
# 
# From -- ./inp_files/172268.got.cif
#   From: 2010.06.25/outbox.cif.g09.slc.cpg/sg2_87_cif.got.tgz:172268.got - 2010.06.27 13:26:56.
