data_PCOD8035038
_publ_section_title
;
Structure prediction by ZEFSAII (Michael W. Deem and Ramdas Pophale) SiO2 
 PCOD8035038
Probable space group: P -1
;
_chemical_formula_sum "Si O2"
_cell_formula_units_Z 16
_cell_length_a 8.760915
_cell_length_b 15.580038
_cell_length_c 9.294283
_cell_angle_alpha 35.467475
_cell_angle_beta 111.110082
_cell_angle_gamma 111.946690
_cell_volume 679.089242
_symmetry_space_group_name_H-M "P -1"
_symmetry_group_IT_number 2
_symmetry_cell_setting 'triclinic'
loop_
_space_group_symop_operation_xyz
x,y,z
-x,-y,-z
loop_
_atom_site_type_symbol
_atom_site_label
_atom_site_fract_x
_atom_site_fract_y
_atom_site_fract_z
Si Si1 0.245560 0.186328 0.161348
Si Si2 0.518197 0.650981 0.455202
Si Si3 0.179363 0.511652 0.611650
Si Si4 0.667711 0.888954 0.392178
Si Si5 0.091388 0.635334 0.682470
Si Si6 0.473172 0.831606 0.932908
Si Si7 0.015657 0.044747 0.776985
Si Si8 0.767402 0.425119 0.891831
O O1 0.243726 0.159724 0.368035
O O2 0.419357 0.155733 0.193802
O O3 0.213133 0.353380 0.897723
O O4 0.101619 0.073390 0.194660
O O5 0.325469 0.580804 0.459287
O O6 0.549064 0.747799 0.478632
O O7 0.616608 0.513058 0.687802
O O8 0.572914 0.751100 0.197014
O O9 0.199025 0.636613 0.573944
O O10 0.000000 0.500000 0.500000
O O11 0.800714 0.952241 0.228395
O O12 0.549750 0.008795 0.229615
O O13 0.033166 0.791582 0.485660
O O14 0.934446 0.508488 0.764138
O O15 0.201376 0.582202 0.918026
O O16 0.289594 0.742223 0.959143
O O17 0.000000 0.000000 0.000000
#
# Coordination Sequence:
#
# PCOD8035038 Si02
#       8
#     2   2   2   2   2   2   2   2
#     4  12  28  47  74 107 148 191 243 299 360 431
#     4  12  26  48  75 104 147 188 245 300 357 429
#     4  12  28  45  74 109 144 189 242 298 366 429
#     4  12  28  49  75 105 146 195 243 293 365 430
#     4  11  26  44  74 107 144 189 241 294 367 426
#     4  12  27  46  75 105 147 192 241 298 361 426
#     4  12  27  48  74 106 151 192 241 299 359 433
#     4  11  24  47  74 104 145 190 237 303 359 427
#
# _framework density 23.560967000000002
#
# number of rings (size 3 to 8) (size 9 to 14) (size 15 to 20)
#    0.000    0.250    2.500    5.250   12.250    1.000 
#    0.000    0.000    0.000    0.000    0.000    0.000 
#    0.000    0.000    0.000    0.000    0.000    0.000 
#
# Total GULP energy -198448.212300 kJ/mol
# GULP energy per Si atom -12403.013269 kJ/mol
# Density = 2.350734 g / cm^3
# Si number density = 23.560967 Si / 1000 Ang^3
#
#
#
# Elastic Constant Matrix: (Units=GPa)
#
#
# Indices 1 2 3 4 5 6 
#
# 1 77.6987 20.8469 39.3922 20.4407 1.0179 -9.3970
# 2 20.8469 108.7485 5.4323 -2.3528 -8.8413 1.2597
# 3 39.3922 5.4323 77.9738 13.6944 -7.0941 -6.6995
# 4 20.4407 -2.3528 13.6944 35.3729 -9.3579 3.6683
# 5 1.0179 -8.8413 -7.0941 -9.3579 33.4270 -2.2730
# 6 -9.3970 1.2597 -6.6995 3.6683 -2.2730 45.4311
#
#
#
# Elastic Compliance Matrix: (Units=1/GPa)
#
#
# Indices 1 2 3 4 5 6 
#
# 1 0.022591 -0.004746 -0.009252 -0.012064 -0.007008 0.004064
# 2 -0.004746 0.010499 0.001207 0.004233 0.004279 -0.001222
# 3 -0.009252 0.001207 0.017978 -0.000483 0.004347 0.000960
# 4 -0.012064 0.004233 -0.000483 0.039449 0.012070 -0.005265
# 5 -0.007008 0.004279 0.004347 0.012070 0.035554 -0.000123
# 6 0.004064 -0.001222 0.000960 -0.005265 -0.000123 0.023446
#
#
# Mechanical properties :
#
#
# Convention : Reuss Voigt Hill
#
# Bulk Modulus (GPa) = 39.23799 43.97376 41.60588
# Shear Modulus (GPa) = 27.23389 36.09617 31.66503
#
# Velocity S-wave (km/s) = 3.40353 3.91837 3.66999
# Velocity P-wave (km/s) = 5.66880 6.25906 5.97123
#
# Compressibility (1/GPa) = 0.02548551
#
# Stress axis : x y z
#
# Youngs Moduli (GPa) = 44.26473 95.24951 55.62465
#
# Poissons Ratio (x) = 0.45209 0.51465
# Poissons Ratio (y) = 0.21010 -0.06716
# Poissons Ratio (z) = 0.40954 -0.11500
#
# Static dielectric constant tensor:
#      x y z
#    x 4.167540 -0.431300 0.075650 
#    y -0.431300 3.337560 0.664020 
#    z 0.075650 0.664020 3.934980 
# 
# 
# High freq. dielectric constant tensor:
#      x y z
#    x 1.933160 -0.001010 -0.002590 
#    y -0.001010 1.958220 0.002830 
#    z -0.002590 0.002830 1.940590 
# 
# From -- ./inp_files/205414.got.cif
#   From: 2010.06.25/outbox.cif.g09.slc.cpg/sg2_103_cif.got.tgz:205414.got - 2010.06.27 13:26:56.
