data_PCOD8035132
_publ_section_title
;
Structure prediction by ZEFSAII (Michael W. Deem and Ramdas Pophale) SiO2 
 PCOD8035132
Probable space group: P -1
;
_chemical_formula_sum "Si O2"
_cell_formula_units_Z 16
_cell_length_a 8.405049
_cell_length_b 9.062340
_cell_length_c 11.515139
_cell_angle_alpha 90.148492
_cell_angle_beta 54.038358
_cell_angle_gamma 100.434409
_cell_volume 692.237418
_symmetry_space_group_name_H-M "P -1"
_symmetry_group_IT_number 2
_symmetry_cell_setting 'triclinic'
loop_
_space_group_symop_operation_xyz
x,y,z
-x,-y,-z
loop_
_atom_site_type_symbol
_atom_site_label
_atom_site_fract_x
_atom_site_fract_y
_atom_site_fract_z
Si Si1 0.289176 0.142687 0.607216
Si Si2 0.906056 0.088082 0.634352
Si Si3 0.334969 0.547363 0.991143
Si Si4 0.818235 0.369079 0.542938
Si Si5 0.111044 0.581527 0.742343
Si Si6 0.352994 0.867730 0.708337
Si Si7 0.485817 0.097719 0.119110
Si Si8 0.611363 0.596192 0.270192
O O1 0.455316 0.185433 0.433137
O O2 0.343316 0.230629 0.705957
O O3 0.075589 0.167920 0.652986
O O4 0.270078 0.970059 0.651684
O O5 0.800387 0.217570 0.627590
O O6 0.752101 0.948497 0.759233
O O7 0.000000 0.000000 0.500000
O O8 0.421423 0.724924 0.935116
O O9 0.299651 0.443542 0.890864
O O10 0.500000 0.500000 0.000000
O O11 0.115378 0.517827 0.145713
O O12 0.855326 0.330437 0.394108
O O13 0.629318 0.448597 0.638396
O O14 0.000000 0.500000 0.500000
O O15 0.174699 0.718102 0.808644
O O16 0.280546 0.482123 0.676585
O O17 0.410182 0.949610 0.808309
O O18 0.500000 0.000000 0.000000
#
# Coordination Sequence:
#
# PCOD8035132 Si02
#       8
#     2   2   2   2   2   2   2   2
#     4  11  25  44  78 112 147 193 249 319 373 444
#     4  12  27  48  77 110 152 198 252 310 382 441
#     4  12  31  50  74 107 158 203 250 311 383 453
#     4  12  27  43  78 114 151 192 254 314 376 449
#     4  12  26  48  76 107 153 200 249 310 380 446
#     4  11  24  48  73 110 152 191 252 308 377 443
#     4  12  30  50  75 104 155 202 251 308 374 460
#     4  12  26  48  75 111 149 200 256 311 374 454
#
# _framework density 23.113457
#
# number of rings (size 3 to 8) (size 9 to 14) (size 15 to 20)
#    0.000    0.250    3.750    3.750   14.000    0.000 
#    0.000    1.250    0.000    0.000    0.000    0.000 
#    0.000    0.000    0.000    0.000    0.000    0.000 
#
# Total GULP energy -198267.697218 kJ/mol
# GULP energy per Si atom -12391.731076 kJ/mol
# Density = 2.306085 g / cm^3
# Si number density = 23.113457 Si / 1000 Ang^3
#
#
#
# Elastic Constant Matrix: (Units=GPa)
#
#
# Indices 1 2 3 4 5 6 
#
# 1 159.4000 47.4199 48.1025 -7.1998 -14.4815 -3.7923
# 2 47.4199 108.4486 48.1838 -5.6350 -8.1489 8.6042
# 3 48.1025 48.1838 110.4423 -3.0175 -8.5624 -1.9086
# 4 -7.1998 -5.6350 -3.0175 42.6501 13.7080 2.6758
# 5 -14.4815 -8.1489 -8.5624 13.7080 45.6442 3.5521
# 6 -3.7923 8.6042 -1.9086 2.6758 3.5521 37.7580
#
#
#
# Elastic Compliance Matrix: (Units=1/GPa)
#
#
# Indices 1 2 3 4 5 6 
#
# 1 0.007829 -0.002392 -0.002226 0.000311 0.001463 0.001059
# 2 -0.002392 0.012616 -0.004446 0.000960 0.000641 -0.003468
# 3 -0.002226 -0.004446 0.012036 -0.000450 0.000787 0.001356
# 4 0.000311 0.000960 -0.000450 0.026105 -0.007549 -0.001350
# 5 0.001463 0.000641 0.000787 -0.007549 0.025041 -0.001780
# 6 0.001059 -0.003468 0.001356 -0.001350 -0.001780 0.027713
#
#
# Mechanical properties :
#
#
# Convention : Reuss Voigt Hill
#
# Bulk Modulus (GPa) = 69.67616 73.96706 71.82161
# Shear Modulus (GPa) = 37.24347 40.84945 39.04646
#
# Velocity S-wave (km/s) = 4.01850 4.20854 4.11462
# Velocity P-wave (km/s) = 7.19318 7.46237 7.32901
#
# Compressibility (1/GPa) = 0.01435211
#
# Stress axis : x y z
#
# Youngs Moduli (GPa) = 127.72788 79.26734 83.08470
#
# Poissons Ratio (x) = 0.18963 0.18495
# Poissons Ratio (y) = 0.30556 0.36940
# Poissons Ratio (z) = 0.28432 0.35242
#
# Static dielectric constant tensor:
#      x y z
#    x 9.175610 -0.189010 2.657060 
#    y -0.189010 4.538680 -0.234910 
#    z 2.657060 -0.234910 5.538630 
# 
# 
# High freq. dielectric constant tensor:
#      x y z
#    x 1.936640 0.015020 0.005690 
#    y 0.015020 1.920560 -0.002120 
#    z 0.005690 -0.002120 1.901110 
# 
# From -- ./inp_files/382222.got.cif
#   From: 2010.06.25/outbox.cif.g09.slc.cpg/sg2_192_cif.got.tgz:382222.got - 2010.06.27 13:26:56.
