data_PCOD8035819
_publ_section_title
;
Structure prediction by ZEFSAII (Michael W. Deem and Ramdas Pophale) SiO2 
 PCOD8035819
Probable space group: P -1
;
_chemical_formula_sum "Si O2"
_cell_formula_units_Z 16
_cell_length_a 12.189895
_cell_length_b 13.021091
_cell_length_c 11.504029
_cell_angle_alpha 138.926759
_cell_angle_beta 101.982939
_cell_angle_gamma 110.149977
_cell_volume 735.110262
_symmetry_space_group_name_H-M "P -1"
_symmetry_group_IT_number 2
_symmetry_cell_setting 'triclinic'
loop_
_space_group_symop_operation_xyz
x,y,z
-x,-y,-z
loop_
_atom_site_type_symbol
_atom_site_label
_atom_site_fract_x
_atom_site_fract_y
_atom_site_fract_z
Si Si1 0.612888 0.020924 0.891193
Si Si2 0.191895 0.204817 0.418789
Si Si3 0.303118 0.596634 0.615205
Si Si4 0.931602 0.035962 0.411690
Si Si5 0.451316 0.502287 0.120281
Si Si6 0.562805 0.161075 0.540606
Si Si7 0.040531 0.730325 0.883518
Si Si8 0.076264 0.610022 0.236011
O O1 0.461028 0.750208 0.687138
O O2 0.587198 0.998842 0.728012
O O3 0.625564 0.209843 0.104301
O O4 0.796390 0.128376 0.047004
O O5 0.248986 0.372736 0.466184
O O6 0.375596 0.340847 0.629323
O O7 0.071090 0.171919 0.453121
O O8 0.063086 0.926575 0.109811
O O9 0.136155 0.484386 0.413717
O O10 0.925576 0.207943 0.593345
O O11 0.000000 0.000000 0.500000
O O12 0.726521 0.776680 0.109657
O O13 0.396422 0.623302 0.217202
O O14 0.500000 0.500000 0.000000
O O15 0.729745 0.257801 0.599589
O O16 0.500000 0.000000 0.500000
O O17 0.045837 0.606349 0.880034
O O18 0.000000 0.500000 0.000000
#
# Coordination Sequence:
#
# PCOD8035819 Si02
#       8
#     2   2   2   2   2   2   2   2
#     4  11  25  47  72 105 142 188 243 297 353 428
#     4  12  27  45  72 105 146 192 240 296 361 428
#     4  11  27  46  72 102 147 190 246 295 351 433
#     4  12  26  46  71 106 147 187 237 295 366 433
#     4  12  26  45  72 108 151 187 236 298 360 435
#     4  12  25  45  74 108 146 187 237 297 363 429
#     4  12  24  48  72 103 143 187 246 294 359 423
#     4  12  26  44  73 107 145 188 238 301 362 432
#
# _framework density 21.765443000000001
#
# number of rings (size 3 to 8) (size 9 to 14) (size 15 to 20)
#    0.000    0.250    3.750    5.250    3.500    1.500 
#    0.000    0.000    0.000    0.000    0.000    0.000 
#    0.000    0.000    0.000    0.000    0.000    0.000 
#
# Total GULP energy -198452.300624 kJ/mol
# GULP energy per Si atom -12403.268789 kJ/mol
# Density = 2.171590 g / cm^3
# Si number density = 21.765443 Si / 1000 Ang^3
#
#
#
# Elastic Constant Matrix: (Units=GPa)
#
#
# Indices 1 2 3 4 5 6 
#
# 1 148.2925 41.8757 44.0022 21.3054 -1.4104 3.3800
# 2 41.8757 141.4826 52.7444 15.6539 -4.4551 -0.2640
# 3 44.0022 52.7444 117.9840 18.4391 -5.7931 -0.3272
# 4 21.3054 15.6539 18.4391 34.0201 -0.2490 -3.6405
# 5 -1.4104 -4.4551 -5.7931 -0.2490 53.0316 15.0172
# 6 3.3800 -0.2640 -0.3272 -3.6405 15.0172 30.4076
#
#
#
# Elastic Compliance Matrix: (Units=1/GPa)
#
#
# Indices 1 2 3 4 5 6 
#
# 1 0.008248 -0.001318 -0.001898 -0.003694 0.000323 -0.001550
# 2 -0.001318 0.008832 -0.003199 -0.001522 0.000405 -0.000194
# 3 -0.001898 -0.003199 0.011208 -0.003474 0.001070 -0.000641
# 4 -0.003694 -0.001522 -0.003474 0.034868 -0.002007 0.005525
# 5 0.000323 0.000405 0.001070 -0.002007 0.022183 -0.011217
# 6 -0.001550 -0.000194 -0.000641 0.005525 -0.011217 0.039251
#
#
# Mechanical properties :
#
#
# Convention : Reuss Voigt Hill
#
# Bulk Modulus (GPa) = 64.69709 76.11151 70.40430
# Shear Modulus (GPa) = 35.07003 41.43431 38.25217
#
# Velocity S-wave (km/s) = 4.01842 4.36784 4.19677
# Velocity P-wave (km/s) = 7.16376 7.77704 7.47669
#
# Compressibility (1/GPa) = 0.01545664
#
# Stress axis : x y z
#
# Youngs Moduli (GPa) = 121.24404 113.23045 89.22406
#
# Poissons Ratio (x) = 0.14919 0.16936
# Poissons Ratio (y) = 0.15975 0.28547
# Poissons Ratio (z) = 0.23014 0.36228
#
# Static dielectric constant tensor:
#      x y z
#    x 4.129400 -0.175400 0.058880 
#    y -0.175400 4.290710 0.039090 
#    z 0.058880 0.039090 4.032560 
# 
# 
# High freq. dielectric constant tensor:
#      x y z
#    x 1.871920 0.006800 0.005720 
#    y 0.006800 1.857500 0.004390 
#    z 0.005720 0.004390 1.873140 
# 
# From -- ./inp_files/429116.got.cif
#   From: 2010.06.25/outbox.cif.g09.slc.cpg/sg2_215_cif.got.tgz:429116.got - 2010.06.27 13:26:56.
