data_PCOD8035988
_publ_section_title
;
Structure prediction by ZEFSAII (Michael W. Deem and Ramdas Pophale) SiO2 
 PCOD8035988
Probable space group: P -1
;
_chemical_formula_sum "Si O2"
_cell_formula_units_Z 12
_cell_length_a 8.468026
_cell_length_b 8.282405
_cell_length_c 14.907974
_cell_angle_alpha 50.215165
_cell_angle_beta 141.105712
_cell_angle_gamma 127.987120
_cell_volume 489.320433
_symmetry_space_group_name_H-M "P -1"
_symmetry_group_IT_number 2
_symmetry_cell_setting 'triclinic'
loop_
_space_group_symop_operation_xyz
x,y,z
-x,-y,-z
loop_
_atom_site_type_symbol
_atom_site_label
_atom_site_fract_x
_atom_site_fract_y
_atom_site_fract_z
Si Si1 0.674357 0.397754 0.551109
Si Si2 0.714503 0.350270 0.947141
Si Si3 0.230129 0.987743 0.171422
Si Si4 0.505945 0.728647 0.670180
Si Si5 0.588420 0.034750 0.155165
Si Si6 0.996950 0.160609 0.523557
O O1 0.500000 0.500000 0.500000
O O2 0.810976 0.256497 0.725490
O O3 0.492738 0.257244 0.442811
O O4 0.893626 0.586298 0.538454
O O5 0.494960 0.480734 0.780997
O O6 0.658904 0.130013 0.941966
O O7 0.000000 0.500000 0.000000
O O8 0.676348 0.269443 0.062386
O O9 0.500712 0.068507 0.206435
O O10 0.239048 0.134759 0.212748
O O11 0.000000 0.000000 0.000000
O O12 0.283772 0.844465 0.561378
O O13 0.828794 0.921469 0.296106
O O14 0.000000 0.000000 0.500000
#
# Coordination Sequence:
#
# PCOD8035988 Si02
#       6
#     2   2   2   2   2   2
#     4  12  25  48  76 109 152 194 261 313 382 458
#     4  11  26  47  76 109 151 203 254 316 387 459
#     4  12  27  46  72 114 152 199 256 314 383 462
#     4  12  26  47  78 111 147 209 254 312 391 453
#     4  11  25  49  71 109 158 195 254 321 381 452
#     4  12  25  47  73 107 149 199 255 319 375 455
#
# _framework density 24.523807000000001
#
# number of rings (size 3 to 8) (size 9 to 14) (size 15 to 20)
#    0.000    0.333    5.000    2.000    2.333    8.667 
#    0.000    0.000    0.000    0.000    0.000    0.000 
#    0.000    0.000    0.000    0.000    0.000    0.000 
#
# Total GULP energy -148740.724149 kJ/mol
# GULP energy per Si atom -12395.060346 kJ/mol
# Density = 2.446799 g / cm^3
# Si number density = 24.523807 Si / 1000 Ang^3
#
#
#
# Elastic Constant Matrix: (Units=GPa)
#
#
# Indices 1 2 3 4 5 6 
#
# 1 106.6251 41.5993 55.9621 -0.6397 -9.2988 -19.0089
# 2 41.5993 110.6996 59.7707 1.9307 -11.0323 -3.4107
# 3 55.9621 59.7707 199.8279 -20.2025 -12.2411 -0.5074
# 4 -0.6397 1.9307 -20.2025 57.6478 0.2666 -12.6644
# 5 -9.2988 -11.0323 -12.2411 0.2666 37.6895 -0.7968
# 6 -19.0089 -3.4107 -0.5074 -12.6644 -0.7968 44.6576
#
#
#
# Elastic Compliance Matrix: (Units=1/GPa)
#
#
# Indices 1 2 3 4 5 6 
#
# 1 0.013087 -0.003236 -0.002530 0.000564 0.001572 0.005483
# 2 -0.003236 0.011887 -0.002703 -0.001591 0.001795 -0.000920
# 3 -0.002530 -0.002703 0.006802 0.002326 0.000766 -0.000533
# 4 0.000564 -0.001591 0.002326 0.019466 0.000411 0.005673
# 5 0.001572 0.001795 0.000766 0.000411 0.027722 0.001426
# 6 0.005483 -0.000920 -0.000533 0.005673 0.001426 0.026284
#
#
# Mechanical properties :
#
#
# Convention : Reuss Voigt Hill
#
# Bulk Modulus (GPa) = 67.39086 81.31299 74.35192
# Shear Modulus (GPa) = 39.32958 45.32036 42.32497
#
# Velocity S-wave (km/s) = 4.00900 4.30352 4.15887
# Velocity P-wave (km/s) = 6.99778 7.61068 7.31065
#
# Compressibility (1/GPa) = 0.01483881
#
# Stress axis : x y z
#
# Youngs Moduli (GPa) = 76.41220 84.12483 147.01962
#
# Poissons Ratio (x) = 0.27225 0.37192
# Poissons Ratio (y) = 0.24729 0.39732
# Poissons Ratio (z) = 0.19330 0.22735
#
# Static dielectric constant tensor:
#      x y z
#    x 4.360390 -0.369190 -0.104960 
#    y -0.369190 4.040480 0.045220 
#    z -0.104960 0.045220 4.430850 
# 
# 
# High freq. dielectric constant tensor:
#      x y z
#    x 1.962170 -0.014320 -0.004120 
#    y -0.014320 1.978840 -0.006190 
#    z -0.004120 -0.006190 1.999180 
# 
# From -- ./inp_files/492196.got.cif
#   From: 2010.06.25/outbox.cif.g09.slc.cpg/sg2_247_cif.got.tgz:492196.got - 2010.06.27 13:26:56.
