data_PCOD8035722
_publ_section_title
;
Structure prediction by ZEFSAII (Michael W. Deem and Ramdas Pophale) SiO2 
 PCOD8035722
Probable space group: P -1
;
_chemical_formula_sum "Si O2"
_cell_formula_units_Z 16
_cell_length_a 15.497362
_cell_length_b 11.026966
_cell_length_c 9.079598
_cell_angle_alpha 82.612589
_cell_angle_beta 28.332226
_cell_angle_gamma 75.747602
_cell_volume 700.479177
_symmetry_space_group_name_H-M "P -1"
_symmetry_group_IT_number 2
_symmetry_cell_setting 'triclinic'
loop_
_space_group_symop_operation_xyz
x,y,z
-x,-y,-z
loop_
_atom_site_type_symbol
_atom_site_label
_atom_site_fract_x
_atom_site_fract_y
_atom_site_fract_z
Si Si1 0.811725 0.699964 0.291500
Si Si2 0.380956 0.466401 0.817403
Si Si3 0.954092 0.526128 0.854570
Si Si4 0.192393 0.023513 0.146023
Si Si5 0.820670 0.981763 0.184118
Si Si6 0.546398 0.187660 0.021976
Si Si7 0.550430 0.824501 0.159287
Si Si8 0.321066 0.591771 0.183130
O O1 0.824492 0.841868 0.247996
O O2 0.625350 0.703433 0.663611
O O3 0.995312 0.604056 0.106714
O O4 0.808025 0.642905 0.143310
O O5 0.500000 0.500000 0.500000
O O6 0.456593 0.320228 0.782225
O O7 0.160258 0.496417 0.109259
O O8 0.367807 0.571779 0.944290
O O9 0.136172 0.561134 0.521484
O O10 0.172906 0.007757 0.003725
O O11 0.248022 0.154226 0.087323
O O12 0.000000 0.000000 0.500000
O O13 0.375284 0.925244 0.962015
O O14 0.627693 0.084136 0.503603
O O15 0.000000 0.000000 0.000000
O O16 0.477915 0.142314 0.977733
O O17 0.707130 0.261307 0.747849
O O18 0.500000 0.500000 0.000000
#
# Coordination Sequence:
#
# PCOD8035722 Si02
#       8
#     2   2   2   2   2   2   2   2
#     4  11  25  46  74 105 147 188 248 297 367 421
#     4  12  28  46  75 111 149 193 250 302 370 440
#     4  11  26  45  76 106 149 197 243 302 361 438
#     4  12  29  49  75 110 146 198 248 305 373 443
#     4  12  29  47  75 108 147 190 244 307 374 441
#     4  12  26  48  77 104 152 198 248 305 369 439
#     4  12  27  50  76 108 152 196 247 307 372 442
#     4  12  25  47  71 108 145 192 243 303 364 434
#
# _framework density 22.841505999999999
#
# number of rings (size 3 to 8) (size 9 to 14) (size 15 to 20)
#    0.000    0.250    3.750    3.375   14.000    0.000 
#    0.000    0.000    0.000    0.000    0.000    0.000 
#    0.000    0.000    0.000    0.000    0.000    0.000 
#
# Total GULP energy -198293.686344 kJ/mol
# GULP energy per Si atom -12393.355396 kJ/mol
# Density = 2.278952 g / cm^3
# Si number density = 22.841506 Si / 1000 Ang^3
#
#
#
# Elastic Constant Matrix: (Units=GPa)
#
#
# Indices 1 2 3 4 5 6 
#
# 1 174.9194 20.5964 48.4383 -11.6452 7.3509 6.8106
# 2 20.5964 92.9515 7.4157 -7.6720 0.3417 2.1824
# 3 48.4383 7.4157 121.6254 -10.6409 9.4960 9.8053
# 4 -11.6452 -7.6720 -10.6409 34.3034 2.7938 1.5075
# 5 7.3509 0.3417 9.4960 2.7938 42.6827 -2.0204
# 6 6.8106 2.1824 9.8053 1.5075 -2.0204 32.3699
#
#
#
# Elastic Compliance Matrix: (Units=1/GPa)
#
#
# Indices 1 2 3 4 5 6 
#
# 1 0.006652 -0.001155 -0.002344 0.001365 -0.000738 -0.000721
# 2 -0.001155 0.011205 0.000020 0.002153 -0.000066 -0.000623
# 3 -0.002344 0.000020 0.009754 0.002521 -0.002060 -0.002709
# 4 0.001365 0.002153 0.002521 0.031247 -0.002993 -0.002838
# 5 -0.000738 -0.000066 -0.002060 -0.002993 0.024326 0.002441
# 6 -0.000721 -0.000623 -0.002709 -0.002838 0.002441 0.032192
#
#
# Mechanical properties :
#
#
# Convention : Reuss Voigt Hill
#
# Bulk Modulus (GPa) = 48.41383 60.26633 54.34008
# Shear Modulus (GPa) = 38.69475 42.74093 40.71784
#
# Velocity S-wave (km/s) = 4.12035 4.33042 4.22669
# Velocity P-wave (km/s) = 6.62405 7.17254 6.90374
#
# Compressibility (1/GPa) = 0.02065525
#
# Stress axis : x y z
#
# Youngs Moduli (GPa) = 150.33466 89.24501 102.52351
#
# Poissons Ratio (x) = 0.10305 0.24027
# Poissons Ratio (y) = 0.17359 -0.00209
# Poissons Ratio (z) = 0.35231 -0.00182
#
# Static dielectric constant tensor:
#      x y z
#    x 4.220220 -0.138510 0.206320 
#    y -0.138510 4.165540 0.184550 
#    z 0.206320 0.184550 4.039030 
# 
# 
# High freq. dielectric constant tensor:
#      x y z
#    x 1.919100 0.000370 -0.000390 
#    y 0.000370 1.917790 -0.007730 
#    z -0.000390 -0.007730 1.905760 
# 
# From -- ./inp_files/307234.got.cif
#   From: 2010.06.25/outbox.cif.g09.slc.cpg/sg2_154_cif.got.tgz:307234.got - 2010.06.27 13:26:56.
