data_PCOD8035297
_publ_section_title
;
Structure prediction by ZEFSAII (Michael W. Deem and Ramdas Pophale) SiO2 
 PCOD8035297
Probable space group: P -1
;
_chemical_formula_sum "Si O2"
_cell_formula_units_Z 16
_cell_length_a 16.418128
_cell_length_b 11.561403
_cell_length_c 5.126507
_cell_angle_alpha 71.845594
_cell_angle_beta 59.374472
_cell_angle_gamma 50.203000
_cell_volume 643.206474
_symmetry_space_group_name_H-M "P -1"
_symmetry_group_IT_number 2
_symmetry_cell_setting 'triclinic'
loop_
_space_group_symop_operation_xyz
x,y,z
-x,-y,-z
loop_
_atom_site_type_symbol
_atom_site_label
_atom_site_fract_x
_atom_site_fract_y
_atom_site_fract_z
Si Si1 0.778451 0.687219 0.435253
Si Si2 0.623903 0.447269 0.574673
Si Si3 0.968621 0.730024 0.031943
Si Si4 0.953952 0.894080 0.425759
Si Si5 0.193418 0.816709 0.227819
Si Si6 0.597734 0.257714 0.361281
Si Si7 0.772647 0.535056 0.063689
Si Si8 0.562361 0.005229 0.644992
O O1 0.907653 0.644688 0.213331
O O2 0.781960 0.584156 0.727599
O O3 0.696379 0.861243 0.527067
O O4 0.732619 0.663394 0.256803
O O5 0.721664 0.359263 0.702571
O O6 0.603415 0.329576 0.568767
O O7 0.499793 0.600106 0.764647
O O8 0.677475 0.498859 0.233831
O O9 0.916115 0.863694 0.236196
O O10 0.104494 0.612543 0.944820
O O11 0.948305 0.798385 0.730155
O O12 0.085765 0.847107 0.211551
O O13 0.861798 0.071488 0.511613
O O14 0.275439 0.845714 0.909074
O O15 0.554874 0.155669 0.566970
O O16 0.500000 0.000000 0.500000
O O17 0.500000 0.000000 0.000000
#
# Coordination Sequence:
#
# PCOD8035297 Si02
#       8
#     2   2   2   2   2   2   2   2
#     4  12  26  44  75 103 143 194 240 293 354 423
#     4  11  25  45  73 104 145 187 241 297 361 420
#     4  12  24  47  69 109 140 189 239 298 353 427
#     4  11  26  42  74 105 149 187 237 292 368 422
#     4  11  25  43  69 105 146 190 234 297 355 432
#     4  11  26  46  74 107 138 192 241 297 354 429
#     4  12  25  47  72 106 146 189 238 295 360 423
#     4  12  28  51  74 106 145 189 238 296 355 425
#
# _framework density 24.875371000000001
#
# number of rings (size 3 to 8) (size 9 to 14) (size 15 to 20)
#    0.000    0.500    1.250    6.375    7.000    1.000 
#    0.000    0.000    0.000    0.000    0.000    0.000 
#    0.000    0.000    0.000    0.000    0.000    0.000 
#
# Total GULP energy -198485.126462 kJ/mol
# GULP energy per Si atom -12405.320404 kJ/mol
# Density = 2.481875 g / cm^3
# Si number density = 24.875371 Si / 1000 Ang^3
#
#
#
# Elastic Constant Matrix: (Units=GPa)
#
#
# Indices 1 2 3 4 5 6 
#
# 1 97.8639 30.1830 45.9548 0.2052 -19.0426 21.4934
# 2 30.1830 106.8889 23.6403 6.4725 -10.0246 3.3130
# 3 45.9548 23.6403 115.2265 -0.4231 -8.2277 12.9035
# 4 0.2052 6.4725 -0.4231 40.3936 2.9296 -10.9733
# 5 -19.0426 -10.0246 -8.2277 2.9296 34.3595 -0.7220
# 6 21.4934 3.3130 12.9035 -10.9733 -0.7220 50.4739
#
#
#
# Elastic Compliance Matrix: (Units=1/GPa)
#
#
# Indices 1 2 3 4 5 6 
#
# 1 0.015764 -0.002490 -0.004656 -0.001765 0.006927 -0.005644
# 2 -0.002490 0.010545 -0.001097 -0.001723 0.001587 0.000297
# 3 -0.004656 -0.001097 0.010813 0.000152 -0.000338 -0.000682
# 4 -0.001765 -0.001723 0.000152 0.027117 -0.003617 0.006670
# 5 0.006927 0.001587 -0.000338 -0.003617 0.033565 -0.003274
# 6 -0.005644 0.000297 -0.000682 0.006670 -0.003274 0.023773
#
#
# Mechanical properties :
#
#
# Convention : Reuss Voigt Hill
#
# Bulk Modulus (GPa) = 48.45709 57.72616 53.09163
# Shear Modulus (GPa) = 34.49673 39.72551 37.11112
#
# Velocity S-wave (km/s) = 3.72799 4.00056 3.86668
# Velocity P-wave (km/s) = 6.16870 6.67801 6.42840
#
# Compressibility (1/GPa) = 0.02063681
#
# Stress axis : x y z
#
# Youngs Moduli (GPa) = 63.43721 94.83004 92.48028
#
# Poissons Ratio (x) = 0.23614 0.43057
# Poissons Ratio (y) = 0.15797 0.10141
# Poissons Ratio (z) = 0.29535 0.10399
#
# Static dielectric constant tensor:
#      x y z
#    x 4.472780 -0.038120 -0.171260 
#    y -0.038120 4.644990 0.175040 
#    z -0.171260 0.175040 4.509570 
# 
# 
# High freq. dielectric constant tensor:
#      x y z
#    x 1.989860 -0.004020 -0.013750 
#    y -0.004020 2.003390 0.005710 
#    z -0.013750 0.005710 1.999350 
# 
# From -- ./inp_files/109632.got.cif
#   From: 2010.06.25/outbox.cif.g09.slc.cpg/sg2_55_cif.got.tgz:109632.got - 2010.06.27 13:26:56.
