data_PCOD8035047
_publ_section_title
;
Structure prediction by ZEFSAII (Michael W. Deem and Ramdas Pophale) SiO2 
 PCOD8035047
Probable space group: P -1
;
_chemical_formula_sum "Si O2"
_cell_formula_units_Z 10
_cell_length_a 9.335761
_cell_length_b 9.395199
_cell_length_c 9.543029
_cell_angle_alpha 134.858925
_cell_angle_beta 115.274148
_cell_angle_gamma 46.344193
_cell_volume 426.325569
_symmetry_space_group_name_H-M "P -1"
_symmetry_group_IT_number 2
_symmetry_cell_setting 'triclinic'
loop_
_space_group_symop_operation_xyz
x,y,z
-x,-y,-z
loop_
_atom_site_type_symbol
_atom_site_label
_atom_site_fract_x
_atom_site_fract_y
_atom_site_fract_z
Si Si1 0.460263 0.756360 0.712947
Si Si2 0.698034 0.948785 0.881458
Si Si3 0.527397 0.277154 0.773660
Si Si4 0.833103 0.972342 0.452119
Si Si5 0.087655 0.481086 0.673937
O O1 0.500000 0.500000 0.500000
O O2 0.648419 0.758365 0.775455
O O3 0.284125 0.991973 0.713233
O O4 0.393067 0.811949 0.886832
O O5 0.940283 0.771941 0.869616
O O6 0.615191 0.043787 0.755207
O O7 0.316497 0.372054 0.687453
O O8 0.681855 0.188430 0.650675
O O9 0.500000 0.500000 0.000000
O O10 0.934945 0.694247 0.358421
O O11 0.000000 0.000000 0.500000
O O12 0.000000 0.500000 0.500000
#
# Coordination Sequence:
#
# PCOD8035047 Si02
#       5
#     2   2   2   2   2
#     4  11  24  47  74 113 157 192 248 322 383 446
#     4  11  25  47  77 108 151 203 251 311 384 454
#     4  12  27  48  76 110 151 200 259 311 375 460
#     4  12  26  46  76 111 150 197 252 312 384 452
#     4  12  25  48  80 106 152 200 253 313 380 451
#
# _framework density 23.456254000000001
#
# number of rings (size 3 to 8) (size 9 to 14) (size 15 to 20)
#    0.000    0.400    4.000    4.200    2.800    4.800 
#    0.000    0.000    0.000    0.000    0.000    0.000 
#    0.000    0.000    0.000    0.000    0.000    0.000 
#
# Total GULP energy -124010.346785 kJ/mol
# GULP energy per Si atom -12401.034679 kJ/mol
# Density = 2.340287 g / cm^3
# Si number density = 23.456254 Si / 1000 Ang^3
#
#
#
# Elastic Constant Matrix: (Units=GPa)
#
#
# Indices 1 2 3 4 5 6 
#
# 1 150.8187 53.3636 58.3335 1.7740 -18.2969 -17.3497
# 2 53.3636 145.9655 33.8499 -12.1613 -2.8150 -25.6268
# 3 58.3335 33.8499 121.2120 1.2719 -0.4828 -13.3938
# 4 1.7740 -12.1613 1.2719 46.9121 5.6607 -4.4820
# 5 -18.2969 -2.8150 -0.4828 5.6607 35.0991 9.3001
# 6 -17.3497 -25.6268 -13.3938 -4.4820 9.3001 36.9890
#
#
#
# Elastic Compliance Matrix: (Units=1/GPa)
#
#
# Indices 1 2 3 4 5 6 
#
# 1 0.009716 -0.002721 -0.003903 -0.001605 0.005110 -0.000220
# 2 -0.002721 0.009296 -0.000665 0.003453 -0.002844 0.006057
# 3 -0.003903 -0.000665 0.010544 0.000208 -0.002558 0.002195
# 4 -0.001605 0.003453 0.000208 0.023566 -0.005966 0.006070
# 5 0.005110 -0.002844 -0.002558 -0.005966 0.034474 -0.009890
# 6 -0.000220 0.006057 0.002195 0.006070 -0.009890 0.035145
#
#
# Mechanical properties :
#
#
# Convention : Reuss Voigt Hill
#
# Bulk Modulus (GPa) = 66.76187 78.78781 72.77484
# Shear Modulus (GPa) = 35.13365 41.96332 38.54848
#
# Velocity S-wave (km/s) = 3.87439 4.23425 4.05831
# Velocity P-wave (km/s) = 6.96696 7.58731 7.28375
#
# Compressibility (1/GPa) = 0.01497861
#
# Stress axis : x y z
#
# Youngs Moduli (GPa) = 102.91837 107.57256 94.83734
#
# Poissons Ratio (x) = 0.29269 0.37019
# Poissons Ratio (y) = 0.28003 0.06306
# Poissons Ratio (z) = 0.40173 0.07152
#
# Static dielectric constant tensor:
#      x y z
#    x 4.558620 0.003680 -0.437580 
#    y 0.003680 4.971350 -0.292290 
#    z -0.437580 -0.292290 4.146790 
# 
# 
# High freq. dielectric constant tensor:
#      x y z
#    x 1.930080 -0.002290 -0.012700 
#    y -0.002290 1.949320 -0.003660 
#    z -0.012700 -0.003660 1.930690 
# 
# From -- ./inp_files/20777.got.cif
#   From: 2010.06.25/outbox.cif.g09.slc.cpg/sg2_11_cif.got.tgz:20777.got - 2010.06.27 13:26:56.
