data_PCOD8035875
_publ_section_title
;
Structure prediction by ZEFSAII (Michael W. Deem and Ramdas Pophale) SiO2 
 PCOD8035875
Probable space group: P -1
;
_chemical_formula_sum "Si O2"
_cell_formula_units_Z 14
_cell_length_a 5.076992
_cell_length_b 11.655434
_cell_length_c 11.462510
_cell_angle_alpha 60.319402
_cell_angle_beta 77.479195
_cell_angle_gamma 103.971002
_cell_volume 524.387460
_symmetry_space_group_name_H-M "P -1"
_symmetry_group_IT_number 2
_symmetry_cell_setting 'triclinic'
loop_
_space_group_symop_operation_xyz
x,y,z
-x,-y,-z
loop_
_atom_site_type_symbol
_atom_site_label
_atom_site_fract_x
_atom_site_fract_y
_atom_site_fract_z
Si Si1 0.747446 0.355771 0.838751
Si Si2 0.953882 0.823354 0.492518
Si Si3 0.289486 0.124039 0.860227
Si Si4 0.421572 0.401977 0.178038
Si Si5 0.611048 0.988823 0.324734
Si Si6 0.922161 0.323211 0.090292
Si Si7 0.188038 0.369070 0.611488
O O1 0.515248 0.193508 0.910208
O O2 0.582855 0.461788 0.820231
O O3 0.967462 0.424339 0.672810
O O4 0.921527 0.336371 0.944464
O O5 0.763590 0.746404 0.661850
O O6 0.832941 0.932884 0.393228
O O7 0.946551 0.700209 0.464717
O O8 0.290668 0.918618 0.453471
O O9 0.437691 0.060051 0.781307
O O10 0.212604 0.248682 0.751771
O O11 0.000000 0.000000 0.000000
O O12 0.759762 0.416889 0.120801
O O13 0.263676 0.384244 0.073796
O O14 0.744623 0.160799 0.232600
O O15 0.500000 0.500000 0.500000
#
# Coordination Sequence:
#
# PCOD8035875 Si02
#       7
#     2   2   2   2   2   2   2
#     4  12  28  48  82 112 158 200 266 324 396 466
#     4  11  25  47  76 113 152 197 261 320 393 461
#     4  11  26  45  79 116 155 202 255 332 401 463
#     4  12  29  49  77 110 157 212 261 314 383 469
#     4  11  25  47  76 113 152 197 261 320 393 461
#     4  12  29  49  77 110 157 212 261 314 383 469
#     4  11  26  45  79 116 155 202 255 332 401 463
#
# _framework density 26.697816
#
# number of rings (size 3 to 8) (size 9 to 14) (size 15 to 20)
#    0.000    0.571    1.429    4.286   16.000    5.714 
#    0.000    0.000    0.000    0.000    0.000    0.000 
#    0.000    0.000    0.000    0.000    0.000    0.000 
#
# Total GULP energy -173725.420869 kJ/mol
# GULP energy per Si atom -12408.958634 kJ/mol
# Density = 2.663705 g / cm^3
# Si number density = 26.697816 Si / 1000 Ang^3
#
#
#
# Elastic Constant Matrix: (Units=GPa)
#
#
# Indices 1 2 3 4 5 6 
#
# 1 143.2075 43.8849 18.8452 -9.0502 -24.2241 7.1077
# 2 43.8849 103.2619 34.3562 -6.0473 -3.6181 -0.9722
# 3 18.8452 34.3562 59.4588 -28.2023 -9.9618 -7.4438
# 4 -9.0502 -6.0473 -28.2023 43.5005 5.0092 -10.6968
# 5 -24.2241 -3.6181 -9.9618 5.0092 54.9078 -5.6839
# 6 7.1077 -0.9722 -7.4438 -10.6968 -5.6839 45.0429
#
#
#
# Elastic Compliance Matrix: (Units=1/GPa)
#
#
# Indices 1 2 3 4 5 6 
#
# 1 0.008751 -0.003627 0.000224 0.000868 0.003503 -0.000774
# 2 -0.003627 0.014340 -0.010758 -0.006118 -0.002322 -0.002642
# 3 0.000224 -0.010758 0.037402 0.025296 0.005170 0.012573
# 4 0.000868 -0.006118 0.025296 0.041944 0.002207 0.014151
# 5 0.003503 -0.002322 0.005170 0.002207 0.020692 0.003387
# 6 -0.000774 -0.002642 0.012573 0.014151 0.003387 0.028132
#
#
# Mechanical properties :
#
#
# Convention : Reuss Voigt Hill
#
# Bulk Modulus (GPa) = 31.08455 55.56677 43.32566
# Shear Modulus (GPa) = 26.27324 42.61303 34.44313
#
# Velocity S-wave (km/s) = 3.14044 3.99949 3.59571
# Velocity P-wave (km/s) = 4.98178 6.49510 5.78811
#
# Compressibility (1/GPa) = 0.03217032
#
# Stress axis : x y z
#
# Youngs Moduli (GPa) = 114.27637 69.73267 26.73632
#
# Poissons Ratio (x) = 0.25293 -0.00599
# Poissons Ratio (y) = 0.41450 0.28764
# Poissons Ratio (z) = -0.02559 0.75021
#
# Static dielectric constant tensor:
#      x y z
#    x 4.874420 -0.056910 0.105920 
#    y -0.056910 5.199100 0.050860 
#    z 0.105920 0.050860 5.257650 
# 
# 
# High freq. dielectric constant tensor:
#      x y z
#    x 2.073050 0.001680 -0.006670 
#    y 0.001680 2.090810 -0.009050 
#    z -0.006670 -0.009050 2.101000 
# 
# From -- ./inp_files/363859.got.cif
#   From: 2010.06.25/outbox.cif.g09.slc.cpg/sg2_182_cif.got.tgz:363859.got - 2010.06.27 13:26:56.
