data_PCOD8035058
_publ_section_title
;
Structure prediction by ZEFSAII (Michael W. Deem and Ramdas Pophale) SiO2 
 PCOD8035058
Probable space group: P -1
;
_chemical_formula_sum "Si O2"
_cell_formula_units_Z 14
_cell_length_a 11.960787
_cell_length_b 17.036816
_cell_length_c 16.721954
_cell_angle_alpha 18.149386
_cell_angle_beta 40.148461
_cell_angle_gamma 31.932611
_cell_volume 542.795881
_symmetry_space_group_name_H-M "P -1"
_symmetry_group_IT_number 2
_symmetry_cell_setting 'triclinic'
loop_
_space_group_symop_operation_xyz
x,y,z
-x,-y,-z
loop_
_atom_site_type_symbol
_atom_site_label
_atom_site_fract_x
_atom_site_fract_y
_atom_site_fract_z
Si Si1 0.586322 0.331471 0.294512
Si Si2 0.685426 0.755580 0.574857
Si Si3 0.883870 0.333092 0.017667
Si Si4 0.126255 0.523180 0.544778
Si Si5 0.032387 0.322457 0.236630
Si Si6 0.788200 0.098151 0.971605
Si Si7 0.744183 0.369277 0.476252
O O1 0.410920 0.268483 0.430849
O O2 0.690682 0.317867 0.165980
O O3 0.445656 0.686166 0.063513
O O4 0.785176 0.059983 0.506493
O O5 0.863185 0.809798 0.399730
O O6 0.500000 0.000000 0.500000
O O7 0.844530 0.420565 0.860659
O O8 0.862922 0.594045 0.833648
O O9 0.117984 0.000318 0.221192
O O10 0.248939 0.659182 0.311940
O O11 0.189352 0.459190 0.666630
O O12 0.194550 0.203060 0.775489
O O13 0.804455 0.409177 0.313809
O O14 0.000000 0.500000 0.000000
O O15 0.000000 0.000000 0.000000
O O16 0.500000 0.500000 0.500000
#
# Coordination Sequence:
#
# PCOD8035058 Si02
#       7
#     2   2   2   2   2   2   2
#     4  11  26  44  76 113 155 210 250 323 408 474
#     4  12  22  43  78 112 153 199 257 322 400 476
#     4  11  24  47  76 112 149 198 267 324 393 482
#     4  12  27  49  75 116 160 205 267 323 392 490
#     4  11  26  50  79 112 152 199 277 334 395 476
#     4  12  28  46  76 114 167 208 255 318 406 487
#     4  11  27  52  78 112 151 211 268 331 403 467
#
# _framework density 25.792383999999998
#
# number of rings (size 3 to 8) (size 9 to 14) (size 15 to 20)
#    0.000    0.571    4.286    2.571    4.000    5.143 
#    2.571    0.000    0.000    0.000    0.000    0.000 
#    0.000    0.000    0.000    0.000    0.000    0.000 
#
# Total GULP energy -173537.677663 kJ/mol
# GULP energy per Si atom -12395.548405 kJ/mol
# Density = 2.573368 g / cm^3
# Si number density = 25.792384 Si / 1000 Ang^3
#
#
#
# Elastic Constant Matrix: (Units=GPa)
#
#
# Indices 1 2 3 4 5 6 
#
# 1 64.9019 34.3827 7.6309 -6.2907 -3.5189 0.6568
# 2 34.3827 168.9098 43.5558 -27.7747 8.2686 -20.0605
# 3 7.6309 43.5558 97.8565 -11.4548 1.0684 7.8127
# 4 -6.2907 -27.7747 -11.4548 47.9274 10.9923 -1.9365
# 5 -3.5189 8.2686 1.0684 10.9923 46.4514 1.4880
# 6 0.6568 -20.0605 7.8127 -1.9365 1.4880 38.1198
#
#
#
# Elastic Compliance Matrix: (Units=1/GPa)
#
#
# Indices 1 2 3 4 5 6 
#
# 1 0.017723 -0.004350 0.000676 -0.000689 0.002356 -0.002860
# 2 -0.004350 0.009513 -0.003764 0.005059 -0.003333 0.006240
# 3 0.000676 -0.003764 0.012260 0.000552 0.000453 -0.004495
# 4 -0.000689 0.005059 0.000552 0.025649 -0.007168 0.004144
# 5 0.002356 -0.003333 0.000453 -0.007168 0.024088 -0.003192
# 6 -0.002860 0.006240 -0.004495 0.004144 -0.003192 0.030822
#
#
# Mechanical properties :
#
#
# Convention : Reuss Voigt Hill
#
# Bulk Modulus (GPa) = 40.61925 55.86743 48.24334
# Shear Modulus (GPa) = 34.93118 42.90630 38.91874
#
# Velocity S-wave (km/s) = 3.68410 4.08306 3.88870
# Velocity P-wave (km/s) = 5.82061 6.62842 6.23761
#
# Compressibility (1/GPa) = 0.02461887
#
# Stress axis : x y z
#
# Youngs Moduli (GPa) = 56.42410 105.12376 81.56334
#
# Poissons Ratio (x) = 0.45733 -0.05516
# Poissons Ratio (y) = 0.24547 0.30704
# Poissons Ratio (z) = -0.03816 0.39573
#
# Static dielectric constant tensor:
#      x y z
#    x 4.558310 0.137480 -0.005240 
#    y 0.137480 5.054580 0.160100 
#    z -0.005240 0.160100 4.787050 
# 
# 
# High freq. dielectric constant tensor:
#      x y z
#    x 2.013310 0.002320 -0.004860 
#    y 0.002320 2.058030 0.003800 
#    z -0.004860 0.003800 2.029020 
# 
# From -- ./inp_files/437375.got.cif
#   From: 2010.06.25/outbox.cif.g09.slc.cpg/sg2_219_cif.got.tgz:437375.got - 2010.06.27 13:26:56.
