data_PCOD8035881
_publ_section_title
;
Structure prediction by ZEFSAII (Michael W. Deem and Ramdas Pophale) SiO2 
 PCOD8035881
Probable space group: P -1
;
_chemical_formula_sum "Si O2"
_cell_formula_units_Z 14
_cell_length_a 16.942593
_cell_length_b 8.490012
_cell_length_c 5.107193
_cell_angle_alpha 102.183578
_cell_angle_beta 129.191651
_cell_angle_gamma 94.897446
_cell_volume 532.840635
_symmetry_space_group_name_H-M "P -1"
_symmetry_group_IT_number 2
_symmetry_cell_setting 'triclinic'
loop_
_space_group_symop_operation_xyz
x,y,z
-x,-y,-z
loop_
_atom_site_type_symbol
_atom_site_label
_atom_site_fract_x
_atom_site_fract_y
_atom_site_fract_z
Si Si1 0.995699 0.110300 0.274497
Si Si2 0.527200 0.338336 0.381108
Si Si3 0.883570 0.374934 0.155143
Si Si4 0.671607 0.962750 0.298549
Si Si5 0.679118 0.177853 0.897207
Si Si6 0.727223 0.518054 0.593146
Si Si7 0.778482 0.719508 0.261292
O O1 0.099515 0.272183 0.536080
O O2 0.896663 0.187786 0.071025
O O3 0.000000 0.000000 0.500000
O O4 0.000000 0.000000 0.000000
O O5 0.500000 0.500000 0.500000
O O6 0.577660 0.247436 0.677765
O O7 0.613983 0.379739 0.342715
O O8 0.423997 0.208048 0.995562
O O9 0.000000 0.500000 0.500000
O O10 0.789878 0.333511 0.167126
O O11 0.828747 0.444579 0.823228
O O12 0.774772 0.902856 0.416185
O O13 0.676287 0.032373 0.626359
O O14 0.666858 0.107942 0.139518
O O15 0.729241 0.581476 0.326942
O O16 0.722347 0.662815 0.844771
#
# Coordination Sequence:
#
# PCOD8035881 Si02
#       7
#     2   2   2   2   2   2   2
#     4  12  26  45  71 106 141 188 240 287 360 426
#     4  11  25  47  77 108 143 192 243 302 358 430
#     4  11  25  49  76 104 147 191 241 299 357 428
#     4  12  25  49  75 101 151 191 237 296 366 426
#     4  11  27  49  70 111 143 191 240 297 362 434
#     4  11  26  45  68 110 139 182 243 294 350 420
#     4  12  24  44  71 102 147 184 234 297 349 420
#
# _framework density 26.274273000000001
#
# number of rings (size 3 to 8) (size 9 to 14) (size 15 to 20)
#    0.000    0.571    2.857    4.286    0.000    8.000 
#    0.000    0.000    0.000    0.000    0.000    0.000 
#    0.000    0.000    0.000    0.000    0.000    0.000 
#
# Total GULP energy -173495.784549 kJ/mol
# GULP energy per Si atom -12392.556039 kJ/mol
# Density = 2.621447 g / cm^3
# Si number density = 26.274273 Si / 1000 Ang^3
#
#
#
# Elastic Constant Matrix: (Units=GPa)
#
#
# Indices 1 2 3 4 5 6 
#
# 1 83.9900 31.9478 46.2673 -2.0308 2.0839 -18.5700
# 2 31.9478 89.8557 20.6619 -7.5106 -1.0501 -15.7175
# 3 46.2673 20.6619 67.6561 23.2811 -1.1046 -3.6032
# 4 -2.0308 -7.5106 23.2811 50.8966 -4.0666 15.0435
# 5 2.0839 -1.0501 -1.1046 -4.0666 56.4909 3.4551
# 6 -18.5700 -15.7175 -3.6032 15.0435 3.4551 73.1616
#
#
#
# Elastic Compliance Matrix: (Units=1/GPa)
#
#
# Indices 1 2 3 4 5 6 
#
# 1 0.023780 -0.003225 -0.017772 0.007662 -0.000913 0.002935
# 2 -0.003225 0.013374 -0.002743 0.002739 0.000429 0.001336
# 3 -0.017772 -0.002743 0.033396 -0.016354 0.000086 -0.000097
# 4 0.007662 0.002739 -0.016354 0.029278 0.001824 -0.004379
# 5 -0.000913 0.000429 0.000086 0.001824 0.017960 -0.001358
# 6 0.002935 0.001336 -0.000097 -0.004379 -0.001358 0.015660
#
#
# Mechanical properties :
#
#
# Convention : Reuss Voigt Hill
#
# Bulk Modulus (GPa) = 43.34843 48.80620 46.07732
# Shear Modulus (GPa) = 26.50840 45.61814 36.06327
#
# Velocity S-wave (km/s) = 3.17978 4.17133 3.70884
# Velocity P-wave (km/s) = 5.47865 6.46653 5.99298
#
# Compressibility (1/GPa) = 0.02306888
#
# Stress axis : x y z
#
# Youngs Moduli (GPa) = 42.05222 74.77151 29.94354
#
# Poissons Ratio (x) = 0.24114 0.53217
# Poissons Ratio (y) = 0.13562 0.08215
# Poissons Ratio (z) = 0.74736 0.20513
#
# Static dielectric constant tensor:
#      x y z
#    x 5.138590 -0.147620 0.734150 
#    y -0.147620 5.408700 0.375140 
#    z 0.734150 0.375140 5.249280 
# 
# 
# High freq. dielectric constant tensor:
#      x y z
#    x 2.068670 -0.015520 0.015410 
#    y -0.015520 2.073370 0.010320 
#    z 0.015410 0.010320 2.051580 
# 
# From -- ./inp_files/107046.got.cif
#   From: 2010.06.25/outbox.cif.g09.slc.cpg/sg2_54_cif.got.tgz:107046.got - 2010.06.27 13:26:56.
