data_PCOD8035236
_publ_section_title
;
Structure prediction by ZEFSAII (Michael W. Deem and Ramdas Pophale) SiO2 
 PCOD8035236
Probable space group: P -1
;
_chemical_formula_sum "Si O2"
_cell_formula_units_Z 12
_cell_length_a 9.699605
_cell_length_b 11.264719
_cell_length_c 10.198267
_cell_angle_alpha 128.679109
_cell_angle_beta 123.856671
_cell_angle_gamma 43.332469
_cell_volume 585.906030
_symmetry_space_group_name_H-M "P -1"
_symmetry_group_IT_number 2
_symmetry_cell_setting 'triclinic'
loop_
_space_group_symop_operation_xyz
x,y,z
-x,-y,-z
loop_
_atom_site_type_symbol
_atom_site_label
_atom_site_fract_x
_atom_site_fract_y
_atom_site_fract_z
Si Si1 0.476883 0.681815 0.058750
Si Si2 0.188422 0.823862 0.763372
Si Si3 0.005124 0.368848 0.518127
Si Si4 0.735823 0.045676 0.640347
Si Si5 0.789021 0.029851 0.374730
Si Si6 0.127880 0.365962 0.856595
O O1 0.678204 0.628205 0.054238
O O2 0.436758 0.813136 0.251634
O O3 0.500000 0.500000 0.000000
O O4 0.291434 0.800420 0.940522
O O5 0.186196 0.643086 0.611784
O O6 0.953177 0.013672 0.769044
O O7 0.309493 0.839620 0.716880
O O8 0.219410 0.160127 0.472066
O O9 0.990737 0.449251 0.710145
O O10 0.000000 0.500000 0.500000
O O11 0.657530 0.124073 0.504083
O O12 0.812726 0.839290 0.223754
O O13 0.000000 0.000000 0.500000
O O14 0.000000 0.500000 0.000000
#
# Coordination Sequence:
#
# PCOD8035236 Si02
#       6
#     2   2   2   2   2   2
#     4  12  25  38  61 102 129 159 209 267 313 367
#     4   9  20  39  66  87 123 167 207 250 319 367
#     4   9  19  38  63  90 122 167 206 250 315 375
#     4   8  20  38  67  85 123 167 208 249 317 365
#     4   9  18  41  67  84 122 171 209 245 322 370
#     4  11  25  39  62  93 130 164 209 261 314 366
#
# _framework density 20.481100000000001
#
# number of rings (size 3 to 8) (size 9 to 14) (size 15 to 20)
#    1.000    1.333    1.667    1.500    4.667    4.667 
#    0.000    5.000    0.000    0.000    0.000    0.000 
#    0.000    0.000    0.000    0.000    0.000    0.000 
#
# Total GULP energy -148671.885467 kJ/mol
# GULP energy per Si atom -12389.323789 kJ/mol
# Density = 2.043448 g / cm^3
# Si number density = 20.481100 Si / 1000 Ang^3
#
#
#
# Elastic Constant Matrix: (Units=GPa)
#
#
# Indices 1 2 3 4 5 6 
#
# 1 111.6322 45.4914 53.7289 9.5676 -10.8634 28.3424
# 2 45.4914 73.3337 51.4385 -5.9085 -23.1058 37.2546
# 3 53.7289 51.4385 156.3101 2.8184 -32.2451 14.0331
# 4 9.5676 -5.9085 2.8184 29.6313 4.9034 -9.5908
# 5 -10.8634 -23.1058 -32.2451 4.9034 40.7108 -0.8532
# 6 28.3424 37.2546 14.0331 -9.5908 -0.8532 42.0666
#
#
#
# Elastic Compliance Matrix: (Units=1/GPa)
#
#
# Indices 1 2 3 4 5 6 
#
# 1 0.014335 -0.003984 -0.002858 -0.007378 0.000045 -0.006858
# 2 -0.003984 0.042858 -0.005854 -0.003575 0.018348 -0.033761
# 3 -0.002858 -0.005854 0.009758 -0.000569 0.003792 0.003802
# 4 -0.007378 -0.003575 -0.000569 0.042791 -0.009227 0.017896
# 5 0.000045 0.018348 0.003792 -0.009227 0.038708 -0.018863
# 6 -0.006858 -0.033761 0.003802 0.017896 -0.018863 0.060721
#
#
# Mechanical properties :
#
#
# Convention : Reuss Voigt Hill
#
# Bulk Modulus (GPa) = 24.06275 71.39928 47.73101
# Shear Modulus (GPa) = 20.12753 35.18954 27.65854
#
# Velocity S-wave (km/s) = 3.13826 4.14955 3.67882
# Velocity P-wave (km/s) = 4.99058 7.60888 6.43432
#
# Compressibility (1/GPa) = 0.04155801
#
# Stress axis : x y z
#
# Youngs Moduli (GPa) = 69.75850 23.33287 102.48508
#
# Poissons Ratio (x) = 0.09296 0.29294
# Poissons Ratio (y) = 0.27792 0.59993
# Poissons Ratio (z) = 0.19940 0.13659
#
# Static dielectric constant tensor:
#      x y z
#    x 3.717000 0.355220 -0.142870 
#    y 0.355220 3.468910 -0.208710 
#    z -0.142870 -0.208710 3.890370 
# 
# 
# High freq. dielectric constant tensor:
#      x y z
#    x 1.794150 0.031880 -0.002090 
#    y 0.031880 1.770830 -0.014320 
#    z -0.002090 -0.014320 1.812200 
# 
# From -- ./inp_files/182625.got.cif
#   From: 2010.06.25/outbox.cif.g09.slc.cpg/sg2_92_cif.got.tgz:182625.got - 2010.06.27 13:26:56.
