data_PCOD8035434
_publ_section_title
;
Structure prediction by ZEFSAII (Michael W. Deem and Ramdas Pophale) SiO2 
 PCOD8035434
Probable space group: P -1
;
_chemical_formula_sum "Si O2"
_cell_formula_units_Z 16
_cell_length_a 11.562478
_cell_length_b 10.400083
_cell_length_c 8.457648
_cell_angle_alpha 121.249711
_cell_angle_beta 87.216976
_cell_angle_gamma 60.417777
_cell_volume 689.743799
_symmetry_space_group_name_H-M "P -1"
_symmetry_group_IT_number 2
_symmetry_cell_setting 'triclinic'
loop_
_space_group_symop_operation_xyz
x,y,z
-x,-y,-z
loop_
_atom_site_type_symbol
_atom_site_label
_atom_site_fract_x
_atom_site_fract_y
_atom_site_fract_z
Si Si1 0.547716 0.768513 0.303034
Si Si2 0.209719 0.914938 0.027139
Si Si3 0.047651 0.106518 0.468657
Si Si4 0.489643 0.171360 0.025571
Si Si5 0.901663 0.729613 0.925050
Si Si6 0.271037 0.099463 0.647543
Si Si7 0.795224 0.422668 0.212796
Si Si8 0.808352 0.512507 0.617540
O O1 0.398843 0.870909 0.482724
O O2 0.650353 0.543697 0.187869
O O3 0.652678 0.820058 0.393592
O O4 0.508293 0.837008 0.169413
O O5 0.167235 0.957720 0.240629
O O6 0.104047 0.108253 0.062242
O O7 0.374120 0.837244 0.935102
O O8 0.184089 0.768491 0.870347
O O9 0.905500 0.294476 0.523368
O O10 0.123095 0.167898 0.616937
O O11 0.000000 0.000000 0.500000
O O12 0.347164 0.374880 0.215755
O O13 0.500000 0.000000 0.000000
O O14 0.885743 0.608260 0.721974
O O15 0.066187 0.609839 0.909482
O O16 0.773072 0.819666 0.119658
O O17 0.780307 0.528602 0.443054
#
# Coordination Sequence:
#
# PCOD8035434 Si02
#       8
#     2   2   2   2   2   2   2   2
#     4  11  26  46  72 109 143 188 247 304 358 435
#     4  12  27  49  73 104 150 197 237 305 364 435
#     4  12  28  47  73 107 153 192 240 299 371 429
#     4  12  26  50  77 106 145 191 249 302 363 428
#     4  12  25  47  77 105 146 191 247 298 364 433
#     4  11  25  44  76 103 144 189 245 301 365 419
#     4  12  29  44  72 108 152 186 245 298 368 432
#     4  12  28  46  76 109 145 196 243 299 362 435
#
# _framework density 23.197019000000001
#
# number of rings (size 3 to 8) (size 9 to 14) (size 15 to 20)
#    0.000    0.250    5.000    2.250   12.250    3.000 
#    0.000    0.000    0.000    0.000    0.000    0.000 
#    0.000    0.000    0.000    0.000    0.000    0.000 
#
# Total GULP energy -198392.016494 kJ/mol
# GULP energy per Si atom -12399.501031 kJ/mol
# Density = 2.314422 g / cm^3
# Si number density = 23.197019 Si / 1000 Ang^3
#
#
#
# Elastic Constant Matrix: (Units=GPa)
#
#
# Indices 1 2 3 4 5 6 
#
# 1 106.1166 14.0416 40.5806 3.0500 -12.1165 -3.8333
# 2 14.0416 97.2058 34.5063 1.6835 -0.2461 -9.4379
# 3 40.5806 34.5063 129.1027 2.6214 -9.4931 4.0408
# 4 3.0500 1.6835 2.6214 30.6018 -5.3745 -1.9396
# 5 -12.1165 -0.2461 -9.4931 -5.3745 44.1393 2.2490
# 6 -3.8333 -9.4379 4.0408 -1.9396 2.2490 31.6761
#
#
#
# Elastic Compliance Matrix: (Units=1/GPa)
#
#
# Indices 1 2 3 4 5 6 
#
# 1 0.011026 -0.000276 -0.003270 -0.000321 0.002207 0.001493
# 2 -0.000276 0.011879 -0.003277 -0.000260 -0.000948 0.003975
# 3 -0.003270 -0.003277 0.009837 -0.000281 0.001305 -0.002737
# 4 -0.000321 -0.000260 -0.000281 0.033531 0.003846 0.001700
# 5 0.002207 -0.000948 0.001305 0.003846 0.024089 -0.001657
# 6 0.001493 0.003975 -0.002737 0.001700 -0.001657 0.033505
#
#
# Mechanical properties :
#
#
# Convention : Reuss Voigt Hill
#
# Bulk Modulus (GPa) = 52.36835 56.74247 54.55541
# Shear Modulus (GPa) = 34.75159 37.50321 36.12740
#
# Velocity S-wave (km/s) = 3.87474 4.02521 3.95069
# Velocity P-wave (km/s) = 6.53013 6.79098 6.66183
#
# Compressibility (1/GPa) = 0.01909550
#
# Stress axis : x y z
#
# Youngs Moduli (GPa) = 90.69741 84.18443 101.65903
#
# Poissons Ratio (x) = 0.02322 0.33242
# Poissons Ratio (y) = 0.02502 0.33315
# Poissons Ratio (z) = 0.29657 0.27588
#
# Static dielectric constant tensor:
#      x y z
#    x 4.239970 -0.177600 -0.221360 
#    y -0.177600 4.112880 0.196380 
#    z -0.221360 0.196380 4.310930 
# 
# 
# High freq. dielectric constant tensor:
#      x y z
#    x 1.928750 -0.012540 -0.013420 
#    y -0.012540 1.909030 0.007840 
#    z -0.013420 0.007840 1.925070 
# 
# From -- ./inp_files/244970.got.cif
#   From: 2010.06.25/outbox.cif.g09.slc.cpg/sg2_123_cif.got.tgz:244970.got - 2010.06.27 13:26:56.
