data_PCOD8035688
_publ_section_title
;
Structure prediction by ZEFSAII (Michael W. Deem and Ramdas Pophale) SiO2 
 PCOD8035688
Probable space group: P -1
;
_chemical_formula_sum "Si O2"
_cell_formula_units_Z 16
_cell_length_a 11.194616
_cell_length_b 8.850548
_cell_length_c 11.205822
_cell_angle_alpha 94.138461
_cell_angle_beta 54.460252
_cell_angle_gamma 62.288855
_cell_volume 703.650454
_symmetry_space_group_name_H-M "P -1"
_symmetry_group_IT_number 2
_symmetry_cell_setting 'triclinic'
loop_
_space_group_symop_operation_xyz
x,y,z
-x,-y,-z
loop_
_atom_site_type_symbol
_atom_site_label
_atom_site_fract_x
_atom_site_fract_y
_atom_site_fract_z
Si Si1 0.250737 0.753189 0.430493
Si Si2 0.292016 0.669554 0.663466
Si Si3 0.997550 0.638599 0.915072
Si Si4 0.305257 0.908188 0.866550
Si Si5 0.136651 0.510019 0.189484
Si Si6 0.397639 0.570835 0.936547
Si Si7 0.101438 0.158321 0.485310
Si Si8 0.619325 0.837149 0.821135
O O1 0.188048 0.759399 0.602540
O O2 0.459037 0.560130 0.262549
O O3 0.099440 0.777107 0.432751
O O4 0.248046 0.935567 0.426662
O O5 0.500000 0.500000 0.500000
O O6 0.293702 0.822739 0.746467
O O7 0.202092 0.583928 0.779686
O O8 0.925129 0.611928 0.833375
O O9 0.000000 0.500000 0.000000
O O10 0.864342 0.865891 0.033921
O O11 0.298510 0.796497 0.977754
O O12 0.496787 0.880327 0.775979
O O13 0.299863 0.372521 0.185082
O O14 0.948157 0.702900 0.366055
O O15 0.226187 0.560859 0.038957
O O16 0.500000 0.500000 0.000000
O O17 0.199315 0.184030 0.322869
O O18 0.500000 0.000000 0.000000
#
# Coordination Sequence:
#
# PCOD8035688 Si02
#       8
#     2   2   2   2   2   2   2   2
#     4  11  25  46  72 108 144 196 242 303 365 439
#     4  12  28  50  75 103 147 195 247 300 362 451
#     4  12  30  50  74 104 147 196 251 299 367 438
#     4  12  27  47  77 103 144 195 242 299 367 440
#     4  12  25  44  74 106 147 186 242 313 363 438
#     4  12  23  44  74 109 144 188 244 296 372 434
#     4  11  26  41  72 110 146 186 245 306 371 427
#     4  12  24  44  70 109 145 187 239 310 374 427
#
# _framework density 22.738562000000002
#
# number of rings (size 3 to 8) (size 9 to 14) (size 15 to 20)
#    0.000    0.250    5.000    3.000    5.250    0.000 
#    0.000    1.250    0.000    0.000    0.000    0.000 
#    0.000    0.000    0.000    0.000    0.000    0.000 
#
# Total GULP energy -198400.926732 kJ/mol
# GULP energy per Si atom -12400.057921 kJ/mol
# Density = 2.268681 g / cm^3
# Si number density = 22.738562 Si / 1000 Ang^3
#
#
#
# Elastic Constant Matrix: (Units=GPa)
#
#
# Indices 1 2 3 4 5 6 
#
# 1 87.1560 27.8626 47.5982 8.5864 8.3901 16.4993
# 2 27.8626 164.9687 67.5944 4.5566 -1.4717 9.9285
# 3 47.5982 67.5944 154.0414 1.0083 -3.9161 20.3206
# 4 8.5864 4.5566 1.0083 38.4299 0.2160 5.8961
# 5 8.3901 -1.4717 -3.9161 0.2160 44.1187 -0.9041
# 6 16.4993 9.9285 20.3206 5.8961 -0.9041 35.6412
#
#
#
# Elastic Compliance Matrix: (Units=1/GPa)
#
#
# Indices 1 2 3 4 5 6 
#
# 1 0.015204 -0.000669 -0.003907 -0.002538 -0.003336 -0.004289
# 2 -0.000669 0.007444 -0.003066 -0.000668 0.000109 0.000097
# 3 -0.003907 -0.003066 0.009457 0.001430 0.001413 -0.002930
# 4 -0.002538 -0.000668 0.001430 0.027234 0.000373 -0.003950
# 5 -0.003336 0.000109 0.001413 0.000373 0.023453 0.001242
# 6 -0.004289 0.000097 -0.002930 -0.003950 0.001242 0.032372
#
#
# Mechanical properties :
#
#
# Convention : Reuss Voigt Hill
#
# Bulk Modulus (GPa) = 59.44079 76.91961 68.18020
# Shear Modulus (GPa) = 36.74962 41.17869 38.96416
#
# Velocity S-wave (km/s) = 4.02454 4.26016 4.14402
# Velocity P-wave (km/s) = 6.91329 7.62233 7.27645
#
# Compressibility (1/GPa) = 0.01682347
#
# Stress axis : x y z
#
# Youngs Moduli (GPa) = 65.77033 134.32871 105.73738
#
# Poissons Ratio (x) = 0.08981 0.41313
# Poissons Ratio (y) = 0.04397 0.32416
# Poissons Ratio (z) = 0.25697 0.41182
#
# Static dielectric constant tensor:
#      x y z
#    x 4.705910 -0.428010 0.892330 
#    y -0.428010 4.801990 -0.972500 
#    z 0.892330 -0.972500 5.787960 
# 
# 
# High freq. dielectric constant tensor:
#      x y z
#    x 1.906800 0.006260 0.000530 
#    y 0.006260 1.907590 0.002010 
#    z 0.000530 0.002010 1.894260 
# 
# From -- ./inp_files/297887.got.cif
#   From: 2010.06.25/outbox.cif.g09.slc.cpg/sg2_149_cif.got.tgz:297887.got - 2010.06.27 13:26:56.
