data_PCOD8035541
_publ_section_title
;
Structure prediction by ZEFSAII (Michael W. Deem and Ramdas Pophale) SiO2 
 PCOD8035541
Probable space group: P -1
;
_chemical_formula_sum "Si O2"
_cell_formula_units_Z 16
_cell_length_a 9.405068
_cell_length_b 12.339396
_cell_length_c 20.572666
_cell_angle_alpha 27.547547
_cell_angle_beta 44.115179
_cell_angle_gamma 37.334548
_cell_volume 668.938400
_symmetry_space_group_name_H-M "P -1"
_symmetry_group_IT_number 2
_symmetry_cell_setting 'triclinic'
loop_
_space_group_symop_operation_xyz
x,y,z
-x,-y,-z
loop_
_atom_site_type_symbol
_atom_site_label
_atom_site_fract_x
_atom_site_fract_y
_atom_site_fract_z
Si Si1 0.447113 0.033736 0.891521
Si Si2 0.008947 0.381469 0.775847
Si Si3 0.406626 0.565624 0.192211
Si Si4 0.796569 0.145171 0.199796
Si Si5 0.347000 0.227989 0.631039
Si Si6 0.875543 0.606088 0.913569
Si Si7 0.124397 0.139412 0.347319
Si Si8 0.292624 0.667572 0.314677
O O1 0.627412 0.878713 0.856477
O O2 0.178002 0.165526 0.887575
O O3 0.499228 0.261260 0.781854
O O4 0.481497 0.796298 0.056336
O O5 0.182590 0.384520 0.662176
O O6 0.817089 0.312165 0.847355
O O7 0.859689 0.669750 0.705108
O O8 0.618343 0.289384 0.241644
O O9 0.327262 0.517879 0.313788
O O10 0.709067 0.997659 0.257984
O O11 0.827222 0.369245 0.029488
O O12 0.045937 0.939162 0.258853
O O13 0.294373 0.456321 0.475527
O O14 0.617529 0.089871 0.635624
O O15 0.001683 0.685867 0.771233
O O16 0.000000 0.500000 0.000000
O O17 0.000000 0.000000 0.500000
#
# Coordination Sequence:
#
# PCOD8035541 Si02
#       8
#     2   2   2   2   2   2   2   2
#     4  11  25  45  73 108 149 193 251 312 380 445
#     4  12  26  46  75 107 150 198 251 309 372 456
#     4  11  26  45  74 112 146 200 251 316 370 454
#     4  11  25  46  74 108 149 195 253 310 379 441
#     4  12  27  49  71 111 149 203 249 312 382 448
#     4  11  25  48  78 110 150 199 244 317 378 445
#     4  12  29  49  77 112 154 202 250 312 382 457
#     4  12  26  46  75 106 156 199 254 313 378 451
#
# _framework density 23.918496999999999
#
# number of rings (size 3 to 8) (size 9 to 14) (size 15 to 20)
#    0.000    0.500    5.000    1.875    3.500    8.000 
#    0.000    0.000    0.000    0.000    0.000    0.000 
#    0.000    0.000    0.000    0.000    0.000    0.000 
#
# Total GULP energy -198288.250559 kJ/mol
# GULP energy per Si atom -12393.015660 kJ/mol
# Density = 2.386406 g / cm^3
# Si number density = 23.918497 Si / 1000 Ang^3
#
#
#
# Elastic Constant Matrix: (Units=GPa)
#
#
# Indices 1 2 3 4 5 6 
#
# 1 68.5921 20.0768 32.5718 6.3383 3.2790 -5.2986
# 2 20.0768 128.4209 35.2858 6.4795 20.9716 -5.4220
# 3 32.5718 35.2858 119.1621 16.6604 8.0806 8.5690
# 4 6.3383 6.4795 16.6604 30.7967 2.0153 0.7781
# 5 3.2790 20.9716 8.0806 2.0153 31.7074 0.6341
# 6 -5.2986 -5.4220 8.5690 0.7781 0.6341 35.4458
#
#
#
# Elastic Compliance Matrix: (Units=1/GPa)
#
#
# Indices 1 2 3 4 5 6 
#
# 1 0.017461 -0.001328 -0.004510 -0.000977 0.000214 0.003515
# 2 -0.001328 0.009622 -0.002205 -0.000234 -0.005688 0.001913
# 3 -0.004510 -0.002205 0.011212 -0.004544 -0.000571 -0.003612
# 4 -0.000977 -0.000234 -0.004544 0.035230 -0.000828 0.000158
# 5 0.000214 -0.005688 -0.000571 -0.000828 0.035503 -0.001317
# 6 0.003515 0.001913 -0.003612 0.000158 -0.001317 0.029924
#
#
# Mechanical properties :
#
#
# Convention : Reuss Voigt Hill
#
# Bulk Modulus (GPa) = 45.02936 54.67154 49.85045
# Shear Modulus (GPa) = 30.78053 34.80602 32.79327
#
# Velocity S-wave (km/s) = 3.59122 3.81884 3.70678
# Velocity P-wave (km/s) = 6.00524 6.50782 6.26157
#
# Compressibility (1/GPa) = 0.02220773
#
# Stress axis : x y z
#
# Youngs Moduli (GPa) = 57.27082 103.92933 89.19285
#
# Poissons Ratio (x) = 0.13799 0.40228
# Poissons Ratio (y) = 0.07604 0.19671
# Poissons Ratio (z) = 0.25831 0.22921
#
# Static dielectric constant tensor:
#      x y z
#    x 6.245260 1.850780 -1.515010 
#    y 1.850780 6.387450 -1.342190 
#    z -1.515010 -1.342190 5.301390 
# 
# 
# High freq. dielectric constant tensor:
#      x y z
#    x 1.940410 -0.002050 -0.001930 
#    y -0.002050 1.966890 -0.002150 
#    z -0.001930 -0.002150 1.948660 
# 
# From -- ./inp_files/589354.got.cif
#   From: 2010.06.25/outbox.cif.g09.slc.cpg/sg2_295_cif.got.tgz:589354.got - 2010.06.27 13:26:56.
