data_PCOD8035990
_publ_section_title
;
Structure prediction by ZEFSAII (Michael W. Deem and Ramdas Pophale) SiO2 
 PCOD8035990
Probable space group: P -1
;
_chemical_formula_sum "Si O2"
_cell_formula_units_Z 16
_cell_length_a 9.404489
_cell_length_b 6.684740
_cell_length_c 18.458931
_cell_angle_alpha 138.302920
_cell_angle_beta 90.404630
_cell_angle_gamma 84.057267
_cell_volume 763.434218
_symmetry_space_group_name_H-M "P -1"
_symmetry_group_IT_number 2
_symmetry_cell_setting 'triclinic'
loop_
_space_group_symop_operation_xyz
x,y,z
-x,-y,-z
loop_
_atom_site_type_symbol
_atom_site_label
_atom_site_fract_x
_atom_site_fract_y
_atom_site_fract_z
Si Si1 0.738716 0.162586 0.858600
Si Si2 0.979677 0.899406 0.679150
Si Si3 0.372982 0.238755 0.593678
Si Si4 0.463424 0.889967 0.775384
Si Si5 0.626344 0.823827 0.000663
Si Si6 0.157738 0.860498 0.984414
Si Si7 0.918147 0.786081 0.489749
Si Si8 0.738725 0.793631 0.254917
O O1 0.630029 0.464186 0.915620
O O2 0.870629 0.094697 0.785936
O O3 0.634440 0.904291 0.788902
O O4 0.811331 0.202143 0.947529
O O5 0.911367 0.930570 0.608217
O O6 0.993558 0.549507 0.607846
O O7 0.133328 0.016136 0.711894
O O8 0.439853 0.546409 0.675112
O O9 0.244040 0.236041 0.536971
O O10 0.311351 0.163341 0.650979
O O11 0.500000 0.000000 0.500000
O O12 0.401889 0.081220 0.757407
O O13 0.374007 0.024857 0.880409
O O14 0.500000 0.000000 0.000000
O O15 0.766928 0.862432 0.967687
O O16 0.209501 0.558188 0.857168
O O17 0.000000 0.000000 0.000000
O O18 0.000000 0.000000 0.500000
#
# Coordination Sequence:
#
# PCOD8035990 Si02
#       8
#     2   2   2   2   2   2   2   2
#     4  12  28  44  71 111 145 188 240 289 353 436
#     4  11  27  45  72 102 141 185 236 294 359 424
#     4  12  29  46  74 105 137 186 246 298 354 424
#     4  12  26  46  71  99 147 185 236 294 357 415
#     4  12  24  46  70 102 144 194 235 285 357 425
#     4  12  27  43  73 107 148 189 236 287 353 432
#     4  11  25  49  71  97 140 187 236 297 360 412
#     4  12  25  48  71 104 142 188 230 299 356 421
#
# _framework density 20.957930000000001
#
# number of rings (size 3 to 8) (size 9 to 14) (size 15 to 20)
#    0.000    0.250    6.250    1.875    7.000    2.500 
#    0.000    0.000    0.000    0.000    0.000    0.000 
#    0.000    0.000    0.000    0.000    0.000    0.000 
#
# Total GULP energy -198402.903940 kJ/mol
# GULP energy per Si atom -12400.181496 kJ/mol
# Density = 2.091023 g / cm^3
# Si number density = 20.957930 Si / 1000 Ang^3
#
#
#
# Elastic Constant Matrix: (Units=GPa)
#
#
# Indices 1 2 3 4 5 6 
#
# 1 138.6946 52.5941 50.9190 -8.9225 -0.0107 7.1758
# 2 52.5941 113.2525 44.2841 -8.8784 -3.0655 4.6522
# 3 50.9190 44.2841 123.6895 -9.1422 -10.5026 4.8137
# 4 -8.9225 -8.8784 -9.1422 36.1501 2.5195 13.6120
# 5 -0.0107 -3.0655 -10.5026 2.5195 41.3822 0.8018
# 6 7.1758 4.6522 4.8137 13.6120 0.8018 32.1999
#
#
#
# Elastic Compliance Matrix: (Units=1/GPa)
#
#
# Indices 1 2 3 4 5 6 
#
# 1 0.009637 -0.003235 -0.002689 0.001718 -0.000986 -0.001980
# 2 -0.003235 0.011557 -0.002605 0.001886 0.000106 -0.001359
# 3 -0.002689 -0.002605 0.010507 0.001705 0.002396 -0.001376
# 4 0.001718 0.001886 0.001705 0.034965 -0.001253 -0.015660
# 5 -0.000986 0.000106 0.002396 -0.001253 0.024862 -0.000243
# 6 -0.001980 -0.001359 -0.001376 -0.015660 -0.000243 0.038525
#
#
# Mechanical properties :
#
#
# Convention : Reuss Voigt Hill
#
# Bulk Modulus (GPa) = 68.28421 74.58120 71.43271
# Shear Modulus (GPa) = 32.89684 37.13575 35.01630
#
# Velocity S-wave (km/s) = 3.96619 4.21398 4.09196
# Velocity P-wave (km/s) = 7.32301 7.70326 7.51554
#
# Compressibility (1/GPa) = 0.01464467
#
# Stress axis : x y z
#
# Youngs Moduli (GPa) = 103.77034 86.52739 95.17270
#
# Poissons Ratio (x) = 0.27987 0.25589
# Poissons Ratio (y) = 0.33565 0.24792
# Poissons Ratio (z) = 0.27901 0.22540
#
# Static dielectric constant tensor:
#      x y z
#    x 3.844650 -0.087290 0.123240 
#    y -0.087290 3.836900 -0.140030 
#    z 0.123240 -0.140030 3.880210 
# 
# 
# High freq. dielectric constant tensor:
#      x y z
#    x 1.835430 0.003340 0.008580 
#    y 0.003340 1.838370 -0.003200 
#    z 0.008580 -0.003200 1.829140 
# 
# From -- ./inp_files/81636.got.cif
#   From: 2010.06.25/outbox.cif.g09.slc.cpg/sg2_41_cif.got.tgz:81636.got - 2010.06.27 13:26:56.
