data_PCOD8035359
_publ_section_title
;
Structure prediction by ZEFSAII (Michael W. Deem and Ramdas Pophale) SiO2 
 PCOD8035359
Probable space group: P -1
;
_chemical_formula_sum "Si O2"
_cell_formula_units_Z 12
_cell_length_a 11.237005
_cell_length_b 6.373535
_cell_length_c 10.108345
_cell_angle_alpha 77.659697
_cell_angle_beta 61.382374
_cell_angle_gamma 108.445624
_cell_volume 541.773308
_symmetry_space_group_name_H-M "P -1"
_symmetry_group_IT_number 2
_symmetry_cell_setting 'triclinic'
loop_
_space_group_symop_operation_xyz
x,y,z
-x,-y,-z
loop_
_atom_site_type_symbol
_atom_site_label
_atom_site_fract_x
_atom_site_fract_y
_atom_site_fract_z
Si Si1 0.568943 0.777265 0.883791
Si Si2 0.112554 0.605614 0.728052
Si Si3 0.899294 0.136258 0.034299
Si Si4 0.429640 0.077834 0.850198
Si Si5 0.355152 0.489951 0.499624
Si Si6 0.154092 0.037285 0.481819
O O1 0.456868 0.841950 0.843165
O O2 0.725704 0.860174 0.713323
O O3 0.500000 0.500000 0.000000
O O4 0.605704 0.933138 0.975343
O O5 0.098535 0.738004 0.846987
O O6 0.268377 0.580711 0.637114
O O7 0.111077 0.761094 0.582582
O O8 0.963081 0.332482 0.852636
O O9 0.719591 0.940196 0.139904
O O10 0.000000 0.000000 0.000000
O O11 0.578142 0.325687 0.686012
O O12 0.500000 0.500000 0.500000
O O13 0.227319 0.223763 0.543882
O O14 0.000000 0.000000 0.500000
#
# Coordination Sequence:
#
# PCOD8035359 Si02
#       6
#     2   2   2   2   2   2
#     4  11  25  45  69 100 140 188 229 288 351 421
#     4  11  26  46  70 105 141 185 233 295 352 419
#     4  11  26  46  72 102 140 186 236 292 354 417
#     4  11  25  44  70 101 137 183 239 287 350 420
#     4  12  26  47  73 106 141 183 239 292 352 422
#     4  12  28  45  73 106 144 186 235 291 355 416
#
# _framework density 22.149484999999999
#
# number of rings (size 3 to 8) (size 9 to 14) (size 15 to 20)
#    0.000    0.667    3.333    3.000    9.333    3.333 
#    0.000    0.000    0.000    0.000    0.000    0.000 
#    0.000    0.000    0.000    0.000    0.000    0.000 
#
# Total GULP energy -148695.653663 kJ/mol
# GULP energy per Si atom -12391.304472 kJ/mol
# Density = 2.209907 g / cm^3
# Si number density = 22.149485 Si / 1000 Ang^3
#
#
#
# Elastic Constant Matrix: (Units=GPa)
#
#
# Indices 1 2 3 4 5 6 
#
# 1 133.9752 56.5636 25.8023 2.3081 -23.8207 -16.7283
# 2 56.5636 118.8475 54.4165 -5.0272 -12.6212 -22.6500
# 3 25.8023 54.4165 152.1230 -6.2172 -12.5331 -17.1483
# 4 2.3081 -5.0272 -6.2172 54.1765 -8.9208 0.1576
# 5 -23.8207 -12.6212 -12.5331 -8.9208 35.1820 2.2362
# 6 -16.7283 -22.6500 -17.1483 0.1576 2.2362 38.1766
#
#
#
# Elastic Compliance Matrix: (Units=1/GPa)
#
#
# Indices 1 2 3 4 5 6 
#
# 1 0.010373 -0.004157 0.000412 0.000134 0.005590 0.001936
# 2 -0.004157 0.012831 -0.003310 0.001076 0.000611 0.004264
# 3 0.000412 -0.003310 0.008094 0.000946 0.002105 0.001725
# 4 0.000134 0.001076 0.000946 0.019604 0.005740 0.000705
# 5 0.005590 0.000611 0.002105 0.005740 0.034524 0.001712
# 6 0.001936 0.004264 0.001725 0.000705 0.001712 0.030244
#
#
# Mechanical properties :
#
#
# Convention : Reuss Voigt Hill
#
# Bulk Modulus (GPa) = 58.17864 75.39007 66.78436
# Shear Modulus (GPa) = 36.89742 43.38455 40.14098
#
# Velocity S-wave (km/s) = 4.08589 4.43054 4.26170
# Velocity P-wave (km/s) = 6.97013 7.76426 7.37789
#
# Compressibility (1/GPa) = 0.01718844
#
# Stress axis : x y z
#
# Youngs Moduli (GPa) = 96.40230 77.93457 123.54354
#
# Poissons Ratio (x) = 0.32400 -0.05089
# Poissons Ratio (y) = 0.40078 0.40890
# Poissons Ratio (z) = -0.03971 0.25795
#
# Static dielectric constant tensor:
#      x y z
#    x 3.960050 -0.297740 -0.198680 
#    y -0.297740 4.443270 0.216970 
#    z -0.198680 0.216970 3.924090 
# 
# 
# High freq. dielectric constant tensor:
#      x y z
#    x 1.855430 -0.023830 -0.002780 
#    y -0.023830 1.879110 -0.002900 
#    z -0.002780 -0.002900 1.906230 
# 
# From -- ./inp_files/409021.got.cif
#   From: 2010.06.25/outbox.cif.g09.slc.cpg/sg2_205_cif.got.tgz:409021.got - 2010.06.27 13:26:56.
