data_PCOD8035842
_publ_section_title
;
Structure prediction by ZEFSAII (Michael W. Deem and Ramdas Pophale) SiO2 
 PCOD8035842
Probable space group: P -1
;
_chemical_formula_sum "Si O2"
_cell_formula_units_Z 16
_cell_length_a 6.455586
_cell_length_b 11.386860
_cell_length_c 11.559194
_cell_angle_alpha 109.592090
_cell_angle_beta 64.666476
_cell_angle_gamma 113.603589
_cell_volume 689.803730
_symmetry_space_group_name_H-M "P -1"
_symmetry_group_IT_number 2
_symmetry_cell_setting 'triclinic'
loop_
_space_group_symop_operation_xyz
x,y,z
-x,-y,-z
loop_
_atom_site_type_symbol
_atom_site_label
_atom_site_fract_x
_atom_site_fract_y
_atom_site_fract_z
Si Si1 0.307549 0.281050 0.997324
Si Si2 0.276834 0.556941 0.581969
Si Si3 0.185133 0.665414 0.395517
Si Si4 0.306473 0.325771 0.760449
Si Si5 0.797772 0.236392 0.173279
Si Si6 0.495804 0.960930 0.122459
Si Si7 0.055060 0.883103 0.377019
Si Si8 0.261021 0.574673 0.918490
O O1 0.192823 0.302871 0.908764
O O2 0.380854 0.150278 0.927931
O O3 0.533751 0.401717 0.024222
O O4 0.084343 0.265837 0.134471
O O5 0.500000 0.500000 0.500000
O O6 0.226046 0.628755 0.503346
O O7 0.329089 0.675228 0.696130
O O8 0.041950 0.442772 0.639907
O O9 0.425379 0.673488 0.272038
O O10 0.146583 0.806700 0.431518
O O11 0.182390 0.216808 0.658888
O O12 0.310183 0.474788 0.774265
O O13 0.670370 0.087304 0.185950
O O14 0.734473 0.280129 0.075026
O O15 0.241320 0.929461 0.240733
O O16 0.500000 0.000000 0.000000
O O17 0.000000 0.000000 0.500000
O O18 0.000000 0.500000 0.000000
#
# Coordination Sequence:
#
# PCOD8035842 Si02
#       8
#     2   2   2   2   2   2   2   2
#     4  12  25  46  73 109 145 196 245 304 378 448
#     4  11  26  47  75 109 148 192 248 313 373 449
#     4  11  25  47  74 103 148 190 247 302 380 434
#     4  12  25  45  75 106 146 187 247 312 370 447
#     4  12  26  43  74 105 146 193 244 301 374 443
#     4  12  26  50  72 104 153 196 248 310 369 441
#     4  12  29  49  77 107 151 205 257 309 375 453
#     4  12  24  41  73 109 148 185 240 301 383 445
#
# _framework density 23.195001999999999
#
# number of rings (size 3 to 8) (size 9 to 14) (size 15 to 20)
#    0.000    0.250    3.750    5.250    5.250    3.500 
#    0.000    0.000    0.000    0.000    0.000    0.000 
#    0.000    0.000    0.000    0.000    0.000    0.000 
#
# Total GULP energy -198230.555584 kJ/mol
# GULP energy per Si atom -12389.409724 kJ/mol
# Density = 2.314221 g / cm^3
# Si number density = 23.195002 Si / 1000 Ang^3
#
#
#
# Elastic Constant Matrix: (Units=GPa)
#
#
# Indices 1 2 3 4 5 6 
#
# 1 132.5178 59.8055 47.7325 15.8343 -19.5528 10.4187
# 2 59.8055 138.4346 47.6802 22.2086 -9.4835 2.0754
# 3 47.7325 47.6802 101.7123 18.6607 -22.4998 0.5684
# 4 15.8343 22.2086 18.6607 42.5301 -8.0407 -1.4072
# 5 -19.5528 -9.4835 -22.4998 -8.0407 35.4797 2.1610
# 6 10.4187 2.0754 0.5684 -1.4072 2.1610 41.2535
#
#
#
# Elastic Compliance Matrix: (Units=1/GPa)
#
#
# Indices 1 2 3 4 5 6 
#
# 1 0.010807 -0.003411 -0.002597 -0.000543 0.003440 -0.002721
# 2 -0.003411 0.010074 -0.002963 -0.003013 -0.001772 0.000386
# 3 -0.002597 -0.002963 0.014291 -0.002569 0.006246 0.000193
# 4 -0.000543 -0.003013 -0.002569 0.027082 0.003339 0.001073
# 5 0.003440 -0.001772 0.006246 0.003339 0.034480 -0.002558
# 6 -0.002721 0.000386 0.000193 0.001073 -0.002558 0.025076
#
#
# Mechanical properties :
#
#
# Convention : Reuss Voigt Hill
#
# Bulk Modulus (GPa) = 58.03760 75.90011 66.96885
# Shear Modulus (GPa) = 34.36510 38.34911 36.35710
#
# Velocity S-wave (km/s) = 3.85330 4.07053 3.96340
# Velocity P-wave (km/s) = 6.69874 7.40851 7.06255
#
# Compressibility (1/GPa) = 0.01723021
#
# Stress axis : x y z
#
# Youngs Moduli (GPa) = 92.53040 99.26658 69.97224
#
# Poissons Ratio (x) = 0.33859 0.18172
# Poissons Ratio (y) = 0.31561 0.20734
# Poissons Ratio (z) = 0.24031 0.29415
#
# Static dielectric constant tensor:
#      x y z
#    x 4.313780 -0.166310 -0.122040 
#    y -0.166310 5.286610 -0.346520 
#    z -0.122040 -0.346520 4.311930 
# 
# 
# High freq. dielectric constant tensor:
#      x y z
#    x 1.929630 -0.010700 -0.008430 
#    y -0.010700 1.934360 -0.000590 
#    z -0.008430 -0.000590 1.914690 
# 
# From -- ./inp_files/364984.got.cif
#   From: 2010.06.25/outbox.cif.g09.slc.cpg/sg2_183_cif.got.tgz:364984.got - 2010.06.27 13:26:56.
