data_PCOD8035488
_publ_section_title
;
Structure prediction by ZEFSAII (Michael W. Deem and Ramdas Pophale) SiO2 
 PCOD8035488
Probable space group: P -1
;
_chemical_formula_sum "Si O2"
_cell_formula_units_Z 14
_cell_length_a 17.056634
_cell_length_b 14.473482
_cell_length_c 6.578509
_cell_angle_alpha 49.184596
_cell_angle_beta 56.727171
_cell_angle_gamma 31.149946
_cell_volume 635.546605
_symmetry_space_group_name_H-M "P -1"
_symmetry_group_IT_number 2
_symmetry_cell_setting 'triclinic'
loop_
_space_group_symop_operation_xyz
x,y,z
-x,-y,-z
loop_
_atom_site_type_symbol
_atom_site_label
_atom_site_fract_x
_atom_site_fract_y
_atom_site_fract_z
Si Si1 0.680223 0.817097 0.997326
Si Si2 0.543105 0.383137 0.805564
Si Si3 0.135796 0.592723 0.539623
Si Si4 0.744721 0.291553 0.977557
Si Si5 0.724116 0.993718 0.983732
Si Si6 0.109253 0.309483 0.474555
Si Si7 0.069203 0.033037 0.488587
O O1 0.726617 0.877912 0.994931
O O2 0.762534 0.749694 0.756924
O O3 0.725918 0.637629 0.272688
O O4 0.500000 0.000000 0.000000
O O5 0.500000 0.500000 0.500000
O O6 0.695607 0.280741 0.847414
O O7 0.563302 0.217705 0.957908
O O8 0.404072 0.537932 0.927874
O O9 0.188239 0.640945 0.236520
O O10 0.996396 0.653196 0.581764
O O11 0.069779 0.730458 0.630047
O O12 0.869336 0.080424 0.218746
O O13 0.795730 0.038901 0.713359
O O14 0.804993 0.875260 0.245750
O O15 0.000000 0.500000 0.500000
O O16 0.000000 0.000000 0.500000
#
# Coordination Sequence:
#
# PCOD8035488 Si02
#       7
#     2   2   2   2   2   2   2
#     4  12  30  47  72 109 148 196 245 304 367 443
#     4  11  25  45  71 104 150 195 238 302 377 436
#     4  12  25  47  74 103 148 186 245 306 363 444
#     4  11  26  44  71 110 143 190 247 301 371 444
#     4  12  25  45  75 102 146 191 243 300 364 442
#     4  12  25  49  75 103 143 196 249 300 370 429
#     4  12  24  44  76 108 143 188 242 305 369 432
#
# _framework density 22.028282999999998
#
# number of rings (size 3 to 8) (size 9 to 14) (size 15 to 20)
#    0.000    0.286    4.286    4.286    4.000    1.714 
#    0.000    0.000    0.000    0.000    0.000    0.000 
#    0.000    0.000    0.000    0.000    0.000    0.000 
#
# Total GULP energy -173519.242512 kJ/mol
# GULP energy per Si atom -12394.231608 kJ/mol
# Density = 2.197815 g / cm^3
# Si number density = 22.028283 Si / 1000 Ang^3
#
#
#
# Elastic Constant Matrix: (Units=GPa)
#
#
# Indices 1 2 3 4 5 6 
#
# 1 102.0675 48.5052 32.0255 -0.3197 -0.3982 7.2899
# 2 48.5052 146.7058 50.2524 -15.0525 -0.5828 18.1428
# 3 32.0255 50.2524 139.8326 -14.3620 -1.8219 -4.4398
# 4 -0.3197 -15.0525 -14.3620 47.4790 -2.8211 -8.3306
# 5 -0.3982 -0.5828 -1.8219 -2.8211 38.6918 -0.1839
# 6 7.2899 18.1428 -4.4398 -8.3306 -0.1839 46.1581
#
#
#
# Elastic Compliance Matrix: (Units=1/GPa)
#
#
# Indices 1 2 3 4 5 6 
#
# 1 0.012043 -0.003438 -0.001734 -0.001722 -0.000140 -0.001029
# 2 -0.003438 0.009361 -0.002504 0.001653 0.000094 -0.003079
# 3 -0.001734 -0.002504 0.008774 0.002323 0.000539 0.002523
# 4 -0.001722 0.001653 0.002323 0.023091 0.001819 0.004020
# 5 -0.000140 0.000094 0.000539 0.001819 0.026006 0.000469
# 6 -0.001029 -0.003079 0.002523 0.004020 0.000469 0.024008
#
#
# Mechanical properties :
#
#
# Convention : Reuss Voigt Hill
#
# Bulk Modulus (GPa) = 67.44348 72.24135 69.84242
# Shear Modulus (GPa) = 40.46121 43.65395 42.05758
#
# Velocity S-wave (km/s) = 4.29042 4.45648 4.37424
# Velocity P-wave (km/s) = 7.43148 7.70366 7.56879
#
# Compressibility (1/GPa) = 0.01482723
#
# Stress axis : x y z
#
# Youngs Moduli (GPa) = 83.03733 106.82310 113.97195
#
# Poissons Ratio (x) = 0.36723 0.19763
# Poissons Ratio (y) = 0.28546 0.28535
# Poissons Ratio (z) = 0.14399 0.26745
#
# Static dielectric constant tensor:
#      x y z
#    x 4.889830 0.599510 0.005340 
#    y 0.599510 4.745860 -0.196530 
#    z 0.005340 -0.196530 3.826010 
# 
# 
# High freq. dielectric constant tensor:
#      x y z
#    x 1.864250 0.010930 -0.002280 
#    y 0.010930 1.896430 -0.002720 
#    z -0.002280 -0.002720 1.874630 
# 
# From -- ./inp_files/26827.got.cif
#   From: 2010.06.25/outbox.cif.g09.slc.cpg/sg2_14_cif.got.tgz:26827.got - 2010.06.27 13:26:56.
