data_PCOD8035796
_publ_section_title
;
Structure prediction by ZEFSAII (Michael W. Deem and Ramdas Pophale) SiO2 
 PCOD8035796
Probable space group: P -1
;
_chemical_formula_sum "Si O2"
_cell_formula_units_Z 16
_cell_length_a 9.640963
_cell_length_b 11.538634
_cell_length_c 18.080995
_cell_angle_alpha 150.717516
_cell_angle_beta 47.529725
_cell_angle_gamma 130.317418
_cell_volume 716.212540
_symmetry_space_group_name_H-M "P -1"
_symmetry_group_IT_number 2
_symmetry_cell_setting 'triclinic'
loop_
_space_group_symop_operation_xyz
x,y,z
-x,-y,-z
loop_
_atom_site_type_symbol
_atom_site_label
_atom_site_fract_x
_atom_site_fract_y
_atom_site_fract_z
Si Si1 0.045808 0.961861 0.653464
Si Si2 0.193432 0.039816 0.801350
Si Si3 0.946033 0.568278 0.679025
Si Si4 0.635773 0.049471 0.870022
Si Si5 0.745524 0.749346 0.391226
Si Si6 0.551558 0.631928 0.782311
Si Si7 0.398061 0.905586 0.256349
Si Si8 0.925178 0.525627 0.836529
O O1 0.988914 0.674802 0.508957
O O2 0.180465 0.038511 0.716999
O O3 0.150147 0.050264 0.589777
O O4 0.862207 0.089179 0.800607
O O5 0.414476 0.128309 0.785957
O O6 0.067836 0.221033 0.984073
O O7 0.120548 0.777314 0.714831
O O8 0.759986 0.615067 0.727828
O O9 0.902166 0.558578 0.776005
O O10 0.538907 0.019200 0.807666
O O11 0.561455 0.813887 0.812109
O O12 0.578185 0.284208 0.059605
O O13 0.550843 0.624490 0.353161
O O14 0.875892 0.556210 0.260194
O O15 0.701440 0.884283 0.556351
O O16 0.253465 0.657317 0.170671
#
# Coordination Sequence:
#
# PCOD8035796 Si02
#       8
#     2   2   2   2   2   2   2   2
#     4  12  25  48  72 101 142 182 235 285 341 415
#     4  12  28  43  73 103 137 189 231 280 355 403
#     4  12  26  48  70 101 146 181 229 291 342 413
#     4  11  25  47  71 100 145 178 231 290 337 411
#     4  12  27  46  73 104 137 189 229 285 349 406
#     4  11  27  45  72 106 138 182 232 286 345 410
#     4  12  26  47  69 105 141 185 230 284 345 412
#     4  12  26  47  70 102 143 182 232 287 344 412
#
# _framework density 22.339735999999998
#
# number of rings (size 3 to 8) (size 9 to 14) (size 15 to 20)
#    0.000    0.250    3.750    4.500    8.750    2.500 
#    0.000    0.000    0.000    0.000    0.000    0.000 
#    0.000    0.000    0.000    0.000    0.000    0.000 
#
# Total GULP energy -198557.503757 kJ/mol
# GULP energy per Si atom -12409.843985 kJ/mol
# Density = 2.228889 g / cm^3
# Si number density = 22.339736 Si / 1000 Ang^3
#
#
#
# Elastic Constant Matrix: (Units=GPa)
#
#
# Indices 1 2 3 4 5 6 
#
# 1 87.9434 18.9874 20.8891 0.3212 10.5450 -6.6133
# 2 18.9874 62.3540 12.3418 -3.1326 11.9026 2.1322
# 3 20.8891 12.3418 57.6000 -0.4481 23.6525 -9.5450
# 4 0.3212 -3.1326 -0.4481 31.1858 -3.7045 4.7513
# 5 10.5450 11.9026 23.6525 -3.7045 36.8576 -5.5490
# 6 -6.6133 2.1322 -9.5450 4.7513 -5.5490 30.2903
#
#
#
# Elastic Compliance Matrix: (Units=1/GPa)
#
#
# Indices 1 2 3 4 5 6 
#
# 1 0.013140 -0.003371 -0.003670 -0.000852 -0.000090 0.002067
# 2 -0.003371 0.018415 -0.001514 0.001894 -0.004363 -0.003606
# 3 -0.003670 -0.001514 0.025789 -0.002244 -0.014463 0.005134
# 4 -0.000852 0.001894 -0.002244 0.033517 0.003594 -0.005626
# 5 -0.000090 -0.004363 -0.014463 0.003594 0.038544 0.002227
# 6 0.002067 -0.003606 0.005134 -0.005626 0.002227 0.036627
#
#
# Mechanical properties :
#
#
# Convention : Reuss Voigt Hill
#
# Bulk Modulus (GPa) = 24.85541 34.70377 29.77959
# Shear Modulus (GPa) = 25.43831 30.04534 27.74182
#
# Velocity S-wave (km/s) = 3.37813 3.67130 3.52776
# Velocity P-wave (km/s) = 5.13477 5.79134 5.47291
#
# Compressibility (1/GPa) = 0.04023268
#
# Stress axis : x y z
#
# Youngs Moduli (GPa) = 76.10423 54.30337 38.77633
#
# Poissons Ratio (x) = 0.18306 0.14231
# Poissons Ratio (y) = 0.25656 0.05872
# Poissons Ratio (z) = 0.27931 0.08223
#
# Static dielectric constant tensor:
#      x y z
#    x 4.137570 -0.162460 0.051720 
#    y -0.162460 4.041570 -0.093880 
#    z 0.051720 -0.093880 4.222230 
# 
# 
# High freq. dielectric constant tensor:
#      x y z
#    x 1.893750 -0.006340 0.004170 
#    y -0.006340 1.882440 -0.005850 
#    z 0.004170 -0.005850 1.895790 
# 
# From -- ./inp_files/206461.got.cif
#   From: 2010.06.25/outbox.cif.g09.slc.cpg/sg2_104_cif.got.tgz:206461.got - 2010.06.27 13:26:56.
