data_PCOD8035821
_publ_section_title
;
Structure prediction by ZEFSAII (Michael W. Deem and Ramdas Pophale) SiO2 
 PCOD8035821
Probable space group: P -1
;
_chemical_formula_sum "Si O2"
_cell_formula_units_Z 14
_cell_length_a 4.767778
_cell_length_b 16.606520
_cell_length_c 7.884276
_cell_angle_alpha 62.032018
_cell_angle_beta 98.265266
_cell_angle_gamma 82.274808
_cell_volume 530.866720
_symmetry_space_group_name_H-M "P -1"
_symmetry_group_IT_number 2
_symmetry_cell_setting 'triclinic'
loop_
_space_group_symop_operation_xyz
x,y,z
-x,-y,-z
loop_
_atom_site_type_symbol
_atom_site_label
_atom_site_fract_x
_atom_site_fract_y
_atom_site_fract_z
Si Si1 0.190413 0.670449 0.183163
Si Si2 0.171973 0.397807 0.559197
Si Si3 0.102352 0.154298 0.222096
Si Si4 0.438991 0.623049 0.704523
Si Si5 0.715157 0.009481 0.861051
Si Si6 0.346052 0.827684 0.560825
Si Si7 0.180215 0.458787 0.898803
O O1 0.041442 0.675969 0.354872
O O2 0.017250 0.597816 0.161857
O O3 0.539643 0.630518 0.261351
O O4 0.118330 0.769340 0.985378
O O5 0.279637 0.393416 0.378901
O O6 0.000000 0.500000 0.500000
O O7 0.261739 0.068453 0.204835
O O8 0.348288 0.197860 0.287159
O O9 0.911482 0.120211 0.386701
O O10 0.273287 0.732024 0.579541
O O11 0.245107 0.548566 0.707173
O O12 0.522635 0.603936 0.931639
O O13 0.625285 0.109097 0.661444
O O14 0.500000 0.000000 0.000000
O O15 0.000000 0.000000 0.000000
O O16 0.000000 0.500000 0.000000
#
# Coordination Sequence:
#
# PCOD8035821 Si02
#       7
#     2   2   2   2   2   2   2
#     4  12  28  46  76 106 155 205 264 317 388 460
#     4  12  30  48  71 107 156 208 261 326 394 453
#     4  12  26  51  79 117 152 207 257 318 389 470
#     4  11  28  46  76 110 154 205 263 319 383 459
#     4  12  28  50  84 120 158 198 250 326 399 466
#     4  12  26  50  81 114 156 205 262 316 389 470
#     4  11  25  47  72 106 149 202 260 319 371 450
#
# _framework density 26.371964999999999
#
# number of rings (size 3 to 8) (size 9 to 14) (size 15 to 20)
#    0.000    0.286    1.429    5.571   14.000    0.000 
#    0.000    0.000    0.000    0.000    0.000    0.000 
#    0.000    0.000    0.000    0.000    0.000    0.000 
#
# Total GULP energy -173540.028279 kJ/mol
# GULP energy per Si atom -12395.716306 kJ/mol
# Density = 2.631194 g / cm^3
# Si number density = 26.371965 Si / 1000 Ang^3
#
#
#
# Elastic Constant Matrix: (Units=GPa)
#
#
# Indices 1 2 3 4 5 6 
#
# 1 148.5394 30.6049 30.5483 -6.4260 -12.5136 -14.9553
# 2 30.6049 121.7852 61.4299 -10.1343 -3.3475 -8.3897
# 3 30.5483 61.4299 171.8018 -17.0995 -14.5815 -8.6639
# 4 -6.4260 -10.1343 -17.0995 45.3309 -4.6356 -3.3128
# 5 -12.5136 -3.3475 -14.5815 -4.6356 57.1842 12.1796
# 6 -14.9553 -8.3897 -8.6639 -3.3128 12.1796 42.0561
#
#
#
# Elastic Compliance Matrix: (Units=1/GPa)
#
#
# Indices 1 2 3 4 5 6 
#
# 1 0.007454 -0.001350 -0.000574 0.000793 0.001039 0.002025
# 2 -0.001350 0.010395 -0.003394 0.000863 -0.000732 0.001175
# 3 -0.000574 -0.003394 0.007516 0.002194 0.001696 0.000349
# 4 0.000793 0.000863 0.002194 0.023577 0.002245 0.002113
# 5 0.001039 -0.000732 0.001696 0.002245 0.019318 -0.004845
# 6 0.002025 0.001175 0.000349 0.002113 -0.004845 0.026374
#
#
# Mechanical properties :
#
#
# Convention : Reuss Voigt Hill
#
# Bulk Modulus (GPa) = 67.88657 76.36584 72.12620
# Shear Modulus (GPa) = 45.38094 50.21713 47.79904
#
# Velocity S-wave (km/s) = 4.15276 4.36843 4.26196
# Velocity P-wave (km/s) = 6.98510 7.38000 7.18526
#
# Compressibility (1/GPa) = 0.01473045
#
# Stress axis : x y z
#
# Youngs Moduli (GPa) = 134.15657 96.20090 133.04843
#
# Poissons Ratio (x) = 0.12986 0.07631
# Poissons Ratio (y) = 0.18110 0.45154
# Poissons Ratio (z) = 0.07695 0.32649
#
# Static dielectric constant tensor:
#      x y z
#    x 7.062790 -1.184240 -1.247870 
#    y -1.184240 5.168380 0.991920 
#    z -1.247870 0.991920 6.299620 
# 
# 
# High freq. dielectric constant tensor:
#      x y z
#    x 2.084440 -0.000060 0.002000 
#    y -0.000060 2.046650 0.026590 
#    z 0.002000 0.026590 2.098470 
# 
# From -- ./inp_files/137204.got.cif
#   From: 2010.06.25/outbox.cif.g09.slc.cpg/sg2_69_cif.got.tgz:137204.got - 2010.06.27 13:26:56.
