data_PCOD8035196
_publ_section_title
;
Structure prediction by ZEFSAII (Michael W. Deem and Ramdas Pophale) SiO2 
 PCOD8035196
Probable space group: P -1
;
_chemical_formula_sum "Si O2"
_cell_formula_units_Z 12
_cell_length_a 9.327784
_cell_length_b 9.159212
_cell_length_c 14.381923
_cell_angle_alpha 149.990429
_cell_angle_beta 127.817708
_cell_angle_gamma 47.751019
_cell_volume 453.309462
_symmetry_space_group_name_H-M "P -1"
_symmetry_group_IT_number 2
_symmetry_cell_setting 'triclinic'
loop_
_space_group_symop_operation_xyz
x,y,z
-x,-y,-z
loop_
_atom_site_type_symbol
_atom_site_label
_atom_site_fract_x
_atom_site_fract_y
_atom_site_fract_z
Si Si1 0.610893 0.880309 0.250967
Si Si2 0.180732 0.717312 0.356607
Si Si3 0.964969 0.362751 0.184950
Si Si4 0.672841 0.765689 0.997001
Si Si5 0.783053 0.758707 0.616660
Si Si6 0.943087 0.102686 0.327536
O O1 0.742768 0.572103 0.189157
O O2 0.609361 0.793303 0.094956
O O3 0.679245 0.173912 0.460994
O O4 0.391858 0.980370 0.257164
O O5 0.116686 0.445062 0.224061
O O6 0.283284 0.574745 0.219813
O O7 0.993970 0.025674 0.418070
O O8 0.017510 0.415028 0.339684
O O9 0.000000 0.000000 0.000000
O O10 0.872869 0.836968 0.110546
O O11 0.500000 0.000000 0.000000
O O12 0.758043 0.424422 0.405172
O O13 0.850359 0.924594 0.651261
#
# Coordination Sequence:
#
# PCOD8035196 Si02
#       6
#     2   2   2   2   2   2
#     4  12  27  51  83 117 155 208 270 319 389 478
#     4  12  25  51  81 110 158 213 257 324 399 464
#     4  12  26  48  76 115 162 207 260 332 392 459
#     4  12  26  46  79 117 152 207 268 320 388 473
#     4  11  26  47  77 115 160 207 260 327 397 462
#     4  11  24  49  76 114 162 206 259 328 396 467
#
# _framework density 26.471982000000001
#
# number of rings (size 3 to 8) (size 9 to 14) (size 15 to 20)
#    0.000    0.333    3.333    5.000    2.333    3.333 
#    6.000    0.000    0.000    0.000    0.000    0.000 
#    0.000    0.000    0.000    0.000    0.000    0.000 
#
# Total GULP energy -148673.528004 kJ/mol
# GULP energy per Si atom -12389.460667 kJ/mol
# Density = 2.641173 g / cm^3
# Si number density = 26.471982 Si / 1000 Ang^3
#
#
#
# Elastic Constant Matrix: (Units=GPa)
#
#
# Indices 1 2 3 4 5 6 
#
# 1 113.6032 22.8896 37.5645 20.6359 -6.3352 -2.3452
# 2 22.8896 136.9829 12.8961 9.4642 11.1450 4.6812
# 3 37.5645 12.8961 61.0826 15.1954 -10.0075 4.2350
# 4 20.6359 9.4642 15.1954 48.9416 6.0927 -2.2604
# 5 -6.3352 11.1450 -10.0075 6.0927 37.9114 11.9534
# 6 -2.3452 4.6812 4.2350 -2.2604 11.9534 40.8052
#
#
#
# Elastic Compliance Matrix: (Units=1/GPa)
#
#
# Indices 1 2 3 4 5 6 
#
# 1 0.011672 -0.001280 -0.006145 -0.002820 0.000825 0.001058
# 2 -0.001280 0.007881 -0.001277 -0.000238 -0.002819 -0.000032
# 3 -0.006145 -0.001277 0.023562 -0.005744 0.008184 -0.005368
# 4 -0.002820 -0.000238 -0.005744 0.024513 -0.007085 0.003895
# 5 0.000825 -0.002819 0.008184 -0.007085 0.034064 -0.010850
# 6 0.001058 -0.000032 -0.005368 0.003895 -0.010850 0.028522
#
#
# Mechanical properties :
#
#
# Convention : Reuss Voigt Hill
#
# Bulk Modulus (GPa) = 38.89322 50.92988 44.91155
# Shear Modulus (GPa) = 32.01255 41.41955 36.71605
#
# Velocity S-wave (km/s) = 3.48127 3.95986 3.72826
# Velocity P-wave (km/s) = 5.55726 6.33942 5.96118
#
# Compressibility (1/GPa) = 0.02571142
#
# Stress axis : x y z
#
# Youngs Moduli (GPa) = 85.67189 126.88255 42.44182
#
# Poissons Ratio (x) = 0.16245 0.26079
# Poissons Ratio (y) = 0.10969 0.05420
# Poissons Ratio (z) = 0.52643 0.16202
#
# Static dielectric constant tensor:
#      x y z
#    x 4.667360 0.018850 -0.224960 
#    y 0.018850 5.062150 0.371200 
#    z -0.224960 0.371200 8.252350 
# 
# 
# High freq. dielectric constant tensor:
#      x y z
#    x 2.053570 0.009960 -0.015130 
#    y 0.009960 2.070910 0.009680 
#    z -0.015130 0.009680 2.083280 
# 
# From -- ./inp_files/494183.got.cif
#   From: 2010.06.25/outbox.cif.g09.slc.cpg/sg2_248_cif.got.tgz:494183.got - 2010.06.27 13:26:56.
