data_PCOD8035626
_publ_section_title
;
Structure prediction by ZEFSAII (Michael W. Deem and Ramdas Pophale) SiO2 
 PCOD8035626
Probable space group: P -1
;
_chemical_formula_sum "Si O2"
_cell_formula_units_Z 16
_cell_length_a 16.770143
_cell_length_b 11.673806
_cell_length_c 5.109224
_cell_angle_alpha 100.712821
_cell_angle_beta 61.572325
_cell_angle_gamma 123.905200
_cell_volume 725.697430
_symmetry_space_group_name_H-M "P -1"
_symmetry_group_IT_number 2
_symmetry_cell_setting 'triclinic'
loop_
_space_group_symop_operation_xyz
x,y,z
-x,-y,-z
loop_
_atom_site_type_symbol
_atom_site_label
_atom_site_fract_x
_atom_site_fract_y
_atom_site_fract_z
Si Si1 0.550055 0.633803 0.800294
Si Si2 0.772535 0.056954 0.345446
Si Si3 0.624810 0.092905 0.921131
Si Si4 0.603841 0.855380 0.187873
Si Si5 0.607348 0.324996 0.270246
Si Si6 0.139858 0.212552 0.363696
Si Si7 0.101817 0.918187 0.322890
Si Si8 0.732088 0.629809 0.265855
O O1 0.455322 0.647853 0.844179
O O2 0.619416 0.623086 0.456299
O O3 0.500000 0.500000 0.000000
O O4 0.630130 0.768902 0.910996
O O5 0.705468 0.125932 0.564472
O O6 0.846431 0.064616 0.467918
O O7 0.678852 0.894865 0.347822
O O8 0.847132 0.129327 0.002585
O O9 0.657295 0.241467 0.043295
O O10 0.500000 0.000000 0.000000
O O11 0.643742 0.005256 0.067316
O O12 0.476553 0.767575 0.409184
O O13 0.703801 0.473187 0.291616
O O14 0.182741 0.266731 0.610534
O O15 0.024919 0.197018 0.509262
O O16 0.123960 0.065847 0.262869
O O17 0.221967 0.324813 0.076355
#
# Coordination Sequence:
#
# PCOD8035626 Si02
#       8
#     2   2   2   2   2   2   2   2
#     4  12  25  41  61 101 147 190 217 266 338 425
#     4  12  24  42  70 100 136 177 219 292 343 395
#     4  12  25  42  67 102 138 189 233 282 328 393
#     4  12  24  41  67 101 138 187 225 281 325 407
#     4  12  27  42  64  99 148 186 230 271 328 424
#     4  11  26  44  72 100 133 176 230 290 349 408
#     4  11  25  46  70 103 132 171 233 294 347 402
#     4  12  26  43  67 101 141 185 218 277 350 416
#
# _framework density 22.047758999999999
#
# number of rings (size 3 to 8) (size 9 to 14) (size 15 to 20)
#    0.000    0.250    5.000    3.750    7.000    2.000 
#    0.000    0.000    0.000    4.500    0.000    0.000 
#    0.000    0.000    0.000    0.000    0.000    0.000 
#
# Total GULP energy -198432.509105 kJ/mol
# GULP energy per Si atom -12402.031819 kJ/mol
# Density = 2.199758 g / cm^3
# Si number density = 22.047759 Si / 1000 Ang^3
#
#
#
# Elastic Constant Matrix: (Units=GPa)
#
#
# Indices 1 2 3 4 5 6 
#
# 1 78.7151 22.5001 26.4638 1.8221 -0.2536 7.8541
# 2 22.5001 103.4125 34.6767 9.7562 -7.8321 -16.9834
# 3 26.4638 34.6767 128.6135 6.2477 -8.4415 -4.8794
# 4 1.8221 9.7562 6.2477 33.6403 2.8238 -5.3789
# 5 -0.2536 -7.8321 -8.4415 2.8238 37.1144 1.1392
# 6 7.8541 -16.9834 -4.8794 -5.3789 1.1392 31.5903
#
#
#
# Elastic Compliance Matrix: (Units=1/GPa)
#
#
# Indices 1 2 3 4 5 6 
#
# 1 0.015137 -0.003517 -0.002450 -0.000227 -0.000993 -0.006035
# 2 -0.003517 0.012664 -0.002186 -0.002149 0.002103 0.006903
# 3 -0.002450 -0.002186 0.009045 -0.000953 0.001633 0.000610
# 4 -0.000227 -0.002149 -0.000953 0.031483 -0.003197 0.004230
# 5 -0.000993 0.002103 0.001633 -0.003197 0.027993 0.000076
# 6 -0.006035 0.006903 0.000610 0.004230 0.000076 0.037679
#
#
# Mechanical properties :
#
#
# Convention : Reuss Voigt Hill
#
# Bulk Modulus (GPa) = 48.68472 53.11358 50.89915
# Shear Modulus (GPa) = 31.81569 35.60904 33.71237
#
# Velocity S-wave (km/s) = 3.80285 4.02317 3.91456
# Velocity P-wave (km/s) = 6.43519 6.76194 6.60058
#
# Compressibility (1/GPa) = 0.02054032
#
# Stress axis : x y z
#
# Youngs Moduli (GPa) = 66.06247 78.96278 110.55390
#
# Poissons Ratio (x) = 0.27773 0.27081
# Poissons Ratio (y) = 0.23235 0.24173
# Poissons Ratio (z) = 0.16182 0.17265
#
# Static dielectric constant tensor:
#      x y z
#    x 4.022840 0.055670 -0.122940 
#    y 0.055670 4.061360 0.150640 
#    z -0.122940 0.150640 4.224860 
# 
# 
# High freq. dielectric constant tensor:
#      x y z
#    x 1.859210 0.010160 0.005480 
#    y 0.010160 1.849730 0.013540 
#    z 0.005480 0.013540 1.883770 
# 
# From -- ./inp_files/109167.got.cif
#   From: 2010.06.25/outbox.cif.g09.slc.cpg/sg2_55_cif.got.tgz:109167.got - 2010.06.27 13:26:56.
