data_PCOD8035051
_publ_section_title
;
Structure prediction by ZEFSAII (Michael W. Deem and Ramdas Pophale) SiO2 
 PCOD8035051
Probable space group: P -1
;
_chemical_formula_sum "Si O2"
_cell_formula_units_Z 16
_cell_length_a 8.648149
_cell_length_b 24.229883
_cell_length_c 20.698573
_cell_angle_alpha 18.262725
_cell_angle_beta 29.898811
_cell_angle_gamma 31.909714
_cell_volume 668.322849
_symmetry_space_group_name_H-M "P -1"
_symmetry_group_IT_number 2
_symmetry_cell_setting 'triclinic'
loop_
_space_group_symop_operation_xyz
x,y,z
-x,-y,-z
loop_
_atom_site_type_symbol
_atom_site_label
_atom_site_fract_x
_atom_site_fract_y
_atom_site_fract_z
Si Si1 0.147402 0.723130 0.862671
Si Si2 0.100000 0.799897 0.297793
Si Si3 0.273770 0.073980 0.105125
Si Si4 0.122594 0.478531 0.408302
Si Si5 0.893240 0.702755 0.835968
Si Si6 0.830884 0.149788 0.065198
Si Si7 0.256209 0.742947 0.546226
Si Si8 0.843142 0.661301 0.672177
O O1 0.491816 0.776749 0.665269
O O2 0.922577 0.862281 0.831668
O O3 0.972686 0.713808 0.869185
O O4 0.189646 0.545654 0.088661
O O5 0.997504 0.682271 0.407520
O O6 0.060802 0.700601 0.489842
O O7 0.466643 0.812403 0.139562
O O8 0.895186 0.001212 0.149459
O O9 0.023272 0.050627 0.165961
O O10 0.436839 0.878918 0.289062
O O11 0.499750 0.434494 0.326571
O O12 0.000000 0.500000 0.500000
O O13 0.019712 0.671064 0.198945
O O14 0.533934 0.789255 0.856741
O O15 0.093441 0.817992 0.589524
O O16 0.000000 0.500000 0.000000
O O17 0.984022 0.692451 0.655749
#
# Coordination Sequence:
#
# PCOD8035051 Si02
#       8
#     2   2   2   2   2   2   2   2
#     4  11  26  45  76 111 147 198 256 312 381 452
#     4  12  29  49  79 113 157 200 256 313 381 455
#     4  12  29  48  75 113 151 199 260 312 375 458
#     4  12  29  48  76 109 155 203 250 310 384 451
#     4  12  25  47  75 110 151 199 253 316 383 452
#     4  12  27  50  78 111 153 200 253 315 377 453
#     4  12  26  48  76 107 152 194 252 316 374 449
#     4  11  24  47  75 108 149 197 252 312 376 448
#
# _framework density 23.940525999999998
#
# number of rings (size 3 to 8) (size 9 to 14) (size 15 to 20)
#    0.000    0.250    3.750    3.375   10.500    3.500 
#    0.000    0.000    0.000    0.000    0.000    0.000 
#    0.000    0.000    0.000    0.000    0.000    0.000 
#
# Total GULP energy -198335.673344 kJ/mol
# GULP energy per Si atom -12395.979584 kJ/mol
# Density = 2.388604 g / cm^3
# Si number density = 23.940526 Si / 1000 Ang^3
#
#
#
# Elastic Constant Matrix: (Units=GPa)
#
#
# Indices 1 2 3 4 5 6 
#
# 1 116.5677 53.4227 37.1796 1.3814 -1.2686 12.6794
# 2 53.4227 111.5975 31.5751 5.9397 -3.0339 15.4986
# 3 37.1796 31.5751 104.8216 3.7760 8.7499 7.5977
# 4 1.3814 5.9397 3.7760 49.2385 4.3149 -0.6974
# 5 -1.2686 -3.0339 8.7499 4.3149 38.7161 -1.5175
# 6 12.6794 15.4986 7.5977 -0.6974 -1.5175 43.2842
#
#
#
# Elastic Compliance Matrix: (Units=1/GPa)
#
#
# Indices 1 2 3 4 5 6 
#
# 1 0.011727 -0.004675 -0.002719 0.000378 0.000541 -0.001259
# 2 -0.004675 0.012206 -0.001885 -0.001346 0.001276 -0.002647
# 3 -0.002719 -0.001885 0.011362 -0.000332 -0.002792 -0.000626
# 4 0.000378 -0.001346 -0.000332 0.020698 -0.002298 0.000682
# 5 0.000541 0.001276 -0.002792 -0.002298 0.026864 0.000780
# 6 -0.001259 -0.002647 -0.000626 0.000682 0.000780 0.024568
#
#
# Mechanical properties :
#
#
# Convention : Reuss Voigt Hill
#
# Bulk Modulus (GPa) = 59.74292 64.14908 61.94600
# Shear Modulus (GPa) = 38.00504 40.30174 39.15339
#
# Velocity S-wave (km/s) = 3.98864 4.10739 4.04845
# Velocity P-wave (km/s) = 6.79862 7.02478 6.91263
#
# Compressibility (1/GPa) = 0.01673838
#
# Stress axis : x y z
#
# Youngs Moduli (GPa) = 85.27514 81.92712 88.00897
#
# Poissons Ratio (x) = 0.38302 0.23927
# Poissons Ratio (y) = 0.39867 0.16587
# Poissons Ratio (z) = 0.23184 0.15440
#
# Static dielectric constant tensor:
#      x y z
#    x 4.438260 0.023200 0.179500 
#    y 0.023200 4.798850 0.012870 
#    z 0.179500 0.012870 4.817280 
# 
# 
# High freq. dielectric constant tensor:
#      x y z
#    x 1.949220 0.002690 0.011340 
#    y 0.002690 1.959620 0.002240 
#    z 0.011340 0.002240 1.965530 
# 
# From -- ./inp_files/447680.got.cif
#   From: 2010.06.25/outbox.cif.g09.slc.cpg/sg2_224_cif.got.tgz:447680.got - 2010.06.27 13:26:56.
