data_PCOD8035415
_publ_section_title
;
Structure prediction by ZEFSAII (Michael W. Deem and Ramdas Pophale) SiO2 
 PCOD8035415
Probable space group: P -1
;
_chemical_formula_sum "Si O2"
_cell_formula_units_Z 12
_cell_length_a 9.762536
_cell_length_b 12.882477
_cell_length_c 9.383420
_cell_angle_alpha 117.093468
_cell_angle_beta 95.037490
_cell_angle_gamma 35.806928
_cell_volume 517.121743
_symmetry_space_group_name_H-M "P -1"
_symmetry_group_IT_number 2
_symmetry_cell_setting 'triclinic'
loop_
_space_group_symop_operation_xyz
x,y,z
-x,-y,-z
loop_
_atom_site_type_symbol
_atom_site_label
_atom_site_fract_x
_atom_site_fract_y
_atom_site_fract_z
Si Si1 0.643901 0.566358 0.834245
Si Si2 0.932127 0.817963 0.147060
Si Si3 0.456298 0.091129 0.903520
Si Si4 0.225068 0.680327 0.817090
Si Si5 0.719521 0.134921 0.550791
Si Si6 0.930390 0.817545 0.602047
O O1 0.353635 0.714512 0.868610
O O2 0.851244 0.408925 0.620400
O O3 0.779925 0.398946 0.875566
O O4 0.591104 0.737485 0.975938
O O5 0.806004 0.780266 0.110844
O O6 0.713276 0.062608 0.361110
O O7 0.981079 0.835859 0.006238
O O8 0.733801 0.867822 0.693710
O O9 0.500000 0.000000 0.000000
O O10 0.100650 0.767577 0.701886
O O11 0.454802 0.412214 0.695995
O O12 0.718895 0.055485 0.642316
O O13 0.000000 0.000000 0.500000
#
# Coordination Sequence:
#
# PCOD8035415 Si02
#       6
#     2   2   2   2   2   2
#     4  11  26  43  73 102 137 184 236 288 351 406
#     4  11  25  46  71 102 142 185 232 287 346 421
#     4  12  27  46  66 104 142 189 234 278 348 418
#     4  12  24  45  76 105 140 180 232 297 347 407
#     4  11  25  44  73 108 138 177 232 287 357 406
#     4  11  26  45  72 105 141 183 234 288 345 416
#
# _framework density 23.205365
#
# number of rings (size 3 to 8) (size 9 to 14) (size 15 to 20)
#    0.000    0.667    5.000    2.500    4.667    5.333 
#    0.000    0.000    0.000    0.000    0.000    0.000 
#    0.000    0.000    0.000    0.000    0.000    0.000 
#
# Total GULP energy -148854.004920 kJ/mol
# GULP energy per Si atom -12404.500410 kJ/mol
# Density = 2.315255 g / cm^3
# Si number density = 23.205365 Si / 1000 Ang^3
#
#
#
# Elastic Constant Matrix: (Units=GPa)
#
#
# Indices 1 2 3 4 5 6 
#
# 1 136.0488 14.1342 64.8056 24.7521 -0.5439 0.2420
# 2 14.1342 45.0109 25.7213 -6.2784 9.1750 1.0327
# 3 64.8056 25.7213 134.5704 -11.6677 -2.0822 2.5164
# 4 24.7521 -6.2784 -11.6677 17.6688 2.0250 0.7844
# 5 -0.5439 9.1750 -2.0822 2.0250 46.6691 -0.5913
# 6 0.2420 1.0327 2.5164 0.7844 -0.5913 33.9308
#
#
#
# Elastic Compliance Matrix: (Units=1/GPa)
#
#
# Indices 1 2 3 4 5 6 
#
# 1 0.021540 -0.005737 -0.012834 -0.041076 0.002614 0.001968
# 2 -0.005737 0.028612 -0.001204 0.018217 -0.006552 -0.001276
# 3 -0.012834 -0.001204 0.016336 0.028467 -0.000441 -0.001749
# 4 -0.041076 0.018217 0.028467 0.140696 -0.008968 -0.005782
# 5 0.002614 -0.006552 -0.000441 -0.008968 0.023126 0.000824
# 6 0.001968 -0.001276 -0.001749 -0.005782 0.000824 0.029774
#
#
# Mechanical properties :
#
#
# Convention : Reuss Voigt Hill
#
# Bulk Modulus (GPa) = 37.12341 58.32804 47.72572
# Shear Modulus (GPa) = 16.20145 33.71834 24.95990
#
# Velocity S-wave (km/s) = 2.64517 3.81601 3.28321
# Velocity P-wave (km/s) = 5.03604 6.67878 5.91472
#
# Compressibility (1/GPa) = 0.02693718
#
# Stress axis : x y z
#
# Youngs Moduli (GPa) = 46.42546 34.94990 61.21486
#
# Poissons Ratio (x) = 0.20052 0.78565
# Poissons Ratio (y) = 0.26636 0.07370
# Poissons Ratio (z) = 0.59584 0.04208
#
# Static dielectric constant tensor:
#      x y z
#    x 38.013050 20.385780 13.487850 
#    y 20.385780 17.365860 8.423740 
#    z 13.487850 8.423740 10.048210 
# 
# 
# High freq. dielectric constant tensor:
#      x y z
#    x 1.919140 -0.003820 0.000590 
#    y -0.003820 1.916460 -0.007580 
#    z 0.000590 -0.007580 1.937040 
# 
# From -- ./inp_files/171287.got.cif
#   From: 2010.06.25/outbox.cif.g09.slc.cpg/sg2_86_cif.got.tgz:171287.got - 2010.06.27 13:26:56.
