data_PCOD8035913
_publ_section_title
;
Structure prediction by ZEFSAII (Michael W. Deem and Ramdas Pophale) SiO2 
 PCOD8035913
Probable space group: P -1
;
_chemical_formula_sum "Si O2"
_cell_formula_units_Z 16
_cell_length_a 8.969309
_cell_length_b 14.665004
_cell_length_c 9.172894
_cell_angle_alpha 142.309710
_cell_angle_beta 86.844253
_cell_angle_gamma 84.787154
_cell_volume 718.483816
_symmetry_space_group_name_H-M "P -1"
_symmetry_group_IT_number 2
_symmetry_cell_setting 'triclinic'
loop_
_space_group_symop_operation_xyz
x,y,z
-x,-y,-z
loop_
_atom_site_type_symbol
_atom_site_label
_atom_site_fract_x
_atom_site_fract_y
_atom_site_fract_z
Si Si1 0.346055 0.181156 0.130195
Si Si2 0.154535 0.774825 0.962984
Si Si3 0.154789 0.510919 0.088050
Si Si4 0.813605 0.908214 0.219156
Si Si5 0.379167 0.215605 0.700312
Si Si6 0.837777 0.501117 0.577611
Si Si7 0.665828 0.990147 0.811285
Si Si8 0.273664 0.768234 0.255460
O O1 0.286237 0.353632 0.294280
O O2 0.301144 0.156318 0.268621
O O3 0.266516 0.060689 0.895042
O O4 0.529422 0.130205 0.045584
O O5 0.205923 0.652868 0.676343
O O6 0.254172 0.714615 0.024434
O O7 0.978200 0.795703 0.046489
O O8 0.184238 0.938915 0.119146
O O9 0.147738 0.502737 0.253393
O O10 0.207803 0.665293 0.243113
O O11 0.282129 0.372976 0.839070
O O12 0.000000 0.500000 0.000000
O O13 0.703115 0.812804 0.182188
O O14 0.826770 0.060960 0.495642
O O15 0.378101 0.068653 0.416079
O O16 0.549632 0.235433 0.736437
O O17 0.000000 0.500000 0.500000
#
# Coordination Sequence:
#
# PCOD8035913 Si02
#       8
#     2   2   2   2   2   2   2   2
#     4  11  25  48  71 100 145 185 238 290 355 424
#     4  12  27  43  71 109 141 185 236 290 366 415
#     4  12  29  46  73 107 143 185 241 291 353 425
#     4  12  23  45  72 102 141 184 239 302 344 420
#     4  12  24  48  72  99 143 186 238 298 350 417
#     4  12  26  48  70 102 147 188 227 293 359 421
#     4  11  27  45  74 106 136 192 237 296 354 419
#     4  12  26  45  72 106 140 187 240 292 355 418
#
# _framework density 22.269116
#
# number of rings (size 3 to 8) (size 9 to 14) (size 15 to 20)
#    0.000    0.250    5.000    3.375    7.000    1.000 
#    0.000    0.000    0.000    0.000    0.000    0.000 
#    0.000    0.000    0.000    0.000    0.000    0.000 
#
# Total GULP energy -198391.524767 kJ/mol
# GULP energy per Si atom -12399.470298 kJ/mol
# Density = 2.221843 g / cm^3
# Si number density = 22.269116 Si / 1000 Ang^3
#
#
#
# Elastic Constant Matrix: (Units=GPa)
#
#
# Indices 1 2 3 4 5 6 
#
# 1 122.2692 58.8299 52.7910 -3.4170 10.9178 7.9707
# 2 58.8299 124.9536 51.7931 -0.5735 -1.0624 4.0151
# 3 52.7910 51.7931 115.8407 -1.5614 2.0312 -4.6896
# 4 -3.4170 -0.5735 -1.5614 37.8345 -3.1345 1.1761
# 5 10.9178 -1.0624 2.0312 -3.1345 30.5845 1.4504
# 6 7.9707 4.0151 -4.6896 1.1761 1.4504 39.6226
#
#
#
# Elastic Compliance Matrix: (Units=1/GPa)
#
#
# Indices 1 2 3 4 5 6 
#
# 1 0.012379 -0.004222 -0.003769 0.000630 -0.004138 -0.002376
# 2 -0.004222 0.011372 -0.003230 -0.000141 0.002138 -0.000759
# 3 -0.003769 -0.003230 0.011890 0.000052 0.000331 0.002479
# 4 0.000630 -0.000141 0.000052 0.026730 0.002554 -0.000993
# 5 -0.004138 0.002138 0.000331 0.002554 0.034520 -0.000684
# 6 -0.002376 -0.000759 0.002479 -0.000993 -0.000684 0.026141
#
#
# Mechanical properties :
#
#
# Convention : Reuss Voigt Hill
#
# Bulk Modulus (GPa) = 75.76962 76.65462 76.21212
# Shear Modulus (GPa) = 33.36129 34.91829 34.13979
#
# Velocity S-wave (km/s) = 3.87472 3.96411 3.91967
# Velocity P-wave (km/s) = 7.35638 7.44640 7.40153
#
# Compressibility (1/GPa) = 0.01319790
#
# Stress axis : x y z
#
# Youngs Moduli (GPa) = 80.77918 87.93727 84.10628
#
# Poissons Ratio (x) = 0.37128 0.31699
# Poissons Ratio (y) = 0.34106 0.27170
# Poissons Ratio (z) = 0.30445 0.28407
#
# Static dielectric constant tensor:
#      x y z
#    x 4.037410 0.018890 0.058910 
#    y 0.018890 4.102150 -0.008990 
#    z 0.058910 -0.008990 4.369790 
# 
# 
# High freq. dielectric constant tensor:
#      x y z
#    x 1.882990 -0.000170 0.001710 
#    y -0.000170 1.879450 -0.004970 
#    z 0.001710 -0.004970 1.887770 
# 
# From -- ./inp_files/186767.got.cif
#   From: 2010.06.25/outbox.cif.g09.slc.cpg/sg2_94_cif.got.tgz:186767.got - 2010.06.27 13:26:56.
