data_PCOD8035256
_publ_section_title
;
Structure prediction by ZEFSAII (Michael W. Deem and Ramdas Pophale) SiO2 
 PCOD8035256
Probable space group: P -1
;
_chemical_formula_sum "Si O2"
_cell_formula_units_Z 10
_cell_length_a 9.952222
_cell_length_b 13.917289
_cell_length_c 8.086741
_cell_angle_alpha 106.420332
_cell_angle_beta 70.573235
_cell_angle_gamma 45.207659
_cell_volume 476.012196
_symmetry_space_group_name_H-M "P -1"
_symmetry_group_IT_number 2
_symmetry_cell_setting 'triclinic'
loop_
_space_group_symop_operation_xyz
x,y,z
-x,-y,-z
loop_
_atom_site_type_symbol
_atom_site_label
_atom_site_fract_x
_atom_site_fract_y
_atom_site_fract_z
Si Si1 0.498438 0.472899 0.297038
Si Si2 0.682543 0.217908 0.646628
Si Si3 0.229376 0.456731 0.234050
Si Si4 0.415166 0.152441 0.204400
Si Si5 0.871539 0.988132 0.154201
O O1 0.500000 0.500000 0.500000
O O2 0.327892 0.660230 0.346214
O O3 0.328443 0.473068 0.343845
O O4 0.847614 0.243141 0.985494
O O5 0.651536 0.166403 0.473757
O O6 0.391896 0.378667 0.956999
O O7 0.000000 0.000000 0.500000
O O8 0.322631 0.288223 0.167725
O O9 0.865704 0.690468 0.478269
O O10 0.700661 0.014455 0.123356
O O11 0.500000 0.000000 0.000000
O O12 0.000000 0.000000 0.000000
#
# Coordination Sequence:
#
# PCOD8035256 Si02
#       5
#     2   2   2   2   2
#     4  12  23  41  73 100 134 181 237 276 332 412
#     4  12  25  42  72 103 141 176 231 293 331 398
#     4  11  25  42  66 104 137 180 231 272 350 408
#     4  11  25  45  70  97 144 182 219 286 349 407
#     4  12  23  44  69 101 133 183 234 275 338 410
#
# _framework density 21.007864000000001
#
# number of rings (size 3 to 8) (size 9 to 14) (size 15 to 20)
#    0.000    0.400    6.000    1.800    2.800    2.400 
#    0.000    2.000    0.000    0.000    0.000    0.000 
#    0.000    0.000    0.000    0.000    0.000    0.000 
#
# Total GULP energy -124034.517810 kJ/mol
# GULP energy per Si atom -12403.451781 kJ/mol
# Density = 2.096005 g / cm^3
# Si number density = 21.007864 Si / 1000 Ang^3
#
#
#
# Elastic Constant Matrix: (Units=GPa)
#
#
# Indices 1 2 3 4 5 6 
#
# 1 159.6755 44.1440 56.2327 7.0807 5.5549 9.9664
# 2 44.1440 120.1196 56.3303 16.8084 -0.0536 12.2165
# 3 56.2327 56.3303 122.1145 -7.2595 3.3396 15.0655
# 4 7.0807 16.8084 -7.2595 43.9814 -5.7701 2.1265
# 5 5.5549 -0.0536 3.3396 -5.7701 45.3882 8.5947
# 6 9.9664 12.2165 15.0655 2.1265 8.5947 28.9312
#
#
#
# Elastic Compliance Matrix: (Units=1/GPa)
#
#
# Indices 1 2 3 4 5 6 
#
# 1 0.007779 -0.001207 -0.003058 -0.001399 -0.000865 -0.000218
# 2 -0.001207 0.012057 -0.005108 -0.005148 0.000205 -0.001698
# 3 -0.003058 -0.005108 0.012713 0.004842 0.000807 -0.004006
# 4 -0.001399 -0.005148 0.004842 0.026356 0.003709 -0.002905
# 5 -0.000865 0.000205 0.000807 0.003709 0.023991 -0.007609
# 6 -0.000218 -0.001698 -0.004006 -0.002905 -0.007609 0.039916
#
#
# Mechanical properties :
#
#
# Convention : Reuss Voigt Hill
#
# Bulk Modulus (GPa) = 72.44691 79.48039 75.96365
# Shear Modulus (GPa) = 34.20885 40.00700 37.10793
#
# Velocity S-wave (km/s) = 4.03970 4.36866 4.20740
# Velocity P-wave (km/s) = 7.50462 7.96007 7.73570
#
# Compressibility (1/GPa) = 0.01380321
#
# Stress axis : x y z
#
# Youngs Moduli (GPa) = 128.54979 82.93750 78.65673
#
# Poissons Ratio (x) = 0.10013 0.24052
# Poissons Ratio (y) = 0.15520 0.40179
# Poissons Ratio (z) = 0.39309 0.42365
#
# Static dielectric constant tensor:
#      x y z
#    x 3.951190 0.188130 0.049440 
#    y 0.188130 3.957850 0.197520 
#    z 0.049440 0.197520 4.285080 
# 
# 
# High freq. dielectric constant tensor:
#      x y z
#    x 1.825580 0.005730 0.010990 
#    y 0.005730 1.820550 0.016120 
#    z 0.010990 0.016120 1.838890 
# 
# From -- ./inp_files/15797.got.cif
#   From: 2010.06.25/outbox.cif.g09.slc.cpg/sg2_8_cif.got.tgz:15797.got - 2010.06.27 13:26:56.
