data_PCOD8035905
_publ_section_title
;
Structure prediction by ZEFSAII (Michael W. Deem and Ramdas Pophale) SiO2 
 PCOD8035905
Probable space group: P -1
;
_chemical_formula_sum "Si O2"
_cell_formula_units_Z 14
_cell_length_a 11.252297
_cell_length_b 5.062706
_cell_length_c 14.746113
_cell_angle_alpha 114.374365
_cell_angle_beta 113.726033
_cell_angle_gamma 50.499664
_cell_volume 578.613287
_symmetry_space_group_name_H-M "P -1"
_symmetry_group_IT_number 2
_symmetry_cell_setting 'triclinic'
loop_
_space_group_symop_operation_xyz
x,y,z
-x,-y,-z
loop_
_atom_site_type_symbol
_atom_site_label
_atom_site_fract_x
_atom_site_fract_y
_atom_site_fract_z
Si Si1 0.177955 0.309992 0.849536
Si Si2 0.815823 0.668492 0.533793
Si Si3 0.822458 0.760790 0.842735
Si Si4 0.135396 0.153155 0.613948
Si Si5 0.564447 0.577146 0.442168
Si Si6 0.317484 0.766109 0.963614
Si Si7 0.275285 0.752828 0.284237
O O1 0.178341 0.250494 0.734647
O O2 0.007851 0.476739 0.865460
O O3 0.232109 0.568065 0.918671
O O4 0.294284 0.936735 0.881515
O O5 0.844798 0.635280 0.430402
O O6 0.626077 0.832638 0.516454
O O7 0.949111 0.301110 0.573037
O O8 0.827306 0.971084 0.627649
O O9 0.738242 0.574492 0.755542
O O10 0.756670 0.917579 0.942990
O O11 0.785886 0.069703 0.807036
O O12 0.254497 0.740940 0.573257
O O13 0.500000 0.500000 0.500000
O O14 0.457755 0.623445 0.330783
O O15 0.500000 0.500000 0.000000
#
# Coordination Sequence:
#
# PCOD8035905 Si02
#       7
#     2   2   2   2   2   2   2
#     4  12  27  50  79 108 147 198 247 300 381 448
#     4  11  25  48  69 109 155 200 252 303 361 448
#     4  12  27  50  78 106 147 196 248 308 371 451
#     4  11  27  43  75 105 152 199 252 299 370 441
#     4  12  26  43  71 106 156 203 245 307 368 432
#     4  12  29  51  79 112 147 183 249 319 381 441
#     4  12  26  44  76 109 147 195 250 297 372 436
#
# _framework density 24.195782000000001
#
# number of rings (size 3 to 8) (size 9 to 14) (size 15 to 20)
#    0.000    0.286    2.857    4.714    8.000    1.143 
#    0.000    0.000    0.000    0.000    0.000    0.000 
#    0.000    0.000    0.000    0.000    0.000    0.000 
#
# Total GULP energy -173616.675379 kJ/mol
# GULP energy per Si atom -12401.191099 kJ/mol
# Density = 2.414071 g / cm^3
# Si number density = 24.195782 Si / 1000 Ang^3
#
#
#
# Elastic Constant Matrix: (Units=GPa)
#
#
# Indices 1 2 3 4 5 6 
#
# 1 107.8541 29.6452 61.8016 -0.4954 16.9655 -0.1746
# 2 29.6452 86.4837 41.2987 -30.4880 2.9943 -2.9029
# 3 61.8016 41.2987 130.4055 -15.5610 -1.1623 -11.2306
# 4 -0.4954 -30.4880 -15.5610 41.5077 0.0923 4.7679
# 5 16.9655 2.9943 -1.1623 0.0923 46.1844 0.4675
# 6 -0.1746 -2.9029 -11.2306 4.7679 0.4675 48.0252
#
#
#
# Elastic Compliance Matrix: (Units=1/GPa)
#
#
# Indices 1 2 3 4 5 6 
#
# 1 0.014853 -0.003410 -0.006668 -0.004678 -0.005382 -0.001195
# 2 -0.003410 0.018477 -0.002805 0.012571 -0.000033 -0.000799
# 3 -0.006668 -0.002805 0.012208 0.002153 0.002910 0.002419
# 4 -0.004678 0.012571 0.002153 0.034324 0.000911 -0.002170
# 5 -0.005382 -0.000033 0.002910 0.000911 0.023699 0.000338
# 6 -0.001195 -0.000799 0.002419 -0.002170 0.000338 0.021548
#
#
# Mechanical properties :
#
#
# Convention : Reuss Voigt Hill
#
# Bulk Modulus (GPa) = 50.57532 65.58158 58.07845
# Shear Modulus (GPa) = 31.75283 39.94331 35.84807
#
# Velocity S-wave (km/s) = 3.62654 4.06746 3.85331
# Velocity P-wave (km/s) = 6.20352 7.01586 6.62216
#
# Compressibility (1/GPa) = 0.01977249
#
# Stress axis : x y z
#
# Youngs Moduli (GPa) = 67.32547 54.12090 81.91371
#
# Poissons Ratio (x) = 0.18456 0.54623
# Poissons Ratio (y) = 0.22958 0.22973
# Poissons Ratio (z) = 0.44895 0.15178
#
# Static dielectric constant tensor:
#      x y z
#    x 4.081780 -0.518290 -0.056320 
#    y -0.518290 4.833880 -0.267030 
#    z -0.056320 -0.267030 4.188510 
# 
# 
# High freq. dielectric constant tensor:
#      x y z
#    x 1.965110 -0.013840 0.012060 
#    y -0.013840 1.990400 -0.002650 
#    z 0.012060 -0.002650 1.968900 
# 
# From -- ./inp_files/510590.got.cif
#   From: 2010.06.25/outbox.cif.g09.slc.cpg/sg2_256_cif.got.tgz:510590.got - 2010.06.27 13:26:56.
