data_PCOD8035580
_publ_section_title
;
Structure prediction by ZEFSAII (Michael W. Deem and Ramdas Pophale) SiO2 
 PCOD8035580
Probable space group: P -1
;
_chemical_formula_sum "Si O2"
_cell_formula_units_Z 14
_cell_length_a 7.938841
_cell_length_b 12.020011
_cell_length_c 9.478519
_cell_angle_alpha 56.329641
_cell_angle_beta 105.903006
_cell_angle_gamma 67.181027
_cell_volume 534.572192
_symmetry_space_group_name_H-M "P -1"
_symmetry_group_IT_number 2
_symmetry_cell_setting 'triclinic'
loop_
_space_group_symop_operation_xyz
x,y,z
-x,-y,-z
loop_
_atom_site_type_symbol
_atom_site_label
_atom_site_fract_x
_atom_site_fract_y
_atom_site_fract_z
Si Si1 0.524491 0.825100 0.275200
Si Si2 0.751816 0.776065 0.646702
Si Si3 0.070989 0.045414 0.347536
Si Si4 0.433527 0.596325 0.066586
Si Si5 0.870197 0.769336 0.188265
Si Si6 0.207499 0.392067 0.945589
Si Si7 0.697777 0.289556 0.562845
O O1 0.562040 0.854543 0.424015
O O2 0.767043 0.720197 0.317131
O O3 0.447225 0.707946 0.344246
O O4 0.310741 0.015767 0.021632
O O5 0.737366 0.938658 0.577925
O O6 0.016665 0.608574 0.768619
O O7 0.694361 0.704989 0.811692
O O8 0.165450 0.898004 0.354926
O O9 0.000000 0.000000 0.500000
O O10 0.844079 0.236497 0.095593
O O11 0.573922 0.665236 0.057721
O O12 0.505832 0.457813 0.302237
O O13 0.500000 0.500000 0.000000
O O14 0.909074 0.672121 0.118573
O O15 0.122334 0.693903 0.348297
#
# Coordination Sequence:
#
# PCOD8035580 Si02
#       7
#     2   2   2   2   2   2   2
#     4  11  26  47  76 107 149 198 252 303 377 445
#     4  11  25  45  75 114 140 193 252 309 374 438
#     4  12  25  43  76 110 152 194 246 313 378 441
#     4  12  24  45  73 112 149 199 242 311 383 432
#     4  11  27  50  74 108 151 204 244 304 382 446
#     4  11  25  47  73 106 157 184 251 314 366 446
#     4  12  27  50  74 109 155 196 257 306 367 455
#
# _framework density 26.189164999999999
#
# number of rings (size 3 to 8) (size 9 to 14) (size 15 to 20)
#    0.000    0.571    2.857    3.857    8.000    3.429 
#    0.000    1.429    0.000    0.000    0.000    0.000 
#    0.000    0.000    0.000    0.000    0.000    0.000 
#
# Total GULP energy -173727.599076 kJ/mol
# GULP energy per Si atom -12409.114220 kJ/mol
# Density = 2.612956 g / cm^3
# Si number density = 26.189165 Si / 1000 Ang^3
#
#
#
# Elastic Constant Matrix: (Units=GPa)
#
#
# Indices 1 2 3 4 5 6 
#
# 1 147.9744 4.5469 39.4784 9.8390 -20.2896 15.0204
# 2 4.5469 75.0928 14.2768 2.6667 12.0408 5.1177
# 3 39.4784 14.2768 138.8728 -0.5211 -5.8078 -2.6804
# 4 9.8390 2.6667 -0.5211 35.5166 0.2867 5.8275
# 5 -20.2896 12.0408 -5.8078 0.2867 43.0383 7.6118
# 6 15.0204 5.1177 -2.6804 5.8275 7.6118 34.5662
#
#
#
# Elastic Compliance Matrix: (Units=1/GPa)
#
#
# Indices 1 2 3 4 5 6 
#
# 1 0.008608 -0.000466 -0.002298 -0.001666 0.004704 -0.004605
# 2 -0.000466 0.014422 -0.001551 -0.000782 -0.004285 -0.000978
# 3 -0.002298 -0.001551 0.008054 0.000587 0.000129 0.001725
# 4 -0.001666 -0.000782 0.000587 0.029352 0.000037 -0.004072
# 5 0.004704 -0.004285 0.000129 0.000037 0.028008 -0.007574
# 6 -0.004605 -0.000978 0.001725 -0.004072 -0.007574 0.033564
#
#
# Mechanical properties :
#
#
# Convention : Reuss Voigt Hill
#
# Bulk Modulus (GPa) = 44.53339 53.17160 48.85249
# Shear Modulus (GPa) = 36.19961 42.86675 39.53318
#
# Velocity S-wave (km/s) = 3.72188 4.05014 3.88947
# Velocity P-wave (km/s) = 5.95913 6.49758 6.23417
#
# Compressibility (1/GPa) = 0.02245506
#
# Stress axis : x y z
#
# Youngs Moduli (GPa) = 116.16496 69.34089 124.15602
#
# Poissons Ratio (x) = 0.03229 0.28528
# Poissons Ratio (y) = 0.05409 0.19260
# Poissons Ratio (z) = 0.26691 0.10756
#
# Static dielectric constant tensor:
#      x y z
#    x 5.339130 0.093710 0.035820 
#    y 0.093710 4.682610 0.026090 
#    z 0.035820 0.026090 4.821930 
# 
# 
# High freq. dielectric constant tensor:
#      x y z
#    x 2.064210 0.003160 -0.002110 
#    y 0.003160 2.049910 -0.001090 
#    z -0.002110 -0.001090 2.059960 
# 
# From -- ./inp_files/185204.got.cif
#   From: 2010.06.25/outbox.cif.g09.slc.cpg/sg2_93_cif.got.tgz:185204.got - 2010.06.27 13:26:56.
