data_PCOD8035675
_publ_section_title
;
Structure prediction by ZEFSAII (Michael W. Deem and Ramdas Pophale) SiO2 
 PCOD8035675
Probable space group: P -1
;
_chemical_formula_sum "Si O2"
_cell_formula_units_Z 14
_cell_length_a 9.564441
_cell_length_b 11.010313
_cell_length_c 15.836867
_cell_angle_alpha 156.392596
_cell_angle_beta 106.190251
_cell_angle_gamma 76.314484
_cell_volume 640.613653
_symmetry_space_group_name_H-M "P -1"
_symmetry_group_IT_number 2
_symmetry_cell_setting 'triclinic'
loop_
_space_group_symop_operation_xyz
x,y,z
-x,-y,-z
loop_
_atom_site_type_symbol
_atom_site_label
_atom_site_fract_x
_atom_site_fract_y
_atom_site_fract_z
Si Si1 0.071759 0.860031 0.839250
Si Si2 0.637417 0.804124 0.891398
Si Si3 0.627701 0.171337 0.571794
Si Si4 0.601303 0.784260 0.685890
Si Si5 0.837022 0.370245 0.871901
Si Si6 0.402095 0.229248 0.845931
Si Si7 0.148348 0.219908 0.396828
O O1 0.100920 0.499283 0.626308
O O2 0.971205 0.891346 0.761466
O O3 0.216084 0.045924 0.947758
O O4 0.000000 0.000000 0.000000
O O5 0.582386 0.486674 0.722863
O O6 0.686787 0.820034 0.811192
O O7 0.500000 0.000000 0.000000
O O8 0.783392 0.246511 0.692032
O O9 0.500000 0.000000 0.500000
O O10 0.661366 0.964782 0.366385
O O11 0.500000 0.500000 0.500000
O O12 0.705398 0.682140 0.564534
O O13 0.502427 0.063308 0.823999
O O14 0.808051 0.072037 0.731401
O O15 0.735679 0.645532 0.050386
O O16 0.000000 0.500000 0.000000
O O17 0.500000 0.500000 0.000000
#
# Coordination Sequence:
#
# PCOD8035675 Si02
#       7
#     2   2   2   2   2   2   2
#     4  11  25  46  72 108 143 186 239 295 367 437
#     4  12  26  42  74 106 140 188 247 297 358 427
#     4  12  26  47  73 105 144 190 245 299 358 434
#     4  12  23  43  72 106 141 186 241 299 353 415
#     4  12  28  47  74 107 149 192 241 299 367 432
#     4  12  25  46  75 105 145 193 244 292 360 438
#     4  11  25  46  72 104 147 188 236 304 359 428
#
# _framework density 21.854044999999999
#
# number of rings (size 3 to 8) (size 9 to 14) (size 15 to 20)
#    0.000    0.286    5.714    2.571    2.000    5.143 
#    0.000    0.000    0.000    0.000    0.000    0.000 
#    0.000    0.000    0.000    0.000    0.000    0.000 
#
# Total GULP energy -173441.888780 kJ/mol
# GULP energy per Si atom -12388.706341 kJ/mol
# Density = 2.180430 g / cm^3
# Si number density = 21.854045 Si / 1000 Ang^3
#
#
#
# Elastic Constant Matrix: (Units=GPa)
#
#
# Indices 1 2 3 4 5 6 
#
# 1 118.3471 39.0377 50.0287 2.5836 7.1764 -12.3785
# 2 39.0377 131.3725 62.7908 10.3724 4.8754 -5.7961
# 3 50.0287 62.7908 139.2030 -0.0596 1.5710 -3.7645
# 4 2.5836 10.3724 -0.0596 47.3018 -2.5411 3.5921
# 5 7.1764 4.8754 1.5710 -2.5411 42.8377 -0.8767
# 6 -12.3785 -5.7961 -3.7645 3.5921 -0.8767 36.5419
#
#
#
# Elastic Compliance Matrix: (Units=1/GPa)
#
#
# Indices 1 2 3 4 5 6 
#
# 1 0.010654 -0.001462 -0.003070 -0.000579 -0.001477 0.003082
# 2 -0.001462 0.010241 -0.004060 -0.002288 -0.000889 0.000914
# 3 -0.003070 -0.004060 0.010091 0.001163 0.000660 -0.000743
# 4 -0.000579 -0.002288 0.001163 0.021954 0.001565 -0.002560
# 5 -0.001477 -0.000889 0.000660 0.001565 0.023758 -0.000157
# 6 0.003082 0.000914 -0.000743 -0.002560 -0.000157 0.028726
#
#
# Mechanical properties :
#
#
# Convention : Reuss Voigt Hill
#
# Bulk Modulus (GPa) = 72.45090 76.95967 74.70528
# Shear Modulus (GPa) = 39.30504 41.14065 40.22285
#
# Velocity S-wave (km/s) = 4.24550 4.34351 4.29478
# Velocity P-wave (km/s) = 7.56680 7.77473 7.67147
#
# Compressibility (1/GPa) = 0.01380245
#
# Stress axis : x y z
#
# Youngs Moduli (GPa) = 93.85860 97.64653 99.09445
#
# Poissons Ratio (x) = 0.14278 0.30419
# Poissons Ratio (y) = 0.13725 0.40234
# Poissons Ratio (z) = 0.28812 0.39646
#
# Static dielectric constant tensor:
#      x y z
#    x 3.839520 -0.025610 0.440400 
#    y -0.025610 3.819710 -0.061360 
#    z 0.440400 -0.061360 4.178930 
# 
# 
# High freq. dielectric constant tensor:
#      x y z
#    x 1.857290 -0.008970 0.008890 
#    y -0.008970 1.876530 -0.001410 
#    z 0.008890 -0.001410 1.878240 
# 
# From -- ./inp_files/560232.got.cif
#   From: 2010.06.25/outbox.cif.g09.slc.cpg/sg2_281_cif.got.tgz:560232.got - 2010.06.27 13:26:56.
