data_PCOD8035618
_publ_section_title
;
Structure prediction by ZEFSAII (Michael W. Deem and Ramdas Pophale) SiO2 
 PCOD8035618
Probable space group: P -1
;
_chemical_formula_sum "Si O2"
_cell_formula_units_Z 16
_cell_length_a 8.782615
_cell_length_b 13.015004
_cell_length_c 14.466766
_cell_angle_alpha 138.164142
_cell_angle_beta 111.999917
_cell_angle_gamma 45.012240
_cell_volume 738.415690
_symmetry_space_group_name_H-M "P -1"
_symmetry_group_IT_number 2
_symmetry_cell_setting 'triclinic'
loop_
_space_group_symop_operation_xyz
x,y,z
-x,-y,-z
loop_
_atom_site_type_symbol
_atom_site_label
_atom_site_fract_x
_atom_site_fract_y
_atom_site_fract_z
Si Si1 0.774704 0.731868 0.135557
Si Si2 0.926891 0.822702 0.410984
Si Si3 0.183516 0.558525 0.635164
Si Si4 0.473926 0.632097 0.001737
Si Si5 0.646679 0.296361 0.656562
Si Si6 0.878094 0.534983 0.639459
Si Si7 0.405935 0.956663 0.869820
Si Si8 0.033603 0.984961 0.889660
O O1 0.820947 0.807426 0.286398
O O2 0.672366 0.902303 0.144727
O O3 0.599826 0.709844 0.102808
O O4 0.000000 0.500000 0.000000
O O5 0.170084 0.739373 0.389785
O O6 0.964837 0.676326 0.403318
O O7 0.761491 0.067972 0.574186
O O8 0.442076 0.363213 0.593798
O O9 0.129130 0.508064 0.495893
O O10 0.011867 0.613158 0.715529
O O11 0.155999 0.751833 0.730710
O O12 0.555285 0.488700 0.832967
O O13 0.500000 0.500000 0.000000
O O14 0.213425 0.843095 0.091881
O O15 0.618615 0.707448 0.730561
O O16 0.187260 0.019167 0.905791
O O17 0.500000 0.000000 0.000000
O O18 0.000000 0.000000 0.000000
#
# Coordination Sequence:
#
# PCOD8035618 Si02
#       8
#     2   2   2   2   2   2   2   2
#     4  12  24  45  71 104 141 183 232 285 352 417
#     4  11  26  45  73 102 140 185 234 287 348 418
#     4  11  25  46  71 102 142 176 236 286 349 416
#     4  12  27  44  69 104 144 186 229 287 349 414
#     4  11  25  46  69 103 141 181 236 287 345 415
#     4  11  26  46  71 104 137 186 228 288 350 413
#     4  12  26  44  73 102 139 181 233 288 345 412
#     4  12  25  44  71 102 136 182 230 287 345 412
#
# _framework density 21.668012000000001
#
# number of rings (size 3 to 8) (size 9 to 14) (size 15 to 20)
#    0.000    0.500    2.500    5.250    3.500    4.500 
#    0.000    0.000    0.000    0.000    0.000    0.000 
#    0.000    0.000    0.000    0.000    0.000    0.000 
#
# Total GULP energy -198300.120364 kJ/mol
# GULP energy per Si atom -12393.757523 kJ/mol
# Density = 2.161869 g / cm^3
# Si number density = 21.668012 Si / 1000 Ang^3
#
#
#
# Elastic Constant Matrix: (Units=GPa)
#
#
# Indices 1 2 3 4 5 6 
#
# 1 162.9167 60.9192 21.7111 1.4912 9.6536 -5.9545
# 2 60.9192 123.4277 7.4606 15.1462 -1.7710 -15.5812
# 3 21.7111 7.4606 61.5982 10.1940 -2.7861 -8.2937
# 4 1.4912 15.1462 10.1940 38.9250 -2.3129 3.4996
# 5 9.6536 -1.7710 -2.7861 -2.3129 31.4109 2.6297
# 6 -5.9545 -15.5812 -8.2937 3.4996 2.6297 30.7832
#
#
#
# Elastic Compliance Matrix: (Units=1/GPa)
#
#
# Indices 1 2 3 4 5 6 
#
# 1 0.008280 -0.004390 -0.003066 0.002159 -0.002784 -0.001454
# 2 -0.004390 0.011582 0.001889 -0.005298 0.001276 0.006016
# 3 -0.003066 0.001889 0.018972 -0.006020 0.001785 0.006006
# 4 0.002159 -0.005298 -0.006020 0.029991 0.001332 -0.007409
# 5 -0.002784 0.001276 0.001785 0.001332 0.033221 -0.002401
# 6 -0.001454 0.006016 0.006006 -0.007409 -0.002401 0.037915
#
#
# Mechanical properties :
#
#
# Convention : Reuss Voigt Hill
#
# Bulk Modulus (GPa) = 36.10004 58.68048 47.39026
# Shear Modulus (GPa) = 31.18605 37.41393 34.29999
#
# Velocity S-wave (km/s) = 3.79788 4.15985 3.98298
# Velocity P-wave (km/s) = 5.99404 7.08611 6.56283
#
# Compressibility (1/GPa) = 0.02770080
#
# Stress axis : x y z
#
# Youngs Moduli (GPa) = 120.76986 86.33856 52.70999
#
# Poissons Ratio (x) = 0.37902 0.16160
# Poissons Ratio (y) = 0.53017 -0.09957
# Poissons Ratio (z) = 0.37025 -0.16309
#
# Static dielectric constant tensor:
#      x y z
#    x 4.887700 -0.151240 1.610630 
#    y -0.151240 4.112190 0.015420 
#    z 1.610630 0.015420 5.337930 
# 
# 
# High freq. dielectric constant tensor:
#      x y z
#    x 1.870910 -0.006850 0.004860 
#    y -0.006850 1.868440 0.009000 
#    z 0.004860 0.009000 1.857190 
# 
# From -- ./inp_files/329040.got.cif
#   From: 2010.06.25/outbox.cif.g09.slc.cpg/sg2_165_cif.got.tgz:329040.got - 2010.06.27 13:26:56.
