data_PCOD8035266
_publ_section_title
;
Structure prediction by ZEFSAII (Michael W. Deem and Ramdas Pophale) SiO2 
 PCOD8035266
Probable space group: P -1
;
_chemical_formula_sum "Si O2"
_cell_formula_units_Z 14
_cell_length_a 4.908359
_cell_length_b 20.887139
_cell_length_c 11.867689
_cell_angle_alpha 30.540829
_cell_angle_beta 109.266003
_cell_angle_gamma 114.921544
_cell_volume 559.260166
_symmetry_space_group_name_H-M "P -1"
_symmetry_group_IT_number 2
_symmetry_cell_setting 'triclinic'
loop_
_space_group_symop_operation_xyz
x,y,z
-x,-y,-z
loop_
_atom_site_type_symbol
_atom_site_label
_atom_site_fract_x
_atom_site_fract_y
_atom_site_fract_z
Si Si1 0.907646 0.240681 0.012218
Si Si2 0.069194 0.154207 0.778637
Si Si3 0.322556 0.065558 0.291099
Si Si4 0.786531 0.521440 0.167825
Si Si5 0.078114 0.198048 0.456870
Si Si6 0.329156 0.635678 0.826185
Si Si7 0.275745 0.710693 0.319608
O O1 0.568185 0.146873 0.113990
O O2 0.151889 0.159666 0.185899
O O3 0.940066 0.309829 0.788796
O O4 0.962235 0.345837 0.961693
O O5 0.384491 0.225232 0.773910
O O6 0.093359 0.215851 0.565070
O O7 0.802382 0.186296 0.762011
O O8 0.000000 0.000000 0.000000
O O9 0.500000 0.000000 0.500000
O O10 0.066105 0.953984 0.361990
O O11 0.866057 0.462296 0.149099
O O12 0.758528 0.425402 0.415332
O O13 0.465865 0.551633 0.059590
O O14 0.878938 0.291800 0.243698
O O15 0.408786 0.249594 0.371783
#
# Coordination Sequence:
#
# PCOD8035266 Si02
#       7
#     2   2   2   2   2   2   2
#     4  12  26  45  69 102 139 181 221 275 336 406
#     4  12  24  42  67  97 133 175 223 275 334 396
#     4  12  26  46  71 102 136 179 226 277 339 397
#     4  11  25  46  68 101 137 180 226 276 334 406
#     4  12  22  45  67 100 132 174 227 286 334 389
#     4  11  25  42  72 100 132 176 231 282 334 390
#     4  12  25  45  65 101 134 179 222 272 337 399
#
# _framework density 25.033071
#
# number of rings (size 3 to 8) (size 9 to 14) (size 15 to 20)
#    0.000    0.286    2.857    6.429    0.000    5.714 
#    0.000    2.857    0.000    0.000    0.000    0.000 
#    0.000    0.000    0.000    0.000    0.000    0.000 
#
# Total GULP energy -173666.286083 kJ/mol
# GULP energy per Si atom -12404.734720 kJ/mol
# Density = 2.497609 g / cm^3
# Si number density = 25.033071 Si / 1000 Ang^3
#
#
#
# Elastic Constant Matrix: (Units=GPa)
#
#
# Indices 1 2 3 4 5 6 
#
# 1 68.2572 11.1812 14.8215 -19.5572 7.8321 -2.0211
# 2 11.1812 132.6959 53.3862 -0.1874 3.8332 5.3283
# 3 14.8215 53.3862 126.1901 -8.0224 17.2350 -1.1687
# 4 -19.5572 -0.1874 -8.0224 38.6993 -2.2213 0.6042
# 5 7.8321 3.8332 17.2350 -2.2213 23.7419 1.7847
# 6 -2.0211 5.3283 -1.1687 0.6042 1.7847 26.4876
#
#
#
# Elastic Compliance Matrix: (Units=1/GPa)
#
#
# Indices 1 2 3 4 5 6 
#
# 1 0.018045 -0.001303 -0.000340 0.008739 -0.004810 0.001749
# 2 -0.001303 0.009362 -0.004187 -0.001331 0.002004 -0.002272
# 3 -0.000340 -0.004187 0.010817 0.001619 -0.007043 0.001731
# 4 0.008739 -0.001331 0.001619 0.030522 -0.001016 0.000378
# 5 -0.004810 0.002004 -0.007043 -0.001016 0.048726 -0.004341
# 6 0.001749 -0.002272 0.001731 0.000378 -0.004341 0.038704
#
#
# Mechanical properties :
#
#
# Convention : Reuss Voigt Hill
#
# Bulk Modulus (GPa) = 37.64350 53.99122 45.81736
# Shear Modulus (GPa) = 28.29817 34.30272 31.30044
#
# Velocity S-wave (km/s) = 3.36584 3.70577 3.53988
# Velocity P-wave (km/s) = 5.49320 6.31863 5.92032
#
# Compressibility (1/GPa) = 0.02656501
#
# Stress axis : x y z
#
# Youngs Moduli (GPa) = 55.41599 106.81768 92.45031
#
# Poissons Ratio (x) = 0.13917 0.03140
# Poissons Ratio (y) = 0.07220 0.38708
# Poissons Ratio (z) = 0.01882 0.44724
#
# Static dielectric constant tensor:
#      x y z
#    x 4.487070 0.183500 0.071170 
#    y 0.183500 4.572980 -0.003690 
#    z 0.071170 -0.003690 4.753560 
# 
# 
# High freq. dielectric constant tensor:
#      x y z
#    x 1.996640 0.005310 0.001130 
#    y 0.005310 2.000000 0.002520 
#    z 0.001130 0.002520 2.018690 
# 
# From -- ./inp_files/370297.got.cif
#   From: 2010.06.25/outbox.cif.g09.slc.cpg/sg2_186_cif.got.tgz:370297.got - 2010.06.27 13:26:56.
