data_PCOD8035708
_publ_section_title
;
Structure prediction by ZEFSAII (Michael W. Deem and Ramdas Pophale) SiO2 
 PCOD8035708
Probable space group: P -1
;
_chemical_formula_sum "Si O2"
_cell_formula_units_Z 16
_cell_length_a 14.529762
_cell_length_b 11.653521
_cell_length_c 16.955800
_cell_angle_alpha 51.530029
_cell_angle_beta 148.438896
_cell_angle_gamma 149.169923
_cell_volume 702.947965
_symmetry_space_group_name_H-M "P -1"
_symmetry_group_IT_number 2
_symmetry_cell_setting 'triclinic'
loop_
_space_group_symop_operation_xyz
x,y,z
-x,-y,-z
loop_
_atom_site_type_symbol
_atom_site_label
_atom_site_fract_x
_atom_site_fract_y
_atom_site_fract_z
Si Si1 0.957011 0.320152 0.974192
Si Si2 0.193429 0.773235 0.917571
Si Si3 0.500934 0.483955 0.303640
Si Si4 0.194646 0.371883 0.814273
Si Si5 0.011937 0.829168 0.415441
Si Si6 0.207935 0.047636 0.190720
Si Si7 0.784776 0.732549 0.564499
Si Si8 0.416859 0.816590 0.721515
O O1 0.284994 0.477455 0.159721
O O2 0.785319 0.226828 0.971752
O O3 0.005595 0.499516 0.878934
O O4 0.749913 0.069962 0.884071
O O5 0.042164 0.819238 0.758408
O O6 0.500000 0.000000 0.000000
O O7 0.300177 0.204924 0.268151
O O8 0.744559 0.655049 0.477750
O O9 0.681201 0.603116 0.303314
O O10 0.249987 0.579838 0.749620
O O11 0.032851 0.179889 0.706322
O O12 0.500000 0.500000 0.000000
O O13 0.982776 0.215613 0.802364
O O14 0.207026 0.814985 0.576304
O O15 0.174231 0.067471 0.478688
O O16 0.513343 0.193734 0.311612
O O17 0.000000 0.000000 0.000000
O O18 0.500000 0.500000 0.500000
#
# Coordination Sequence:
#
# PCOD8035708 Si02
#       8
#     2   2   2   2   2   2   2   2
#     4  11  25  46  73 104 149 189 236 301 354 427
#     4  11  26  46  72 107 146 190 244 292 359 432
#     4  12  24  47  73 100 147 190 237 294 363 426
#     4  12  25  46  76 103 141 195 243 288 361 434
#     4  12  28  47  72 108 148 187 242 306 358 429
#     4  12  24  48  74 107 144 192 239 299 359 427
#     4  12  25  46  71 105 144 190 237 294 368 430
#     4  12  27  48  72 109 149 187 243 302 360 423
#
# _framework density 22.761286999999999
#
# number of rings (size 3 to 8) (size 9 to 14) (size 15 to 20)
#    0.000    0.250    5.000    3.000    5.250    1.500 
#    2.250    0.000    0.000    0.000    0.000    0.000 
#    0.000    0.000    0.000    0.000    0.000    0.000 
#
# Total GULP energy -198287.644107 kJ/mol
# GULP energy per Si atom -12392.977757 kJ/mol
# Density = 2.270948 g / cm^3
# Si number density = 22.761287 Si / 1000 Ang^3
#
#
#
# Elastic Constant Matrix: (Units=GPa)
#
#
# Indices 1 2 3 4 5 6 
#
# 1 102.8568 71.3955 41.7476 -8.4652 11.2089 4.3293
# 2 71.3955 171.4462 46.1937 -5.1888 5.6345 6.1398
# 3 41.7476 46.1937 99.1763 -5.8327 8.6367 -1.1120
# 4 -8.4652 -5.1888 -5.8327 33.6867 -4.2203 -1.4415
# 5 11.2089 5.6345 8.6367 -4.2203 48.8231 12.5350
# 6 4.3293 6.1398 -1.1120 -1.4415 12.5350 52.4845
#
#
#
# Elastic Compliance Matrix: (Units=1/GPa)
#
#
# Indices 1 2 3 4 5 6 
#
# 1 0.015242 -0.005216 -0.003688 0.002128 -0.002013 -0.000186
# 2 -0.005216 0.008500 -0.001850 -0.000265 0.000722 -0.000783
# 3 -0.003688 -0.001850 0.012683 0.000857 -0.001404 0.001148
# 4 0.002128 -0.000265 0.000857 0.030585 0.001972 0.000243
# 5 -0.002013 0.000722 -0.001404 0.001972 0.022641 -0.005301
# 6 -0.000186 -0.000783 0.001148 0.000243 -0.005301 0.020457
#
#
# Mechanical properties :
#
#
# Convention : Reuss Voigt Hill
#
# Bulk Modulus (GPa) = 67.04540 76.90591 71.97565
# Shear Modulus (GPa) = 36.60577 41.27503 38.94040
#
# Velocity S-wave (km/s) = 4.01465 4.26301 4.14069
# Velocity P-wave (km/s) = 7.14211 7.62183 7.38587
#
# Compressibility (1/GPa) = 0.01491527
#
# Stress axis : x y z
#
# Youngs Moduli (GPa) = 65.60623 117.64843 78.84571
#
# Poissons Ratio (x) = 0.61371 0.29079
# Poissons Ratio (y) = 0.34223 0.14590
# Poissons Ratio (z) = 0.24196 0.21770
#
# Static dielectric constant tensor:
#      x y z
#    x 4.154600 0.144730 0.051630 
#    y 0.144730 4.371620 0.014900 
#    z 0.051630 0.014900 3.890290 
# 
# 
# High freq. dielectric constant tensor:
#      x y z
#    x 1.906710 0.000310 0.006940 
#    y 0.000310 1.914930 0.011940 
#    z 0.006940 0.011940 1.894400 
# 
# From -- ./inp_files/573596.got.cif
#   From: 2010.06.25/outbox.cif.g09.slc.cpg/sg2_287_cif.got.tgz:573596.got - 2010.06.27 13:26:56.
