data_PCOD8035179
_publ_section_title
;
Structure prediction by ZEFSAII (Michael W. Deem and Ramdas Pophale) SiO2 
 PCOD8035179
Probable space group: P -1
;
_chemical_formula_sum "Si O2"
_cell_formula_units_Z 16
_cell_length_a 20.721934
_cell_length_b 12.109077
_cell_length_c 14.689297
_cell_angle_alpha 28.260696
_cell_angle_beta 151.729905
_cell_angle_gamma 151.020382
_cell_volume 741.588956
_symmetry_space_group_name_H-M "P -1"
_symmetry_group_IT_number 2
_symmetry_cell_setting 'triclinic'
loop_
_space_group_symop_operation_xyz
x,y,z
-x,-y,-z
loop_
_atom_site_type_symbol
_atom_site_label
_atom_site_fract_x
_atom_site_fract_y
_atom_site_fract_z
Si Si1 0.083617 0.908625 0.872995
Si Si2 0.069964 0.815892 0.256798
Si Si3 0.336431 0.989128 0.802232
Si Si4 0.088679 0.779739 0.517357
Si Si5 0.595338 0.898724 0.579755
Si Si6 0.835324 0.348306 0.000580
Si Si7 0.411140 0.222300 0.139355
Si Si8 0.569141 0.460275 0.520354
O O1 0.973874 0.632734 0.984647
O O2 0.116833 0.838521 0.864168
O O3 0.998448 0.091548 0.624235
O O4 0.235174 0.072165 0.000920
O O5 0.075265 0.845170 0.349871
O O6 0.971430 0.522510 0.317276
O O7 0.232575 0.886805 0.364548
O O8 0.000000 0.000000 0.000000
O O9 0.351744 0.275096 0.631396
O O10 0.265669 0.905363 0.674253
O O11 0.500000 0.000000 0.000000
O O12 0.219017 0.784482 0.873756
O O13 0.573345 0.729999 0.766973
O O14 0.564851 0.727948 0.575019
O O15 0.486195 0.036740 0.340351
O O16 0.695010 0.360741 0.765438
O O17 0.500000 0.500000 0.000000
O O18 0.500000 0.500000 0.500000
#
# Coordination Sequence:
#
# PCOD8035179 Si02
#       8
#     2   2   2   2   2   2   2   2
#     4  11  24  49  71  99 148 183 237 297 357 426
#     4  11  26  46  72 102 141 186 234 298 360 426
#     4  12  27  43  73 104 138 192 235 296 361 420
#     4  11  26  45  69 107 139 181 242 291 355 435
#     4  11  26  43  72 103 137 188 235 290 362 424
#     4  11  26  46  71 104 142 190 233 298 359 425
#     4  11  25  47  72 102 141 184 236 295 356 430
#     4  12  24  47  72 105 146 182 244 297 352 433
#
# _framework density 21.575295000000001
#
# number of rings (size 3 to 8) (size 9 to 14) (size 15 to 20)
#    0.000    0.750    3.750    2.250    7.000    1.500 
#    0.000    0.000    0.000    0.000    0.000    0.000 
#    0.000    0.000    0.000    0.000    0.000    0.000 
#
# Total GULP energy -198420.902560 kJ/mol
# GULP energy per Si atom -12401.306410 kJ/mol
# Density = 2.152619 g / cm^3
# Si number density = 21.575295 Si / 1000 Ang^3
#
#
#
# Elastic Constant Matrix: (Units=GPa)
#
#
# Indices 1 2 3 4 5 6 
#
# 1 104.0511 50.2986 39.6047 -6.8359 3.9586 -2.3737
# 2 50.2986 136.1032 64.3439 9.6890 -9.7300 -3.3297
# 3 39.6047 64.3439 128.2847 -1.2569 1.2891 -3.9208
# 4 -6.8359 9.6890 -1.2569 41.2132 8.9491 0.2401
# 5 3.9586 -9.7300 1.2891 8.9491 33.2618 -2.8056
# 6 -2.3737 -3.3297 -3.9208 0.2401 -2.8056 39.6105
#
#
#
# Elastic Compliance Matrix: (Units=1/GPa)
#
#
# Indices 1 2 3 4 5 6 
#
# 1 0.012826 -0.004544 -0.001605 0.003988 -0.003872 -0.000071
# 2 -0.004544 0.012027 -0.004714 -0.004952 0.005633 0.000701
# 3 -0.001605 -0.004714 0.010703 0.001600 -0.001998 0.000416
# 4 0.003988 -0.004952 0.001600 0.028241 -0.009657 -0.000874
# 5 -0.003872 0.005633 -0.001998 -0.009657 0.035067 0.002586
# 6 -0.000071 0.000701 0.000416 -0.000874 0.002586 0.025530
#
#
# Mechanical properties :
#
#
# Convention : Reuss Voigt Hill
#
# Bulk Modulus (GPa) = 72.29486 75.21482 73.75484
# Shear Modulus (GPa) = 33.17222 37.09656 35.13439
#
# Velocity S-wave (km/s) = 3.92536 4.15106 4.03979
# Velocity P-wave (km/s) = 7.35701 7.61001 7.48458
#
# Compressibility (1/GPa) = 0.01383224
#
# Stress axis : x y z
#
# Youngs Moduli (GPa) = 77.96918 83.14426 93.42965
#
# Poissons Ratio (x) = 0.37777 0.14994
# Poissons Ratio (y) = 0.35426 0.44038
# Poissons Ratio (z) = 0.12513 0.39190
#
# Static dielectric constant tensor:
#      x y z
#    x 4.027680 -0.166090 -0.185230 
#    y -0.166090 5.026910 0.530820 
#    z -0.185230 0.530820 4.368500 
# 
# 
# High freq. dielectric constant tensor:
#      x y z
#    x 1.847290 0.002530 0.000830 
#    y 0.002530 1.864770 0.003650 
#    z 0.000830 0.003650 1.859440 
# 
# From -- ./inp_files/541066.got.cif
#   From: 2010.06.25/outbox.cif.g09.slc.cpg/sg2_271_cif.got.tgz:541066.got - 2010.06.27 13:26:56.
