data_PCOD8035687
_publ_section_title
;
Structure prediction by ZEFSAII (Michael W. Deem and Ramdas Pophale) SiO2 
 PCOD8035687
Probable space group: P -1
;
_chemical_formula_sum "Si O2"
_cell_formula_units_Z 16
_cell_length_a 18.367286
_cell_length_b 9.639899
_cell_length_c 15.372817
_cell_angle_alpha 113.935764
_cell_angle_beta 147.867507
_cell_angle_gamma 42.877879
_cell_volume 792.729541
_symmetry_space_group_name_H-M "P -1"
_symmetry_group_IT_number 2
_symmetry_cell_setting 'triclinic'
loop_
_space_group_symop_operation_xyz
x,y,z
-x,-y,-z
loop_
_atom_site_type_symbol
_atom_site_label
_atom_site_fract_x
_atom_site_fract_y
_atom_site_fract_z
Si Si1 0.849589 0.219831 0.333236
Si Si2 0.605557 0.276467 0.957041
Si Si3 0.794186 0.079335 0.521389
Si Si4 0.353139 0.249613 0.468640
Si Si5 0.869946 0.817362 0.692654
Si Si6 0.676423 0.438552 0.913848
Si Si7 0.221570 0.950766 0.159083
Si Si8 0.019274 0.771058 0.177962
O O1 0.672130 0.500330 0.268492
O O2 0.683625 0.243790 0.126260
O O3 0.000000 0.000000 0.500000
O O4 0.010938 0.152834 0.406899
O O5 0.674061 0.354337 0.981942
O O6 0.759762 0.995405 0.012096
O O7 0.566342 0.281355 0.285756
O O8 0.851839 0.194222 0.646678
O O9 0.756419 0.994350 0.538844
O O10 0.217070 0.279345 0.414098
O O11 0.161956 0.496173 0.276640
O O12 0.500000 0.000000 0.500000
O O13 0.533028 0.213719 0.677814
O O14 0.788854 0.983291 0.736966
O O15 0.144953 0.580768 0.903628
O O16 0.772884 0.237153 0.886032
O O17 0.010590 0.198896 0.949582
#
# Coordination Sequence:
#
# PCOD8035687 Si02
#       8
#     2   2   2   2   2   2   2   2
#     4  10  17  31  55  85 117 141 176 237 285 330
#     4   9  19  31  55  87 109 140 187 234 274 332
#     4  11  21  33  57  87 112 145 188 234 283 326
#     4  10  23  39  55  79 113 155 193 230 276 335
#     4  11  23  36  51  86 118 141 187 245 275 325
#     4  11  19  34  56  85 111 145 186 232 277 323
#     4  10  21  37  59  76 111 155 194 223 275 337
#     4  10  20  37  59  80 110 148 199 228 268 342
#
# _framework density 20.183429
#
# number of rings (size 3 to 8) (size 9 to 14) (size 15 to 20)
#    0.000    1.750    6.250    0.375    0.000    5.500 
#    0.000    0.000    0.000    0.750    0.000    7.875 
#    0.000    0.000    0.000    0.000    0.000    0.000 
#
# Total GULP energy -198253.522343 kJ/mol
# GULP energy per Si atom -12390.845146 kJ/mol
# Density = 2.013749 g / cm^3
# Si number density = 20.183429 Si / 1000 Ang^3
#
#
#
# Elastic Constant Matrix: (Units=GPa)
#
#
# Indices 1 2 3 4 5 6 
#
# 1 97.7394 22.0613 33.7345 -11.1177 -0.9501 10.1487
# 2 22.0613 41.6957 28.3932 -28.1660 3.5277 9.4580
# 3 33.7345 28.3932 119.7906 -30.1788 0.5625 9.4102
# 4 -11.1177 -28.1660 -30.1788 37.9832 1.7645 3.2153
# 5 -0.9501 3.5277 0.5625 1.7645 32.5786 2.7384
# 6 10.1487 9.4580 9.4102 3.2153 2.7384 28.1605
#
#
#
# Elastic Compliance Matrix: (Units=1/GPa)
#
#
# Indices 1 2 3 4 5 6 
#
# 1 0.012480 -0.007396 -0.002710 -0.003987 0.001495 -0.000798
# 2 -0.007396 0.069571 0.001006 0.052837 -0.008422 -0.026251
# 3 -0.002710 0.001006 0.011625 0.009577 -0.000547 -0.004286
# 4 -0.003987 0.052837 0.009577 0.074619 -0.007752 -0.027275
# 5 0.001495 -0.008422 -0.000547 -0.007752 0.032060 0.000240
# 6 -0.000798 -0.026251 -0.004286 -0.027275 0.000240 0.049138
#
#
# Mechanical properties :
#
#
# Convention : Reuss Voigt Hill
#
# Bulk Modulus (GPa) = 13.24957 47.51152 30.38054
# Shear Modulus (GPa) = 17.07345 31.41356 24.24351
#
# Velocity S-wave (km/s) = 2.91162 3.94941 3.46953
# Velocity P-wave (km/s) = 4.22873 6.66244 5.57989
#
# Compressibility (1/GPa) = 0.07547417
#
# Stress axis : x y z
#
# Youngs Moduli (GPa) = 80.12777 14.37380 86.02383
#
# Poissons Ratio (x) = 0.10632 0.23314
# Poissons Ratio (y) = 0.59266 -0.08653
# Poissons Ratio (z) = 0.21716 -0.01446
#
# Static dielectric constant tensor:
#      x y z
#    x 3.928860 -0.011520 0.280640 
#    y -0.011520 3.453340 -0.045560 
#    z 0.280640 -0.045560 4.160440 
# 
# 
# High freq. dielectric constant tensor:
#      x y z
#    x 1.786400 -0.013000 -0.003690 
#    y -0.013000 1.734830 -0.019120 
#    z -0.003690 -0.019120 1.809980 
# 
# From -- ./inp_files/311498.got.cif
#   From: 2010.06.25/outbox.cif.g09.slc.cpg/sg2_156_cif.got.tgz:311498.got - 2010.06.27 13:26:56.
