data_PCOD8035445
_publ_section_title
;
Structure prediction by ZEFSAII (Michael W. Deem and Ramdas Pophale) SiO2 
 PCOD8035445
Probable space group: P -1
;
_chemical_formula_sum "Si O2"
_cell_formula_units_Z 12
_cell_length_a 11.468961
_cell_length_b 9.345048
_cell_length_c 9.279243
_cell_angle_alpha 135.762813
_cell_angle_beta 134.668657
_cell_angle_gamma 61.433515
_cell_volume 492.778046
_symmetry_space_group_name_H-M "P -1"
_symmetry_group_IT_number 2
_symmetry_cell_setting 'triclinic'
loop_
_space_group_symop_operation_xyz
x,y,z
-x,-y,-z
loop_
_atom_site_type_symbol
_atom_site_label
_atom_site_fract_x
_atom_site_fract_y
_atom_site_fract_z
Si Si1 0.289528 0.746371 0.115480
Si Si2 0.211907 0.566415 0.626361
Si Si3 0.064517 0.422987 0.846416
Si Si4 0.711953 0.920118 0.226957
Si Si5 0.559705 0.311866 0.324047
Si Si6 0.662256 0.817675 0.425135
O O1 0.487598 0.746079 0.290560
O O2 0.248106 0.971409 0.292620
O O3 0.209866 0.726474 0.872258
O O4 0.220272 0.573345 0.043180
O O5 0.382235 0.597311 0.711954
O O6 0.205119 0.345171 0.536597
O O7 0.064715 0.574465 0.392687
O O8 0.115059 0.184306 0.730463
O O9 0.000000 0.500000 0.000000
O O10 0.636343 0.824247 0.237340
O O11 0.709643 0.171901 0.414414
O O12 0.596801 0.846053 0.940010
O O13 0.500000 0.500000 0.500000
#
# Coordination Sequence:
#
# PCOD8035445 Si02
#       6
#     2   2   2   2   2   2
#     4  11  25  47  73 109 145 190 251 307 360 433
#     4  12  25  46  73 109 150 193 241 302 370 441
#     4  12  28  49  72 108 159 201 237 299 375 447
#     4  11  25  47  70 111 146 193 251 302 368 432
#     4  11  26  44  76 107 147 192 249 311 365 431
#     4  11  25  44  81 107 139 193 252 313 362 422
#
# _framework density 24.351731999999998
#
# number of rings (size 3 to 8) (size 9 to 14) (size 15 to 20)
#    0.000    0.667    3.333    3.000    9.333    2.667 
#    0.000    0.000    0.000    0.000    0.000    0.000 
#    0.000    0.000    0.000    0.000    0.000    0.000 
#
# Total GULP energy -148691.356732 kJ/mol
# GULP energy per Si atom -12390.946394 kJ/mol
# Density = 2.429631 g / cm^3
# Si number density = 24.351732 Si / 1000 Ang^3
#
#
#
# Elastic Constant Matrix: (Units=GPa)
#
#
# Indices 1 2 3 4 5 6 
#
# 1 108.2917 33.5482 34.4968 17.4535 -31.0932 4.7534
# 2 33.5482 172.7083 70.5482 14.7072 -22.8549 -16.2662
# 3 34.4968 70.5482 133.4661 8.7940 -22.7726 -18.7450
# 4 17.4535 14.7072 8.7940 39.1281 -0.4448 -4.6957
# 5 -31.0932 -22.8549 -22.7726 -0.4448 28.7425 4.7823
# 6 4.7534 -16.2662 -18.7450 -4.6957 4.7823 38.6791
#
#
#
# Elastic Compliance Matrix: (Units=1/GPa)
#
#
# Indices 1 2 3 4 5 6 
#
# 1 0.016023 -0.000199 -0.001493 -0.007234 0.016835 -0.005736
# 2 -0.000199 0.007863 -0.003268 -0.001962 0.003233 0.001109
# 3 -0.001493 -0.003268 0.010740 -0.000051 0.003704 0.003550
# 4 -0.007234 -0.001962 -0.000051 0.030009 -0.009776 0.004891
# 5 0.016835 0.003233 0.003704 -0.009776 0.059600 -0.007470
# 6 -0.005736 0.001109 0.003550 0.004891 -0.007470 0.030263
#
#
# Mechanical properties :
#
#
# Convention : Reuss Voigt Hill
#
# Bulk Modulus (GPa) = 40.47629 76.85028 58.66329
# Shear Modulus (GPa) = 28.95984 39.70146 34.33065
#
# Velocity S-wave (km/s) = 3.45226 4.04212 3.75878
# Velocity P-wave (km/s) = 5.70512 7.30835 6.55593
#
# Compressibility (1/GPa) = 0.02470582
#
# Stress axis : x y z
#
# Youngs Moduli (GPa) = 62.41109 127.17495 93.11145
#
# Poissons Ratio (x) = 0.02532 0.13899
# Poissons Ratio (y) = 0.01243 0.30431
# Poissons Ratio (z) = 0.09316 0.41563
#
# Static dielectric constant tensor:
#      x y z
#    x 4.504790 0.089490 -0.130970 
#    y 0.089490 4.719180 0.263660 
#    z -0.130970 0.263660 4.349570 
# 
# 
# High freq. dielectric constant tensor:
#      x y z
#    x 1.965150 -0.000350 -0.011260 
#    y -0.000350 1.976990 0.006570 
#    z -0.011260 0.006570 1.970540 
# 
# From -- ./inp_files/241659.got.cif
#   From: 2010.06.25/outbox.cif.g09.slc.cpg/sg2_121_cif.got.tgz:241659.got - 2010.06.27 13:26:56.
