data_PCOD8035929
_publ_section_title
;
Structure prediction by ZEFSAII (Michael W. Deem and Ramdas Pophale) SiO2 
 PCOD8035929
Probable space group: P -1
;
_chemical_formula_sum "Si O2"
_cell_formula_units_Z 16
_cell_length_a 22.392938
_cell_length_b 8.929206
_cell_length_c 12.578384
_cell_angle_alpha 36.283598
_cell_angle_beta 152.097688
_cell_angle_gamma 136.155830
_cell_volume 696.150716
_symmetry_space_group_name_H-M "P -1"
_symmetry_group_IT_number 2
_symmetry_cell_setting 'triclinic'
loop_
_space_group_symop_operation_xyz
x,y,z
-x,-y,-z
loop_
_atom_site_type_symbol
_atom_site_label
_atom_site_fract_x
_atom_site_fract_y
_atom_site_fract_z
Si Si1 0.980111 0.241918 0.554160
Si Si2 0.760426 0.501606 0.763658
Si Si3 0.355123 0.142743 0.451656
Si Si4 0.909232 0.070620 0.913519
Si Si5 0.208985 0.131336 0.588665
Si Si6 0.966607 0.633253 0.660582
Si Si7 0.477378 0.741395 0.549744
Si Si8 0.514485 0.676277 0.025388
O O1 0.000000 0.500000 0.500000
O O2 0.060393 0.280421 0.550846
O O3 0.828839 0.158024 0.343645
O O4 0.036863 0.013352 0.840845
O O5 0.670123 0.652613 0.615025
O O6 0.811675 0.686240 0.647079
O O7 0.672979 0.276020 0.704851
O O8 0.880911 0.384650 0.077025
O O9 0.445592 0.265988 0.434062
O O10 0.225536 0.067720 0.232327
O O11 0.412514 0.894524 0.737975
O O12 0.892035 0.369354 0.718196
O O13 0.000000 0.000000 0.000000
O O14 0.094379 0.165903 0.472697
O O15 0.347044 0.176514 0.833754
O O16 0.512917 0.498268 0.815308
O O17 0.500000 0.000000 0.500000
O O18 0.500000 0.500000 0.000000
#
# Coordination Sequence:
#
# PCOD8035929 Si02
#       8
#     2   2   2   2   2   2   2   2
#     4  12  25  44  71 110 143 187 241 297 362 429
#     4  11  25  48  73 104 145 192 238 299 364 421
#     4  12  25  47  76 100 150 187 239 299 353 431
#     4  12  24  47  71 108 145 186 236 300 362 424
#     4  11  26  47  74 106 147 193 239 299 365 428
#     4  12  25  46  75 105 148 187 240 300 361 430
#     4  11  26  46  72 107 140 192 243 293 356 429
#     4  11  25  49  74 106 144 193 241 296 360 434
#
# _framework density 22.983529999999998
#
# number of rings (size 3 to 8) (size 9 to 14) (size 15 to 20)
#    0.000    0.500    5.000    1.875    3.500    4.000 
#    6.750    0.000    0.000    0.000    0.000    0.000 
#    0.000    0.000    0.000    0.000    0.000    0.000 
#
# Total GULP energy -198413.516170 kJ/mol
# GULP energy per Si atom -12400.844761 kJ/mol
# Density = 2.293122 g / cm^3
# Si number density = 22.983530 Si / 1000 Ang^3
#
#
#
# Elastic Constant Matrix: (Units=GPa)
#
#
# Indices 1 2 3 4 5 6 
#
# 1 152.9961 33.0266 46.6202 -0.1479 -19.3138 4.3178
# 2 33.0266 174.2187 23.9447 20.6511 -0.7395 2.9614
# 3 46.6202 23.9447 72.0520 3.9618 -8.3159 0.6146
# 4 -0.1479 20.6511 3.9618 31.1095 0.8776 0.2149
# 5 -19.3138 -0.7395 -8.3159 0.8776 41.9350 -5.9344
# 6 4.3178 2.9614 0.6146 0.2149 -5.9344 38.8635
#
#
#
# Elastic Compliance Matrix: (Units=1/GPa)
#
#
# Indices 1 2 3 4 5 6 
#
# 1 0.008668 -0.001097 -0.004978 0.001324 0.002907 -0.000364
# 2 -0.001097 0.006636 -0.001332 -0.004220 -0.000626 -0.000435
# 3 -0.004978 -0.001332 0.017769 -0.001444 0.001320 0.000583
# 4 0.001324 -0.004220 -0.001444 0.035151 -0.000497 -0.000073
# 5 0.002907 -0.000626 0.001320 -0.000497 0.025966 0.003672
# 6 -0.000364 -0.000435 0.000583 -0.000073 0.003672 0.026357
#
#
# Mechanical properties :
#
#
# Convention : Reuss Voigt Hill
#
# Bulk Modulus (GPa) = 54.76809 67.38331 61.07570
# Shear Modulus (GPa) = 35.34873 42.09330 38.72101
#
# Velocity S-wave (km/s) = 3.92599 4.28419 4.10900
# Velocity P-wave (km/s) = 6.66575 7.33854 7.01022
#
# Compressibility (1/GPa) = 0.01825881
#
# Stress axis : x y z
#
# Youngs Moduli (GPa) = 115.36054 150.69444 56.27674
#
# Poissons Ratio (x) = 0.16539 0.28016
# Poissons Ratio (y) = 0.12661 0.07494
# Poissons Ratio (z) = 0.57430 0.20067
#
# Static dielectric constant tensor:
#      x y z
#    x 4.288170 0.018180 -0.396190 
#    y 0.018180 4.578970 0.060710 
#    z -0.396190 0.060710 4.210980 
# 
# 
# High freq. dielectric constant tensor:
#      x y z
#    x 1.918250 0.006260 -0.021150 
#    y 0.006260 1.937910 0.009450 
#    z -0.021150 0.009450 1.897250 
# 
# From -- ./inp_files/469802.got.cif
#   From: 2010.06.25/outbox.cif.g09.slc.cpg/sg2_235_cif.got.tgz:469802.got - 2010.06.27 13:26:56.
