data_PCOD8035148
_publ_section_title
;
Structure prediction by ZEFSAII (Michael W. Deem and Ramdas Pophale) SiO2 
 PCOD8035148
Probable space group: P -1
;
_chemical_formula_sum "Si O2"
_cell_formula_units_Z 12
_cell_length_a 5.307824
_cell_length_b 17.077581
_cell_length_c 19.961451
_cell_angle_alpha 159.964128
_cell_angle_beta 82.445258
_cell_angle_gamma 108.001862
_cell_volume 514.740976
_symmetry_space_group_name_H-M "P -1"
_symmetry_group_IT_number 2
_symmetry_cell_setting 'triclinic'
loop_
_space_group_symop_operation_xyz
x,y,z
-x,-y,-z
loop_
_atom_site_type_symbol
_atom_site_label
_atom_site_fract_x
_atom_site_fract_y
_atom_site_fract_z
Si Si1 0.942418 0.742171 0.701534
Si Si2 0.530544 0.011554 0.705687
Si Si3 0.379594 0.094039 0.519841
Si Si4 0.130524 0.210716 0.405259
Si Si5 0.434541 0.203394 0.129173
Si Si6 0.281431 0.420229 0.879705
O O1 0.787319 0.752037 0.646704
O O2 0.741670 0.702279 0.741362
O O3 0.000000 0.500000 0.500000
O O4 0.250044 0.042040 0.939780
O O5 0.427006 0.837263 0.499839
O O6 0.716011 0.935218 0.685599
O O7 0.755826 0.331314 0.936101
O O8 0.230206 0.962233 0.711361
O O9 0.413600 0.368188 0.765785
O O10 0.500000 0.000000 0.500000
O O11 0.038274 0.859977 0.320807
O O12 0.263633 0.511701 0.674412
O O13 0.500000 0.000000 0.000000
O O14 0.500000 0.500000 0.000000
#
# Coordination Sequence:
#
# PCOD8035148 Si02
#       6
#     2   2   2   2   2   2
#     4  11  24  48  75 103 139 199 248 297 360 450
#     4  12  28  48  70 111 154 184 238 311 372 425
#     4  11  25  46  78 102 141 194 257 294 357 451
#     4  12  28  48  70 111 154 184 238 311 372 425
#     4  11  25  46  78 102 141 194 257 294 357 451
#     4  11  24  48  75 103 139 199 248 297 360 450
#
# _framework density 23.312697
#
# number of rings (size 3 to 8) (size 9 to 14) (size 15 to 20)
#    0.000    0.667    3.333    3.000    9.333    1.333 
#    0.000    0.000    0.000    0.000    0.000    0.000 
#    0.000    0.000    0.000    0.000    0.000    0.000 
#
# Total GULP energy -148771.390215 kJ/mol
# GULP energy per Si atom -12397.615851 kJ/mol
# Density = 2.325964 g / cm^3
# Si number density = 23.312697 Si / 1000 Ang^3
#
#
#
# Elastic Constant Matrix: (Units=GPa)
#
#
# Indices 1 2 3 4 5 6 
#
# 1 122.1875 36.3207 45.1015 -4.4337 -11.8636 -31.1298
# 2 36.3207 98.4154 45.9107 -14.1556 -13.5944 -32.5371
# 3 45.1015 45.9107 159.9635 -15.3339 -6.1859 -18.6715
# 4 -4.4337 -14.1556 -15.3339 41.4678 -1.4338 -7.0733
# 5 -11.8636 -13.5944 -6.1859 -1.4338 55.2138 -2.9973
# 6 -31.1298 -32.5371 -18.6715 -7.0733 -2.9973 49.5173
#
#
#
# Elastic Compliance Matrix: (Units=1/GPa)
#
#
# Indices 1 2 3 4 5 6 
#
# 1 0.010910 -0.000578 -0.001982 0.001352 0.002344 0.006067
# 2 -0.000578 0.016766 -0.002555 0.006735 0.004486 0.010924
# 3 -0.001982 -0.002555 0.007741 0.001816 -0.000127 0.000246
# 4 0.001352 0.006735 0.001816 0.029112 0.003469 0.010329
# 5 0.002344 0.004486 -0.000127 0.003469 0.020126 0.006087
# 6 0.006067 0.010924 0.000246 0.010329 0.006087 0.033123
#
#
# Mechanical properties :
#
#
# Convention : Reuss Voigt Hill
#
# Bulk Modulus (GPa) = 39.70122 70.58134 55.14128
# Shear Modulus (GPa) = 36.65604 46.12200 41.38902
#
# Velocity S-wave (km/s) = 3.96961 4.45275 4.21810
# Velocity P-wave (km/s) = 6.17067 7.53510 6.88676
#
# Compressibility (1/GPa) = 0.02518815
#
# Stress axis : x y z
#
# Youngs Moduli (GPa) = 91.66162 59.64486 129.17617
#
# Poissons Ratio (x) = 0.03446 0.25599
# Poissons Ratio (y) = 0.05296 0.33004
# Poissons Ratio (z) = 0.18165 0.15239
#
# Static dielectric constant tensor:
#      x y z
#    x 4.375320 0.149110 0.052620 
#    y 0.149110 4.356460 -0.242490 
#    z 0.052620 -0.242490 4.893650 
# 
# 
# High freq. dielectric constant tensor:
#      x y z
#    x 1.928540 -0.005190 -0.002230 
#    y -0.005190 1.908660 -0.015860 
#    z -0.002230 -0.015860 1.942950 
# 
# From -- ./inp_files/583901.got.cif
#   From: 2010.06.25/outbox.cif.g09.slc.cpg/sg2_292_cif.got.tgz:583901.got - 2010.06.27 13:26:56.
