data_PCOD8035694
_publ_section_title
;
Structure prediction by ZEFSAII (Michael W. Deem and Ramdas Pophale) SiO2 
 PCOD8035694
Probable space group: P -1
;
_chemical_formula_sum "Si O2"
_cell_formula_units_Z 14
_cell_length_a 9.290162
_cell_length_b 5.384698
_cell_length_c 13.004698
_cell_angle_alpha 98.924372
_cell_angle_beta 107.674193
_cell_angle_gamma 95.516014
_cell_volume 605.214897
_symmetry_space_group_name_H-M "P -1"
_symmetry_group_IT_number 2
_symmetry_cell_setting 'triclinic'
loop_
_space_group_symop_operation_xyz
x,y,z
-x,-y,-z
loop_
_atom_site_type_symbol
_atom_site_label
_atom_site_fract_x
_atom_site_fract_y
_atom_site_fract_z
Si Si1 0.404241 0.369927 0.878103
Si Si2 0.658349 0.312007 0.288652
Si Si3 0.159734 0.950656 0.343214
Si Si4 0.842291 0.496750 0.524256
Si Si5 0.912785 0.235846 0.010497
Si Si6 0.626417 0.082099 0.798476
Si Si7 0.857026 0.038494 0.195156
O O1 0.307607 0.542623 0.802565
O O2 0.509052 0.278766 0.804326
O O3 0.282188 0.160130 0.894817
O O4 0.500000 0.500000 0.000000
O O5 0.699121 0.467185 0.412254
O O6 0.479472 0.193204 0.238458
O O7 0.788451 0.126852 0.294043
O O8 0.169498 0.749518 0.421843
O O9 0.296717 0.903042 0.295188
O O10 0.001409 0.896396 0.242413
O O11 0.170715 0.243038 0.401910
O O12 0.000000 0.500000 0.500000
O O13 0.898310 0.261044 0.132683
O O14 0.748505 0.144878 0.919242
O O15 0.000000 0.500000 0.000000
O O16 0.000000 0.000000 0.000000
#
# Coordination Sequence:
#
# PCOD8035694 Si02
#       7
#     2   2   2   2   2   2   2
#     4  11  25  46  78 105 153 195 249 297 376 452
#     4  11  26  46  76 103 152 195 248 307 368 444
#     4  12  28  46  78 109 148 192 253 313 366 433
#     4  12  27  48  78 109 146 196 258 303 369 439
#     4  12  28  44  74 108 148 188 241 303 371 439
#     4  11  28  46  71 113 150 191 249 304 381 433
#     4  11  25  46  72 111 140 198 248 305 371 442
#
# _framework density 23.132280000000002
#
# number of rings (size 3 to 8) (size 9 to 14) (size 15 to 20)
#    0.000    0.571    2.857    3.000   14.000    3.429 
#    0.000    0.000    0.000    0.000    0.000    0.000 
#    0.000    0.000    0.000    0.000    0.000    0.000 
#
# Total GULP energy -173447.700776 kJ/mol
# GULP energy per Si atom -12389.121484 kJ/mol
# Density = 2.307963 g / cm^3
# Si number density = 23.132280 Si / 1000 Ang^3
#
#
#
# Elastic Constant Matrix: (Units=GPa)
#
#
# Indices 1 2 3 4 5 6 
#
# 1 130.8847 47.2050 47.5393 3.2457 -9.2140 17.5308
# 2 47.2050 129.5263 55.1816 -7.2721 3.2124 10.7621
# 3 47.5393 55.1816 140.9888 -5.5350 10.7464 12.9033
# 4 3.2457 -7.2721 -5.5350 47.9621 3.2924 -2.4172
# 5 -9.2140 3.2124 10.7464 3.2924 46.2058 2.5456
# 6 17.5308 10.7621 12.9033 -2.4172 2.5456 26.5614
#
#
#
# Elastic Compliance Matrix: (Units=1/GPa)
#
#
# Indices 1 2 3 4 5 6 
#
# 1 0.010368 -0.002532 -0.002350 -0.001836 0.003205 -0.005150
# 2 -0.002532 0.010038 -0.002904 0.001357 -0.000580 -0.000806
# 3 -0.002350 -0.002904 0.009380 0.000892 -0.002428 -0.001516
# 4 -0.001836 0.001357 0.000892 0.021565 -0.002338 0.002415
# 5 0.003205 -0.000580 -0.002428 -0.002338 0.023226 -0.003139
# 6 -0.005150 -0.000806 -0.001516 0.002415 -0.003139 0.042631
#
#
# Mechanical properties :
#
#
# Convention : Reuss Voigt Hill
#
# Bulk Modulus (GPa) = 70.34913 77.91684 74.13298
# Shear Modulus (GPa) = 36.35894 40.91079 38.63487
#
# Velocity S-wave (km/s) = 3.96887 4.20999 4.09121
# Velocity P-wave (km/s) = 7.17498 7.57550 7.37796
#
# Compressibility (1/GPa) = 0.01421482
#
# Stress axis : x y z
#
# Youngs Moduli (GPa) = 96.45102 99.62278 106.60525
#
# Poissons Ratio (x) = 0.25225 0.25052
# Poissons Ratio (y) = 0.24422 0.30955
# Poissons Ratio (z) = 0.22665 0.28927
#
# Static dielectric constant tensor:
#      x y z
#    x 4.180180 0.116980 -0.026070 
#    y 0.116980 4.748000 -0.084710 
#    z -0.026070 -0.084710 4.441650 
# 
# 
# High freq. dielectric constant tensor:
#      x y z
#    x 1.932670 0.002240 -0.002760 
#    y 0.002240 1.914900 0.005500 
#    z -0.002760 0.005500 1.920200 
# 
# From -- ./inp_files/128798.got.cif
#   From: 2010.06.25/outbox.cif.g09.slc.cpg/sg2_65_cif.got.tgz:128798.got - 2010.06.27 13:26:56.
