data_PCOD8035029
_publ_section_title
;
Structure prediction by ZEFSAII (Michael W. Deem and Ramdas Pophale) SiO2 
 PCOD8035029
Probable space group: P -1
;
_chemical_formula_sum "Si O2"
_cell_formula_units_Z 16
_cell_length_a 15.678575
_cell_length_b 9.474156
_cell_length_c 6.824421
_cell_angle_alpha 134.420311
_cell_angle_beta 79.576537
_cell_angle_gamma 94.802040
_cell_volume 710.736941
_symmetry_space_group_name_H-M "P -1"
_symmetry_group_IT_number 2
_symmetry_cell_setting 'triclinic'
loop_
_space_group_symop_operation_xyz
x,y,z
-x,-y,-z
loop_
_atom_site_type_symbol
_atom_site_label
_atom_site_fract_x
_atom_site_fract_y
_atom_site_fract_z
Si Si1 0.917864 0.608765 0.534812
Si Si2 0.641487 0.435730 0.395943
Si Si3 0.545081 0.115628 0.926199
Si Si4 0.426235 0.378903 0.006558
Si Si5 0.086961 0.036911 0.876745
Si Si6 0.876855 0.900961 0.511765
Si Si7 0.316962 0.219940 0.564606
Si Si8 0.180774 0.765355 0.843155
O O1 0.935686 0.738870 0.457397
O O2 0.851387 0.453647 0.343939
O O3 0.000000 0.500000 0.500000
O O4 0.876043 0.758299 0.861719
O O5 0.668863 0.640360 0.490887
O O6 0.716658 0.258724 0.197275
O O7 0.614037 0.483541 0.672827
O O8 0.566645 0.334328 0.207513
O O9 0.470924 0.165724 0.844095
O O10 0.627367 0.988327 0.681895
O O11 0.500000 0.000000 0.000000
O O12 0.346851 0.337017 0.855933
O O13 0.500000 0.500000 0.000000
O O14 0.071607 0.049930 0.661927
O O15 0.157488 0.859938 0.731121
O O16 0.000000 0.000000 0.000000
O O17 0.784173 0.819869 0.414101
O O18 0.863089 0.101178 0.837055
#
# Coordination Sequence:
#
# PCOD8035029 Si02
#       8
#     2   2   2   2   2   2   2   2
#     4  11  24  47  73 108 138 182 234 289 353 420
#     4  12  25  46  71 101 148 182 235 302 350 412
#     4  12  24  45  72 100 143 189 231 294 356 408
#     4  12  26  43  71 104 140 187 241 292 352 421
#     4  11  26  48  70 109 145 180 233 291 353 427
#     4  11  27  45  75 104 143 188 239 288 357 431
#     4  12  25  45  69 106 139 187 243 288 358 421
#     4  11  25  46  71 103 142 183 235 293 358 413
#
# _framework density 22.511844
#
# number of rings (size 3 to 8) (size 9 to 14) (size 15 to 20)
#    0.000    0.500    6.250    1.500    1.750    6.500 
#    0.000    0.000    0.000    0.000    0.000    0.000 
#    0.000    0.000    0.000    0.000    0.000    0.000 
#
# Total GULP energy -198384.644137 kJ/mol
# GULP energy per Si atom -12399.040259 kJ/mol
# Density = 2.246061 g / cm^3
# Si number density = 22.511844 Si / 1000 Ang^3
#
#
#
# Elastic Constant Matrix: (Units=GPa)
#
#
# Indices 1 2 3 4 5 6 
#
# 1 77.2702 29.4919 25.1881 -6.8272 1.7474 -8.5550
# 2 29.4919 138.5200 53.9241 -12.4859 -9.3802 -15.9734
# 3 25.1881 53.9241 129.9867 -6.5541 5.9498 -1.4497
# 4 -6.8272 -12.4859 -6.5541 44.8439 0.9542 4.4830
# 5 1.7474 -9.3802 5.9498 0.9542 37.2105 4.1820
# 6 -8.5550 -15.9734 -1.4497 4.4830 4.1820 41.7810
#
#
#
# Elastic Compliance Matrix: (Units=1/GPa)
#
#
# Indices 1 2 3 4 5 6 
#
# 1 0.014725 -0.002157 -0.001819 0.001189 -0.001213 0.002121
# 2 -0.002157 0.009735 -0.003641 0.001519 0.002794 0.002711
# 3 -0.001819 -0.003641 0.009660 0.000292 -0.002246 -0.001236
# 4 0.001189 0.001519 0.000292 0.023112 -0.000129 -0.001633
# 5 -0.001213 0.002794 -0.002246 -0.000129 0.028230 -0.002070
# 6 0.002121 0.002711 -0.001236 -0.001633 -0.002070 0.025745
#
#
# Mechanical properties :
#
#
# Convention : Reuss Voigt Hill
#
# Bulk Modulus (GPa) = 52.95459 62.55388 57.75423
# Shear Modulus (GPa) = 37.66813 40.57861 39.12337
#
# Velocity S-wave (km/s) = 4.09499 4.25024 4.17334
# Velocity P-wave (km/s) = 6.77736 7.20649 6.99522
#
# Compressibility (1/GPa) = 0.01888411
#
# Stress axis : x y z
#
# Youngs Moduli (GPa) = 67.91005 102.72426 103.51975
#
# Poissons Ratio (x) = 0.22161 0.18834
# Poissons Ratio (y) = 0.14650 0.37696
# Poissons Ratio (z) = 0.12355 0.37406
#
# Static dielectric constant tensor:
#      x y z
#    x 4.163840 -0.166080 0.242120 
#    y -0.166080 4.319180 0.090290 
#    z 0.242120 0.090290 4.175210 
# 
# 
# High freq. dielectric constant tensor:
#      x y z
#    x 1.894190 -0.014790 0.016750 
#    y -0.014790 1.898210 0.010310 
#    z 0.016750 0.010310 1.888380 
# 
# From -- ./inp_files/107772.got.cif
#   From: 2010.06.25/outbox.cif.g09.slc.cpg/sg2_54_cif.got.tgz:107772.got - 2010.06.27 13:26:56.
