data_PCOD8035885
_publ_section_title
;
Structure prediction by ZEFSAII (Michael W. Deem and Ramdas Pophale) SiO2 
 PCOD8035885
Probable space group: P -1
;
_chemical_formula_sum "Si O2"
_cell_formula_units_Z 12
_cell_length_a 9.791576
_cell_length_b 11.086305
_cell_length_c 5.535764
_cell_angle_alpha 111.276723
_cell_angle_beta 99.081151
_cell_angle_gamma 61.783964
_cell_volume 493.352436
_symmetry_space_group_name_H-M "P -1"
_symmetry_group_IT_number 2
_symmetry_cell_setting 'triclinic'
loop_
_space_group_symop_operation_xyz
x,y,z
-x,-y,-z
loop_
_atom_site_type_symbol
_atom_site_label
_atom_site_fract_x
_atom_site_fract_y
_atom_site_fract_z
Si Si1 0.874130 0.448801 0.504889
Si Si2 0.374390 0.601327 0.849904
Si Si3 0.602723 0.831730 0.375388
Si Si4 0.105944 0.890402 0.146704
Si Si5 0.916127 0.838765 0.419129
Si Si6 0.401768 0.315002 0.222096
O O1 0.735536 0.475261 0.295083
O O2 0.774016 0.554425 0.772481
O O3 0.000000 0.500000 0.500000
O O4 0.953329 0.276876 0.451021
O O5 0.472560 0.621547 0.667994
O O6 0.500000 0.500000 0.000000
O O7 0.270667 0.765116 0.029527
O O8 0.778843 0.795064 0.336831
O O9 0.592531 0.766732 0.585466
O O10 0.500000 0.000000 0.500000
O O11 0.549022 0.778401 0.080729
O O12 0.003253 0.816336 0.172188
O O13 0.144855 0.992174 0.412429
O O14 0.000000 0.000000 0.000000
#
# Coordination Sequence:
#
# PCOD8035885 Si02
#       6
#     2   2   2   2   2   2
#     4  12  26  49  78 117 158 209 268 328 406 477
#     4  12  27  50  81 115 162 209 271 331 405 483
#     4  12  28  48  79 113 160 211 266 333 404 481
#     4  11  25  47  77 112 152 209 263 332 403 470
#     4  11  26  45  77 112 154 204 270 331 395 482
#     4  12  28  49  79 114 160 208 269 329 408 478
#
# _framework density 24.32338
#
# number of rings (size 3 to 8) (size 9 to 14) (size 15 to 20)
#    0.000    0.333    3.333    4.000    7.000    2.000 
#    0.000    0.000    0.000    0.000    0.000    0.000 
#    0.000    0.000    0.000    0.000    0.000    0.000 
#
# Total GULP energy -148673.212088 kJ/mol
# GULP energy per Si atom -12389.434341 kJ/mol
# Density = 2.426802 g / cm^3
# Si number density = 24.323380 Si / 1000 Ang^3
#
#
#
# Elastic Constant Matrix: (Units=GPa)
#
#
# Indices 1 2 3 4 5 6 
#
# 1 221.9635 67.7586 60.8546 -13.7670 -12.9477 12.6090
# 2 67.7586 168.1991 36.9003 2.0559 -10.0175 -10.8454
# 3 60.8546 36.9003 91.8735 -4.7395 0.2834 8.4376
# 4 -13.7670 2.0559 -4.7395 50.1116 -0.2371 -8.8989
# 5 -12.9477 -10.0175 0.2834 -0.2371 41.3370 -3.1475
# 6 12.6090 -10.8454 8.4376 -8.8989 -3.1475 44.8984
#
#
#
# Elastic Compliance Matrix: (Units=1/GPa)
#
#
# Indices 1 2 3 4 5 6 
#
# 1 0.006155 -0.001789 -0.003187 0.001254 0.001431 -0.001213
# 2 -0.001789 0.007381 -0.002056 -0.000507 0.001443 0.002672
# 3 -0.003187 -0.002056 0.014048 0.000113 -0.001771 -0.002343
# 4 0.001254 -0.000507 0.000113 0.020994 0.000672 0.003712
# 5 0.001431 0.001443 -0.001771 0.000672 0.025171 0.002177
# 6 -0.001213 0.002672 -0.002343 0.003712 0.002177 0.024587
#
#
# Mechanical properties :
#
#
# Convention : Reuss Voigt Hill
#
# Bulk Modulus (GPa) = 73.95824 90.34033 82.14929
# Shear Modulus (GPa) = 42.76898 48.37091 45.56994
#
# Velocity S-wave (km/s) = 4.19782 4.46428 4.33309
# Velocity P-wave (km/s) = 7.34628 7.98718 7.67342
#
# Compressibility (1/GPa) = 0.01352114
#
# Stress axis : x y z
#
# Youngs Moduli (GPa) = 162.46358 135.47508 71.18589
#
# Poissons Ratio (x) = 0.24233 0.22687
# Poissons Ratio (y) = 0.29061 0.14635
# Poissons Ratio (z) = 0.51776 0.27853
#
# Static dielectric constant tensor:
#      x y z
#    x 4.856240 0.021590 -0.120360 
#    y 0.021590 5.248070 0.611630 
#    z -0.120360 0.611630 4.521810 
# 
# 
# High freq. dielectric constant tensor:
#      x y z
#    x 1.991600 -0.000930 -0.010040 
#    y -0.000930 1.988310 0.021000 
#    z -0.010040 0.021000 1.954890 
# 
# From -- ./inp_files/28745.got.cif
#   From: 2010.06.25/outbox.cif.g09.slc.cpg/sg2_15_cif.got.tgz:28745.got - 2010.06.27 13:26:56.
