data_PCOD8035375
_publ_section_title
;
Structure prediction by ZEFSAII (Michael W. Deem and Ramdas Pophale) SiO2 
 PCOD8035375
Probable space group: P -1
;
_chemical_formula_sum "Si O2"
_cell_formula_units_Z 16
_cell_length_a 15.388741
_cell_length_b 9.014576
_cell_length_c 11.790510
_cell_angle_alpha 105.947352
_cell_angle_beta 48.111210
_cell_angle_gamma 67.101887
_cell_volume 702.652993
_symmetry_space_group_name_H-M "P -1"
_symmetry_group_IT_number 2
_symmetry_cell_setting 'triclinic'
loop_
_space_group_symop_operation_xyz
x,y,z
-x,-y,-z
loop_
_atom_site_type_symbol
_atom_site_label
_atom_site_fract_x
_atom_site_fract_y
_atom_site_fract_z
Si Si1 0.788033 0.161913 0.727163
Si Si2 0.701024 0.346715 0.593801
Si Si3 0.672809 0.704033 0.591129
Si Si4 0.378116 0.490445 0.837249
Si Si5 0.982360 0.646607 0.955841
Si Si6 0.076074 0.322806 0.501301
Si Si7 0.711250 0.748023 0.057705
Si Si8 0.969292 0.104283 0.927706
O O1 0.673284 0.331102 0.747024
O O2 0.808323 0.956338 0.686413
O O3 0.686683 0.347248 0.960551
O O4 0.000000 0.000000 0.500000
O O5 0.639073 0.588159 0.673411
O O6 0.591639 0.338556 0.604943
O O7 0.925666 0.096140 0.308608
O O8 0.764965 0.743173 0.589747
O O9 0.817249 0.521644 0.320449
O O10 0.458261 0.986472 0.804978
O O11 0.380582 0.301932 0.807768
O O12 0.254679 0.657220 0.867079
O O13 0.804060 0.787491 0.060029
O O14 0.000000 0.500000 0.000000
O O15 0.933382 0.833666 0.125325
O O16 0.000000 0.500000 0.500000
O O17 0.884655 0.490333 0.778092
O O18 0.000000 0.000000 0.000000
#
# Coordination Sequence:
#
# PCOD8035375 Si02
#       8
#     2   2   2   2   2   2   2   2
#     4  12  23  47  74  98 140 186 232 282 345 407
#     4  12  27  45  71 104 142 181 232 286 342 415
#     4  11  27  44  67 104 139 178 228 282 347 410
#     4  12  27  45  73 102 137 185 234 283 345 412
#     4  11  25  47  70  97 135 182 229 283 346 408
#     4  11  25  44  70  99 138 179 224 283 339 404
#     4  11  25  45  68 100 136 178 229 279 344 409
#     4  12  26  47  71 100 140 180 233 287 345 410
#
# _framework density 22.77084
#
# number of rings (size 3 to 8) (size 9 to 14) (size 15 to 20)
#    0.000    0.500    5.000    1.875    7.000    2.500 
#    0.000    0.000    0.000    0.000    0.000    0.000 
#    0.000    0.000    0.000    0.000    0.000    0.000 
#
# Total GULP energy -198266.221174 kJ/mol
# GULP energy per Si atom -12391.638823 kJ/mol
# Density = 2.271901 g / cm^3
# Si number density = 22.770840 Si / 1000 Ang^3
#
#
#
# Elastic Constant Matrix: (Units=GPa)
#
#
# Indices 1 2 3 4 5 6 
#
# 1 120.0641 46.7838 25.4297 12.6394 -14.8069 -6.4896
# 2 46.7838 171.3059 19.8825 12.1408 -6.8082 -8.9980
# 3 25.4297 19.8825 46.7638 10.1786 -6.3656 -3.7586
# 4 12.6394 12.1408 10.1786 35.5543 -1.3864 -0.3967
# 5 -14.8069 -6.8082 -6.3656 -1.3864 41.5949 -1.6695
# 6 -6.4896 -8.9980 -3.7586 -0.3967 -1.6695 46.9170
#
#
#
# Elastic Compliance Matrix: (Units=1/GPa)
#
#
# Indices 1 2 3 4 5 6 
#
# 1 0.010589 -0.002147 -0.004018 -0.001763 0.002777 0.000815
# 2 -0.002147 0.006712 -0.001353 -0.001126 0.000125 0.000877
# 3 -0.004018 -0.001353 0.025709 -0.005371 0.002155 0.001276
# 4 -0.001763 -0.001126 -0.005371 0.030643 -0.000639 -0.000654
# 5 0.002777 0.000125 0.002155 -0.000639 0.025418 0.001480
# 6 0.000815 0.000877 0.001276 -0.000654 0.001480 0.021744
#
#
# Mechanical properties :
#
#
# Convention : Reuss Voigt Hill
#
# Bulk Modulus (GPa) = 35.74878 58.03621 46.89250
# Shear Modulus (GPa) = 34.44078 41.21576 37.82827
#
# Velocity S-wave (km/s) = 3.89330 4.25905 4.08028
# Velocity P-wave (km/s) = 5.99532 7.05184 6.54493
#
# Compressibility (1/GPa) = 0.02797298
#
# Stress axis : x y z
#
# Youngs Moduli (GPa) = 94.44019 148.98986 38.89648
#
# Poissons Ratio (x) = 0.31993 0.15628
# Poissons Ratio (y) = 0.20279 0.05264
# Poissons Ratio (z) = 0.37944 0.20164
#
# Static dielectric constant tensor:
#      x y z
#    x 4.585840 0.836990 -1.020280 
#    y 0.836990 5.948890 -2.056390 
#    z -1.020280 -2.056390 5.986860 
# 
# 
# High freq. dielectric constant tensor:
#      x y z
#    x 1.919210 0.004140 -0.008780 
#    y 0.004140 1.912430 0.005120 
#    z -0.008780 0.005120 1.892160 
# 
# From -- ./inp_files/279073.got.cif
#   From: 2010.06.25/outbox.cif.g09.slc.cpg/sg2_140_cif.got.tgz:279073.got - 2010.06.27 13:26:56.
