data_PCOD8035600
_publ_section_title
;
Structure prediction by ZEFSAII (Michael W. Deem and Ramdas Pophale) SiO2 
 PCOD8035600
Probable space group: P -1
;
_chemical_formula_sum "Si O2"
_cell_formula_units_Z 12
_cell_length_a 5.179231
_cell_length_b 22.746377
_cell_length_c 24.998111
_cell_angle_alpha 169.018318
_cell_angle_beta 114.241844
_cell_angle_gamma 65.659893
_cell_volume 510.838406
_symmetry_space_group_name_H-M "P -1"
_symmetry_group_IT_number 2
_symmetry_cell_setting 'triclinic'
loop_
_space_group_symop_operation_xyz
x,y,z
-x,-y,-z
loop_
_atom_site_type_symbol
_atom_site_label
_atom_site_fract_x
_atom_site_fract_y
_atom_site_fract_z
Si Si1 0.943219 0.860662 0.813670
Si Si2 0.783343 0.223539 0.975142
Si Si3 0.174594 0.592885 0.046808
Si Si4 0.955951 0.693838 0.330016
Si Si5 0.482099 0.633438 0.395813
Si Si6 0.684432 0.903178 0.037850
O O1 0.000000 0.500000 0.500000
O O2 0.615524 0.909744 0.811655
O O3 0.170445 0.012579 0.930147
O O4 0.000000 0.000000 0.000000
O O5 0.091555 0.038661 0.842818
O O6 0.553241 0.972960 0.722845
O O7 0.757524 0.457714 0.132439
O O8 0.739018 0.417022 0.199484
O O9 0.162905 0.957476 0.360722
O O10 0.500000 0.500000 0.000000
O O11 0.037802 0.403847 0.818356
O O12 0.000000 0.500000 0.000000
O O13 0.263993 0.661090 0.352971
O O14 0.372057 0.463676 0.288220
#
# Coordination Sequence:
#
# PCOD8035600 Si02
#       6
#     2   2   2   2   2   2
#     4  12  28  48  74 104 148 195 238 292 352 431
#     4  11  25  45  78 106 144 185 235 311 358 420
#     4  12  28  48  74 104 148 195 238 292 352 431
#     4  11  26  46  74 109 144 187 246 294 364 423
#     4  11  25  45  78 106 144 185 235 311 358 420
#     4  11  26  50  74 109 144 187 246 294 364 423
#
# _framework density 23.490791999999999
#
# number of rings (size 3 to 8) (size 9 to 14) (size 15 to 20)
#    0.000    0.667    1.667    4.000    9.333    6.667 
#    0.000    0.000    0.000    0.000    0.000    0.000 
#    0.000    0.000    0.000    0.000    0.000    0.000 
#
# Total GULP energy -148763.191885 kJ/mol
# GULP energy per Si atom -12396.932657 kJ/mol
# Density = 2.343733 g / cm^3
# Si number density = 23.490792 Si / 1000 Ang^3
#
#
#
# Elastic Constant Matrix: (Units=GPa)
#
#
# Indices 1 2 3 4 5 6 
#
# 1 134.8378 32.8282 37.7333 24.4141 10.0276 -4.3386
# 2 32.8282 91.9709 43.8715 24.2359 -2.2420 -10.8992
# 3 37.7333 43.8715 143.1384 6.4380 2.4540 -14.6420
# 4 24.4141 24.2359 6.4380 35.1888 2.4083 -6.7756
# 5 10.0276 -2.2420 2.4540 2.4083 41.3739 4.4515
# 6 -4.3386 -10.8992 -14.6420 -6.7756 4.4515 35.6005
#
#
#
# Elastic Compliance Matrix: (Units=1/GPa)
#
#
# Indices 1 2 3 4 5 6 
#
# 1 0.009307 -0.001136 -0.001915 -0.005354 -0.001807 -0.000794
# 2 -0.001136 0.015832 -0.004059 -0.009296 0.001803 0.001045
# 3 -0.001915 -0.004059 0.008903 0.003101 -0.000774 0.002872
# 4 -0.005354 -0.009296 0.003101 0.039185 -0.002265 0.005518
# 5 -0.001807 0.001803 -0.000774 -0.002265 0.025268 -0.003577
# 6 -0.000794 0.001045 0.002872 0.005518 -0.003577 0.030991
#
#
# Mechanical properties :
#
#
# Convention : Reuss Voigt Hill
#
# Bulk Modulus (GPa) = 50.44861 66.53479 58.49170
# Shear Modulus (GPa) = 33.26407 39.46691 36.36549
#
# Velocity S-wave (km/s) = 3.76712 4.10335 3.93883
# Velocity P-wave (km/s) = 6.35957 7.12988 6.75572
#
# Compressibility (1/GPa) = 0.01982215
#
# Stress axis : x y z
#
# Youngs Moduli (GPa) = 107.44759 63.16339 112.32614
#
# Poissons Ratio (x) = 0.07176 0.21507
# Poissons Ratio (y) = 0.12206 0.45592
# Poissons Ratio (z) = 0.20573 0.25638
#
# Static dielectric constant tensor:
#      x y z
#    x 4.417580 -0.116950 0.140110 
#    y -0.116950 4.406920 0.228460 
#    z 0.140110 0.228460 4.121980 
# 
# 
# High freq. dielectric constant tensor:
#      x y z
#    x 1.942740 -0.004620 0.009760 
#    y -0.004620 1.941810 0.018530 
#    z 0.009760 0.018530 1.937470 
# 
# From -- ./inp_files/121127.got.cif
#   From: 2010.06.25/outbox.cif.g09.slc.cpg/sg2_61_cif.got.tgz:121127.got - 2010.06.27 13:26:56.
