data_PCOD8035345
_publ_section_title
;
Structure prediction by ZEFSAII (Michael W. Deem and Ramdas Pophale) SiO2 
 PCOD8035345
Probable space group: P -1
;
_chemical_formula_sum "Si O2"
_cell_formula_units_Z 14
_cell_length_a 18.934395
_cell_length_b 10.818836
_cell_length_c 8.530277
_cell_angle_alpha 70.537710
_cell_angle_beta 132.917911
_cell_angle_gamma 144.798613
_cell_volume 626.094667
_symmetry_space_group_name_H-M "P -1"
_symmetry_group_IT_number 2
_symmetry_cell_setting 'triclinic'
loop_
_space_group_symop_operation_xyz
x,y,z
-x,-y,-z
loop_
_atom_site_type_symbol
_atom_site_label
_atom_site_fract_x
_atom_site_fract_y
_atom_site_fract_z
Si Si1 0.130138 0.258170 0.166930
Si Si2 0.094137 0.505145 0.948940
Si Si3 0.282892 0.860960 0.368360
Si Si4 0.504640 0.660111 0.413398
Si Si5 0.435297 0.250595 0.892659
Si Si6 0.579792 0.056754 0.929682
Si Si7 0.199380 0.218813 0.624480
O O1 0.040519 0.298357 0.021727
O O2 0.300890 0.476096 0.216034
O O3 0.193221 0.287874 0.421903
O O4 0.000000 0.000000 0.000000
O O5 0.226075 0.741151 0.164655
O O6 0.213101 0.640893 0.910266
O O7 0.897294 0.350054 0.699327
O O8 0.439414 0.947223 0.633937
O O9 0.358282 0.099078 0.366283
O O10 0.500000 0.500000 0.500000
O O11 0.567229 0.771742 0.287642
O O12 0.261480 0.141378 0.721022
O O13 0.399948 0.074990 0.002737
O O14 0.640140 0.538142 0.125224
O O15 0.500000 0.000000 0.000000
O O16 0.000000 0.000000 0.500000
#
# Coordination Sequence:
#
# PCOD8035345 Si02
#       7
#     2   2   2   2   2   2   2
#     4  12  24  43  74 103 138 183 236 287 343 418
#     4  11  26  44  70 102 137 188 236 283 344 413
#     4  11  25  45  69 101 138 185 237 283 345 410
#     4  12  23  44  72  99 139 179 234 290 345 415
#     4  11  25  44  68 103 137 185 228 283 359 409
#     4  12  24  43  69 100 143 182 226 284 346 416
#     4  11  26  45  69 102 142 178 229 291 353 416
#
# _framework density 22.360835000000002
#
# number of rings (size 3 to 8) (size 9 to 14) (size 15 to 20)
#    0.000    0.571    4.286    3.000    2.000    4.000 
#    0.000    0.000    0.000    0.000    0.000    0.000 
#    0.000    0.000    0.000    0.000    0.000    0.000 
#
# Total GULP energy -173563.728696 kJ/mol
# GULP energy per Si atom -12397.409193 kJ/mol
# Density = 2.230994 g / cm^3
# Si number density = 22.360835 Si / 1000 Ang^3
#
#
#
# Elastic Constant Matrix: (Units=GPa)
#
#
# Indices 1 2 3 4 5 6 
#
# 1 106.7243 56.3332 26.4667 8.3916 14.9023 -1.3944
# 2 56.3332 125.5883 32.7975 3.6534 16.4056 -12.3681
# 3 26.4667 32.7975 55.2024 8.0381 20.4715 2.8116
# 4 8.3916 3.6534 8.0381 43.6747 -3.4382 10.9916
# 5 14.9023 16.4056 20.4715 -3.4382 46.9214 12.3841
# 6 -1.3944 -12.3681 2.8116 10.9916 12.3841 49.1504
#
#
#
# Elastic Compliance Matrix: (Units=1/GPa)
#
#
# Indices 1 2 3 4 5 6 
#
# 1 0.012912 -0.004900 -0.002498 -0.001730 -0.001431 0.000024
# 2 -0.004900 0.011841 -0.004180 -0.000318 -0.001730 0.003587
# 3 -0.002498 -0.004180 0.026086 -0.004978 -0.009742 0.000953
# 4 -0.001730 -0.000318 -0.004978 0.026590 0.006759 -0.007494
# 5 -0.001431 -0.001730 -0.009742 0.006759 0.029453 -0.008851
# 6 0.000024 0.003587 0.000953 -0.007494 -0.008851 0.025100
#
#
# Mechanical properties :
#
#
# Convention : Reuss Voigt Hill
#
# Bulk Modulus (GPa) = 36.12540 57.63443 46.87992
# Shear Modulus (GPa) = 30.41999 39.41047 34.91523
#
# Velocity S-wave (km/s) = 3.69238 4.20274 3.95580
# Velocity P-wave (km/s) = 5.86250 7.02719 6.47110
#
# Compressibility (1/GPa) = 0.02768135
#
# Stress axis : x y z
#
# Youngs Moduli (GPa) = 77.44836 84.45589 38.33498
#
# Poissons Ratio (x) = 0.41381 0.09577
# Poissons Ratio (y) = 0.37947 0.16026
# Poissons Ratio (z) = 0.19348 0.35306
#
# Static dielectric constant tensor:
#      x y z
#    x 4.629650 -0.424780 0.280980 
#    y -0.424780 3.902590 0.512630 
#    z 0.280980 0.512630 3.714660 
# 
# 
# High freq. dielectric constant tensor:
#      x y z
#    x 1.900860 -0.004110 0.016130 
#    y -0.004110 1.887640 0.007900 
#    z 0.016130 0.007900 1.877610 
# 
# From -- ./inp_files/277295.got.cif
#   From: 2010.06.25/outbox.cif.g09.slc.cpg/sg2_139_cif.got.tgz:277295.got - 2010.06.27 13:26:56.
