data_PCOD8035703
_publ_section_title
;
Structure prediction by ZEFSAII (Michael W. Deem and Ramdas Pophale) SiO2 
 PCOD8035703
Probable space group: P -1
;
_chemical_formula_sum "Si O2"
_cell_formula_units_Z 12
_cell_length_a 12.114881
_cell_length_b 12.158128
_cell_length_c 5.047175
_cell_angle_alpha 72.037068
_cell_angle_beta 104.508869
_cell_angle_gamma 140.679560
_cell_volume 448.023304
_symmetry_space_group_name_H-M "P -1"
_symmetry_group_IT_number 2
_symmetry_cell_setting 'triclinic'
loop_
_space_group_symop_operation_xyz
x,y,z
-x,-y,-z
loop_
_atom_site_type_symbol
_atom_site_label
_atom_site_fract_x
_atom_site_fract_y
_atom_site_fract_z
Si Si1 0.912907 0.831661 0.746899
Si Si2 0.555716 0.355738 0.022858
Si Si3 0.214685 0.605459 0.226702
Si Si4 0.551205 0.912966 0.520391
Si Si5 0.110744 0.765398 0.816329
Si Si6 0.307475 0.349852 0.742888
O O1 0.767319 0.672088 0.572620
O O2 0.035686 0.816496 0.897434
O O3 0.830285 0.806428 0.999732
O O4 0.000000 0.000000 0.500000
O O5 0.418301 0.147659 0.166773
O O6 0.606982 0.469386 0.226648
O O7 0.730413 0.424605 0.979414
O O8 0.450383 0.359659 0.758597
O O9 0.381803 0.722956 0.426368
O O10 0.031861 0.402044 0.350420
O O11 0.178635 0.714263 0.082297
O O12 0.500000 0.000000 0.500000
O O13 0.727805 0.051342 0.365016
#
# Coordination Sequence:
#
# PCOD8035703 Si02
#       6
#     2   2   2   2   2   2
#     4  12  26  47  71 111 149 197 251 309 374 442
#     4  11  25  46  73 103 145 195 250 305 372 445
#     4  11  25  48  72 105 147 192 242 311 374 443
#     4  12  26  44  72 111 143 192 245 307 376 446
#     4  11  25  47  73 106 144 191 247 308 372 445
#     4  11  27  46  75 104 149 205 248 304 373 448
#
# _framework density 26.784320000000001
#
# number of rings (size 3 to 8) (size 9 to 14) (size 15 to 20)
#    0.000    0.667    3.333    3.000    4.667    3.333 
#    0.000    0.000    0.000    0.000    0.000    0.000 
#    0.000    0.000    0.000    0.000    0.000    0.000 
#
# Total GULP energy -148660.894074 kJ/mol
# GULP energy per Si atom -12388.407839 kJ/mol
# Density = 2.672336 g / cm^3
# Si number density = 26.784320 Si / 1000 Ang^3
#
#
#
# Elastic Constant Matrix: (Units=GPa)
#
#
# Indices 1 2 3 4 5 6 
#
# 1 154.5995 13.8112 20.1788 -5.2148 35.7313 -9.2332
# 2 13.8112 91.5624 2.0371 -19.3609 16.5665 19.7162
# 3 20.1788 2.0371 42.6841 -2.3390 13.5652 6.9187
# 4 -5.2148 -19.3609 -2.3390 43.9005 -10.9895 7.7392
# 5 35.7313 16.5665 13.5652 -10.9895 38.9128 -13.4067
# 6 -9.2332 19.7162 6.9187 7.7392 -13.4067 44.8406
#
#
#
# Elastic Compliance Matrix: (Units=1/GPa)
#
#
# Indices 1 2 3 4 5 6 
#
# 1 0.008355 -0.000107 -0.001674 -0.000977 -0.007316 0.000007
# 2 -0.000107 0.017335 0.005488 0.007335 -0.011689 -0.013252
# 3 -0.001674 0.005488 0.030952 0.002253 -0.015254 -0.012483
# 4 -0.000977 0.007335 0.002253 0.027957 0.002142 -0.007958
# 5 -0.007316 -0.011689 -0.015254 0.002142 0.050446 0.020700
# 6 0.000007 -0.013252 -0.012483 -0.007958 0.020700 0.037618
#
#
# Mechanical properties :
#
#
# Convention : Reuss Voigt Hill
#
# Bulk Modulus (GPa) = 15.61172 40.10002 27.85587
# Shear Modulus (GPa) = 26.79503 42.38539 34.59021
#
# Velocity S-wave (km/s) = 3.16634 3.98234 3.59755
# Velocity P-wave (km/s) = 4.38280 6.01243 5.26110
#
# Compressibility (1/GPa) = 0.06405446
#
# Stress axis : x y z
#
# Youngs Moduli (GPa) = 119.69265 57.68689 32.30806
#
# Poissons Ratio (x) = 0.00620 0.05409
# Poissons Ratio (y) = 0.01286 -0.17731
# Poissons Ratio (z) = 0.20040 -0.31659
#
# Static dielectric constant tensor:
#      x y z
#    x 4.899090 0.415070 0.240840 
#    y 0.415070 3.916210 -0.318970 
#    z 0.240840 -0.318970 4.530800 
# 
# 
# High freq. dielectric constant tensor:
#      x y z
#    x 2.094730 -0.001770 0.021700 
#    y -0.001770 2.099110 -0.023210 
#    z 0.021700 -0.023210 2.051910 
# 
# From -- ./inp_files/43807.got.cif
#   From: 2010.06.25/outbox.cif.g09.slc.cpg/sg2_22_cif.got.tgz:43807.got - 2010.06.27 13:26:56.
