data_PCOD8035540
_publ_section_title
;
Structure prediction by ZEFSAII (Michael W. Deem and Ramdas Pophale) SiO2 
 PCOD8035540
Probable space group: P -1
;
_chemical_formula_sum "Si O2"
_cell_formula_units_Z 16
_cell_length_a 8.164841
_cell_length_b 16.392840
_cell_length_c 11.970332
_cell_angle_alpha 32.941247
_cell_angle_beta 54.080765
_cell_angle_gamma 66.589816
_cell_volume 688.937919
_symmetry_space_group_name_H-M "P -1"
_symmetry_group_IT_number 2
_symmetry_cell_setting 'triclinic'
loop_
_space_group_symop_operation_xyz
x,y,z
-x,-y,-z
loop_
_atom_site_type_symbol
_atom_site_label
_atom_site_fract_x
_atom_site_fract_y
_atom_site_fract_z
Si Si1 0.416552 0.138209 0.001245
Si Si2 0.484145 0.182903 0.670726
Si Si3 0.965605 0.004005 0.378704
Si Si4 0.252632 0.284971 0.316031
Si Si5 0.780143 0.429026 0.120682
Si Si6 0.144551 0.325060 0.561455
Si Si7 0.317383 0.780776 0.794031
Si Si8 0.718483 0.337742 0.807578
O O1 0.471305 0.978311 0.203667
O O2 0.516729 0.194647 0.777366
O O3 0.503946 0.266965 0.911160
O O4 0.168039 0.115094 0.117175
O O5 0.638449 0.325817 0.387423
O O6 0.250134 0.190156 0.721211
O O7 0.935015 0.834673 0.531100
O O8 0.753805 0.058948 0.374023
O O9 0.000000 0.000000 0.500000
O O10 0.174881 0.343167 0.395815
O O11 0.444866 0.205004 0.354499
O O12 0.328325 0.432722 0.035127
O O13 0.823242 0.334908 0.102947
O O14 0.000000 0.500000 0.000000
O O15 0.248869 0.478915 0.410953
O O16 0.900243 0.283189 0.729507
O O17 0.279774 0.726342 0.996567
#
# Coordination Sequence:
#
# PCOD8035540 Si02
#       8
#     2   2   2   2   2   2   2   2
#     4  11  27  47  71 105 149 189 240 299 368 435
#     4  11  25  46  70 104 142 191 245 290 367 434
#     4  12  27  46  71 110 147 190 244 305 370 426
#     4  12  25  46  77 106 145 192 248 298 355 446
#     4  12  25  43  75 106 144 190 240 301 356 430
#     4  11  25  45  73 108 144 191 245 295 365 431
#     4  12  24  45  70 107 143 190 245 297 367 426
#     4  11  26  45  73 107 148 188 242 306 359 433
#
# _framework density 23.224152
#
# number of rings (size 3 to 8) (size 9 to 14) (size 15 to 20)
#    0.000    0.500    2.500    5.250    7.000    2.000 
#    0.000    0.000    0.000    0.000    0.000    0.000 
#    0.000    0.000    0.000    0.000    0.000    0.000 
#
# Total GULP energy -198485.061644 kJ/mol
# GULP energy per Si atom -12405.316353 kJ/mol
# Density = 2.317129 g / cm^3
# Si number density = 23.224152 Si / 1000 Ang^3
#
#
#
# Elastic Constant Matrix: (Units=GPa)
#
#
# Indices 1 2 3 4 5 6 
#
# 1 87.1074 41.6440 32.4012 5.7644 -3.5513 15.7261
# 2 41.6440 107.8222 38.4799 12.6014 -6.5233 7.9784
# 3 32.4012 38.4799 93.0394 19.0740 -2.8996 15.4780
# 4 5.7644 12.6014 19.0740 38.5329 0.5780 -3.0362
# 5 -3.5513 -6.5233 -2.8996 0.5780 38.2241 -4.3248
# 6 15.7261 7.9784 15.4780 -3.0362 -4.3248 49.2283
#
#
#
# Elastic Compliance Matrix: (Units=1/GPa)
#
#
# Indices 1 2 3 4 5 6 
#
# 1 0.015377 -0.004692 -0.002977 0.000456 0.000035 -0.003184
# 2 -0.004692 0.012494 -0.003205 -0.001781 0.001537 0.000507
# 3 -0.002977 -0.003205 0.014987 -0.006211 -0.000003 -0.003625
# 4 0.000456 -0.001781 -0.006211 0.029857 -0.000746 0.003871
# 5 0.000035 0.001537 -0.000003 -0.000746 0.026669 0.002037
# 6 -0.003184 0.000507 -0.003625 0.003871 0.002037 0.022806
#
#
# Mechanical properties :
#
#
# Convention : Reuss Voigt Hill
#
# Bulk Modulus (GPa) = 47.37180 57.00214 52.18697
# Shear Modulus (GPa) = 33.11850 36.89331 35.00590
#
# Velocity S-wave (km/s) = 3.78039 3.99002 3.88662
# Velocity P-wave (km/s) = 6.28467 6.76939 6.53152
#
# Compressibility (1/GPa) = 0.02110961
#
# Stress axis : x y z
#
# Youngs Moduli (GPa) = 65.03314 80.03797 66.72665
#
# Poissons Ratio (x) = 0.37554 0.19866
# Poissons Ratio (y) = 0.30514 0.21384
# Poissons Ratio (z) = 0.19361 0.25650
#
# Static dielectric constant tensor:
#      x y z
#    x 4.252950 -0.125090 0.043400 
#    y -0.125090 4.581300 -0.080170 
#    z 0.043400 -0.080170 4.204890 
# 
# 
# High freq. dielectric constant tensor:
#      x y z
#    x 1.925910 0.003910 0.005090 
#    y 0.003910 1.929790 0.003020 
#    z 0.005090 0.003020 1.915370 
# 
# From -- ./inp_files/402636.got.cif
#   From: 2010.06.25/outbox.cif.g09.slc.cpg/sg2_202_cif.got.tgz:402636.got - 2010.06.27 13:26:56.
