data_PCOD8035308
_publ_section_title
;
Structure prediction by ZEFSAII (Michael W. Deem and Ramdas Pophale) SiO2 
 PCOD8035308
Probable space group: P -1
;
_chemical_formula_sum "Si O2"
_cell_formula_units_Z 14
_cell_length_a 11.052210
_cell_length_b 13.503685
_cell_length_c 19.017838
_cell_angle_alpha 146.974726
_cell_angle_beta 26.248963
_cell_angle_gamma 146.111118
_cell_volume 647.202629
_symmetry_space_group_name_H-M "P -1"
_symmetry_group_IT_number 2
_symmetry_cell_setting 'triclinic'
loop_
_space_group_symop_operation_xyz
x,y,z
-x,-y,-z
loop_
_atom_site_type_symbol
_atom_site_label
_atom_site_fract_x
_atom_site_fract_y
_atom_site_fract_z
Si Si1 0.716018 0.279927 0.450406
Si Si2 0.222918 0.538087 0.701839
Si Si3 0.238861 0.898586 0.824512
Si Si4 0.145534 0.286698 0.348795
Si Si5 0.849854 0.138704 0.694989
Si Si6 0.229502 0.659048 0.929148
Si Si7 0.931261 0.896145 0.288972
O O1 0.663622 0.152330 0.332309
O O2 0.835852 0.506864 0.505710
O O3 0.406279 0.222010 0.615690
O O4 0.946681 0.231149 0.350516
O O5 0.500000 0.500000 0.500000
O O6 0.128595 0.701876 0.809231
O O7 0.289501 0.597569 0.783463
O O8 0.952656 0.342784 0.723054
O O9 0.506548 0.049195 0.814135
O O10 0.000000 0.000000 0.000000
O O11 0.460797 0.284151 0.159900
O O12 0.998781 0.125629 0.388339
O O13 0.946180 0.169253 0.743534
O O14 0.000000 0.000000 0.500000
O O15 0.000000 0.500000 0.000000
O O16 0.107388 0.839099 0.098853
#
# Coordination Sequence:
#
# PCOD8035308 Si02
#       7
#     2   2   2   2   2   2   2
#     4  11  25  46  66 100 143 181 231 286 346 423
#     4  12  25  48  77 103 139 190 238 287 350 424
#     4  12  29  45  68 105 147 183 236 291 351 418
#     4  11  25  43  70  99 138 185 220 288 360 406
#     4  12  24  44  75 100 135 188 240 288 345 420
#     4  12  24  44  73 105 138 171 238 297 333 409
#     4  12  24  45  72 105 133 179 240 289 346 414
#
# _framework density 21.631557999999998
#
# number of rings (size 3 to 8) (size 9 to 14) (size 15 to 20)
#    0.000    0.286    5.714    2.571    6.000    0.571 
#    0.000    0.000    0.000    0.000    0.000    0.000 
#    0.000    0.000    0.000    0.000    0.000    0.000 
#
# Total GULP energy -173628.287491 kJ/mol
# GULP energy per Si atom -12402.020535 kJ/mol
# Density = 2.158232 g / cm^3
# Si number density = 21.631558 Si / 1000 Ang^3
#
#
#
# Elastic Constant Matrix: (Units=GPa)
#
#
# Indices 1 2 3 4 5 6 
#
# 1 98.1939 53.2353 63.1606 -9.0643 -13.3529 -0.4384
# 2 53.2353 171.7900 49.7778 -1.9872 -23.2304 -14.2949
# 3 63.1606 49.7778 126.7702 -0.9323 -11.1088 0.3155
# 4 -9.0643 -1.9872 -0.9323 32.5266 4.1909 -8.7378
# 5 -13.3529 -23.2304 -11.1088 4.1909 45.9406 1.7554
# 6 -0.4384 -14.2949 0.3155 -8.7378 1.7554 41.4374
#
#
#
# Elastic Compliance Matrix: (Units=1/GPa)
#
#
# Indices 1 2 3 4 5 6 
#
# 1 0.016938 -0.002951 -0.007134 0.004176 0.001323 0.000040
# 2 -0.002951 0.007680 -0.001323 -0.000055 0.002615 0.002506
# 3 -0.007134 -0.001323 0.011983 -0.002063 0.000385 -0.001074
# 4 0.004176 -0.000055 -0.002063 0.034172 -0.002712 0.007362
# 5 0.001323 0.002615 0.000385 -0.002712 0.023840 -0.000668
# 6 0.000040 0.002506 -0.001074 0.007362 -0.000668 0.026587
#
#
# Mechanical properties :
#
#
# Convention : Reuss Voigt Hill
#
# Bulk Modulus (GPa) = 72.53673 81.01129 76.77401
# Shear Modulus (GPa) = 33.64477 39.35295 36.49886
#
# Velocity S-wave (km/s) = 3.94808 4.26988 4.11213
# Velocity P-wave (km/s) = 7.37487 7.86390 7.62331
#
# Compressibility (1/GPa) = 0.01378612
#
# Stress axis : x y z
#
# Youngs Moduli (GPa) = 59.03877 130.20006 83.45085
#
# Poissons Ratio (x) = 0.38425 0.59530
# Poissons Ratio (y) = 0.17424 0.11040
# Poissons Ratio (z) = 0.42116 0.17224
#
# Static dielectric constant tensor:
#      x y z
#    x 4.515900 0.845540 0.058370 
#    y 0.845540 5.566030 0.089940 
#    z 0.058370 0.089940 4.245680 
# 
# 
# High freq. dielectric constant tensor:
#      x y z
#    x 1.843750 0.003560 -0.003810 
#    y 0.003560 1.871720 0.005560 
#    z -0.003810 0.005560 1.849430 
# 
# From -- ./inp_files/457799.got.cif
#   From: 2010.06.25/outbox.cif.g09.slc.cpg/sg2_229_cif.got.tgz:457799.got - 2010.06.27 13:26:56.
