data_PCOD8035203
_publ_section_title
;
Structure prediction by ZEFSAII (Michael W. Deem and Ramdas Pophale) SiO2 
 PCOD8035203
Probable space group: P -1
;
_chemical_formula_sum "Si O2"
_cell_formula_units_Z 16
_cell_length_a 9.120106
_cell_length_b 18.053640
_cell_length_c 5.287676
_cell_angle_alpha 97.709583
_cell_angle_beta 115.131118
_cell_angle_gamma 61.562336
_cell_volume 690.559165
_symmetry_space_group_name_H-M "P -1"
_symmetry_group_IT_number 2
_symmetry_cell_setting 'triclinic'
loop_
_space_group_symop_operation_xyz
x,y,z
-x,-y,-z
loop_
_atom_site_type_symbol
_atom_site_label
_atom_site_fract_x
_atom_site_fract_y
_atom_site_fract_z
Si Si1 0.911998 0.487101 0.185302
Si Si2 0.530502 0.637926 0.068585
Si Si3 0.910021 0.984066 0.672970
Si Si4 0.152267 0.163205 0.325788
Si Si5 0.993388 0.320791 0.981052
Si Si6 0.506691 0.069752 0.221617
Si Si7 0.612660 0.398582 0.537814
Si Si8 0.668353 0.765116 0.122851
O O1 0.698877 0.549246 0.073711
O O2 0.000000 0.500000 0.500000
O O3 0.948121 0.391028 0.195436
O O4 0.000000 0.500000 0.000000
O O5 0.441224 0.633863 0.263670
O O6 0.572909 0.716719 0.171652
O O7 0.401689 0.651338 0.740071
O O8 0.689835 0.040322 0.510724
O O9 0.950931 0.886401 0.657856
O O10 0.000000 0.000000 0.500000
O O11 0.000000 0.000000 0.000000
O O12 0.336231 0.095022 0.293958
O O13 0.206141 0.211564 0.595922
O O14 0.009294 0.233354 0.062358
O O15 0.830234 0.365293 0.680846
O O16 0.190708 0.301296 0.003688
O O17 0.485586 0.150451 0.082689
O O18 0.500000 0.000000 0.000000
O O19 0.500000 0.500000 0.500000
#
# Coordination Sequence:
#
# PCOD8035203 Si02
#       8
#     2   2   2   2   2   2   2   2
#     4  12  24  42  74 105 142 186 251 307 350 428
#     4  12  27  46  73 109 142 194 253 303 367 438
#     4  12  28  47  77 114 150 192 244 304 378 449
#     4  11  26  48  77 106 151 197 250 307 370 444
#     4  11  27  45  72 106 149 199 241 306 376 437
#     4  11  24  49  79 109 149 203 250 304 375 454
#     4  12  28  48  70 104 154 199 241 305 381 438
#     4  11  26  46  78 108 146 193 258 308 360 439
#
# _framework density 23.169629
#
# number of rings (size 3 to 8) (size 9 to 14) (size 15 to 20)
#    0.000    0.500    3.750    3.000    8.750    2.000 
#    0.000    0.000    0.000    0.000    0.000    0.000 
#    0.000    0.000    0.000    0.000    0.000    0.000 
#
# Total GULP energy -198364.964823 kJ/mol
# GULP energy per Si atom -12397.810301 kJ/mol
# Density = 2.311689 g / cm^3
# Si number density = 23.169629 Si / 1000 Ang^3
#
#
#
# Elastic Constant Matrix: (Units=GPa)
#
#
# Indices 1 2 3 4 5 6 
#
# 1 92.1099 48.6651 41.0366 -6.9274 -12.8927 29.1848
# 2 48.6651 135.2741 53.0596 -5.1693 13.4824 14.9732
# 3 41.0366 53.0596 168.0293 4.2189 9.9501 12.3050
# 4 -6.9274 -5.1693 4.2189 44.4277 -1.4463 12.0923
# 5 -12.8927 13.4824 9.9501 -1.4463 45.0329 -4.2331
# 6 29.1848 14.9732 12.3050 12.0923 -4.2331 35.7771
#
#
#
# Elastic Compliance Matrix: (Units=1/GPa)
#
#
# Indices 1 2 3 4 5 6 
#
# 1 0.021724 -0.005230 -0.003085 0.007724 0.007189 -0.016231
# 2 -0.005230 0.010421 -0.001764 0.000467 -0.004226 -0.000146
# 3 -0.003085 -0.001764 0.007340 -0.001743 -0.001930 0.001091
# 4 0.007724 0.000467 -0.001743 0.028126 0.001934 -0.015174
# 5 0.007189 -0.004226 -0.001930 0.001934 0.025922 -0.001019
# 6 -0.016231 -0.000146 0.001091 -0.015174 -0.001019 0.045885
#
#
# Mechanical properties :
#
#
# Convention : Reuss Voigt Hill
#
# Bulk Modulus (GPa) = 51.74151 75.65954 63.70053
# Shear Modulus (GPa) = 30.11690 41.89102 36.00396
#
# Velocity S-wave (km/s) = 3.60925 4.25669 3.94627
# Velocity P-wave (km/s) = 6.30468 7.54219 6.95103
#
# Compressibility (1/GPa) = 0.01932684
#
# Stress axis : x y z
#
# Youngs Moduli (GPa) = 46.03128 95.95886 136.23912
#
# Poissons Ratio (x) = 0.50187 0.42031
# Poissons Ratio (y) = 0.24075 0.24035
# Poissons Ratio (z) = 0.14201 0.16929
#
# Static dielectric constant tensor:
#      x y z
#    x 4.445600 0.130510 0.153900 
#    y 0.130510 4.461700 0.012600 
#    z 0.153900 0.012600 4.412130 
# 
# 
# High freq. dielectric constant tensor:
#      x y z
#    x 1.912240 0.005600 -0.002210 
#    y 0.005600 1.932100 -0.006160 
#    z -0.002210 -0.006160 1.928980 
# 
# From -- ./inp_files/48410.got.cif
#   From: 2010.06.25/outbox.cif.g09.slc.cpg/sg2_25_cif.got.tgz:48410.got - 2010.06.27 13:26:56.
