data_PCOD8035512
_publ_section_title
;
Structure prediction by ZEFSAII (Michael W. Deem and Ramdas Pophale) SiO2 
 PCOD8035512
Probable space group: P -1
;
_chemical_formula_sum "Si O2"
_cell_formula_units_Z 14
_cell_length_a 4.862776
_cell_length_b 15.607163
_cell_length_c 16.528882
_cell_angle_alpha 146.150393
_cell_angle_beta 65.726374
_cell_angle_gamma 98.725709
_cell_volume 590.843445
_symmetry_space_group_name_H-M "P -1"
_symmetry_group_IT_number 2
_symmetry_cell_setting 'triclinic'
loop_
_space_group_symop_operation_xyz
x,y,z
-x,-y,-z
loop_
_atom_site_type_symbol
_atom_site_label
_atom_site_fract_x
_atom_site_fract_y
_atom_site_fract_z
Si Si1 0.643540 0.133681 0.251413
Si Si2 0.602563 0.811891 0.962162
Si Si3 0.113498 0.038061 0.759614
Si Si4 0.194247 0.360614 0.040483
Si Si5 0.248149 0.916142 0.474264
Si Si6 0.134694 0.306137 0.326238
Si Si7 0.315993 0.465392 0.879416
O O1 0.285249 0.234675 0.338856
O O2 0.860255 0.236856 0.280980
O O3 0.639219 0.109144 0.329930
O O4 0.766041 0.950316 0.052734
O O5 0.603149 0.747394 0.820463
O O6 0.234176 0.892043 0.100097
O O7 0.809165 0.661807 0.879569
O O8 0.253068 0.185741 0.850645
O O9 0.077247 0.962473 0.618646
O O10 0.495378 0.414978 0.022854
O O11 0.839791 0.492702 0.159320
O O12 0.419582 0.718737 0.290949
O O13 0.500000 0.000000 0.500000
O O14 0.000000 0.000000 0.500000
O O15 0.000000 0.500000 0.500000
O O16 0.000000 0.500000 0.000000
#
# Coordination Sequence:
#
# PCOD8035512 Si02
#       7
#     2   2   2   2   2   2   2
#     4  11  25  46  73 100 144 187 242 283 355 432
#     4  11  25  45  76 101 144 191 238 291 354 432
#     4  11  26  47  75 105 139 194 240 294 357 432
#     4  11  25  45  72 105 141 185 243 291 363 427
#     4  12  30  48  73 104 146 186 242 299 356 427
#     4  12  27  44  69 109 146 186 235 297 355 415
#     4  12  26  46  73 104 140 187 236 304 368 421
#
# _framework density 23.694941
#
# number of rings (size 3 to 8) (size 9 to 14) (size 15 to 20)
#    0.000    0.571    2.857    3.429   10.000    2.286 
#    0.000    0.000    0.000    0.000    0.000    0.000 
#    0.000    0.000    0.000    0.000    0.000    0.000 
#
# Total GULP energy -173562.817534 kJ/mol
# GULP energy per Si atom -12397.344110 kJ/mol
# Density = 2.364101 g / cm^3
# Si number density = 23.694941 Si / 1000 Ang^3
#
#
#
# Elastic Constant Matrix: (Units=GPa)
#
#
# Indices 1 2 3 4 5 6 
#
# 1 148.2831 54.8648 60.5969 13.8415 16.8358 -3.7031
# 2 54.8648 146.6551 80.9733 22.5635 10.5067 -29.0367
# 3 60.5969 80.9733 135.8280 5.5343 11.3315 5.2748
# 4 13.8415 22.5635 5.5343 42.6422 -4.1934 2.2095
# 5 16.8358 10.5067 11.3315 -4.1934 25.4062 8.1783
# 6 -3.7031 -29.0367 5.2748 2.2095 8.1783 65.6486
#
#
#
# Elastic Compliance Matrix: (Units=1/GPa)
#
#
# Indices 1 2 3 4 5 6 
#
# 1 0.009179 -0.000573 -0.003247 -0.002840 -0.005278 0.001278
# 2 -0.000573 0.014608 -0.007964 -0.007513 -0.005945 0.008062
# 3 -0.003247 -0.007964 0.013451 0.003961 0.001754 -0.005138
# 4 -0.002840 -0.007513 0.003961 0.029126 0.009969 -0.006023
# 5 -0.005278 -0.005945 0.001754 0.009969 0.049250 -0.009539
# 6 0.001278 0.008062 -0.005138 -0.006023 -0.009539 0.020675
#
#
# Mechanical properties :
#
#
# Convention : Reuss Voigt Hill
#
# Bulk Modulus (GPa) = 73.15556 91.51515 82.33535
# Shear Modulus (GPa) = 30.41102 42.36147 36.38624
#
# Velocity S-wave (km/s) = 3.58640 4.23281 3.92294
# Velocity P-wave (km/s) = 6.93474 7.91170 7.43927
#
# Compressibility (1/GPa) = 0.01366950
#
# Stress axis : x y z
#
# Youngs Moduli (GPa) = 108.94351 68.45379 74.34652
#
# Poissons Ratio (x) = 0.03922 0.24141
# Poissons Ratio (y) = 0.06242 0.59211
# Poissons Ratio (z) = 0.35375 0.54518
#
# Static dielectric constant tensor:
#      x y z
#    x 3.728700 0.170530 -0.800630 
#    y 0.170530 4.844050 0.810210 
#    z -0.800630 0.810210 2.595500 
# 
# 
# High freq. dielectric constant tensor:
#      x y z
#    x 1.957140 -0.010790 0.018250 
#    y -0.010790 1.966480 0.015950 
#    z 0.018250 0.015950 1.901770 
# 
# From -- ./inp_files/484471.got.cif
#   From: 2010.06.25/outbox.cif.g09.slc.cpg/sg2_243_cif.got.tgz:484471.got - 2010.06.27 13:26:56.
