data_PCOD8035197
_publ_section_title
;
Structure prediction by ZEFSAII (Michael W. Deem and Ramdas Pophale) SiO2 
 PCOD8035197
Probable space group: P -1
;
_chemical_formula_sum "Si O2"
_cell_formula_units_Z 14
_cell_length_a 11.877477
_cell_length_b 11.360948
_cell_length_c 11.815948
_cell_angle_alpha 154.359434
_cell_angle_beta 48.141260
_cell_angle_gamma 126.453991
_cell_volume 513.734666
_symmetry_space_group_name_H-M "P -1"
_symmetry_group_IT_number 2
_symmetry_cell_setting 'triclinic'
loop_
_space_group_symop_operation_xyz
x,y,z
-x,-y,-z
loop_
_atom_site_type_symbol
_atom_site_label
_atom_site_fract_x
_atom_site_fract_y
_atom_site_fract_z
Si Si1 0.356331 0.946616 0.186389
Si Si2 0.343607 0.721639 0.384661
Si Si3 0.311894 0.242857 0.251134
Si Si4 0.882642 0.613920 0.885645
Si Si5 0.937516 0.296846 0.773921
Si Si6 0.630498 0.803692 0.375123
Si Si7 0.816456 0.162754 0.191141
O O1 0.246560 0.707313 0.094706
O O2 0.272717 0.111511 0.284287
O O3 0.378783 0.175495 0.465823
O O4 0.508697 0.793190 0.915401
O O5 0.240038 0.475819 0.201793
O O6 0.495903 0.610093 0.251086
O O7 0.239914 0.903039 0.699915
O O8 0.404250 0.891611 0.385790
O O9 0.269329 0.561503 0.553800
O O10 0.222233 0.088948 0.079978
O O11 0.975328 0.371836 0.681501
O O12 0.001818 0.800057 0.901692
O O13 0.799316 0.746817 0.166116
O O14 0.000000 0.000000 0.500000
O O15 0.000000 0.500000 0.000000
#
# Coordination Sequence:
#
# PCOD8035197 Si02
#       7
#     2   2   2   2   2   2   2
#     4  11  24  49  77 108 150 199 253 314 375 448
#     4  11  26  47  74 112 150 203 255 310 371 456
#     4  11  28  48  77 111 149 201 253 308 381 446
#     4  12  27  44  76 110 154 200 250 312 388 437
#     4  12  26  44  72 108 149 189 243 305 370 443
#     4  11  25  48  77 113 148 200 259 312 375 447
#     4  12  28  49  76 111 156 198 251 312 371 459
#
# _framework density 27.251422000000002
#
# number of rings (size 3 to 8) (size 9 to 14) (size 15 to 20)
#    0.000    0.571    2.857    3.429    6.000    5.143 
#    0.000    0.000    0.000    0.000    0.000    0.000 
#    0.000    0.000    0.000    0.000    0.000    0.000 
#
# Total GULP energy -173636.962229 kJ/mol
# GULP energy per Si atom -12402.640159 kJ/mol
# Density = 2.718940 g / cm^3
# Si number density = 27.251422 Si / 1000 Ang^3
#
#
#
# Elastic Constant Matrix: (Units=GPa)
#
#
# Indices 1 2 3 4 5 6 
#
# 1 106.8644 27.2600 17.3022 -3.5013 32.9360 26.6815
# 2 27.2600 102.6436 -2.6319 -14.2594 17.9724 4.4354
# 3 17.3022 -2.6319 72.6460 -2.2136 10.4083 -5.8648
# 4 -3.5013 -14.2594 -2.2136 42.8808 7.4814 8.1224
# 5 32.9360 17.9724 10.4083 7.4814 43.1978 -15.1898
# 6 26.6815 4.4354 -5.8648 8.1224 -15.1898 50.4140
#
#
#
# Elastic Compliance Matrix: (Units=1/GPa)
#
#
# Indices 1 2 3 4 5 6 
#
# 1 0.025539 0.001195 -0.003375 0.012308 -0.030101 -0.025067
# 2 0.001195 0.012334 0.001290 0.006979 -0.009517 -0.005559
# 3 -0.003375 0.001290 0.014960 0.000411 -0.000517 0.003191
# 4 0.012308 0.006979 0.000411 0.035014 -0.025641 -0.020447
# 5 -0.030101 -0.009517 -0.000517 -0.025641 0.069294 0.041718
# 6 -0.025067 -0.005559 0.003191 -0.020447 0.041718 0.049826
#
#
# Mechanical properties :
#
#
# Convention : Reuss Voigt Hill
#
# Bulk Modulus (GPa) = 19.58805 40.66827 30.12816
# Shear Modulus (GPa) = 22.14677 43.31345 32.73011
#
# Velocity S-wave (km/s) = 2.85385 3.99105 3.46937
# Velocity P-wave (km/s) = 4.25004 6.01613 5.20848
#
# Compressibility (1/GPa) = 0.05105154
#
# Stress axis : x y z
#
# Youngs Moduli (GPa) = 39.15653 81.07410 66.84409
#
# Poissons Ratio (x) = -0.09685 0.22561
# Poissons Ratio (y) = -0.04678 -0.08621
# Poissons Ratio (z) = 0.13216 -0.10456
#
# Static dielectric constant tensor:
#      x y z
#    x 5.288170 -0.111240 -0.226580 
#    y -0.111240 5.443190 -0.307030 
#    z -0.226580 -0.307030 4.575050 
# 
# 
# High freq. dielectric constant tensor:
#      x y z
#    x 2.117710 -0.003720 -0.012250 
#    y -0.003720 2.118770 -0.004750 
#    z -0.012250 -0.004750 2.087910 
# 
# From -- ./inp_files/363819.got.cif
#   From: 2010.06.25/outbox.cif.g09.slc.cpg/sg2_182_cif.got.tgz:363819.got - 2010.06.27 13:26:56.
