data_PCOD8035113
_publ_section_title
;
Structure prediction by ZEFSAII (Michael W. Deem and Ramdas Pophale) SiO2 
 PCOD8035113
Probable space group: P -1
;
_chemical_formula_sum "Si O2"
_cell_formula_units_Z 12
_cell_length_a 6.356543
_cell_length_b 13.510354
_cell_length_c 6.044457
_cell_angle_alpha 80.400576
_cell_angle_beta 78.310235
_cell_angle_gamma 95.215069
_cell_volume 497.012246
_symmetry_space_group_name_H-M "P -1"
_symmetry_group_IT_number 2
_symmetry_cell_setting 'triclinic'
loop_
_space_group_symop_operation_xyz
x,y,z
-x,-y,-z
loop_
_atom_site_type_symbol
_atom_site_label
_atom_site_fract_x
_atom_site_fract_y
_atom_site_fract_z
Si Si1 0.079046 0.434466 0.699431
Si Si2 0.612937 0.854545 0.070834
Si Si3 0.033061 0.200783 0.275993
Si Si4 0.221576 0.628254 0.850173
Si Si5 0.634645 0.721285 0.496865
Si Si6 0.347374 0.950673 0.742046
O O1 0.198638 0.511797 0.824417
O O2 0.259387 0.368326 0.605629
O O3 0.000000 0.500000 0.500000
O O4 0.864136 0.369507 0.878374
O O5 0.507362 0.782279 0.319751
O O6 0.705950 0.965191 0.103478
O O7 0.814818 0.799425 0.971112
O O8 0.448933 0.864929 0.897305
O O9 0.179395 0.196353 0.466116
O O10 0.931472 0.305357 0.280387
O O11 0.858507 0.101965 0.329009
O O12 0.470339 0.676582 0.742959
O O13 0.500000 0.000000 0.500000
#
# Coordination Sequence:
#
# PCOD8035113 Si02
#       6
#     2   2   2   2   2   2
#     4  11  24  48  72 105 146 193 238 297 355 427
#     4  11  25  45  72 102 144 193 238 296 362 423
#     4  12  24  45  71 107 145 185 243 297 357 432
#     4  11  25  45  71 107 146 188 245 291 355 431
#     4  12  26  46  75 109 145 192 240 296 362 423
#     4  11  26  48  70 105 144 191 244 293 362 430
#
# _framework density 24.144273999999999
#
# number of rings (size 3 to 8) (size 9 to 14) (size 15 to 20)
#    0.000    0.667    3.333    4.000    0.000   10.000 
#    3.000    0.000    0.000    0.000    0.000    0.000 
#    0.000    0.000    0.000    0.000    0.000    0.000 
#
# Total GULP energy -148769.036637 kJ/mol
# GULP energy per Si atom -12397.419720 kJ/mol
# Density = 2.408932 g / cm^3
# Si number density = 24.144274 Si / 1000 Ang^3
#
#
#
# Elastic Constant Matrix: (Units=GPa)
#
#
# Indices 1 2 3 4 5 6 
#
# 1 113.0968 45.9559 62.6351 -4.5393 -9.6744 6.0428
# 2 45.9559 92.6168 22.5218 10.8654 -9.9994 -5.2107
# 3 62.6351 22.5218 134.5506 -26.7228 -4.9277 3.7562
# 4 -4.5393 10.8654 -26.7228 45.9562 -5.7488 -3.9115
# 5 -9.6744 -9.9994 -4.9277 -5.7488 45.8309 2.1419
# 6 6.0428 -5.2107 3.7562 -3.9115 2.1419 46.9282
#
#
#
# Elastic Compliance Matrix: (Units=1/GPa)
#
#
# Indices 1 2 3 4 5 6 
#
# 1 0.014618 -0.005741 -0.005866 -0.000641 0.001223 -0.002159
# 2 -0.005741 0.014501 -0.000554 -0.003985 0.001299 0.002002
# 3 -0.005866 -0.000554 0.011537 0.006367 0.000667 0.000271
# 4 -0.000641 -0.003985 0.006367 0.026819 0.002986 0.001229
# 5 0.001223 0.001299 0.000667 0.002986 0.022847 -0.000861
# 6 -0.002159 0.002002 0.000271 0.001229 -0.000861 0.021930
#
#
# Mechanical properties :
#
#
# Convention : Reuss Voigt Hill
#
# Bulk Modulus (GPa) = 61.22656 66.94332 64.08494
# Shear Modulus (GPa) = 35.20643 41.68651 38.44647
#
# Velocity S-wave (km/s) = 3.82274 4.15970 3.99477
# Velocity P-wave (km/s) = 6.70061 7.13143 6.91937
#
# Compressibility (1/GPa) = 0.01633278
#
# Stress axis : x y z
#
# Youngs Moduli (GPa) = 68.40983 68.96010 86.67765
#
# Poissons Ratio (x) = 0.39591 0.50844
# Poissons Ratio (y) = 0.39275 0.04806
# Poissons Ratio (z) = 0.40129 0.03824
#
# Static dielectric constant tensor:
#      x y z
#    x 4.145000 -0.199120 -0.148110 
#    y -0.199120 4.774230 0.200610 
#    z -0.148110 0.200610 4.462420 
# 
# 
# High freq. dielectric constant tensor:
#      x y z
#    x 1.940390 -0.014660 -0.009720 
#    y -0.014660 1.974690 0.011150 
#    z -0.009720 0.011150 1.966920 
# 
# From -- ./inp_files/3367.got.cif
#   From: 2010.06.25/outbox.cif.g09.slc.cpg/sg2_2_cif.got.tgz:3367.got - 2010.06.27 13:26:56.
