data_PCOD8035243
_publ_section_title
;
Structure prediction by ZEFSAII (Michael W. Deem and Ramdas Pophale) SiO2 
 PCOD8035243
Probable space group: P -1
;
_chemical_formula_sum "Si O2"
_cell_formula_units_Z 16
_cell_length_a 19.780012
_cell_length_b 12.253310
_cell_length_c 9.503954
_cell_angle_alpha 145.400841
_cell_angle_beta 129.992727
_cell_angle_gamma 34.459941
_cell_volume 735.435823
_symmetry_space_group_name_H-M "P -1"
_symmetry_group_IT_number 2
_symmetry_cell_setting 'triclinic'
loop_
_space_group_symop_operation_xyz
x,y,z
-x,-y,-z
loop_
_atom_site_type_symbol
_atom_site_label
_atom_site_fract_x
_atom_site_fract_y
_atom_site_fract_z
Si Si1 0.517733 0.930615 0.721798
Si Si2 0.088642 0.603435 0.951633
Si Si3 0.755336 0.417864 0.353478
Si Si4 0.006555 0.101648 0.471976
Si Si5 0.823367 0.882571 0.899949
Si Si6 0.558876 0.207143 0.266712
Si Si7 0.827366 0.792158 0.131450
Si Si8 0.273603 0.285573 0.616822
O O1 0.642252 0.680055 0.556235
O O2 0.491993 0.830649 0.710097
O O3 0.412933 0.071466 0.616906
O O4 0.528865 0.134045 0.006384
O O5 0.126449 0.477985 0.027263
O O6 0.189812 0.389665 0.751037
O O7 0.960960 0.699968 0.839574
O O8 0.077049 0.851477 0.196374
O O9 0.750671 0.477557 0.244870
O O10 0.874182 0.343219 0.494696
O O11 0.757569 0.186547 0.135608
O O12 0.076932 0.194258 0.674070
O O13 0.000000 0.000000 0.500000
O O14 0.750588 0.856105 0.669333
O O15 0.818987 0.796382 0.957289
O O16 0.500000 0.500000 0.500000
O O17 0.700518 0.030518 0.283587
#
# Coordination Sequence:
#
# PCOD8035243 Si02
#       8
#     2   2   2   2   2   2   2   2
#     4  11  26  47  67 102 139 186 234 285 343 412
#     4  11  25  43  68 103 142 179 231 286 350 407
#     4  11  25  45  69  98 145 183 232 285 344 415
#     4  11  25  41  73 106 135 181 232 288 346 408
#     4  11  25  41  69 103 137 184 230 282 346 416
#     4  11  26  42  72 101 140 179 233 294 344 406
#     4  12  23  43  72 103 135 179 234 288 345 412
#     4  12  26  44  69 100 142 190 226 285 349 416
#
# _framework density 21.755807000000001
#
# number of rings (size 3 to 8) (size 9 to 14) (size 15 to 20)
#    0.000    0.750    3.750    3.375    5.250    4.500 
#    0.000    0.000    0.000    0.000    0.000    0.000 
#    0.000    0.000    0.000    0.000    0.000    0.000 
#
# Total GULP energy -198455.004804 kJ/mol
# GULP energy per Si atom -12403.437800 kJ/mol
# Density = 2.170629 g / cm^3
# Si number density = 21.755807 Si / 1000 Ang^3
#
#
#
# Elastic Constant Matrix: (Units=GPa)
#
#
# Indices 1 2 3 4 5 6 
#
# 1 99.4047 46.0145 49.0096 4.4606 -3.2306 -1.7921
# 2 46.0145 155.3712 73.3865 1.5094 7.1816 -9.2908
# 3 49.0096 73.3865 119.1770 1.0840 -3.6558 -2.0508
# 4 4.4606 1.5094 1.0840 39.8341 1.4954 -3.2562
# 5 -3.2306 7.1816 -3.6558 1.4954 9.7866 2.0960
# 6 -1.7921 -9.2908 -2.0508 -3.2562 2.0960 40.8009
#
#
#
# Elastic Compliance Matrix: (Units=1/GPa)
#
#
# Indices 1 2 3 4 5 6 
#
# 1 0.013271 -0.002365 -0.003843 -0.001524 0.005027 -0.000529
# 2 -0.002365 0.010580 -0.005853 0.000668 -0.011400 0.002650
# 3 -0.003843 -0.005853 0.013815 -0.000145 0.008478 -0.001254
# 4 -0.001524 0.000668 -0.000145 0.025656 -0.005483 0.002407
# 5 0.005027 -0.011400 0.008478 -0.005483 0.118020 -0.008449
# 6 -0.000529 0.002650 -0.001254 0.002407 -0.008449 0.025653
#
#
# Mechanical properties :
#
#
# Convention : Reuss Voigt Hill
#
# Bulk Modulus (GPa) = 73.82085 78.97489 76.39787
# Shear Modulus (GPa) = 21.21980 31.78715 26.50347
#
# Velocity S-wave (km/s) = 3.12647 3.82657 3.49409
# Velocity P-wave (km/s) = 6.85845 7.47682 7.17430
#
# Compressibility (1/GPa) = 0.01354631
#
# Stress axis : x y z
#
# Youngs Moduli (GPa) = 75.35139 94.52039 72.38663
#
# Poissons Ratio (x) = 0.22350 0.27815
# Poissons Ratio (y) = 0.17817 0.42365
# Poissons Ratio (z) = 0.28954 0.55318
#
# Static dielectric constant tensor:
#      x y z
#    x 4.119700 -0.037330 0.137880 
#    y -0.037330 4.210140 -0.011780 
#    z 0.137880 -0.011780 4.118970 
# 
# 
# High freq. dielectric constant tensor:
#      x y z
#    x 1.865000 -0.003930 0.003340 
#    y -0.003930 1.869110 0.007570 
#    z 0.003340 0.007570 1.857310 
# 
# From -- ./inp_files/346505.got.cif
#   From: 2010.06.25/outbox.cif.g09.slc.cpg/sg2_174_cif.got.tgz:346505.got - 2010.06.27 13:26:56.
