data_PCOD8035655
_publ_section_title
;
Structure prediction by ZEFSAII (Michael W. Deem and Ramdas Pophale) SiO2 
 PCOD8035655
Probable space group: P -1
;
_chemical_formula_sum "Si O2"
_cell_formula_units_Z 12
_cell_length_a 8.335398
_cell_length_b 6.764121
_cell_length_c 9.582958
_cell_angle_alpha 87.847030
_cell_angle_beta 65.687702
_cell_angle_gamma 81.509768
_cell_volume 486.828461
_symmetry_space_group_name_H-M "P -1"
_symmetry_group_IT_number 2
_symmetry_cell_setting 'triclinic'
loop_
_space_group_symop_operation_xyz
x,y,z
-x,-y,-z
loop_
_atom_site_type_symbol
_atom_site_label
_atom_site_fract_x
_atom_site_fract_y
_atom_site_fract_z
Si Si1 0.817310 0.229924 0.094258
Si Si2 0.819116 0.890637 0.903376
Si Si3 0.322913 0.906817 0.583771
Si Si4 0.264953 0.599728 0.417354
Si Si5 0.434181 0.389373 0.897783
Si Si6 0.133496 0.207102 0.435056
O O1 0.734433 0.081402 0.235421
O O2 0.715994 0.454306 0.128832
O O3 0.192319 0.876708 0.051047
O O4 0.018025 0.241236 0.070264
O O5 0.848032 0.867880 0.728517
O O6 0.641205 0.807240 0.017424
O O7 0.332170 0.673433 0.540856
O O8 0.500000 0.000000 0.500000
O O9 0.173468 0.021110 0.530616
O O10 0.397227 0.681757 0.257974
O O11 0.277188 0.359189 0.410672
O O12 0.061668 0.688818 0.456141
O O13 0.500000 0.500000 0.000000
#
# Coordination Sequence:
#
# PCOD8035655 Si02
#       6
#     2   2   2   2   2   2
#     4  11  27  46  72 103 144 188 236 289 353 421
#     4  11  25  49  73 104 140 189 236 292 349 421
#     4  12  26  45  73 108 142 184 234 295 352 416
#     4  11  25  46  71 105 140 188 233 286 349 426
#     4  12  26  44  71 105 141 184 234 292 353 413
#     4  11  25  47  76 103 140 190 235 288 355 416
#
# _framework density 24.649338
#
# number of rings (size 3 to 8) (size 9 to 14) (size 15 to 20)
#    0.000    0.667    3.333    3.000    2.333    6.000 
#    0.000    0.000    0.000    0.000    0.000    0.000 
#    0.000    0.000    0.000    0.000    0.000    0.000 
#
# Total GULP energy -148815.072326 kJ/mol
# GULP energy per Si atom -12401.256027 kJ/mol
# Density = 2.459323 g / cm^3
# Si number density = 24.649338 Si / 1000 Ang^3
#
#
#
# Elastic Constant Matrix: (Units=GPa)
#
#
# Indices 1 2 3 4 5 6 
#
# 1 68.3549 18.5163 18.7232 9.4142 -11.6757 21.5269
# 2 18.5163 83.6498 34.3088 10.1926 12.6785 13.2520
# 3 18.7232 34.3088 106.2348 13.1761 -9.4722 -6.8566
# 4 9.4142 10.1926 13.1761 37.7018 5.9356 2.1847
# 5 -11.6757 12.6785 -9.4722 5.9356 51.5998 4.3255
# 6 21.5269 13.2520 -6.8566 2.1847 4.3255 41.9291
#
#
#
# Elastic Compliance Matrix: (Units=1/GPa)
#
#
# Indices 1 2 3 4 5 6 
#
# 1 0.021034 -0.002304 -0.002609 -0.004065 0.006230 -0.010929
# 2 -0.002304 0.016256 -0.005464 -0.000865 -0.005060 -0.004282
# 3 -0.002609 -0.005464 0.012603 -0.003036 0.002998 0.004976
# 4 -0.004065 -0.000865 -0.003036 0.029531 -0.004730 0.000813
# 5 0.006230 -0.005060 0.002998 -0.004730 0.023402 -0.003277
# 6 -0.010929 -0.004282 0.004976 0.000813 -0.003277 0.031923
#
#
# Mechanical properties :
#
#
# Convention : Reuss Voigt Hill
#
# Bulk Modulus (GPa) = 34.31754 44.59292 39.45523
# Shear Modulus (GPa) = 30.26335 38.69221 34.47778
#
# Velocity S-wave (km/s) = 3.50773 3.96625 3.74402
# Velocity P-wave (km/s) = 5.50982 6.25340 5.89335
#
# Compressibility (1/GPa) = 0.02913962
#
# Stress axis : x y z
#
# Youngs Moduli (GPa) = 47.54228 61.51435 79.34852
#
# Poissons Ratio (x) = 0.14170 0.20700
# Poissons Ratio (y) = 0.10952 0.43358
# Poissons Ratio (z) = 0.12403 0.33613
#
# Static dielectric constant tensor:
#      x y z
#    x 4.658520 0.104040 -0.042900 
#    y 0.104040 4.734540 0.027190 
#    z -0.042900 0.027190 4.180880 
# 
# 
# High freq. dielectric constant tensor:
#      x y z
#    x 1.999320 0.011070 -0.008040 
#    y 0.011070 1.979200 0.010820 
#    z -0.008040 0.010820 1.981260 
# 
# From -- ./inp_files/157161.got.cif
#   From: 2010.06.25/outbox.cif.g09.slc.cpg/sg2_79_cif.got.tgz:157161.got - 2010.06.27 13:26:56.
