data_PCOD8035603
_publ_section_title
;
Structure prediction by ZEFSAII (Michael W. Deem and Ramdas Pophale) SiO2 
 PCOD8035603
Probable space group: P -1
;
_chemical_formula_sum "Si O2"
_cell_formula_units_Z 16
_cell_length_a 22.004067
_cell_length_b 26.780478
_cell_length_c 11.665704
_cell_angle_alpha 33.171301
_cell_angle_beta 20.814629
_cell_angle_gamma 20.395511
_cell_volume 807.762601
_symmetry_space_group_name_H-M "P -1"
_symmetry_group_IT_number 2
_symmetry_cell_setting 'triclinic'
loop_
_space_group_symop_operation_xyz
x,y,z
-x,-y,-z
loop_
_atom_site_type_symbol
_atom_site_label
_atom_site_fract_x
_atom_site_fract_y
_atom_site_fract_z
Si Si1 0.703325 0.577003 0.190006
Si Si2 0.761632 0.277754 0.441654
Si Si3 0.239418 0.663768 0.196214
Si Si4 0.877287 0.309975 0.399098
Si Si5 0.832815 0.851327 0.223456
Si Si6 0.796534 0.180453 0.226475
Si Si7 0.801913 0.985395 0.677148
Si Si8 0.808841 0.733409 0.694389
O O1 0.515862 0.644668 0.276236
O O2 0.925456 0.398694 0.153936
O O3 0.496590 0.664302 0.495789
O O4 0.880649 0.594970 0.835091
O O5 0.680622 0.377577 0.502020
O O6 0.940168 0.116614 0.490018
O O7 0.975049 0.241800 0.049598
O O8 0.280936 0.659575 0.266849
O O9 0.966129 0.716895 0.552879
O O10 0.500000 0.500000 0.000000
O O11 0.203123 0.778410 0.981016
O O12 0.166684 0.127080 0.226374
O O13 0.899138 0.735209 0.408917
O O14 0.500000 0.000000 0.500000
O O15 0.936407 0.896603 0.023358
O O16 0.817560 0.061690 0.412141
O O17 0.521303 0.109272 0.008102
#
# Coordination Sequence:
#
# PCOD8035603 Si02
#       8
#     2   2   2   2   2   2   2   2
#     4  10  19  37  60  86 114 149 192 228 276 348
#     4   9  20  34  58  84 121 147 183 227 293 331
#     4  11  22  41  61  80 114 150 198 234 278 338
#     4  10  21  37  60  82 117 155 184 231 289 327
#     4  10  17  31  55  83 118 144 184 232 279 333
#     4   9  20  34  58  85 108 149 196 231 274 334
#     4   9  20  37  56  91 111 146 188 229 294 325
#     4  10  22  36  61  86 109 151 195 235 273 332
#
# _framework density 19.8078
#
# number of rings (size 3 to 8) (size 9 to 14) (size 15 to 20)
#    0.750    1.500    2.500    0.375    1.750    3.000 
#    0.000    0.625    8.250    0.000    0.000    0.000 
#    0.000    0.000    0.000    0.000    0.000    0.000 
#
# Total GULP energy -198248.205493 kJ/mol
# GULP energy per Si atom -12390.512843 kJ/mol
# Density = 1.976272 g / cm^3
# Si number density = 19.807800 Si / 1000 Ang^3
#
#
#
# Elastic Constant Matrix: (Units=GPa)
#
#
# Indices 1 2 3 4 5 6 
#
# 1 81.7130 25.0654 38.3144 -10.9054 28.3121 1.2882
# 2 25.0654 115.1024 37.4094 -34.0676 3.4483 17.6619
# 3 38.3144 37.4094 84.6752 -29.7048 8.2467 0.0698
# 4 -10.9054 -34.0676 -29.7048 28.5914 -2.1984 -3.2058
# 5 28.3121 3.4483 8.2467 -2.1984 31.9498 -2.8272
# 6 1.2882 17.6619 0.0698 -3.2058 -2.8272 26.4338
#
#
#
# Elastic Compliance Matrix: (Units=1/GPa)
#
#
# Indices 1 2 3 4 5 6 
#
# 1 0.023198 -0.002950 -0.009601 -0.006260 -0.018355 -0.001857
# 2 -0.002950 0.015354 0.000275 0.016666 0.001329 -0.007953
# 3 -0.009601 0.000275 0.023111 0.021373 0.004273 0.003272
# 4 -0.006260 0.016666 0.021373 0.074735 0.003244 -0.001476
# 5 -0.018355 0.001329 0.004273 0.003244 0.047021 0.005418
# 6 -0.001857 -0.007953 0.003272 -0.001476 0.005418 0.043626
#
#
# Mechanical properties :
#
#
# Convention : Reuss Voigt Hill
#
# Bulk Modulus (GPa) = 26.94476 53.67433 40.30955
# Shear Modulus (GPa) = 18.94177 29.44175 24.19176
#
# Velocity S-wave (km/s) = 3.09573 3.85953 3.49854
# Velocity P-wave (km/s) = 5.13913 6.85695 6.05922
#
# Compressibility (1/GPa) = 0.03711297
#
# Stress axis : x y z
#
# Youngs Moduli (GPa) = 43.10724 65.12931 43.26860
#
# Poissons Ratio (x) = 0.19210 0.41541
# Poissons Ratio (y) = 0.12714 -0.01190
# Poissons Ratio (z) = 0.41386 -0.01791
#
# Static dielectric constant tensor:
#      x y z
#    x 3.893650 -0.217670 -0.056950 
#    y -0.217670 3.649680 -0.154000 
#    z -0.056950 -0.154000 3.636680 
# 
# 
# High freq. dielectric constant tensor:
#      x y z
#    x 1.759200 -0.013310 0.014180 
#    y -0.013310 1.773660 -0.016000 
#    z 0.014180 -0.016000 1.754490 
# 
# From -- ./inp_files/475757.got.cif
#   From: 2010.06.25/outbox.cif.g09.slc.cpg/sg2_238_cif.got.tgz:475757.got - 2010.06.27 13:26:56.
