data_PCOD8035080
_publ_section_title
;
Structure prediction by ZEFSAII (Michael W. Deem and Ramdas Pophale) SiO2 
 PCOD8035080
Probable space group: P -1
;
_chemical_formula_sum "Si O2"
_cell_formula_units_Z 10
_cell_length_a 18.243702
_cell_length_b 12.464268
_cell_length_c 8.952976
_cell_angle_alpha 144.470173
_cell_angle_beta 143.130864
_cell_angle_gamma 18.984025
_cell_volume 379.836346
_symmetry_space_group_name_H-M "P -1"
_symmetry_group_IT_number 2
_symmetry_cell_setting 'triclinic'
loop_
_space_group_symop_operation_xyz
x,y,z
-x,-y,-z
loop_
_atom_site_type_symbol
_atom_site_label
_atom_site_fract_x
_atom_site_fract_y
_atom_site_fract_z
Si Si1 0.193651 0.230156 0.133802
Si Si2 0.958342 0.242687 0.329936
Si Si3 0.644751 0.686551 0.064679
Si Si4 0.427591 0.815300 0.572823
Si Si5 0.812421 0.179487 0.281088
O O1 0.161774 0.416983 0.424418
O O2 0.432525 0.958704 0.137449
O O3 0.000000 0.500000 0.000000
O O4 0.185820 0.041781 0.984987
O O5 0.866591 0.323599 0.102886
O O6 0.873966 0.182541 0.225253
O O7 0.231970 0.916606 0.408021
O O8 0.691983 0.835007 0.255472
O O9 0.598908 0.614026 0.765440
O O10 0.566198 0.565603 0.372840
O O11 0.000000 0.000000 0.500000
#
# Coordination Sequence:
#
# PCOD8035080 Si02
#       5
#     2   2   2   2   2
#     4  12  23  48  77 104 145 197 238 297 367 428
#     4  12  26  50  76 109 146 192 245 298 357 437
#     4  11  24  47  79 105 152 191 240 300 365 424
#     4  11  25  49  76 108 147 193 239 301 362 428
#     4  12  26  47  78 107 147 193 242 299 365 427
#
# _framework density 26.327127999999998
#
# number of rings (size 3 to 8) (size 9 to 14) (size 15 to 20)
#    0.000    0.400    6.000    1.200    2.800    4.000 
#    0.000    2.000    0.000    0.000    0.000    0.000 
#    0.000    0.000    0.000    0.000    0.000    0.000 
#
# Total GULP energy -124100.999021 kJ/mol
# GULP energy per Si atom -12410.099902 kJ/mol
# Density = 2.626721 g / cm^3
# Si number density = 26.327128 Si / 1000 Ang^3
#
#
#
# Elastic Constant Matrix: (Units=GPa)
#
#
# Indices 1 2 3 4 5 6 
#
# 1 187.2369 63.5381 73.5512 -0.4532 12.7839 3.0707
# 2 63.5381 97.4606 19.1199 -8.4745 -1.5203 9.0983
# 3 73.5512 19.1199 106.5616 0.2411 8.3921 11.4426
# 4 -0.4532 -8.4745 0.2411 37.0264 4.2803 -15.5342
# 5 12.7839 -1.5203 8.3921 4.2803 36.1860 -5.6308
# 6 3.0707 9.0983 11.4426 -15.5342 -5.6308 55.5320
#
#
#
# Elastic Compliance Matrix: (Units=1/GPa)
#
#
# Indices 1 2 3 4 5 6 
#
# 1 0.009395 -0.005212 -0.005514 -0.000313 -0.002039 0.001176
# 2 -0.005212 0.013792 0.001135 0.002309 0.001668 -0.001390
# 3 -0.005514 0.001135 0.013437 -0.001018 -0.001480 -0.003085
# 4 -0.000313 0.002309 -0.001018 0.031290 -0.001950 0.008404
# 5 -0.002039 0.001668 -0.001480 -0.001950 0.029401 0.002580
# 6 0.001176 -0.001390 -0.003085 0.008404 0.002580 0.021418
#
#
# Mechanical properties :
#
#
# Convention : Reuss Voigt Hill
#
# Bulk Modulus (GPa) = 57.33272 78.18638 67.75955
# Shear Modulus (GPa) = 34.78765 41.41887 38.10326
#
# Velocity S-wave (km/s) = 3.63900 3.97071 3.80847
# Velocity P-wave (km/s) = 6.28337 7.12633 6.71808
#
# Compressibility (1/GPa) = 0.01744205
#
# Stress axis : x y z
#
# Youngs Moduli (GPa) = 106.44194 72.50467 74.42263
#
# Poissons Ratio (x) = 0.37788 0.41040
# Poissons Ratio (y) = 0.55475 -0.08449
# Poissons Ratio (z) = 0.58696 -0.08232
#
# Static dielectric constant tensor:
#      x y z
#    x 4.911200 -0.096450 0.106100 
#    y -0.096450 4.838160 0.018930 
#    z 0.106100 0.018930 5.097840 
# 
# 
# High freq. dielectric constant tensor:
#      x y z
#    x 2.070840 -0.004770 0.004870 
#    y -0.004770 2.063030 0.009920 
#    z 0.004870 0.009920 2.068250 
# 
# From -- ./inp_files/146729.got.cif
#   From: 2010.06.25/outbox.cif.g09.slc.cpg/sg2_74_cif.got.tgz:146729.got - 2010.06.27 13:26:56.
