data_PCOD8035679
_publ_section_title
;
Structure prediction by ZEFSAII (Michael W. Deem and Ramdas Pophale) SiO2 
 PCOD8035679
Probable space group: P -1
;
_chemical_formula_sum "Si O2"
_cell_formula_units_Z 14
_cell_length_a 8.798675
_cell_length_b 20.565738
_cell_length_c 11.719920
_cell_angle_alpha 28.070530
_cell_angle_beta 61.596633
_cell_angle_gamma 44.548344
_cell_volume 620.152444
_symmetry_space_group_name_H-M "P -1"
_symmetry_group_IT_number 2
_symmetry_cell_setting 'triclinic'
loop_
_space_group_symop_operation_xyz
x,y,z
-x,-y,-z
loop_
_atom_site_type_symbol
_atom_site_label
_atom_site_fract_x
_atom_site_fract_y
_atom_site_fract_z
Si Si1 0.354215 0.088758 0.530683
Si Si2 0.251995 0.570731 0.512316
Si Si3 0.242010 0.443647 0.118069
Si Si4 0.193238 0.300230 0.951601
Si Si5 0.449985 0.817861 0.382338
Si Si6 0.154903 0.255471 0.789551
Si Si7 0.147669 0.735564 0.536033
O O1 0.217217 0.311186 0.264748
O O2 0.139016 0.096534 0.587578
O O3 0.500000 0.000000 0.500000
O O4 0.570157 0.933756 0.783570
O O5 0.500000 0.500000 0.500000
O O6 0.305243 0.383634 0.816709
O O7 0.139165 0.711425 0.442374
O O8 0.065836 0.681383 0.302183
O O9 0.469849 0.298784 0.346819
O O10 0.000617 0.625871 0.993958
O O11 0.293098 0.536044 0.865848
O O12 0.065859 0.378811 0.749278
O O13 0.689618 0.721345 0.373582
O O14 0.276313 0.809383 0.391876
O O15 0.307057 0.038688 0.114224
#
# Coordination Sequence:
#
# PCOD8035679 Si02
#       7
#     2   2   2   2   2   2   2
#     4  12  24  45  72 107 144 190 233 294 364 419
#     4  12  27  45  72 109 143 187 242 304 355 421
#     4  12  24  50  72 105 145 191 238 293 365 434
#     4  12  24  45  74 102 143 194 239 283 369 431
#     4  11  25  46  72 105 144 195 240 293 356 431
#     4  11  25  48  72 100 147 196 240 288 360 433
#     4  12  26  45  72 110 147 182 243 305 354 420
#
# _framework density 22.575095000000001
#
# number of rings (size 3 to 8) (size 9 to 14) (size 15 to 20)
#    0.000    0.286    5.714    3.000    6.000    0.571 
#    0.000    1.429    0.000    0.000    0.000    0.000 
#    0.000    0.000    0.000    0.000    0.000    0.000 
#
# Total GULP energy -173573.619460 kJ/mol
# GULP energy per Si atom -12398.115676 kJ/mol
# Density = 2.252371 g / cm^3
# Si number density = 22.575095 Si / 1000 Ang^3
#
#
#
# Elastic Constant Matrix: (Units=GPa)
#
#
# Indices 1 2 3 4 5 6 
#
# 1 147.0512 66.7878 11.0304 3.7708 10.4559 -3.6898
# 2 66.7878 118.8855 18.0035 -5.1144 12.2620 -1.5239
# 3 11.0304 18.0035 44.9938 -5.2355 18.6677 -5.2193
# 4 3.7708 -5.1144 -5.2355 32.5665 0.6633 6.2677
# 5 10.4559 12.2620 18.6677 0.6633 35.4206 -0.8053
# 6 -3.6898 -1.5239 -5.2193 6.2677 -0.8053 38.1442
#
#
#
# Elastic Compliance Matrix: (Units=1/GPa)
#
#
# Indices 1 2 3 4 5 6 
#
# 1 0.009311 -0.005222 0.000063 -0.002066 -0.000912 0.001021
# 2 -0.005222 0.011984 -0.002874 0.002203 -0.001152 -0.000806
# 3 0.000063 -0.002874 0.030456 0.004156 -0.015083 0.003057
# 4 -0.002066 0.002203 0.004156 0.032990 -0.003075 -0.005029
# 5 -0.000912 -0.001152 -0.015083 -0.003075 0.036886 -0.000914
# 6 0.001021 -0.000806 0.003057 -0.005029 -0.000914 0.027508
#
#
# Mechanical properties :
#
#
# Convention : Reuss Voigt Hill
#
# Bulk Modulus (GPa) = 28.02281 55.84156 41.93218
# Shear Modulus (GPa) = 28.23338 35.56685 31.90012
#
# Velocity S-wave (km/s) = 3.54028 3.97355 3.76316
# Velocity P-wave (km/s) = 5.39922 6.77065 6.12345
#
# Compressibility (1/GPa) = 0.03568522
#
# Stress axis : x y z
#
# Youngs Moduli (GPa) = 107.40279 83.44789 32.83420
#
# Poissons Ratio (x) = 0.43576 -0.00208
# Poissons Ratio (y) = 0.56085 0.09437
# Poissons Ratio (z) = -0.00682 0.23984
#
# Static dielectric constant tensor:
#      x y z
#    x 3.917910 0.279000 0.231150 
#    y 0.279000 3.848180 0.051130 
#    z 0.231150 0.051130 4.781470 
# 
# 
# High freq. dielectric constant tensor:
#      x y z
#    x 1.892770 0.014610 0.014620 
#    y 0.014610 1.891770 -0.000890 
#    z 0.014620 -0.000890 1.907770 
# 
# From -- ./inp_files/344911.got.cif
#   From: 2010.06.25/outbox.cif.g09.slc.cpg/sg2_173_cif.got.tgz:344911.got - 2010.06.27 13:26:56.
