data_PCOD8035050
_publ_section_title
;
Structure prediction by ZEFSAII (Michael W. Deem and Ramdas Pophale) SiO2 
 PCOD8035050
Probable space group: P -1
;
_chemical_formula_sum "Si O2"
_cell_formula_units_Z 14
_cell_length_a 18.668521
_cell_length_b 8.136888
_cell_length_c 9.195982
_cell_angle_alpha 114.004893
_cell_angle_beta 58.016761
_cell_angle_gamma 148.095204
_cell_volume 623.342742
_symmetry_space_group_name_H-M "P -1"
_symmetry_group_IT_number 2
_symmetry_cell_setting 'triclinic'
loop_
_space_group_symop_operation_xyz
x,y,z
-x,-y,-z
loop_
_atom_site_type_symbol
_atom_site_label
_atom_site_fract_x
_atom_site_fract_y
_atom_site_fract_z
Si Si1 0.426577 0.553504 0.153261
Si Si2 0.775873 0.346334 0.511003
Si Si3 0.080330 0.704279 0.842680
Si Si4 0.249429 0.353726 0.523661
Si Si5 0.758701 0.673813 0.995455
Si Si6 0.957372 0.696664 0.722918
Si Si7 0.445263 0.846891 0.743764
O O1 0.356269 0.406426 0.336553
O O2 0.292059 0.372400 0.128896
O O3 0.545449 0.921185 0.163999
O O4 0.500000 0.500000 0.000000
O O5 0.818027 0.276929 0.318716
O O6 0.819562 0.619525 0.502789
O O7 0.862374 0.454451 0.605344
O O8 0.603417 0.034026 0.615344
O O9 0.959429 0.552572 0.797856
O O10 0.000000 0.500000 0.000000
O O11 0.188233 0.056695 0.883855
O O12 0.341658 0.624495 0.639819
O O13 0.124650 0.018137 0.610176
O O14 0.893096 0.769450 0.881082
O O15 0.619778 0.348908 0.110287
#
# Coordination Sequence:
#
# PCOD8035050 Si02
#       7
#     2   2   2   2   2   2   2
#     4  11  26  44  74 111 142 182 239 300 350 422
#     4  11  25  46  73 104 144 188 237 293 357 426
#     4  12  29  45  72 108 141 186 245 305 350 417
#     4  11  24  47  75 102 146 191 235 286 365 431
#     4  12  26  47  71 106 143 192 236 294 360 424
#     4  12  25  50  70 102 144 195 237 291 361 427
#     4  11  25  49  72 101 148 194 233 284 363 430
#
# _framework density 22.459555000000002
#
# number of rings (size 3 to 8) (size 9 to 14) (size 15 to 20)
#    0.000    0.571    4.286    4.286    8.000    1.714 
#    0.000    0.000    0.000    0.000    0.000    0.000 
#    0.000    0.000    0.000    0.000    0.000    0.000 
#
# Total GULP energy -173685.530864 kJ/mol
# GULP energy per Si atom -12406.109347 kJ/mol
# Density = 2.240844 g / cm^3
# Si number density = 22.459555 Si / 1000 Ang^3
#
#
#
# Elastic Constant Matrix: (Units=GPa)
#
#
# Indices 1 2 3 4 5 6 
#
# 1 95.4443 34.0139 51.6772 -5.7139 0.8231 1.2138
# 2 34.0139 93.9736 52.7442 -10.0634 -2.5115 2.5566
# 3 51.6772 52.7442 153.8972 -0.5766 -20.0411 -19.9356
# 4 -5.7139 -10.0634 -0.5766 39.3546 -2.6415 7.4984
# 5 0.8231 -2.5115 -20.0411 -2.6415 49.9389 11.6207
# 6 1.2138 2.5566 -19.9356 7.4984 11.6207 31.9350
#
#
#
# Elastic Compliance Matrix: (Units=1/GPa)
#
#
# Indices 1 2 3 4 5 6 
#
# 1 0.013850 -0.002278 -0.004431 0.001861 -0.001308 -0.003071
# 2 -0.002278 0.014890 -0.004980 0.004442 0.000269 -0.005355
# 3 -0.004431 -0.004980 0.010926 -0.002974 0.002369 0.007224
# 4 0.001861 0.004442 -0.002974 0.028893 0.002881 -0.010116
# 5 -0.001308 0.000269 0.002369 0.002881 0.022909 -0.007506
# 6 -0.003071 -0.005355 0.007224 -0.010116 -0.007506 0.041475
#
#
# Mechanical properties :
#
#
# Convention : Reuss Voigt Hill
#
# Bulk Modulus (GPa) = 61.40007 68.90952 65.15480
# Shear Modulus (GPa) = 30.91178 37.90434 34.40806
#
# Velocity S-wave (km/s) = 3.71392 4.11258 3.91832
# Velocity P-wave (km/s) = 6.76671 7.30064 7.03874
#
# Compressibility (1/GPa) = 0.01628663
#
# Stress axis : x y z
#
# Youngs Moduli (GPa) = 72.20152 67.16105 91.52746
#
# Poissons Ratio (x) = 0.15300 0.40557
# Poissons Ratio (y) = 0.16449 0.45581
# Poissons Ratio (z) = 0.31994 0.33447
#
# Static dielectric constant tensor:
#      x y z
#    x 4.132060 0.109560 0.174890 
#    y 0.109560 4.198380 0.169460 
#    z 0.174890 0.169460 4.427040 
# 
# 
# High freq. dielectric constant tensor:
#      x y z
#    x 1.882850 0.005950 0.006690 
#    y 0.005950 1.884540 0.008160 
#    z 0.006690 0.008160 1.910610 
# 
# From -- ./inp_files/184016.got.cif
#   From: 2010.06.25/outbox.cif.g09.slc.cpg/sg2_93_cif.got.tgz:184016.got - 2010.06.27 13:26:56.
