data_PCOD8035613
_publ_section_title
;
Structure prediction by ZEFSAII (Michael W. Deem and Ramdas Pophale) SiO2 
 PCOD8035613
Probable space group: P -1
;
_chemical_formula_sum "Si O2"
_cell_formula_units_Z 14
_cell_length_a 9.015844
_cell_length_b 14.678587
_cell_length_c 15.646363
_cell_angle_alpha 151.895850
_cell_angle_beta 48.171972
_cell_angle_gamma 114.258162
_cell_volume 627.167036
_symmetry_space_group_name_H-M "P -1"
_symmetry_group_IT_number 2
_symmetry_cell_setting 'triclinic'
loop_
_space_group_symop_operation_xyz
x,y,z
-x,-y,-z
loop_
_atom_site_type_symbol
_atom_site_label
_atom_site_fract_x
_atom_site_fract_y
_atom_site_fract_z
Si Si1 0.918780 0.699717 0.887755
Si Si2 0.043699 0.974100 0.743728
Si Si3 0.257347 0.723834 0.279779
Si Si4 0.158617 0.336885 0.625652
Si Si5 0.650522 0.376801 0.142275
Si Si6 0.418053 0.849061 0.169506
Si Si7 0.114004 0.648582 0.596355
O O1 0.692605 0.688761 0.941283
O O2 0.838142 0.893840 0.151020
O O3 0.112678 0.456185 0.648814
O O4 0.021452 0.763357 0.819497
O O5 0.191556 0.830610 0.487435
O O6 0.025210 0.822065 0.696994
O O7 0.783991 0.157808 0.969375
O O8 0.281527 0.898620 0.352848
O O9 0.072757 0.665108 0.262102
O O10 0.500000 0.500000 0.000000
O O11 0.227859 0.472180 0.777245
O O12 0.365220 0.078310 0.331996
O O13 0.388854 0.513328 0.387208
O O14 0.665996 0.292855 0.970531
O O15 0.000000 0.500000 0.500000
#
# Coordination Sequence:
#
# PCOD8035613 Si02
#       7
#     2   2   2   2   2   2   2
#     4  11  25  47  70 104 142 185 234 291 347 416
#     4  11  26  46  68 106 142 183 237 285 358 413
#     4  12  24  46  74 101 145 184 234 291 344 420
#     4  11  25  46  68 104 142 179 239 282 347 418
#     4  11  26  45  71 106 143 181 234 290 348 418
#     4  12  24  45  72 102 143 189 228 287 353 410
#     4  12  24  44  75 101 140 185 233 291 349 413
#
# _framework density 22.322600999999999
#
# number of rings (size 3 to 8) (size 9 to 14) (size 15 to 20)
#    0.000    0.571    4.286    3.429    0.000    5.143 
#    2.571    0.000    0.000    0.000    0.000    0.000 
#    0.000    0.000    0.000    0.000    0.000    0.000 
#
# Total GULP energy -173568.273969 kJ/mol
# GULP energy per Si atom -12397.733855 kJ/mol
# Density = 2.227179 g / cm^3
# Si number density = 22.322601 Si / 1000 Ang^3
#
#
#
# Elastic Constant Matrix: (Units=GPa)
#
#
# Indices 1 2 3 4 5 6 
#
# 1 135.5208 56.4112 68.4195 7.5133 7.1215 -8.5889
# 2 56.4112 147.8776 58.3953 -7.4165 11.2011 -13.3067
# 3 68.4195 58.3953 112.2882 -2.4293 10.9217 -1.9931
# 4 7.5133 -7.4165 -2.4293 33.7422 -2.0154 2.8326
# 5 7.1215 11.2011 10.9217 -2.0154 37.9604 -3.0092
# 6 -8.5889 -13.3067 -1.9931 2.8326 -3.0092 24.7652
#
#
#
# Elastic Compliance Matrix: (Units=1/GPa)
#
#
# Indices 1 2 3 4 5 6 
#
# 1 0.011680 -0.001966 -0.006141 -0.003711 0.000192 0.002948
# 2 -0.001966 0.009395 -0.003483 0.001877 -0.001004 0.003749
# 3 -0.006141 -0.003483 0.014654 0.001802 -0.002202 -0.003296
# 4 -0.003711 0.001877 0.001802 0.031367 0.001004 -0.003599
# 5 0.000192 -0.001004 -0.002202 0.001004 0.027494 0.002576
# 6 0.002948 0.003749 -0.003296 -0.003599 0.002576 0.043876
#
#
# Mechanical properties :
#
#
# Convention : Reuss Voigt Hill
#
# Bulk Modulus (GPa) = 79.69180 84.68205 82.18693
# Shear Modulus (GPa) = 30.15118 33.45760 31.80439
#
# Velocity S-wave (km/s) = 3.67918 3.87566 3.77870
# Velocity P-wave (km/s) = 7.33662 7.61877 7.47902
#
# Compressibility (1/GPa) = 0.01254834
#
# Stress axis : x y z
#
# Youngs Moduli (GPa) = 85.61433 106.43440 68.24167
#
# Poissons Ratio (x) = 0.20925 0.41909
# Poissons Ratio (y) = 0.16832 0.23771
# Poissons Ratio (z) = 0.52578 0.37074
#
# Static dielectric constant tensor:
#      x y z
#    x 4.451610 -0.274210 0.014160 
#    y -0.274210 4.346870 0.129090 
#    z 0.014160 0.129090 4.042290 
# 
# 
# High freq. dielectric constant tensor:
#      x y z
#    x 1.900940 -0.007820 -0.003760 
#    y -0.007820 1.879170 0.017330 
#    z -0.003760 0.017330 1.872820 
# 
# From -- ./inp_files/319421.got.cif
#   From: 2010.06.25/outbox.cif.g09.slc.cpg/sg2_160_cif.got.tgz:319421.got - 2010.06.27 13:26:56.
