data_PCOD8035605
_publ_section_title
;
Structure prediction by ZEFSAII (Michael W. Deem and Ramdas Pophale) SiO2 
 PCOD8035605
Probable space group: P -1
;
_chemical_formula_sum "Si O2"
_cell_formula_units_Z 14
_cell_length_a 9.170632
_cell_length_b 11.544316
_cell_length_c 16.663019
_cell_angle_alpha 150.583240
_cell_angle_beta 70.792322
_cell_angle_gamma 127.943808
_cell_volume 577.958095
_symmetry_space_group_name_H-M "P -1"
_symmetry_group_IT_number 2
_symmetry_cell_setting 'triclinic'
loop_
_space_group_symop_operation_xyz
x,y,z
-x,-y,-z
loop_
_atom_site_type_symbol
_atom_site_label
_atom_site_fract_x
_atom_site_fract_y
_atom_site_fract_z
Si Si1 0.785069 0.820616 0.879852
Si Si2 0.087529 0.888551 0.296191
Si Si3 0.645477 0.086052 0.162113
Si Si4 0.594124 0.860054 0.212539
Si Si5 0.100846 0.824014 0.513295
Si Si6 0.213498 0.888096 0.101261
Si Si7 0.584759 0.925852 0.530781
O O1 0.659276 0.440319 0.656941
O O2 0.851613 0.010162 0.897826
O O3 0.622353 0.813272 0.955437
O O4 0.000000 0.000000 0.000000
O O5 0.188508 0.003642 0.258219
O O6 0.283606 0.112936 0.459709
O O7 0.932520 0.945103 0.370733
O O8 0.947095 0.506174 0.108454
O O9 0.880151 0.441642 0.310533
O O10 0.626356 0.028105 0.225010
O O11 0.461962 0.068745 0.155068
O O12 0.825366 0.095046 0.358387
O O13 0.422913 0.827461 0.276036
O O14 0.500000 0.500000 0.000000
O O15 0.293666 0.913676 0.479701
#
# Coordination Sequence:
#
# PCOD8035605 Si02
#       7
#     2   2   2   2   2   2   2
#     4  12  28  47  78 110 153 194 252 310 374 439
#     4  11  25  45  79 111 148 198 252 306 375 440
#     4  12  26  49  71 111 149 201 249 303 374 444
#     4  12  27  47  75 106 153 196 252 307 375 443
#     4  12  27  45  77 110 152 195 250 310 369 448
#     4  11  25  47  75 110 152 197 247 309 372 447
#     4  12  26  50  74 111 148 198 250 303 380 441
#
# _framework density 24.223208
#
# number of rings (size 3 to 8) (size 9 to 14) (size 15 to 20)
#    0.000    0.286    1.429    6.857    6.000    3.429 
#    0.000    0.000    0.000    0.000    0.000    0.000 
#    0.000    0.000    0.000    0.000    0.000    0.000 
#
# Total GULP energy -173739.041449 kJ/mol
# GULP energy per Si atom -12409.931532 kJ/mol
# Density = 2.416807 g / cm^3
# Si number density = 24.223208 Si / 1000 Ang^3
#
#
#
# Elastic Constant Matrix: (Units=GPa)
#
#
# Indices 1 2 3 4 5 6 
#
# 1 101.2132 39.3612 34.2117 5.8954 6.0555 -16.8973
# 2 39.3612 136.2900 48.4665 -3.5363 -2.3590 -7.8995
# 3 34.2117 48.4665 107.2992 -2.1494 1.5310 3.8693
# 4 5.8954 -3.5363 -2.1494 36.3992 5.5001 4.4229
# 5 6.0555 -2.3590 1.5310 5.5001 49.4669 -10.7614
# 6 -16.8973 -7.8995 3.8693 4.4229 -10.7614 51.5299
#
#
#
# Elastic Compliance Matrix: (Units=1/GPa)
#
#
# Indices 1 2 3 4 5 6 
#
# 1 0.012797 -0.002391 -0.003209 -0.002962 -0.000326 0.004257
# 2 -0.002391 0.009374 -0.003508 0.000814 0.000987 0.001053
# 3 -0.003209 -0.003508 0.012069 0.001370 -0.000910 -0.002804
# 4 -0.002962 0.000814 0.001370 0.029206 -0.003813 -0.004253
# 5 -0.000326 0.000987 -0.000910 -0.003813 0.021843 0.005002
# 6 0.004257 0.001053 -0.002804 -0.004253 0.005002 0.022584
#
#
# Mechanical properties :
#
#
# Convention : Reuss Voigt Hill
#
# Bulk Modulus (GPa) = 62.39840 65.43126 63.91483
# Shear Modulus (GPa) = 38.04334 42.33005 40.18670
#
# Velocity S-wave (km/s) = 3.96729 4.18485 4.07752
# Velocity P-wave (km/s) = 6.84117 7.10078 6.97218
#
# Compressibility (1/GPa) = 0.01602605
#
# Stress axis : x y z
#
# Youngs Moduli (GPa) = 78.14230 106.67375 82.85801
#
# Poissons Ratio (x) = 0.25501 0.26587
# Poissons Ratio (y) = 0.18681 0.29066
# Poissons Ratio (z) = 0.25073 0.37420
#
# Static dielectric constant tensor:
#      x y z
#    x 4.643090 -0.056230 0.043310 
#    y -0.056230 4.424870 -0.273440 
#    z 0.043310 -0.273440 4.459280 
# 
# 
# High freq. dielectric constant tensor:
#      x y z
#    x 1.984840 -0.006000 0.003330 
#    y -0.006000 1.967070 -0.012300 
#    z 0.003330 -0.012300 1.967140 
# 
# From -- ./inp_files/190582.got.cif
#   From: 2010.06.25/outbox.cif.g09.slc.cpg/sg2_96_cif.got.tgz:190582.got - 2010.06.27 13:26:56.
