data_PCOD8035678
_publ_section_title
;
Structure prediction by ZEFSAII (Michael W. Deem and Ramdas Pophale) SiO2 
 PCOD8035678
Probable space group: P -1
;
_chemical_formula_sum "Si O2"
_cell_formula_units_Z 16
_cell_length_a 8.841408
_cell_length_b 9.244518
_cell_length_c 11.922444
_cell_angle_alpha 130.468803
_cell_angle_beta 82.146087
_cell_angle_gamma 89.014565
_cell_volume 727.102512
_symmetry_space_group_name_H-M "P -1"
_symmetry_group_IT_number 2
_symmetry_cell_setting 'triclinic'
loop_
_space_group_symop_operation_xyz
x,y,z
-x,-y,-z
loop_
_atom_site_type_symbol
_atom_site_label
_atom_site_fract_x
_atom_site_fract_y
_atom_site_fract_z
Si Si1 0.062390 0.336450 0.000846
Si Si2 0.397185 0.855307 0.979487
Si Si3 0.052824 0.570503 0.702438
Si Si4 0.609909 0.808179 0.379205
Si Si5 0.916073 0.967349 0.801264
Si Si6 0.403816 0.522174 0.634850
Si Si7 0.590437 0.676526 0.065812
Si Si8 0.085552 0.150291 0.500998
O O1 0.239209 0.359972 0.026411
O O2 0.044347 0.115350 0.856684
O O3 0.000000 0.500000 0.000000
O O4 0.954215 0.376846 0.139933
O O5 0.418568 0.702987 0.801226
O O6 0.468353 0.806626 0.069009
O O7 0.500000 0.000000 0.000000
O O8 0.218900 0.940442 0.055962
O O9 0.227369 0.525654 0.618739
O O10 0.986324 0.363428 0.592815
O O11 0.972884 0.751559 0.730620
O O12 0.531843 0.653578 0.379496
O O13 0.625227 0.763091 0.224663
O O14 0.777523 0.817318 0.414671
O O15 0.500000 0.000000 0.500000
O O16 0.854752 0.946225 0.670997
O O17 0.500000 0.500000 0.500000
O O18 0.500000 0.500000 0.000000
O O19 0.000000 0.000000 0.500000
#
# Coordination Sequence:
#
# PCOD8035678 Si02
#       8
#     2   2   2   2   2   2   2   2
#     4  12  24  44  74 103 144 193 241 303 360 427
#     4  12  27  45  72 108 143 191 246 296 364 426
#     4  11  25  46  72 105 142 192 244 294 368 432
#     4  11  25  47  69 102 140 187 234 292 363 426
#     4  12  25  47  74 104 149 191 246 302 355 444
#     4  11  26  47  71 102 150 188 237 302 362 434
#     4  12  25  46  73 106 143 187 246 299 358 431
#     4  11  25  47  69 105 142 185 237 294 362 430
#
# _framework density 22.005148999999999
#
# number of rings (size 3 to 8) (size 9 to 14) (size 15 to 20)
#    0.000    0.500    2.500    6.000    7.000    2.000 
#    4.500    0.000    0.000    0.000    0.000    0.000 
#    0.000    0.000    0.000    0.000    0.000    0.000 
#
# Total GULP energy -198240.082770 kJ/mol
# GULP energy per Si atom -12390.005173 kJ/mol
# Density = 2.195506 g / cm^3
# Si number density = 22.005149 Si / 1000 Ang^3
#
#
#
# Elastic Constant Matrix: (Units=GPa)
#
#
# Indices 1 2 3 4 5 6 
#
# 1 100.8667 46.8792 39.8052 12.3394 -7.7415 11.3891
# 2 46.8792 174.0726 63.1126 20.4823 -6.2007 12.1902
# 3 39.8052 63.1126 155.3179 -4.6280 1.4648 8.0613
# 4 12.3394 20.4823 -4.6280 54.6580 3.0741 3.7596
# 5 -7.7415 -6.2007 1.4648 3.0741 41.2303 4.4918
# 6 11.3891 12.1902 8.0613 3.7596 4.4918 38.7871
#
#
#
# Elastic Compliance Matrix: (Units=1/GPa)
#
#
# Indices 1 2 3 4 5 6 
#
# 1 0.012541 -0.001976 -0.002365 -0.002254 0.002598 -0.002652
# 2 -0.001976 0.007669 -0.002639 -0.002638 0.001200 -0.001164
# 3 -0.002365 -0.002639 0.008211 0.002308 -0.001277 -0.000259
# 4 -0.002254 -0.002638 0.002308 0.020166 -0.002332 -0.000673
# 5 0.002598 0.001200 -0.001277 -0.002332 0.025534 -0.003606
# 6 -0.002652 -0.001164 -0.000259 -0.000673 -0.003606 0.027463
#
#
# Mechanical properties :
#
#
# Convention : Reuss Voigt Hill
#
# Bulk Modulus (GPa) = 69.15802 81.09456 75.12629
# Shear Modulus (GPa) = 41.54067 45.63241 43.58654
#
# Velocity S-wave (km/s) = 4.34956 4.55875 4.45538
# Velocity P-wave (km/s) = 7.53135 8.04003 7.78984
#
# Compressibility (1/GPa) = 0.01445964
#
# Stress axis : x y z
#
# Youngs Moduli (GPa) = 79.74150 130.40354 121.78674
#
# Poissons Ratio (x) = 0.25771 0.28801
# Poissons Ratio (y) = 0.15759 0.32140
# Poissons Ratio (z) = 0.18858 0.34414
#
# Static dielectric constant tensor:
#      x y z
#    x 4.133040 0.196680 0.158960 
#    y 0.196680 4.494950 0.189910 
#    z 0.158960 0.189910 4.081540 
# 
# 
# High freq. dielectric constant tensor:
#      x y z
#    x 1.857210 0.007020 0.006760 
#    y 0.007020 1.894240 0.001890 
#    z 0.006760 0.001890 1.879890 
# 
# From -- ./inp_files/243989.got.cif
#   From: 2010.06.25/outbox.cif.g09.slc.cpg/sg2_122_cif.got.tgz:243989.got - 2010.06.27 13:26:56.
