data_PCOD8035436
_publ_section_title
;
Structure prediction by ZEFSAII (Michael W. Deem and Ramdas Pophale) SiO2 
 PCOD8035436
Probable space group: P -1
;
_chemical_formula_sum "Si O2"
_cell_formula_units_Z 16
_cell_length_a 9.093824
_cell_length_b 21.374747
_cell_length_c 7.985650
_cell_angle_alpha 68.229473
_cell_angle_beta 63.103561
_cell_angle_gamma 29.379065
_cell_volume 678.164592
_symmetry_space_group_name_H-M "P -1"
_symmetry_group_IT_number 2
_symmetry_cell_setting 'triclinic'
loop_
_space_group_symop_operation_xyz
x,y,z
-x,-y,-z
loop_
_atom_site_type_symbol
_atom_site_label
_atom_site_fract_x
_atom_site_fract_y
_atom_site_fract_z
Si Si1 0.669841 0.808100 0.723175
Si Si2 0.741964 0.646795 0.017614
Si Si3 0.679394 0.076958 0.527336
Si Si4 0.459294 0.387147 0.319487
Si Si5 0.467659 0.009740 0.812538
Si Si6 0.748248 0.271480 0.935035
Si Si7 0.296997 0.635083 0.453351
Si Si8 0.778409 0.661560 0.363008
O O1 0.371898 0.892430 0.675587
O O2 0.932152 0.743472 0.523879
O O3 0.582360 0.897579 0.805249
O O4 0.822911 0.693062 0.861501
O O5 0.423881 0.740152 0.988812
O O6 0.682934 0.668817 0.223048
O O7 0.000000 0.500000 0.000000
O O8 0.677810 0.996883 0.638396
O O9 0.389420 0.209226 0.647743
O O10 0.000000 0.000000 0.500000
O O11 0.650349 0.336425 0.438982
O O12 0.341632 0.350518 0.424641
O O13 0.153111 0.541135 0.305651
O O14 0.683128 0.320694 0.108394
O O15 0.105050 0.142764 0.826002
O O16 0.500000 0.000000 0.000000
O O17 0.589770 0.372436 0.772666
O O18 0.500000 0.500000 0.500000
#
# Coordination Sequence:
#
# PCOD8035436 Si02
#       8
#     2   2   2   2   2   2   2   2
#     4  12  28  50  77 111 157 200 260 318 385 467
#     4  12  25  48  79 115 149 203 256 318 386 467
#     4  12  29  48  78 110 152 207 259 315 383 459
#     4  11  25  44  76 108 152 199 247 323 385 454
#     4  12  29  52  75 112 155 204 262 320 384 461
#     4  12  26  47  78 110 156 198 259 315 389 460
#     4  12  26  46  75 110 151 199 250 318 393 457
#     4  11  25  46  73 111 151 194 260 315 380 455
#
# _framework density 23.593091999999999
#
# number of rings (size 3 to 8) (size 9 to 14) (size 15 to 20)
#    0.000    0.250    3.750    4.125    8.750    1.000 
#    0.000    0.000    0.000    0.000    0.000    0.000 
#    0.000    0.000    0.000    0.000    0.000    0.000 
#
# Total GULP energy -198410.774145 kJ/mol
# GULP energy per Si atom -12400.673384 kJ/mol
# Density = 2.353939 g / cm^3
# Si number density = 23.593092 Si / 1000 Ang^3
#
#
#
# Elastic Constant Matrix: (Units=GPa)
#
#
# Indices 1 2 3 4 5 6 
#
# 1 119.2082 52.2370 43.6904 -4.3716 5.7149 1.9857
# 2 52.2370 110.2663 41.1405 -6.4513 -8.4496 17.2488
# 3 43.6904 41.1405 146.6946 -5.2361 14.4749 15.4158
# 4 -4.3716 -6.4513 -5.2361 35.1477 -1.0589 -1.8824
# 5 5.7149 -8.4496 14.4749 -1.0589 44.4450 4.1220
# 6 1.9857 17.2488 15.4158 -1.8824 4.1220 50.6837
#
#
#
# Elastic Compliance Matrix: (Units=1/GPa)
#
#
# Indices 1 2 3 4 5 6 
#
# 1 0.011437 -0.005144 -0.001977 0.000235 -0.001991 0.002074
# 2 -0.005144 0.013350 -0.002169 0.001404 0.004308 -0.003980
# 3 -0.001977 -0.002169 0.008462 0.000452 -0.002763 -0.001517
# 4 0.000235 0.001404 0.000452 0.028849 0.000741 0.000387
# 5 -0.001991 0.004308 -0.002763 0.000741 0.024727 -0.002531
# 6 0.002074 -0.003980 -0.001517 0.000387 -0.002531 0.021685
#
#
# Mechanical properties :
#
#
# Convention : Reuss Voigt Hill
#
# Bulk Modulus (GPa) = 68.16613 72.25610 70.21111
# Shear Modulus (GPa) = 37.88516 41.99536 39.94026
#
# Velocity S-wave (km/s) = 4.01156 4.22356 4.11893
# Velocity P-wave (km/s) = 7.10014 7.38086 7.24186
#
# Compressibility (1/GPa) = 0.01467004
#
# Stress axis : x y z
#
# Youngs Moduli (GPa) = 87.43762 74.90737 118.17591
#
# Poissons Ratio (x) = 0.38531 0.23360
# Poissons Ratio (y) = 0.44976 0.25629
# Poissons Ratio (z) = 0.17284 0.16245
#
# Static dielectric constant tensor:
#      x y z
#    x 4.722190 0.155500 0.122910 
#    y 0.155500 3.926180 -0.014500 
#    z 0.122910 -0.014500 4.231700 
# 
# 
# High freq. dielectric constant tensor:
#      x y z
#    x 1.945280 -0.003400 0.009210 
#    y -0.003400 1.934040 -0.006420 
#    z 0.009210 -0.006420 1.941160 
# 
# From -- ./inp_files/223384.got.cif
#   From: 2010.06.25/outbox.cif.g09.slc.cpg/sg2_112_cif.got.tgz:223384.got - 2010.06.27 13:26:56.
