data_PCOD8035814
_publ_section_title
;
Structure prediction by ZEFSAII (Michael W. Deem and Ramdas Pophale) SiO2 
 PCOD8035814
Probable space group: P -1
;
_chemical_formula_sum "Si O2"
_cell_formula_units_Z 16
_cell_length_a 8.709403
_cell_length_b 12.521221
_cell_length_c 15.731626
_cell_angle_alpha 120.011780
_cell_angle_beta 151.555999
_cell_angle_gamma 68.522891
_cell_volume 696.189011
_symmetry_space_group_name_H-M "P -1"
_symmetry_group_IT_number 2
_symmetry_cell_setting 'triclinic'
loop_
_space_group_symop_operation_xyz
x,y,z
-x,-y,-z
loop_
_atom_site_type_symbol
_atom_site_label
_atom_site_fract_x
_atom_site_fract_y
_atom_site_fract_z
Si Si1 0.063968 0.586637 0.291863
Si Si2 0.296808 0.501155 0.082263
Si Si3 0.830605 0.998802 0.506778
Si Si4 0.820728 0.718156 0.379708
Si Si5 0.221400 0.079374 0.896673
Si Si6 0.855455 0.938301 0.819269
Si Si7 0.825630 0.659900 0.660436
Si Si8 0.275012 0.677623 0.729119
O O1 0.433580 0.627981 0.455740
O O2 0.024568 0.448647 0.261438
O O3 0.939089 0.691796 0.331383
O O4 0.825314 0.578317 0.092130
O O5 0.461920 0.639832 0.191102
O O6 0.593675 0.451956 0.254243
O O7 0.000000 0.500000 0.000000
O O8 0.744534 0.851673 0.424612
O O9 0.531564 0.070728 0.376924
O O10 0.000000 0.000000 0.500000
O O11 0.043325 0.069861 0.715111
O O12 0.134983 0.690669 0.573201
O O13 0.396181 0.221317 0.053470
O O14 0.982557 0.023795 0.834233
O O15 0.500000 0.000000 0.000000
O O16 0.940924 0.798785 0.810452
O O17 0.000000 0.000000 0.000000
O O18 0.969633 0.674867 0.642073
#
# Coordination Sequence:
#
# PCOD8035814 Si02
#       8
#     2   2   2   2   2   2   2   2
#     4  11  27  45  75 104 140 187 240 298 348 426
#     4  12  29  45  72 106 141 186 240 294 361 415
#     4  12  28  47  73 107 150 188 241 299 359 432
#     4  12  26  48  72 106 143 188 240 290 360 425
#     4  12  25  48  71 107 140 192 241 293 360 429
#     4  12  28  45  76 107 144 191 240 299 363 427
#     4  11  25  47  72 100 146 183 240 284 364 412
#     4  12  27  47  76 100 148 186 236 294 358 431
#
# _framework density 22.982265000000002
#
# number of rings (size 3 to 8) (size 9 to 14) (size 15 to 20)
#    0.000    0.250    3.750    3.375   12.250    0.000 
#    0.000    0.000    0.000    0.000    0.000    0.000 
#    0.000    0.000    0.000    0.000    0.000    0.000 
#
# Total GULP energy -198369.104603 kJ/mol
# GULP energy per Si atom -12398.069038 kJ/mol
# Density = 2.292996 g / cm^3
# Si number density = 22.982265 Si / 1000 Ang^3
#
#
#
# Elastic Constant Matrix: (Units=GPa)
#
#
# Indices 1 2 3 4 5 6 
#
# 1 128.7503 3.8017 43.9043 4.9102 0.4208 9.2822
# 2 3.8017 36.8294 -0.1692 3.2128 -1.9709 -1.4357
# 3 43.9043 -0.1692 114.8111 1.8834 -18.8414 8.7481
# 4 4.9102 3.2128 1.8834 44.5949 4.9534 5.3500
# 5 0.4208 -1.9709 -18.8414 4.9534 48.7639 -1.0261
# 6 9.2822 -1.4357 8.7481 5.3500 -1.0261 39.3296
#
#
#
# Elastic Compliance Matrix: (Units=1/GPa)
#
#
# Indices 1 2 3 4 5 6 
#
# 1 0.009161 -0.001058 -0.003641 -0.000446 -0.001512 -0.001369
# 2 -0.001058 0.027606 0.000638 -0.002256 0.001632 0.001465
# 3 -0.003641 0.000638 0.010919 -0.000417 0.004290 -0.001377
# 4 -0.000446 -0.002256 -0.000417 0.023327 -0.002684 -0.003127
# 5 -0.001512 0.001632 0.004290 -0.002684 0.022525 0.000415
# 6 -0.001369 0.001465 -0.001377 -0.003127 0.000415 0.026545
#
#
# Mechanical properties :
#
#
# Convention : Reuss Voigt Hill
#
# Bulk Modulus (GPa) = 25.27542 41.71828 33.49685
# Shear Modulus (GPa) = 35.36295 42.06128 38.71212
#
# Velocity S-wave (km/s) = 3.92689 4.28268 4.10864
# Velocity P-wave (km/s) = 5.61981 6.53046 6.09218
#
# Compressibility (1/GPa) = 0.03956413
#
# Stress axis : x y z
#
# Youngs Moduli (GPa) = 109.16416 36.22461 91.58344
#
# Poissons Ratio (x) = 0.03831 0.33346
# Poissons Ratio (y) = 0.11546 -0.05846
# Poissons Ratio (z) = 0.39747 -0.02312
#
# Static dielectric constant tensor:
#      x y z
#    x 3.836240 1.111320 0.407840 
#    y 1.111320 -0.036960 -1.805710 
#    z 0.407840 -1.805710 3.379380 
# 
# 
# High freq. dielectric constant tensor:
#      x y z
#    x 1.919470 0.001850 0.002160 
#    y 0.001850 1.919430 0.008150 
#    z 0.002160 0.008150 1.920370 
# 
# From -- ./inp_files/500637.got.cif
#   From: 2010.06.25/outbox.cif.g09.slc.cpg/sg2_251_cif.got.tgz:500637.got - 2010.06.27 13:26:56.
