data_PCOD8035054
_publ_section_title
;
Structure prediction by ZEFSAII (Michael W. Deem and Ramdas Pophale) SiO2 
 PCOD8035054
Probable space group: P -1
;
_chemical_formula_sum "Si O2"
_cell_formula_units_Z 14
_cell_length_a 28.387005
_cell_length_b 13.806734
_cell_length_c 14.618344
_cell_angle_alpha 19.933035
_cell_angle_beta 160.708221
_cell_angle_gamma 159.636553
_cell_volume 577.681340
_symmetry_space_group_name_H-M "P -1"
_symmetry_group_IT_number 2
_symmetry_cell_setting 'triclinic'
loop_
_space_group_symop_operation_xyz
x,y,z
-x,-y,-z
loop_
_atom_site_type_symbol
_atom_site_label
_atom_site_fract_x
_atom_site_fract_y
_atom_site_fract_z
Si Si1 0.354585 0.103252 0.469931
Si Si2 0.851196 0.852372 0.793157
Si Si3 0.127286 0.698195 0.262450
Si Si4 0.852026 0.220358 0.293859
Si Si5 0.480831 0.332321 0.852531
Si Si6 0.068029 0.859019 0.828719
Si Si7 0.632651 0.576145 0.101818
O O1 0.303335 0.180218 0.405469
O O2 0.498160 0.419754 0.410121
O O3 0.203136 0.954456 0.254974
O O4 0.414918 0.842338 0.830904
O O5 0.899321 0.103802 0.576302
O O6 0.809151 0.505694 0.986207
O O7 0.000000 0.000000 0.000000
O O8 0.262707 0.622516 0.528038
O O9 0.996620 0.357129 0.364219
O O10 0.039125 0.842818 0.902024
O O11 0.701551 0.921255 0.239697
O O12 0.548837 0.540480 0.882584
O O13 0.257731 0.056892 0.998780
O O14 0.000000 0.000000 0.500000
O O15 0.000000 0.500000 0.000000
O O16 0.500000 0.500000 0.000000
#
# Coordination Sequence:
#
# PCOD8035054 Si02
#       7
#     2   2   2   2   2   2   2
#     4  11  24  47  76 101 153 194 240 295 369 426
#     4  12  26  45  75 113 146 194 249 300 356 432
#     4  11  26  49  76 106 150 197 243 300 370 439
#     4  12  28  45  76 111 147 192 249 299 361 436
#     4  11  26  48  71 108 147 195 238 304 366 431
#     4  12  26  49  75 110 139 191 244 306 360 440
#     4  11  27  50  74 107 145 193 242 306 372 437
#
# _framework density 24.234814
#
# number of rings (size 3 to 8) (size 9 to 14) (size 15 to 20)
#    0.000    0.571    4.286    2.143    8.000    4.000 
#    2.571    0.000    0.000    0.000    0.000    0.000 
#    0.000    0.000    0.000    0.000    0.000    0.000 
#
# Total GULP energy -173467.637455 kJ/mol
# GULP energy per Si atom -12390.545532 kJ/mol
# Density = 2.417965 g / cm^3
# Si number density = 24.234814 Si / 1000 Ang^3
#
#
#
# Elastic Constant Matrix: (Units=GPa)
#
#
# Indices 1 2 3 4 5 6 
#
# 1 113.4231 54.5850 61.1041 9.0586 -23.4129 11.3550
# 2 54.5850 164.2185 37.9591 -11.5699 0.4985 27.0808
# 3 61.1041 37.9591 110.9298 -11.3739 -27.5737 7.0340
# 4 9.0586 -11.5699 -11.3739 40.1179 5.5727 0.6443
# 5 -23.4129 0.4985 -27.5737 5.5727 37.8429 -16.5664
# 6 11.3550 27.0808 7.0340 0.6443 -16.5664 29.5936
#
#
#
# Elastic Compliance Matrix: (Units=1/GPa)
#
#
# Indices 1 2 3 4 5 6 
#
# 1 0.017256 -0.006003 -0.006202 -0.008920 0.010314 0.006314
# 2 -0.006003 0.011615 -0.002344 0.006114 -0.013159 -0.015268
# 3 -0.006202 -0.002344 0.015646 0.003706 0.009756 0.006187
# 4 -0.008920 0.006114 0.003706 0.031616 -0.012177 -0.010558
# 5 0.010314 -0.013159 0.009756 -0.012177 0.058973 0.039043
# 6 0.006314 -0.015268 0.006187 -0.010558 0.039043 0.065956
#
#
# Mechanical properties :
#
#
# Convention : Reuss Voigt Hill
#
# Bulk Modulus (GPa) = 64.85635 77.31862 71.08749
# Shear Modulus (GPa) = 21.24945 37.17244 29.21094
#
# Velocity S-wave (km/s) = 2.96432 3.92068 3.47555
# Velocity P-wave (km/s) = 6.20774 7.24354 6.74555
#
# Compressibility (1/GPa) = 0.01541869
#
# Stress axis : x y z
#
# Youngs Moduli (GPa) = 57.94975 86.09486 63.91400
#
# Poissons Ratio (x) = 0.51685 0.39642
# Poissons Ratio (y) = 0.34789 0.14979
# Poissons Ratio (z) = 0.35943 0.20178
#
# Static dielectric constant tensor:
#      x y z
#    x 3.309290 0.176350 -0.635490 
#    y 0.176350 4.583580 -0.006530 
#    z -0.635490 -0.006530 4.677070 
# 
# 
# High freq. dielectric constant tensor:
#      x y z
#    x 1.964070 -0.004760 -0.018090 
#    y -0.004760 1.986700 -0.007810 
#    z -0.018090 -0.007810 1.960460 
# 
# From -- ./inp_files/545038.got.cif
#   From: 2010.06.25/outbox.cif.g09.slc.cpg/sg2_273_cif.got.tgz:545038.got - 2010.06.27 13:26:56.
