data_PCOD8035641
_publ_section_title
;
Structure prediction by ZEFSAII (Michael W. Deem and Ramdas Pophale) SiO2 
 PCOD8035641
Probable space group: P -1
;
_chemical_formula_sum "Si O2"
_cell_formula_units_Z 12
_cell_length_a 18.182039
_cell_length_b 8.512723
_cell_length_c 14.947959
_cell_angle_alpha 44.395356
_cell_angle_beta 21.137300
_cell_angle_gamma 47.414210
_cell_volume 583.201827
_symmetry_space_group_name_H-M "P -1"
_symmetry_group_IT_number 2
_symmetry_cell_setting 'triclinic'
loop_
_space_group_symop_operation_xyz
x,y,z
-x,-y,-z
loop_
_atom_site_type_symbol
_atom_site_label
_atom_site_fract_x
_atom_site_fract_y
_atom_site_fract_z
Si Si1 0.008017 0.666818 0.669324
Si Si2 0.654730 0.023262 0.897499
Si Si3 0.590769 0.056514 0.622608
Si Si4 0.981453 0.854536 0.170368
Si Si5 0.833579 0.430638 0.285801
Si Si6 0.347471 0.101948 0.703955
O O1 0.200479 0.765512 0.359379
O O2 0.053469 0.701895 0.708167
O O3 0.982132 0.407652 0.781682
O O4 0.795298 0.794764 0.834167
O O5 0.500000 0.000000 0.000000
O O6 0.529970 0.069490 0.111644
O O7 0.672937 0.279640 0.481592
O O8 0.442519 0.136708 0.678756
O O9 0.767428 0.892604 0.448205
O O10 0.159197 0.939733 0.998346
O O11 0.000000 0.000000 0.000000
O O12 0.719708 0.656485 0.359734
O O13 0.000000 0.500000 0.000000
O O14 0.500000 0.000000 0.500000
#
# Coordination Sequence:
#
# PCOD8035641 Si02
#       6
#     2   2   2   2   2   2
#     4  11  25  46  70  98 140 179 227 286 335 398
#     4  11  26  47  71  97 134 187 237 277 325 402
#     4  12  25  42  70 100 137 182 232 270 340 410
#     4  12  24  45  66 104 144 171 217 287 349 406
#     4  12  22  41  69 102 138 173 224 285 341 403
#     4  12  25  40  66 103 142 177 215 278 353 407
#
# _framework density 20.576067999999999
#
# number of rings (size 3 to 8) (size 9 to 14) (size 15 to 20)
#    0.000    0.333    6.667    1.500    2.333    2.000 
#    0.000    1.667    0.000    0.000    0.000    0.000 
#    0.000    0.000    0.000    0.000    0.000    0.000 
#
# Total GULP energy -148843.774504 kJ/mol
# GULP energy per Si atom -12403.647875 kJ/mol
# Density = 2.052924 g / cm^3
# Si number density = 20.576068 Si / 1000 Ang^3
#
#
#
# Elastic Constant Matrix: (Units=GPa)
#
#
# Indices 1 2 3 4 5 6 
#
# 1 139.2853 53.1593 57.9002 -1.7527 -11.2909 -12.9127
# 2 53.1593 136.1207 50.5591 -5.1242 -6.0690 0.1439
# 3 57.9002 50.5591 140.4967 2.1912 11.4311 -7.5045
# 4 -1.7527 -5.1242 2.1912 39.1039 5.0182 -5.1550
# 5 -11.2909 -6.0690 11.4311 5.0182 51.2128 -0.8520
# 6 -12.9127 0.1439 -7.5045 -5.1550 -0.8520 33.2656
#
#
#
# Elastic Compliance Matrix: (Units=1/GPa)
#
#
# Indices 1 2 3 4 5 6 
#
# 1 0.010045 -0.002585 -0.003255 0.000389 0.002652 0.003304
# 2 -0.002585 0.009354 -0.002471 0.000935 0.000975 -0.001431
# 3 -0.003255 -0.002471 0.009650 -0.000512 -0.003101 0.000765
# 4 0.000389 0.000935 -0.000512 0.026566 -0.002224 0.004092
# 5 0.002652 0.000975 -0.003101 -0.002224 0.021145 0.000522
# 6 0.003304 -0.001431 0.000765 0.004092 0.000522 0.032170
#
#
# Mechanical properties :
#
#
# Convention : Reuss Voigt Hill
#
# Bulk Modulus (GPa) = 80.47062 82.12665 81.29863
# Shear Modulus (GPa) = 38.55219 41.66873 40.11046
#
# Velocity S-wave (km/s) = 4.33325 4.50500 4.41996
# Velocity P-wave (km/s) = 8.01435 8.18904 8.10217
#
# Compressibility (1/GPa) = 0.01242690
#
# Stress axis : x y z
#
# Youngs Moduli (GPa) = 99.55002 106.90792 103.63193
#
# Poissons Ratio (x) = 0.27631 0.33732
# Poissons Ratio (y) = 0.25729 0.25610
# Poissons Ratio (z) = 0.32403 0.26420
#
# Static dielectric constant tensor:
#      x y z
#    x 3.920810 0.102000 -0.133420 
#    y 0.102000 3.263180 0.064950 
#    z -0.133420 0.064950 3.982050 
# 
# 
# High freq. dielectric constant tensor:
#      x y z
#    x 1.816550 0.000990 -0.010010 
#    y 0.000990 1.801600 0.004740 
#    z -0.010010 0.004740 1.823010 
# 
# From -- ./inp_files/29194.got.cif
#   From: 2010.06.25/outbox.cif.g09.slc.cpg/sg2_15_cif.got.tgz:29194.got - 2010.06.27 13:26:56.
