data_PCOD8035446
_publ_section_title
;
Structure prediction by ZEFSAII (Michael W. Deem and Ramdas Pophale) SiO2 
 PCOD8035446
Probable space group: P -1
;
_chemical_formula_sum "Si O2"
_cell_formula_units_Z 16
_cell_length_a 9.399229
_cell_length_b 14.792060
_cell_length_c 9.087129
_cell_angle_alpha 39.153294
_cell_angle_beta 111.761300
_cell_angle_gamma 110.061714
_cell_volume 737.541185
_symmetry_space_group_name_H-M "P -1"
_symmetry_group_IT_number 2
_symmetry_cell_setting 'triclinic'
loop_
_space_group_symop_operation_xyz
x,y,z
-x,-y,-z
loop_
_atom_site_type_symbol
_atom_site_label
_atom_site_fract_x
_atom_site_fract_y
_atom_site_fract_z
Si Si1 0.617084 0.387779 0.214245
Si Si2 0.149859 0.430955 0.106130
Si Si3 0.841672 0.077294 0.010985
Si Si4 0.634722 0.334707 0.630323
Si Si5 0.302529 0.383530 0.524340
Si Si6 0.856383 0.895690 0.521500
Si Si7 0.414035 0.135695 0.319208
Si Si8 0.820513 0.862699 0.026536
O O1 0.624940 0.344161 0.440342
O O2 0.553131 0.254182 0.259388
O O3 0.500000 0.500000 0.000000
O O4 0.780048 0.465441 0.127483
O O5 0.266726 0.433485 0.283863
O O6 0.101867 0.267784 0.244798
O O7 0.000000 0.500000 0.000000
O O8 0.734876 0.200109 0.868086
O O9 0.803832 0.015739 0.909154
O O10 0.021916 0.136397 0.007113
O O11 0.814886 0.943055 0.281518
O O12 0.466744 0.315102 0.667515
O O13 0.712017 0.482289 0.541986
O O14 0.178139 0.260952 0.693524
O O15 0.703001 0.903982 0.544305
O O16 0.000000 0.000000 0.500000
O O17 0.322105 0.177131 0.086593
O O18 0.500000 0.000000 0.500000
#
# Coordination Sequence:
#
# PCOD8035446 Si02
#       8
#     2   2   2   2   2   2   2   2
#     4  12  24  49  71  99 144 184 237 292 347 413
#     4  12  29  47  75 102 141 189 232 294 355 418
#     4  11  26  46  71  98 146 185 229 287 354 413
#     4  11  26  44  72 102 136 186 227 288 351 416
#     4  11  25  45  67 103 140 176 235 284 346 417
#     4  12  26  48  69 105 144 180 238 290 343 422
#     4  12  27  43  73 105 140 189 234 289 352 415
#     4  11  25  45  66 100 144 181 229 293 341 422
#
# _framework density 21.693705000000001
#
# number of rings (size 3 to 8) (size 9 to 14) (size 15 to 20)
#    0.000    0.500    5.000    1.500    8.750    1.000 
#    0.000    0.000    0.000    0.000    0.000    0.000 
#    0.000    0.000    0.000    0.000    0.000    0.000 
#
# Total GULP energy -198380.552563 kJ/mol
# GULP energy per Si atom -12398.784535 kJ/mol
# Density = 2.164433 g / cm^3
# Si number density = 21.693705 Si / 1000 Ang^3
#
#
#
# Elastic Constant Matrix: (Units=GPa)
#
#
# Indices 1 2 3 4 5 6 
#
# 1 130.5145 34.3201 47.7569 -32.1220 1.2117 -18.7883
# 2 34.3201 140.6655 37.6781 -21.7953 5.2531 -3.4576
# 3 47.7569 37.6781 92.7642 -14.1840 -12.8198 -5.9087
# 4 -32.1220 -21.7953 -14.1840 44.5272 -3.4895 1.8252
# 5 1.2117 5.2531 -12.8198 -3.4895 37.2776 -8.9091
# 6 -18.7883 -3.4576 -5.9087 1.8252 -8.9091 34.4715
#
#
#
# Elastic Compliance Matrix: (Units=1/GPa)
#
#
# Indices 1 2 3 4 5 6 
#
# 1 0.011852 -0.000519 -0.004539 0.006635 0.000010 0.005281
# 2 -0.000519 0.008556 -0.003144 0.002669 -0.002180 -0.000668
# 3 -0.004539 -0.003144 0.015439 0.000539 0.006299 0.001457
# 4 0.006635 0.002669 0.000539 0.028830 0.003067 0.003243
# 5 0.000010 -0.002180 0.006299 0.003067 0.031713 0.008900
# 6 0.005281 -0.000668 0.001457 0.003243 0.008900 0.034199
#
#
# Mechanical properties :
#
#
# Convention : Reuss Voigt Hill
#
# Bulk Modulus (GPa) = 51.42694 67.05048 59.23871
# Shear Modulus (GPa) = 32.57858 39.53453 36.05656
#
# Velocity S-wave (km/s) = 3.87945 4.27358 4.08128
# Velocity P-wave (km/s) = 6.61999 7.43816 7.04097
#
# Compressibility (1/GPa) = 0.01944506
#
# Stress axis : x y z
#
# Youngs Moduli (GPa) = 84.37155 116.87317 64.76943
#
# Poissons Ratio (x) = 0.06060 0.29398
# Poissons Ratio (y) = 0.04375 0.20364
# Poissons Ratio (z) = 0.38295 0.36746
#
# Static dielectric constant tensor:
#      x y z
#    x 4.029580 -0.088250 -0.013590 
#    y -0.088250 4.032590 -0.046350 
#    z -0.013590 -0.046350 3.761690 
# 
# 
# High freq. dielectric constant tensor:
#      x y z
#    x 1.859370 -0.005600 -0.009420 
#    y -0.005600 1.867280 -0.003490 
#    z -0.009420 -0.003490 1.855880 
# 
# From -- ./inp_files/205412.got.cif
#   From: 2010.06.25/outbox.cif.g09.slc.cpg/sg2_103_cif.got.tgz:205412.got - 2010.06.27 13:26:56.
