data_PCOD8035211
_publ_section_title
;
Structure prediction by ZEFSAII (Michael W. Deem and Ramdas Pophale) SiO2 
 PCOD8035211
Probable space group: P -1
;
_chemical_formula_sum "Si O2"
_cell_formula_units_Z 16
_cell_length_a 11.383139
_cell_length_b 9.058389
_cell_length_c 8.589735
_cell_angle_alpha 65.160484
_cell_angle_beta 108.514142
_cell_angle_gamma 70.724319
_cell_volume 642.162963
_symmetry_space_group_name_H-M "P -1"
_symmetry_group_IT_number 2
_symmetry_cell_setting 'triclinic'
loop_
_space_group_symop_operation_xyz
x,y,z
-x,-y,-z
loop_
_atom_site_type_symbol
_atom_site_label
_atom_site_fract_x
_atom_site_fract_y
_atom_site_fract_z
Si Si1 0.602489 0.082762 0.204226
Si Si2 0.343295 0.236812 0.833027
Si Si3 0.185390 0.645020 0.473448
Si Si4 0.748803 0.336474 0.849051
Si Si5 0.983744 0.700800 0.871486
Si Si6 0.075617 0.101045 0.554048
Si Si7 0.734804 0.998954 0.866146
Si Si8 0.563120 0.277017 0.414930
O O1 0.543638 0.163984 0.315104
O O2 0.619521 0.877277 0.265522
O O3 0.759187 0.057176 0.253962
O O4 0.487770 0.230166 0.960747
O O5 0.217045 0.454588 0.658796
O O6 0.295198 0.139518 0.984810
O O7 0.199340 0.613354 0.309998
O O8 0.292744 0.711199 0.553048
O O9 0.014321 0.790698 0.376549
O O10 0.768336 0.128627 0.934160
O O11 0.580326 0.508288 0.730845
O O12 0.856468 0.325519 0.034389
O O13 0.926132 0.760226 0.643498
O O14 0.870543 0.869183 0.865353
O O15 0.000000 0.500000 0.000000
O O16 0.000000 0.000000 0.500000
O O17 0.589931 0.149974 0.636750
#
# Coordination Sequence:
#
# PCOD8035211 Si02
#       8
#     2   2   2   2   2   2   2   2
#     4  11  27  47  71 108 145 187 232 299 359 427
#     4  11  29  44  73 109 144 185 236 296 369 408
#     4  11  25  48  71 107 142 187 237 297 353 425
#     4  11  28  46  75 102 145 193 240 292 355 429
#     4  12  28  46  70 112 140 190 243 295 359 422
#     4  12  25  48  74 105 141 190 239 290 356 426
#     4  11  24  50  70 103 146 191 238 294 357 426
#     4  11  25  48  75 100 143 192 245 287 353 429
#
# _framework density 24.915794000000002
#
# number of rings (size 3 to 8) (size 9 to 14) (size 15 to 20)
#    0.000    0.750    2.500    3.375   15.750    1.500 
#    0.000    0.000    0.000    0.000    0.000    0.000 
#    0.000    0.000    0.000    0.000    0.000    0.000 
#
# Total GULP energy -198368.528745 kJ/mol
# GULP energy per Si atom -12398.033047 kJ/mol
# Density = 2.485908 g / cm^3
# Si number density = 24.915794 Si / 1000 Ang^3
#
#
#
# Elastic Constant Matrix: (Units=GPa)
#
#
# Indices 1 2 3 4 5 6 
#
# 1 101.4509 31.0151 33.2619 -5.6027 1.0537 -15.1757
# 2 31.0151 103.6979 27.7733 8.4084 -3.8540 -8.5694
# 3 33.2619 27.7733 57.8055 -0.9631 -1.6941 6.8773
# 4 -5.6027 8.4084 -0.9631 47.5388 4.6313 6.1659
# 5 1.0537 -3.8540 -1.6941 4.6313 50.0676 -4.3851
# 6 -15.1757 -8.5694 6.8773 6.1659 -4.3851 42.1293
#
#
#
# Elastic Compliance Matrix: (Units=1/GPa)
#
#
# Indices 1 2 3 4 5 6 
#
# 1 0.013861 -0.001663 -0.007852 0.001049 -0.000279 0.005754
# 2 -0.001663 0.012120 -0.005270 -0.003008 0.001358 0.003308
# 3 -0.007852 -0.005270 0.025357 0.001623 -0.000260 -0.008305
# 4 0.001049 -0.003008 0.001623 0.022508 -0.002637 -0.004067
# 5 -0.000279 0.001358 -0.000260 -0.002637 0.020559 0.002744
# 6 0.005754 0.003308 -0.008305 -0.004067 0.002744 0.028719
#
#
# Mechanical properties :
#
#
# Convention : Reuss Voigt Hill
#
# Bulk Modulus (GPa) = 45.93930 49.67279 47.80604
# Shear Modulus (GPa) = 31.25944 39.34074 35.30009
#
# Velocity S-wave (km/s) = 3.54588 3.97791 3.76809
# Velocity P-wave (km/s) = 5.93652 6.40920 6.17738
#
# Compressibility (1/GPa) = 0.02176786
#
# Stress axis : x y z
#
# Youngs Moduli (GPa) = 72.14277 82.50849 39.43619
#
# Poissons Ratio (x) = 0.13718 0.30967
# Poissons Ratio (y) = 0.11995 0.20784
# Poissons Ratio (z) = 0.56650 0.43485
#
# Static dielectric constant tensor:
#      x y z
#    x 3.913000 0.479270 0.642490 
#    y 0.479270 3.981290 -0.321680 
#    z 0.642490 -0.321680 5.019920 
# 
# 
# High freq. dielectric constant tensor:
#      x y z
#    x 1.992850 -0.007550 0.006510 
#    y -0.007550 1.997710 -0.000010 
#    z 0.006510 -0.000010 2.002530 
# 
# From -- ./inp_files/243105.got.cif
#   From: 2010.06.25/outbox.cif.g09.slc.cpg/sg2_122_cif.got.tgz:243105.got - 2010.06.27 13:26:56.
