data_PCOD8035897
_publ_section_title
;
Structure prediction by ZEFSAII (Michael W. Deem and Ramdas Pophale) SiO2 
 PCOD8035897
Probable space group: P -1
;
_chemical_formula_sum "Si O2"
_cell_formula_units_Z 16
_cell_length_a 11.981741
_cell_length_b 8.862522
_cell_length_c 11.541971
_cell_angle_alpha 66.405998
_cell_angle_beta 137.266551
_cell_angle_gamma 129.648187
_cell_volume 634.870872
_symmetry_space_group_name_H-M "P -1"
_symmetry_group_IT_number 2
_symmetry_cell_setting 'triclinic'
loop_
_space_group_symop_operation_xyz
x,y,z
-x,-y,-z
loop_
_atom_site_type_symbol
_atom_site_label
_atom_site_fract_x
_atom_site_fract_y
_atom_site_fract_z
Si Si1 0.429534 0.318335 0.780556
Si Si2 0.268874 0.303755 0.898944
Si Si3 0.927876 0.117271 0.116507
Si Si4 0.153282 0.604387 0.687837
Si Si5 0.503958 0.174519 0.511751
Si Si6 0.749779 0.729408 0.847195
Si Si7 0.847844 0.612593 0.594659
Si Si8 0.497040 0.958851 0.198341
O O1 0.445647 0.386133 0.910439
O O2 0.623215 0.491533 0.808621
O O3 0.235099 0.293876 0.584949
O O4 0.433075 0.121377 0.831128
O O5 0.187823 0.441090 0.812679
O O6 0.107457 0.084565 0.793080
O O7 0.298147 0.235489 0.069292
O O8 0.018219 0.170528 0.037009
O O9 0.106597 0.292153 0.273654
O O10 0.726580 0.108837 0.969874
O O11 0.000000 0.500000 0.500000
O O12 0.057558 0.664925 0.693248
O O13 0.361218 0.803995 0.751356
O O14 0.316090 0.170970 0.325763
O O15 0.700657 0.378613 0.561974
O O16 0.486684 0.146734 0.644349
O O17 0.500000 0.000000 0.500000
#
# Coordination Sequence:
#
# PCOD8035897 Si02
#       8
#     2   2   2   2   2   2   2   2
#     4  11  26  49  78 109 152 198 251 315 372 456
#     4  12  28  47  77 108 154 197 251 316 373 449
#     4  12  29  48  74 114 156 201 249 311 383 449
#     4  12  28  48  77 114 148 201 257 311 379 451
#     4  11  25  47  82 112 151 197 258 313 372 454
#     4  11  27  49  77 112 150 202 251 309 382 444
#     4  11  26  48  76 114 151 197 254 311 386 444
#     4  12  29  48  78 114 151 202 253 310 381 450
#
# _framework density 25.201974
#
# number of rings (size 3 to 8) (size 9 to 14) (size 15 to 20)
#    0.000    0.500    1.250    4.500   14.000    5.000 
#    0.000    0.000    0.000    0.000    0.000    0.000 
#    0.000    0.000    0.000    0.000    0.000    0.000 
#
# Total GULP energy -198407.550278 kJ/mol
# GULP energy per Si atom -12400.471892 kJ/mol
# Density = 2.514461 g / cm^3
# Si number density = 25.201974 Si / 1000 Ang^3
#
#
#
# Elastic Constant Matrix: (Units=GPa)
#
#
# Indices 1 2 3 4 5 6 
#
# 1 154.1536 47.8252 52.7849 -10.4140 10.5716 -0.2055
# 2 47.8252 124.0511 42.5547 -18.6248 27.9410 -10.2418
# 3 52.7849 42.5547 126.7437 -10.2282 7.0293 0.9767
# 4 -10.4140 -18.6248 -10.2282 26.5252 8.2998 -0.7346
# 5 10.5716 27.9410 7.0293 8.2998 35.1427 2.3385
# 6 -0.2055 -10.2418 0.9767 -0.7346 2.3385 43.9286
#
#
#
# Elastic Compliance Matrix: (Units=1/GPa)
#
#
# Indices 1 2 3 4 5 6 
#
# 1 0.008094 -0.002001 -0.002593 0.000927 -0.000522 -0.000328
# 2 -0.002001 0.015487 -0.002459 0.013906 -0.014815 0.004677
# 3 -0.002593 -0.002459 0.009834 0.000829 0.000627 -0.000823
# 4 0.000927 0.013906 0.000829 0.056163 -0.025131 0.005505
# 5 -0.000522 -0.014815 0.000627 -0.025131 0.046625 -0.006373
# 6 -0.000328 0.004677 -0.000823 0.005505 -0.006373 0.024303
#
#
# Mechanical properties :
#
#
# Convention : Reuss Voigt Hill
#
# Bulk Modulus (GPa) = 51.78818 76.80865 64.29841
# Shear Modulus (GPa) = 27.61720 38.57155 33.09438
#
# Velocity S-wave (km/s) = 3.31393 3.91640 3.62769
# Velocity P-wave (km/s) = 5.93605 7.14103 6.56624
#
# Compressibility (1/GPa) = 0.01930943
#
# Stress axis : x y z
#
# Youngs Moduli (GPa) = 123.55391 64.57094 101.69230
#
# Poissons Ratio (x) = 0.12922 0.26364
# Poissons Ratio (y) = 0.24726 0.25001
# Poissons Ratio (z) = 0.32032 0.15875
#
# Static dielectric constant tensor:
#      x y z
#    x 4.863900 -0.131610 -0.026410 
#    y -0.131610 4.874600 0.052560 
#    z -0.026410 0.052560 4.683080 
# 
# 
# High freq. dielectric constant tensor:
#      x y z
#    x 2.014820 -0.000620 -0.007180 
#    y -0.000620 2.027850 0.010650 
#    z -0.007180 0.010650 2.004200 
# 
# From -- ./inp_files/419316.got.cif
#   From: 2010.06.25/outbox.cif.g09.slc.cpg/sg2_210_cif.got.tgz:419316.got - 2010.06.27 13:26:56.
