data_PCOD8035768
_publ_section_title
;
Structure prediction by ZEFSAII (Michael W. Deem and Ramdas Pophale) SiO2 
 PCOD8035768
Probable space group: P -1
;
_chemical_formula_sum "Si O2"
_cell_formula_units_Z 12
_cell_length_a 7.949893
_cell_length_b 4.961856
_cell_length_c 15.786650
_cell_angle_alpha 112.966857
_cell_angle_beta 56.202802
_cell_angle_gamma 90.964540
_cell_volume 459.867694
_symmetry_space_group_name_H-M "P -1"
_symmetry_group_IT_number 2
_symmetry_cell_setting 'triclinic'
loop_
_space_group_symop_operation_xyz
x,y,z
-x,-y,-z
loop_
_atom_site_type_symbol
_atom_site_label
_atom_site_fract_x
_atom_site_fract_y
_atom_site_fract_z
Si Si1 0.330584 0.274017 0.397493
Si Si2 0.432534 0.420339 0.740585
Si Si3 0.962734 0.579344 0.924013
Si Si4 0.980809 0.529856 0.646143
Si Si5 0.437490 0.960237 0.917344
Si Si6 0.188793 0.825223 0.207701
O O1 0.480802 0.491501 0.362350
O O2 0.155287 0.336249 0.381851
O O3 0.216157 0.354327 0.530238
O O4 0.472907 0.932195 0.313148
O O5 0.182869 0.513237 0.806018
O O6 0.496500 0.613125 0.824703
O O7 0.967343 0.846962 0.737320
O O8 0.000000 0.500000 0.000000
O O9 0.814577 0.922970 0.007892
O O10 0.886668 0.298252 0.698658
O O11 0.572546 0.140299 0.845207
O O12 0.181851 0.607404 0.104205
O O13 0.500000 0.000000 0.000000
#
# Coordination Sequence:
#
# PCOD8035768 Si02
#       6
#     2   2   2   2   2   2
#     4  11  25  46  77 110 147 190 245 310 376 437
#     4  12  26  48  73 110 148 200 237 305 383 440
#     4  12  29  48  73 109 157 200 241 304 381 442
#     4  11  25  46  77 113 142 188 253 313 363 432
#     4  12  27  48  79 110 146 199 259 306 357 441
#     4  12  26  48  77 111 144 197 251 310 354 443
#
# _framework density 26.094460999999999
#
# number of rings (size 3 to 8) (size 9 to 14) (size 15 to 20)
#    0.000    0.333    1.667    6.000    4.667    6.667 
#    0.000    5.000    0.000    0.000    0.000    0.000 
#    0.000    0.000    0.000    0.000    0.000    0.000 
#
# Total GULP energy -148746.411963 kJ/mol
# GULP energy per Si atom -12395.534330 kJ/mol
# Density = 2.603507 g / cm^3
# Si number density = 26.094461 Si / 1000 Ang^3
#
#
#
# Elastic Constant Matrix: (Units=GPa)
#
#
# Indices 1 2 3 4 5 6 
#
# 1 64.8181 16.3836 24.2079 0.8427 -27.6179 -10.3530
# 2 16.3836 125.5003 32.6054 -5.9733 -24.2667 -1.4323
# 3 24.2079 32.6054 138.0469 2.2331 -42.8363 -15.6585
# 4 0.8427 -5.9733 2.2331 41.4662 1.3036 -6.6999
# 5 -27.6179 -24.2667 -42.8363 1.3036 44.6642 3.8147
# 6 -10.3530 -1.4323 -15.6585 -6.6999 3.8147 33.6547
#
#
#
# Elastic Compliance Matrix: (Units=1/GPa)
#
#
# Indices 1 2 3 4 5 6 
#
# 1 0.021979 -0.000412 0.001267 -0.000094 0.014097 0.005717
# 2 -0.000412 0.009047 -0.000970 0.001185 0.003728 -0.000380
# 3 0.001267 -0.000970 0.010969 -0.000407 0.010431 0.004189
# 4 -0.000094 0.001185 -0.000407 0.025140 -0.000961 0.004946
# 5 0.014097 0.003728 0.010431 -0.000961 0.042796 0.004306
# 6 0.005717 -0.000380 0.004189 0.004946 0.004306 0.033901
#
#
# Mechanical properties :
#
#
# Convention : Reuss Voigt Hill
#
# Bulk Modulus (GPa) = 23.94279 52.75101 38.34690
# Shear Modulus (GPa) = 31.64869 40.96824 36.30847
#
# Velocity S-wave (km/s) = 3.48638 3.96662 3.73423
# Velocity P-wave (km/s) = 5.04002 6.42169 5.77234
#
# Compressibility (1/GPa) = 0.04176622
#
# Stress axis : x y z
#
# Youngs Moduli (GPa) = 45.49709 110.53594 91.16340
#
# Poissons Ratio (x) = 0.04554 -0.11553
# Poissons Ratio (y) = 0.01875 0.08842
# Poissons Ratio (z) = -0.05766 0.10721
#
# Static dielectric constant tensor:
#      x y z
#    x 4.528070 0.252620 -0.107390 
#    y 0.252620 4.869620 0.201770 
#    z -0.107390 0.201770 5.398370 
# 
# 
# High freq. dielectric constant tensor:
#      x y z
#    x 2.021240 0.006330 -0.015400 
#    y 0.006330 2.055840 0.006180 
#    z -0.015400 0.006180 2.069170 
# 
# From -- ./inp_files/132524.got.cif
#   From: 2010.06.25/outbox.cif.g09.slc.cpg/sg2_67_cif.got.tgz:132524.got - 2010.06.27 13:26:56.
