data_PCOD8035330
_publ_section_title
;
Structure prediction by ZEFSAII (Michael W. Deem and Ramdas Pophale) SiO2 
 PCOD8035330
Probable space group: P -1
;
_chemical_formula_sum "Si O2"
_cell_formula_units_Z 12
_cell_length_a 15.362663
_cell_length_b 10.120424
_cell_length_c 15.353905
_cell_angle_alpha 133.949501
_cell_angle_beta 18.343863
_cell_angle_gamma 135.768926
_cell_volume 523.012943
_symmetry_space_group_name_H-M "P -1"
_symmetry_group_IT_number 2
_symmetry_cell_setting 'triclinic'
loop_
_space_group_symop_operation_xyz
x,y,z
-x,-y,-z
loop_
_atom_site_type_symbol
_atom_site_label
_atom_site_fract_x
_atom_site_fract_y
_atom_site_fract_z
Si Si1 0.031622 0.456190 0.208283
Si Si2 0.460238 0.096103 0.853732
Si Si3 0.536800 0.564191 0.346062
Si Si4 0.766795 0.109942 0.746825
Si Si5 0.000609 0.688123 0.638675
Si Si6 0.708037 0.325362 0.201394
O O1 0.169585 0.678226 0.181026
O O2 0.696852 0.434960 0.504438
O O3 0.086331 0.354555 0.197953
O O4 0.160729 0.364601 0.960533
O O5 0.692352 0.110938 0.716575
O O6 0.679804 0.170492 0.599502
O O7 0.250184 0.885342 0.943790
O O8 0.243336 0.226944 0.134793
O O9 0.520943 0.358193 0.310437
O O10 0.486812 0.688344 0.533069
O O11 0.000000 0.000000 0.500000
O O12 0.500000 0.000000 0.000000
O O13 0.000000 0.500000 0.500000
O O14 0.000000 0.500000 0.000000
#
# Coordination Sequence:
#
# PCOD8035330 Si02
#       6
#     2   2   2   2   2   2
#     4  12  24  45  69 101 144 183 236 292 354 411
#     4  12  27  45  74 105 140 192 244 279 363 430
#     4  11  25  43  75 102 139 183 231 295 360 414
#     4  12  25  40  69 107 142 173 236 299 362 423
#     4  12  27  48  71 101 148 198 233 291 349 427
#     4  11  25  48  76 103 146 183 235 295 369 411
#
# _framework density 22.943984
#
# number of rings (size 3 to 8) (size 9 to 14) (size 15 to 20)
#    0.000    0.333    3.333    5.500    7.000    0.000 
#    0.000    5.000    0.000    0.000    0.000    0.000 
#    0.000    0.000    0.000    0.000    0.000    0.000 
#
# Total GULP energy -148691.204735 kJ/mol
# GULP energy per Si atom -12390.933728 kJ/mol
# Density = 2.289176 g / cm^3
# Si number density = 22.943984 Si / 1000 Ang^3
#
#
#
# Elastic Constant Matrix: (Units=GPa)
#
#
# Indices 1 2 3 4 5 6 
#
# 1 109.7863 33.9989 44.5283 14.6325 0.9700 -20.4578
# 2 33.9989 93.8899 58.2871 19.5969 -16.9086 -9.2149
# 3 44.5283 58.2871 156.7825 9.5937 -6.5615 -8.8654
# 4 14.6325 19.5969 9.5937 34.7308 -2.4201 -3.1756
# 5 0.9700 -16.9086 -6.5615 -2.4201 46.3324 -0.6271
# 6 -20.4578 -9.2149 -8.8654 -3.1756 -0.6271 23.6904
#
#
#
# Elastic Compliance Matrix: (Units=1/GPa)
#
#
# Indices 1 2 3 4 5 6 
#
# 1 0.012689 -0.001956 -0.002250 -0.002897 -0.001329 0.008931
# 2 -0.001956 0.017076 -0.005025 -0.006848 0.005234 0.002293
# 3 -0.002250 -0.005025 0.008760 0.001288 -0.000485 -0.000459
# 4 -0.002897 -0.006848 0.001288 0.033467 -0.000511 -0.000211
# 5 -0.001329 0.005234 -0.000485 -0.000511 0.023443 0.001259
# 6 0.008931 0.002293 -0.000459 -0.000211 0.001259 0.050649
#
#
# Mechanical properties :
#
#
# Convention : Reuss Voigt Hill
#
# Bulk Modulus (GPa) = 49.84296 70.45416 60.14856
# Shear Modulus (GPa) = 29.19992 35.86035 32.53014
#
# Velocity S-wave (km/s) = 3.57131 3.95771 3.76946
# Velocity P-wave (km/s) = 6.22708 7.18737 6.72439
#
# Compressibility (1/GPa) = 0.02006301
#
# Stress axis : x y z
#
# Youngs Moduli (GPa) = 78.80809 58.56272 114.15124
#
# Poissons Ratio (x) = 0.11456 0.25683
# Poissons Ratio (y) = 0.15417 0.57360
# Poissons Ratio (z) = 0.17731 0.29427
#
# Static dielectric constant tensor:
#      x y z
#    x 4.136640 -0.266970 0.021370 
#    y -0.266970 4.158020 -0.048700 
#    z 0.021370 -0.048700 4.289120 
# 
# 
# High freq. dielectric constant tensor:
#      x y z
#    x 1.911310 -0.020390 -0.000150 
#    y -0.020390 1.890970 0.000870 
#    z -0.000150 0.000870 1.926640 
# 
# From -- ./inp_files/311962.got.cif
#   From: 2010.06.25/outbox.cif.g09.slc.cpg/sg2_156_cif.got.tgz:311962.got - 2010.06.27 13:26:56.
