data_PCOD8035568
_publ_section_title
;
Structure prediction by ZEFSAII (Michael W. Deem and Ramdas Pophale) SiO2 
 PCOD8035568
Probable space group: P -1
;
_chemical_formula_sum "Si O2"
_cell_formula_units_Z 14
_cell_length_a 5.170249
_cell_length_b 6.646046
_cell_length_c 26.083228
_cell_angle_alpha 63.792866
_cell_angle_beta 66.222435
_cell_angle_gamma 48.217457
_cell_volume 591.621855
_symmetry_space_group_name_H-M "P -1"
_symmetry_group_IT_number 2
_symmetry_cell_setting 'triclinic'
loop_
_space_group_symop_operation_xyz
x,y,z
-x,-y,-z
loop_
_atom_site_type_symbol
_atom_site_label
_atom_site_fract_x
_atom_site_fract_y
_atom_site_fract_z
Si Si1 0.741770 0.440258 0.214520
Si Si2 0.563572 0.815540 0.689188
Si Si3 0.634114 0.393962 0.116410
Si Si4 0.812047 0.020423 0.960943
Si Si5 0.322825 0.506925 0.461372
Si Si6 0.876622 0.094345 0.384184
Si Si7 0.496560 0.990513 0.222876
O O1 0.405110 0.453638 0.259967
O O2 0.763793 0.461013 0.149440
O O3 0.078714 0.138193 0.241170
O O4 0.729193 0.690005 0.212403
O O5 0.329219 0.920179 0.645128
O O6 0.372506 0.043744 0.725064
O O7 0.949991 0.741537 0.657436
O O8 0.518935 0.199770 0.162397
O O9 0.937881 0.237493 0.067699
O O10 0.310658 0.689672 0.087444
O O11 0.500000 0.000000 0.000000
O O12 0.000000 0.000000 0.000000
O O13 0.500000 0.500000 0.500000
O O14 0.605893 0.236471 0.436482
O O15 0.000000 0.500000 0.500000
O O16 0.197396 0.780181 0.408258
#
# Coordination Sequence:
#
# PCOD8035568 Si02
#       7
#     2   2   2   2   2   2   2
#     4  11  25  45  75 103 149 186 235 287 348 450
#     4  11  26  47  70 114 144 187 234 289 366 420
#     4  11  26  46  74 106 142 192 236 289 366 420
#     4  12  28  48  74 104 142 184 242 304 354 416
#     4  12  26  48  72 104 140 190 246 292 350 416
#     4  12  26  45  76 104 148 185 234 302 352 416
#     4  11  25  45  75 103 149 186 235 287 348 450
#
# _framework density 23.663764
#
# number of rings (size 3 to 8) (size 9 to 14) (size 15 to 20)
#    0.000    0.571    1.429    5.143    8.000    5.714 
#    0.000    0.000    0.000    0.000    0.000    0.000 
#    0.000    0.000    0.000    0.000    0.000    0.000 
#
# Total GULP energy -173600.652964 kJ/mol
# GULP energy per Si atom -12400.046640 kJ/mol
# Density = 2.360990 g / cm^3
# Si number density = 23.663764 Si / 1000 Ang^3
#
#
#
# Elastic Constant Matrix: (Units=GPa)
#
#
# Indices 1 2 3 4 5 6 
#
# 1 155.1861 25.2004 64.8760 20.3876 22.3938 18.2895
# 2 25.2004 104.0495 34.7160 22.7633 29.1266 10.3513
# 3 64.8760 34.7160 126.9905 21.8497 32.4279 18.2797
# 4 20.3876 22.7633 21.8497 31.9160 8.0655 5.8417
# 5 22.3938 29.1266 32.4279 8.0655 57.3346 0.9808
# 6 18.2895 10.3513 18.2797 5.8417 0.9808 35.8245
#
#
#
# Elastic Compliance Matrix: (Units=1/GPa)
#
#
# Indices 1 2 3 4 5 6 
#
# 1 0.008600 0.000149 -0.003377 -0.002591 -0.001122 -0.002257
# 2 0.000149 0.013078 -0.000775 -0.007181 -0.005217 -0.002146
# 3 -0.003377 -0.000775 0.012133 -0.003805 -0.004554 -0.003498
# 4 -0.002591 -0.007181 -0.003805 0.040676 0.001113 -0.001324
# 5 -0.001122 -0.005217 -0.004554 0.001113 0.022888 0.003596
# 6 -0.002257 -0.002146 -0.003498 -0.001324 0.003596 0.031588
#
#
# Mechanical properties :
#
#
# Convention : Reuss Voigt Hill
#
# Bulk Modulus (GPa) = 38.75091 70.64564 54.69828
# Shear Modulus (GPa) = 34.34791 42.44393 38.39592
#
# Velocity S-wave (km/s) = 3.81399 4.23972 4.03247
# Velocity P-wave (km/s) = 5.98385 7.34069 6.69672
#
# Compressibility (1/GPa) = 0.02580584
#
# Stress axis : x y z
#
# Youngs Moduli (GPa) = 116.28307 76.46345 82.42080
#
# Poissons Ratio (x) = -0.01142 0.27833
# Poissons Ratio (y) = -0.01737 0.06386
# Poissons Ratio (z) = 0.39269 0.05925
#
# Static dielectric constant tensor:
#      x y z
#    x 4.326560 0.123440 0.048180 
#    y 0.123440 4.209780 0.062520 
#    z 0.048180 0.062520 4.450020 
# 
# 
# High freq. dielectric constant tensor:
#      x y z
#    x 1.951550 0.010200 0.000570 
#    y 0.010200 1.932170 0.008410 
#    z 0.000570 0.008410 1.958540 
# 
# From -- ./inp_files/603140.got.cif
#   From: 2010.06.25/outbox.cif.g09.slc.cpg/sg2_302_cif.got.tgz:603140.got - 2010.06.27 13:26:56.
