data_PCOD8035583
_publ_section_title
;
Structure prediction by ZEFSAII (Michael W. Deem and Ramdas Pophale) SiO2 
 PCOD8035583
Probable space group: P -1
;
_chemical_formula_sum "Si O2"
_cell_formula_units_Z 12
_cell_length_a 8.806481
_cell_length_b 9.721377
_cell_length_c 8.298012
_cell_angle_alpha 49.306141
_cell_angle_beta 84.197235
_cell_angle_gamma 107.821242
_cell_volume 466.185953
_symmetry_space_group_name_H-M "P -1"
_symmetry_group_IT_number 2
_symmetry_cell_setting 'triclinic'
loop_
_space_group_symop_operation_xyz
x,y,z
-x,-y,-z
loop_
_atom_site_type_symbol
_atom_site_label
_atom_site_fract_x
_atom_site_fract_y
_atom_site_fract_z
Si Si1 0.309054 0.951332 0.092081
Si Si2 0.844263 0.316025 0.985110
Si Si3 0.167363 0.035790 0.555642
Si Si4 0.461723 0.677402 0.816335
Si Si5 0.794501 0.394197 0.385360
Si Si6 0.823849 0.797811 0.226038
O O1 0.244430 0.823827 0.363106
O O2 0.172906 0.799438 0.091308
O O3 0.500000 0.000000 0.000000
O O4 0.312456 0.174004 0.900866
O O5 0.664487 0.319437 0.032616
O O6 0.878124 0.194176 0.216075
O O7 0.025304 0.535897 0.786387
O O8 0.345822 0.118889 0.367745
O O9 0.206184 0.188565 0.589410
O O10 0.000000 0.000000 0.500000
O O11 0.365765 0.643634 0.682241
O O12 0.500000 0.500000 0.000000
O O13 0.814947 0.576047 0.368268
O O14 0.000000 0.000000 0.000000
#
# Coordination Sequence:
#
# PCOD8035583 Si02
#       6
#     2   2   2   2   2   2
#     4  11  26  44  74 109 146 189 242 308 362 435
#     4  11  25  49  68 107 145 192 246 294 368 435
#     4  11  25  48  74 106 148 193 238 304 366 438
#     4  12  29  45  71 108 146 194 243 300 368 437
#     4  12  25  50  76 106 149 193 243 309 361 436
#     4  11  25  45  76 109 141 189 251 294 372 430
#
# _framework density 25.7408
#
# number of rings (size 3 to 8) (size 9 to 14) (size 15 to 20)
#    0.000    0.667    3.333    4.500    4.667    2.667 
#    0.000    0.000    0.000    0.000    0.000    0.000 
#    0.000    0.000    0.000    0.000    0.000    0.000 
#
# Total GULP energy -148697.781392 kJ/mol
# GULP energy per Si atom -12391.481783 kJ/mol
# Density = 2.568221 g / cm^3
# Si number density = 25.740800 Si / 1000 Ang^3
#
#
#
# Elastic Constant Matrix: (Units=GPa)
#
#
# Indices 1 2 3 4 5 6 
#
# 1 172.2222 21.4745 55.8978 14.8882 -22.2120 14.8303
# 2 21.4745 77.9728 15.8730 2.4359 5.7438 -4.7153
# 3 55.8978 15.8730 155.6164 17.2827 -10.0369 12.2114
# 4 14.8882 2.4359 17.2827 15.3884 10.7941 -0.9379
# 5 -22.2120 5.7438 -10.0369 10.7941 59.8920 -2.0821
# 6 14.8303 -4.7153 12.2114 -0.9379 -2.0821 49.8967
#
#
#
# Elastic Compliance Matrix: (Units=1/GPa)
#
#
# Indices 1 2 3 4 5 6 
#
# 1 0.008077 -0.002178 -0.001128 -0.009619 0.004669 -0.002317
# 2 -0.002178 0.013954 -0.001424 0.003724 -0.002977 0.002260
# 3 -0.001128 -0.001424 0.008471 -0.010379 0.002941 -0.001945
# 4 -0.009619 0.003724 -0.010379 0.102537 -0.023911 0.006681
# 5 0.004669 -0.002977 0.002941 -0.023911 0.023451 -0.001860
# 6 -0.002317 0.002260 -0.001945 0.006681 -0.001860 0.021467
#
#
# Mechanical properties :
#
#
# Convention : Reuss Voigt Hill
#
# Bulk Modulus (GPa) = 47.52273 65.81134 56.66704
# Shear Modulus (GPa) = 25.71570 45.87317 35.79443
#
# Velocity S-wave (km/s) = 3.16416 4.22609 3.73308
# Velocity P-wave (km/s) = 5.64370 7.03105 6.37522
#
# Compressibility (1/GPa) = 0.02104256
#
# Stress axis : x y z
#
# Youngs Moduli (GPa) = 123.80315 71.66151 118.04359
#
# Poissons Ratio (x) = 0.15611 0.13316
# Poissons Ratio (y) = 0.26970 0.16808
# Poissons Ratio (z) = 0.13965 0.10204
#
# Static dielectric constant tensor:
#      x y z
#    x -35.158190 -8.231260 6.103310 
#    y -8.231260 2.941420 1.217950 
#    z 6.103310 1.217950 3.724510 
# 
# 
# High freq. dielectric constant tensor:
#      x y z
#    x 2.056010 0.002540 0.002260 
#    y 0.002540 2.024210 0.004530 
#    z 0.002260 0.004530 2.034920 
# 
# From -- ./inp_files/183813.got.cif
#   From: 2010.06.25/outbox.cif.g09.slc.cpg/sg2_92_cif.got.tgz:183813.got - 2010.06.27 13:26:56.
