data_PCOD8035499
_publ_section_title
;
Structure prediction by ZEFSAII (Michael W. Deem and Ramdas Pophale) SiO2 
 PCOD8035499
Probable space group: P -1
;
_chemical_formula_sum "Si O2"
_cell_formula_units_Z 14
_cell_length_a 9.164825
_cell_length_b 13.957736
_cell_length_c 12.509331
_cell_angle_alpha 149.023179
_cell_angle_beta 115.803642
_cell_angle_gamma 51.989211
_cell_volume 631.736618
_symmetry_space_group_name_H-M "P -1"
_symmetry_group_IT_number 2
_symmetry_cell_setting 'triclinic'
loop_
_space_group_symop_operation_xyz
x,y,z
-x,-y,-z
loop_
_atom_site_type_symbol
_atom_site_label
_atom_site_fract_x
_atom_site_fract_y
_atom_site_fract_z
Si Si1 0.503668 0.204156 0.148596
Si Si2 0.686095 0.291224 0.820917
Si Si3 0.557704 0.903735 0.201381
Si Si4 0.212792 0.692682 0.565031
Si Si5 0.811980 0.851349 0.563574
Si Si6 0.802925 0.104382 0.469931
Si Si7 0.853170 0.555511 0.101508
O O1 0.334848 0.429925 0.361251
O O2 0.699323 0.192279 0.228029
O O3 0.487974 0.201143 0.013346
O O4 0.500000 0.000000 0.000000
O O5 0.646060 0.265766 0.660054
O O6 0.742440 0.079099 0.702598
O O7 0.500000 0.500000 0.000000
O O8 0.862109 0.333116 0.925674
O O9 0.641354 0.726688 0.153698
O O10 0.360599 0.116254 0.384984
O O11 0.723508 0.949082 0.262204
O O12 0.191136 0.763559 0.501970
O O13 0.000563 0.780388 0.626269
O O14 0.884637 0.659308 0.315700
O O15 0.000000 0.000000 0.500000
O O16 0.000000 0.500000 0.000000
#
# Coordination Sequence:
#
# PCOD8035499 Si02
#       7
#     2   2   2   2   2   2   2
#     4  11  25  48  73  95 126 183 238 281 328 399
#     4  12  23  38  62  98 141 182 209 266 350 402
#     4  12  23  42  67  94 140 176 220 286 334 396
#     4  11  25  45  71  97 133 174 235 281 328 403
#     4  12  25  43  63 105 144 171 224 285 340 412
#     4  12  22  41  69 102 134 176 220 276 332 407
#     4  12  24  39  66 100 137 183 224 269 337 405
#
# _framework density 22.161133
#
# number of rings (size 3 to 8) (size 9 to 14) (size 15 to 20)
#    0.000    0.286    5.714    4.714    0.000    1.714 
#    0.000    0.714    0.000    0.000    0.000    0.000 
#    0.000    0.000    0.000    0.000    0.000    0.000 
#
# Total GULP energy -173543.516444 kJ/mol
# GULP energy per Si atom -12395.965460 kJ/mol
# Density = 2.211069 g / cm^3
# Si number density = 22.161133 Si / 1000 Ang^3
#
#
#
# Elastic Constant Matrix: (Units=GPa)
#
#
# Indices 1 2 3 4 5 6 
#
# 1 101.1376 18.9996 23.3537 -4.9905 13.7179 -24.3300
# 2 18.9996 67.0275 12.8870 -15.7959 19.1125 -17.9823
# 3 23.3537 12.8870 106.5175 -14.8496 17.4136 -11.5857
# 4 -4.9905 -15.7959 -14.8496 32.6151 4.0336 14.1658
# 5 13.7179 19.1125 17.4136 4.0336 42.3733 7.3485
# 6 -24.3300 -17.9823 -11.5857 14.1658 7.3485 37.4437
#
#
#
# Elastic Compliance Matrix: (Units=1/GPa)
#
#
# Indices 1 2 3 4 5 6 
#
# 1 0.013215 0.000287 -0.001226 -0.002168 -0.005473 0.010240
# 2 0.000287 0.023937 0.001993 0.009291 -0.014614 0.011652
# 3 -0.001226 0.001993 0.011525 0.005561 -0.006262 0.002852
# 4 -0.002168 0.009291 0.005561 0.042600 -0.008139 -0.009745
# 5 -0.005473 -0.014614 -0.006262 -0.008139 0.038249 -0.016940
# 6 0.010240 0.011652 0.002852 -0.009745 -0.016940 0.046850
#
#
# Mechanical properties :
#
#
# Convention : Reuss Voigt Hill
#
# Bulk Modulus (GPa) = 19.69092 42.79594 31.24343
# Shear Modulus (GPa) = 26.15097 37.11590 31.63343
#
# Velocity S-wave (km/s) = 3.43889 4.09690 3.78223
# Velocity P-wave (km/s) = 4.96715 6.46008 5.76217
#
# Compressibility (1/GPa) = 0.05078482
#
# Stress axis : x y z
#
# Youngs Moduli (GPa) = 75.66907 41.77566 86.76842
#
# Poissons Ratio (x) = -0.01197 0.10636
# Poissons Ratio (y) = -0.02168 -0.17291
# Poissons Ratio (z) = 0.09276 -0.08325
#
# Static dielectric constant tensor:
#      x y z
#    x 2.223430 -0.355400 -0.576180 
#    y -0.355400 4.106380 0.092510 
#    z -0.576180 0.092510 4.270120 
# 
# 
# High freq. dielectric constant tensor:
#      x y z
#    x 1.880590 -0.017440 0.009700 
#    y -0.017440 1.851440 0.006910 
#    z 0.009700 0.006910 1.887170 
# 
# From -- ./inp_files/400161.got.cif
#   From: 2010.06.25/outbox.cif.g09.slc.cpg/sg2_201_cif.got.tgz:400161.got - 2010.06.27 13:26:56.
