data_PCOD8035909
_publ_section_title
;
Structure prediction by ZEFSAII (Michael W. Deem and Ramdas Pophale) SiO2 
 PCOD8035909
Probable space group: P -1
;
_chemical_formula_sum "Si O2"
_cell_formula_units_Z 16
_cell_length_a 9.308386
_cell_length_b 13.871689
_cell_length_c 6.265398
_cell_angle_alpha 70.980946
_cell_angle_beta 100.377131
_cell_angle_gamma 72.706190
_cell_volume 695.033125
_symmetry_space_group_name_H-M "P -1"
_symmetry_group_IT_number 2
_symmetry_cell_setting 'triclinic'
loop_
_space_group_symop_operation_xyz
x,y,z
-x,-y,-z
loop_
_atom_site_type_symbol
_atom_site_label
_atom_site_fract_x
_atom_site_fract_y
_atom_site_fract_z
Si Si1 0.784603 0.283880 0.489826
Si Si2 0.692995 0.711466 0.638381
Si Si3 0.506991 0.618705 0.926872
Si Si4 0.161685 0.188084 0.072036
Si Si5 0.673690 0.996700 0.073602
Si Si6 0.024780 0.376586 0.546050
Si Si7 0.572847 0.241755 0.792947
Si Si8 0.948384 0.900101 0.517166
O O1 0.662557 0.294900 0.259667
O O2 0.697797 0.284676 0.688495
O O3 0.849836 0.382375 0.434190
O O4 0.936833 0.171276 0.586113
O O5 0.649195 0.616136 0.811219
O O6 0.699771 0.794599 0.765899
O O7 0.860220 0.662582 0.598116
O O8 0.554537 0.774567 0.389593
O O9 0.500000 0.500000 0.000000
O O10 0.526261 0.664279 0.131700
O O11 0.033822 0.174217 0.212503
O O12 0.231258 0.071987 0.053273
O O13 0.085827 0.294261 0.822956
O O14 0.767518 0.937724 0.355375
O O15 0.500000 0.000000 0.000000
O O16 0.670418 0.120199 0.997105
O O17 0.000000 0.500000 0.500000
O O18 0.000000 0.000000 0.500000
#
# Coordination Sequence:
#
# PCOD8035909 Si02
#       8
#     2   2   2   2   2   2   2   2
#     4  11  26  45  68 110 141 183 243 295 359 431
#     4  11  25  48  70 105 143 188 242 295 357 439
#     4  11  27  45  75 102 143 192 241 302 361 427
#     4  12  25  46  72 102 145 186 241 294 358 427
#     4  12  25  44  73 104 143 194 242 296 361 435
#     4  12  28  45  74 104 142 190 240 298 359 426
#     4  11  26  46  72 105 146 187 239 292 366 430
#     4  12  26  44  72 108 148 190 239 296 366 432
#
# _framework density 23.020488
#
# number of rings (size 3 to 8) (size 9 to 14) (size 15 to 20)
#    0.000    0.500    2.500    4.500    8.750    6.500 
#    0.000    0.000    0.000    0.000    0.000    0.000 
#    0.000    0.000    0.000    0.000    0.000    0.000 
#
# Total GULP energy -198382.998512 kJ/mol
# GULP energy per Si atom -12398.937407 kJ/mol
# Density = 2.296809 g / cm^3
# Si number density = 23.020488 Si / 1000 Ang^3
#
#
#
# Elastic Constant Matrix: (Units=GPa)
#
#
# Indices 1 2 3 4 5 6 
#
# 1 134.2578 17.3421 42.0763 1.6042 -17.7382 13.0793
# 2 17.3421 136.3683 38.1021 2.4936 -13.4226 14.0616
# 3 42.0763 38.1021 104.2824 6.8745 -18.3991 4.4843
# 4 1.6042 2.4936 6.8745 31.8164 7.7066 -0.3936
# 5 -17.7382 -13.4226 -18.3991 7.7066 38.4326 2.5936
# 6 13.0793 14.0616 4.4843 -0.3936 2.5936 40.0770
#
#
#
# Elastic Compliance Matrix: (Units=1/GPa)
#
#
# Indices 1 2 3 4 5 6 
#
# 1 0.009076 0.000326 -0.003055 -0.000626 0.003165 -0.002946
# 2 0.000326 0.008582 -0.002710 -0.000669 0.002184 -0.002962
# 3 -0.003055 -0.002710 0.012822 -0.003484 0.004468 0.000190
# 4 -0.000626 -0.000669 -0.003484 0.034525 -0.009233 0.001766
# 5 0.003165 0.002184 0.004468 -0.009233 0.032537 -0.004495
# 6 -0.002946 -0.002962 0.000190 0.001766 -0.004495 0.027240
#
#
# Mechanical properties :
#
#
# Convention : Reuss Voigt Hill
#
# Bulk Modulus (GPa) = 51.01647 63.32774 57.17211
# Shear Modulus (GPa) = 35.16346 40.55772 37.86059
#
# Velocity S-wave (km/s) = 3.91255 4.20195 4.05983
# Velocity P-wave (km/s) = 6.52841 7.14918 6.84584
#
# Compressibility (1/GPa) = 0.01960151
#
# Stress axis : x y z
#
# Youngs Moduli (GPa) = 110.17801 116.52966 77.99154
#
# Poissons Ratio (x) = -0.03799 0.23826
# Poissons Ratio (y) = -0.03592 0.21137
# Poissons Ratio (z) = 0.33658 0.31581
#
# Static dielectric constant tensor:
#      x y z
#    x 4.226930 -0.136050 -0.082820 
#    y -0.136050 3.631360 -0.145490 
#    z -0.082820 -0.145490 4.326400 
# 
# 
# High freq. dielectric constant tensor:
#      x y z
#    x 1.924050 0.018510 -0.002570 
#    y 0.018510 1.909040 0.008060 
#    z -0.002570 0.008060 1.912950 
# 
# From -- ./inp_files/37553.got.cif
#   From: 2010.06.25/outbox.cif.g09.slc.cpg/sg2_19_cif.got.tgz:37553.got - 2010.06.27 13:26:56.
