data_PCOD8035533
_publ_section_title
;
Structure prediction by ZEFSAII (Michael W. Deem and Ramdas Pophale) SiO2 
 PCOD8035533
Probable space group: P -1
;
_chemical_formula_sum "Si O2"
_cell_formula_units_Z 12
_cell_length_a 14.405419
_cell_length_b 8.527425
_cell_length_c 14.073975
_cell_angle_alpha 139.532425
_cell_angle_beta 29.009014
_cell_angle_gamma 141.194829
_cell_volume 507.225379
_symmetry_space_group_name_H-M "P -1"
_symmetry_group_IT_number 2
_symmetry_cell_setting 'triclinic'
loop_
_space_group_symop_operation_xyz
x,y,z
-x,-y,-z
loop_
_atom_site_type_symbol
_atom_site_label
_atom_site_fract_x
_atom_site_fract_y
_atom_site_fract_z
Si Si1 0.192319 0.318239 0.566171
Si Si2 0.024825 0.412547 0.568937
Si Si3 0.590880 0.063320 0.753388
Si Si4 0.060435 0.978036 0.829035
Si Si5 0.517212 0.869798 0.524425
Si Si6 0.840735 0.954235 0.836020
O O1 0.315350 0.621774 0.613158
O O2 0.089604 0.269390 0.532038
O O3 0.004491 0.206038 0.755807
O O4 0.357026 0.180589 0.368526
O O5 0.779195 0.321110 0.733820
O O6 0.111903 0.718063 0.646520
O O7 0.120353 0.311375 0.346963
O O8 0.553953 0.055895 0.669453
O O9 0.390008 0.068888 0.990883
O O10 0.276654 0.201762 0.707954
O O11 0.877185 0.991345 0.933849
O O12 0.000000 0.000000 0.000000
O O13 0.500000 0.000000 0.500000
#
# Coordination Sequence:
#
# PCOD8035533 Si02
#       6
#     2   2   2   2   2   2
#     4  11  25  45  74 104 148 186 235 300 351 420
#     4  11  25  48  71 105 146 188 237 298 350 419
#     4  11  25  45  73 106 140 192 238 289 361 421
#     4  12  26  46  72 107 144 188 241 295 355 421
#     4  12  24  46  70 105 146 185 238 296 353 420
#     4  11  25  45  75 103 144 189 238 293 358 420
#
# _framework density 23.658124000000001
#
# number of rings (size 3 to 8) (size 9 to 14) (size 15 to 20)
#    0.000    0.667    5.000    4.000    0.000    6.667 
#    0.000    0.000    0.000    0.000    0.000    0.000 
#    0.000    0.000    0.000    0.000    0.000    0.000 
#
# Total GULP energy -148751.698157 kJ/mol
# GULP energy per Si atom -12395.974846 kJ/mol
# Density = 2.360428 g / cm^3
# Si number density = 23.658124 Si / 1000 Ang^3
#
#
#
# Elastic Constant Matrix: (Units=GPa)
#
#
# Indices 1 2 3 4 5 6 
#
# 1 144.9803 25.3387 38.0808 -7.9406 -1.0827 8.7745
# 2 25.3387 99.1328 47.3832 -13.6011 3.5185 11.0957
# 3 38.0808 47.3832 147.6535 -38.3276 -16.7695 16.0260
# 4 -7.9406 -13.6011 -38.3276 29.8841 7.1678 -6.7529
# 5 -1.0827 3.5185 -16.7695 7.1678 45.5867 -3.6952
# 6 8.7745 11.0957 16.0260 -6.7529 -3.6952 35.4378
#
#
#
# Elastic Compliance Matrix: (Units=1/GPa)
#
#
# Indices 1 2 3 4 5 6 
#
# 1 0.007557 -0.001095 -0.001763 -0.000885 -0.000321 -0.000933
# 2 -0.001095 0.012532 -0.003542 0.001019 -0.002629 -0.002131
# 3 -0.001763 -0.003542 0.012022 0.012432 0.002598 -0.001251
# 4 -0.000885 0.001019 0.012432 0.051261 -0.003286 0.003703
# 5 -0.000321 -0.002629 0.002598 -0.003286 0.023732 0.001576
# 6 -0.000933 -0.002131 -0.001251 0.003703 0.001576 0.030553
#
#
# Mechanical properties :
#
#
# Convention : Reuss Voigt Hill
#
# Bulk Modulus (GPa) = 51.78008 68.15243 59.96626
# Shear Modulus (GPa) = 31.86886 40.91266 36.39076
#
# Velocity S-wave (km/s) = 3.67421 4.16303 3.92624
# Velocity P-wave (km/s) = 6.31934 7.20954 6.77907
#
# Compressibility (1/GPa) = 0.01931245
#
# Stress axis : x y z
#
# Youngs Moduli (GPa) = 132.32017 79.79599 83.18174
#
# Poissons Ratio (x) = 0.08736 0.14661
# Poissons Ratio (y) = 0.14486 0.29464
# Poissons Ratio (z) = 0.23322 0.28264
#
# Static dielectric constant tensor:
#      x y z
#    x 4.695960 0.160990 -0.170510 
#    y 0.160990 4.241290 -0.232060 
#    z -0.170510 -0.232060 4.069730 
# 
# 
# High freq. dielectric constant tensor:
#      x y z
#    x 1.968260 0.008270 -0.007340 
#    y 0.008270 1.933150 -0.019470 
#    z -0.007340 -0.019470 1.920390 
# 
# From -- ./inp_files/163954.got.cif
#   From: 2010.06.25/outbox.cif.g09.slc.cpg/sg2_82_cif.got.tgz:163954.got - 2010.06.27 13:26:56.
