data_PCOD8035636
_publ_section_title
;
Structure prediction by ZEFSAII (Michael W. Deem and Ramdas Pophale) SiO2 
 PCOD8035636
Probable space group: P -1
;
_chemical_formula_sum "Si O2"
_cell_formula_units_Z 14
_cell_length_a 14.557565
_cell_length_b 23.365879
_cell_length_c 14.996005
_cell_angle_alpha 18.633957
_cell_angle_beta 150.127492
_cell_angle_gamma 159.086653
_cell_volume 574.475998
_symmetry_space_group_name_H-M "P -1"
_symmetry_group_IT_number 2
_symmetry_cell_setting 'triclinic'
loop_
_space_group_symop_operation_xyz
x,y,z
-x,-y,-z
loop_
_atom_site_type_symbol
_atom_site_label
_atom_site_fract_x
_atom_site_fract_y
_atom_site_fract_z
Si Si1 0.627961 0.982708 0.756317
Si Si2 0.031393 0.760657 0.944425
Si Si3 0.694152 0.695552 0.613759
Si Si4 0.173324 0.475923 0.534617
Si Si5 0.234394 0.996246 0.356805
Si Si6 0.246779 0.362833 0.933200
Si Si7 0.280551 0.446686 0.338362
O O1 0.496829 0.086980 0.481434
O O2 0.889824 0.190482 0.725823
O O3 0.720264 0.955740 0.781554
O O4 0.409957 0.719570 0.012394
O O5 0.784005 0.610220 0.890297
O O6 0.976095 0.749763 0.017870
O O7 0.230607 0.056130 0.651080
O O8 0.161944 0.653935 0.206350
O O9 0.381162 0.486417 0.645637
O O10 0.815592 0.729613 0.570040
O O11 0.272239 0.553154 0.607569
O O12 0.181948 0.151854 0.126211
O O13 0.975584 0.698855 0.600674
O O14 0.500000 0.500000 0.000000
O O15 0.500000 0.500000 0.500000
#
# Coordination Sequence:
#
# PCOD8035636 Si02
#       7
#     2   2   2   2   2   2   2
#     4  11  27  45  74 111 139 193 246 299 370 427
#     4  11  25  46  70 108 140 194 239 294 367 430
#     4  11  25  47  72 102 149 189 237 303 363 429
#     4  12  25  45  74 106 143 190 245 298 360 442
#     4  11  25  48  74 103 150 190 242 306 361 434
#     4  12  23  44  71 103 144 191 237 298 365 427
#     4  12  25  47  72 107 146 194 246 295 367 436
#
# _framework density 24.370037
#
# number of rings (size 3 to 8) (size 9 to 14) (size 15 to 20)
#    0.000    0.571    2.857    4.714    4.000    1.714 
#    2.571    0.000    0.000    0.000    0.000    0.000 
#    0.000    0.000    0.000    0.000    0.000    0.000 
#
# Total GULP energy -173531.649646 kJ/mol
# GULP energy per Si atom -12395.117832 kJ/mol
# Density = 2.431457 g / cm^3
# Si number density = 24.370037 Si / 1000 Ang^3
#
#
#
# Elastic Constant Matrix: (Units=GPa)
#
#
# Indices 1 2 3 4 5 6 
#
# 1 67.9981 0.3131 15.8332 23.7270 -8.2777 6.2557
# 2 0.3131 117.0064 40.5475 30.8533 1.3704 9.3233
# 3 15.8332 40.5475 116.9680 24.2333 -12.8577 -4.4249
# 4 23.7270 30.8533 24.2333 48.9067 -0.7190 -8.5880
# 5 -8.2777 1.3704 -12.8577 -0.7190 34.5567 -3.5118
# 6 6.2557 9.3233 -4.4249 -8.5880 -3.5118 40.5677
#
#
#
# Elastic Compliance Matrix: (Units=1/GPa)
#
#
# Indices 1 2 3 4 5 6 
#
# 1 0.020709 0.004488 -0.001510 -0.013299 0.003241 -0.006924
# 2 0.004488 0.012781 -0.003444 -0.009642 -0.001542 -0.006180
# 3 -0.001510 -0.003444 0.010895 -0.002062 0.004001 0.002122
# 4 -0.013299 -0.009642 -0.002062 0.036002 -0.001651 0.011520
# 5 0.003241 -0.001542 0.004001 -0.001651 0.031501 0.002669
# 6 -0.006924 -0.006180 0.002122 0.011520 0.002669 0.030039
#
#
# Mechanical properties :
#
#
# Convention : Reuss Voigt Hill
#
# Bulk Modulus (GPa) = 23.01266 46.15111 34.58188
# Shear Modulus (GPa) = 31.77789 41.15814 36.46802
#
# Velocity S-wave (km/s) = 3.61498 4.11406 3.87257
# Velocity P-wave (km/s) = 5.18532 6.44562 5.84952
#
# Compressibility (1/GPa) = 0.04345435
#
# Stress axis : x y z
#
# Youngs Moduli (GPa) = 48.28814 78.24226 91.78666
#
# Poissons Ratio (x) = -0.35117 0.13857
# Poissons Ratio (y) = -0.21673 0.31609
# Poissons Ratio (z) = 0.07290 0.26945
#
# Static dielectric constant tensor:
#      x y z
#    x 4.514450 0.007610 -0.280580 
#    y 0.007610 4.471240 0.104590 
#    z -0.280580 0.104590 4.600490 
# 
# 
# High freq. dielectric constant tensor:
#      x y z
#    x 1.957770 0.006600 -0.017130 
#    y 0.006600 1.977890 0.011430 
#    z -0.017130 0.011430 1.975070 
# 
# From -- ./inp_files/418714.got.cif
#   From: 2010.06.25/outbox.cif.g09.slc.cpg/sg2_210_cif.got.tgz:418714.got - 2010.06.27 13:26:56.
