data_PCOD8035534
_publ_section_title
;
Structure prediction by ZEFSAII (Michael W. Deem and Ramdas Pophale) SiO2 
 PCOD8035534
Probable space group: P -1
;
_chemical_formula_sum "Si O2"
_cell_formula_units_Z 16
_cell_length_a 16.568004
_cell_length_b 13.880077
_cell_length_c 22.043726
_cell_angle_alpha 157.260038
_cell_angle_beta 157.273065
_cell_angle_gamma 33.589472
_cell_volume 751.746016
_symmetry_space_group_name_H-M "P -1"
_symmetry_group_IT_number 2
_symmetry_cell_setting 'triclinic'
loop_
_space_group_symop_operation_xyz
x,y,z
-x,-y,-z
loop_
_atom_site_type_symbol
_atom_site_label
_atom_site_fract_x
_atom_site_fract_y
_atom_site_fract_z
Si Si1 0.910422 0.907333 0.447737
Si Si2 0.981532 0.207364 0.324285
Si Si3 0.574756 0.290528 0.473370
Si Si4 0.863617 0.990485 0.986246
Si Si5 0.743453 0.993538 0.154523
Si Si6 0.171956 0.680202 0.957927
Si Si7 0.574336 0.965869 0.463586
Si Si8 0.756471 0.469246 0.822357
O O1 0.808727 0.617209 0.202424
O O2 0.746695 0.104628 0.465624
O O3 0.000000 0.000000 0.500000
O O4 0.099671 0.893346 0.618497
O O5 0.895813 0.070759 0.124505
O O6 0.000000 0.500000 0.500000
O O7 0.220243 0.169763 0.479955
O O8 0.826924 0.108100 0.214321
O O9 0.500000 0.500000 0.500000
O O10 0.659855 0.475096 0.692639
O O11 0.376741 0.103825 0.248003
O O12 0.910241 0.227925 0.110972
O O13 0.005851 0.765380 0.941307
O O14 0.727483 0.698847 0.977441
O O15 0.500000 0.000000 0.000000
O O16 0.399190 0.815058 0.212638
O O17 0.500000 0.000000 0.500000
O O18 0.637569 0.239370 0.641429
O O19 0.000000 0.500000 0.000000
#
# Coordination Sequence:
#
# PCOD8035534 Si02
#       8
#     2   2   2   2   2   2   2   2
#     4  12  29  47  71 110 147 192 242 306 369 440
#     4  12  27  47  72 109 147 191 250 301 365 438
#     4  12  26  45  73 104 141 193 240 296 372 433
#     4  11  25  45  73 106 145 193 237 299 368 440
#     4  12  30  48  75 107 148 196 247 309 369 435
#     4  11  26  48  72 108 151 187 244 297 371 449
#     4  12  26  46  76 106 141 199 237 299 366 435
#     4  12  25  51  75 101 146 191 250 301 365 443
#
# _framework density 21.283785000000002
#
# number of rings (size 3 to 8) (size 9 to 14) (size 15 to 20)
#    0.000    0.250    5.000    2.250   10.500    0.500 
#    0.000    0.000    0.000    0.000    0.000    0.000 
#    0.000    0.000    0.000    0.000    0.000    0.000 
#
# Total GULP energy -198238.448700 kJ/mol
# GULP energy per Si atom -12389.903044 kJ/mol
# Density = 2.123534 g / cm^3
# Si number density = 21.283785 Si / 1000 Ang^3
#
#
#
# Elastic Constant Matrix: (Units=GPa)
#
#
# Indices 1 2 3 4 5 6 
#
# 1 134.7672 40.6450 56.7653 -10.6771 6.8517 11.4508
# 2 40.6450 113.1528 51.8938 3.0312 14.0520 -1.5851
# 3 56.7653 51.8938 147.0450 -3.8589 6.8187 3.7511
# 4 -10.6771 3.0312 -3.8589 53.1640 -0.7071 6.2389
# 5 6.8517 14.0520 6.8187 -0.7071 36.5556 -8.9717
# 6 11.4508 -1.5851 3.7511 6.2389 -8.9717 43.4246
#
#
#
# Elastic Compliance Matrix: (Units=1/GPa)
#
#
# Indices 1 2 3 4 5 6 
#
# 1 0.009743 -0.002169 -0.002809 0.002209 -0.001152 -0.002961
# 2 -0.002169 0.011509 -0.003131 -0.001456 -0.003266 0.000797
# 3 -0.002809 -0.003131 0.009002 0.000290 0.000010 -0.000191
# 4 0.002209 -0.001456 0.000290 0.019773 -0.000406 -0.003585
# 5 -0.001152 -0.003266 0.000010 -0.000406 0.030419 0.006527
# 6 -0.002961 0.000797 -0.000191 -0.003585 0.006527 0.025718
#
#
# Mechanical properties :
#
#
# Convention : Reuss Voigt Hill
#
# Bulk Modulus (GPa) = 71.24912 77.06371 74.15641
# Shear Modulus (GPa) = 39.35163 43.00622 41.17892
#
# Velocity S-wave (km/s) = 4.30455 4.50000 4.40336
# Velocity P-wave (km/s) = 7.63243 7.95527 7.79552
#
# Compressibility (1/GPa) = 0.01403526
#
# Stress axis : x y z
#
# Youngs Moduli (GPa) = 102.64266 86.89214 111.08675
#
# Poissons Ratio (x) = 0.18847 0.31200
# Poissons Ratio (y) = 0.22263 0.34784
# Poissons Ratio (z) = 0.28828 0.27208
#
# Static dielectric constant tensor:
#      x y z
#    x 3.934100 -0.037890 0.078130 
#    y -0.037890 4.003760 -0.005890 
#    z 0.078130 -0.005890 3.998410 
# 
# 
# High freq. dielectric constant tensor:
#      x y z
#    x 1.848840 0.001390 0.000660 
#    y 0.001390 1.851570 -0.003070 
#    z 0.000660 -0.003070 1.856870 
# 
# From -- ./inp_files/278698.got.cif
#   From: 2010.06.25/outbox.cif.g09.slc.cpg/sg2_140_cif.got.tgz:278698.got - 2010.06.27 13:26:56.
