data_PCOD8035134
_publ_section_title
;
Structure prediction by ZEFSAII (Michael W. Deem and Ramdas Pophale) SiO2 
 PCOD8035134
Probable space group: P -1
;
_chemical_formula_sum "Si O2"
_cell_formula_units_Z 14
_cell_length_a 8.804591
_cell_length_b 15.700916
_cell_length_c 15.507721
_cell_angle_alpha 153.654917
_cell_angle_beta 116.590256
_cell_angle_gamma 48.147159
_cell_volume 631.127753
_symmetry_space_group_name_H-M "P -1"
_symmetry_group_IT_number 2
_symmetry_cell_setting 'triclinic'
loop_
_space_group_symop_operation_xyz
x,y,z
-x,-y,-z
loop_
_atom_site_type_symbol
_atom_site_label
_atom_site_fract_x
_atom_site_fract_y
_atom_site_fract_z
Si Si1 0.264846 0.035238 0.308897
Si Si2 0.760369 0.175843 0.051596
Si Si3 0.658653 0.560216 0.073444
Si Si4 0.446364 0.080621 0.961087
Si Si5 0.064582 0.155874 0.690239
Si Si6 0.045208 0.393355 0.726343
Si Si7 0.451866 0.244288 0.462573
O O1 0.099005 0.175313 0.477284
O O2 0.257833 0.245716 0.449780
O O3 0.523689 0.795881 0.186321
O O4 0.185894 0.923721 0.124207
O O5 0.636669 0.473358 0.295978
O O6 0.593054 0.148361 0.026535
O O7 0.000000 0.000000 0.000000
O O8 0.735071 0.625525 0.236847
O O9 0.500000 0.500000 0.000000
O O10 0.901198 0.320974 0.878394
O O11 0.501581 0.847121 0.708298
O O12 0.180654 0.329925 0.110998
O O13 0.500000 0.000000 0.000000
O O14 0.020051 0.341159 0.770717
O O15 0.324051 0.956933 0.606244
O O16 0.000000 0.000000 0.500000
#
# Coordination Sequence:
#
# PCOD8035134 Si02
#       7
#     2   2   2   2   2   2   2
#     4  11  26  43  71 107 144 185 240 294 358 419
#     4  11  28  49  73 101 140 190 246 297 356 428
#     4  12  25  41  70 109 147 189 238 287 360 429
#     4  11  27  48  73 105 141 189 241 294 359 423
#     4  12  23  43  71 102 146 187 233 289 360 429
#     4  12  25  46  71 107 149 187 233 298 357 428
#     4  11  24  48  74 101 143 190 236 296 359 425
#
# _framework density 22.182511999999999
#
# number of rings (size 3 to 8) (size 9 to 14) (size 15 to 20)
#    0.000    0.571    2.857    5.143    8.000    1.714 
#    2.571    0.000    0.000    0.000    0.000    0.000 
#    0.000    0.000    0.000    0.000    0.000    0.000 
#
# Total GULP energy -173610.055452 kJ/mol
# GULP energy per Si atom -12400.718247 kJ/mol
# Density = 2.213202 g / cm^3
# Si number density = 22.182512 Si / 1000 Ang^3
#
#
#
# Elastic Constant Matrix: (Units=GPa)
#
#
# Indices 1 2 3 4 5 6 
#
# 1 89.0252 40.4974 44.8208 1.0057 15.1444 -8.7688
# 2 40.4974 166.6464 70.1748 -6.1864 0.7874 -10.7275
# 3 44.8208 70.1748 162.8245 -13.4932 10.2617 -2.7812
# 4 1.0057 -6.1864 -13.4932 42.1545 -2.3226 -0.0599
# 5 15.1444 0.7874 10.2617 -2.3226 37.8484 0.0175
# 6 -8.7688 -10.7275 -2.7812 -0.0599 0.0175 35.7733
#
#
#
# Elastic Compliance Matrix: (Units=1/GPa)
#
#
# Indices 1 2 3 4 5 6 
#
# 1 0.014914 -0.002269 -0.002908 -0.001905 -0.005250 0.002749
# 2 -0.002269 0.007835 -0.002789 0.000398 0.001525 0.001577
# 3 -0.002908 -0.002789 0.008376 0.002290 -0.000908 -0.000893
# 4 -0.001905 0.000398 0.002290 0.024649 0.001646 -0.000129
# 5 -0.005250 0.001525 -0.000908 0.001646 0.028838 -0.000912
# 6 0.002749 0.001577 -0.000893 -0.000129 -0.000912 0.029031
#
#
# Mechanical properties :
#
#
# Convention : Reuss Voigt Hill
#
# Bulk Modulus (GPa) = 65.81129 81.05356 73.43242
# Shear Modulus (GPa) = 37.13639 40.68879 38.91259
#
# Velocity S-wave (km/s) = 4.09605 4.28749 4.19286
# Velocity P-wave (km/s) = 7.21822 7.81849 7.52434
#
# Compressibility (1/GPa) = 0.01519496
#
# Stress axis : x y z
#
# Youngs Moduli (GPa) = 67.05039 127.62544 119.39561
#
# Poissons Ratio (x) = 0.28957 0.34715
# Poissons Ratio (y) = 0.15213 0.33294
# Poissons Ratio (z) = 0.19495 0.35589
#
# Static dielectric constant tensor:
#      x y z
#    x 4.125190 -0.067140 0.013760 
#    y -0.067140 4.224130 -0.317450 
#    z 0.013760 -0.317450 4.490290 
# 
# 
# High freq. dielectric constant tensor:
#      x y z
#    x 1.870240 -0.008040 0.006160 
#    y -0.008040 1.880280 -0.010140 
#    z 0.006160 -0.010140 1.893610 
# 
# From -- ./inp_files/224325.got.cif
#   From: 2010.06.25/outbox.cif.g09.slc.cpg/sg2_113_cif.got.tgz:224325.got - 2010.06.27 13:26:56.
