data_PCOD8035405
_publ_section_title
;
Structure prediction by ZEFSAII (Michael W. Deem and Ramdas Pophale) SiO2 
 PCOD8035405
Probable space group: P -1
;
_chemical_formula_sum "Si O2"
_cell_formula_units_Z 16
_cell_length_a 17.936348
_cell_length_b 9.355381
_cell_length_c 11.596386
_cell_angle_alpha 127.755786
_cell_angle_beta 135.610806
_cell_angle_gamma 88.621757
_cell_volume 714.706808
_symmetry_space_group_name_H-M "P -1"
_symmetry_group_IT_number 2
_symmetry_cell_setting 'triclinic'
loop_
_space_group_symop_operation_xyz
x,y,z
-x,-y,-z
loop_
_atom_site_type_symbol
_atom_site_label
_atom_site_fract_x
_atom_site_fract_y
_atom_site_fract_z
Si Si1 0.745729 0.037294 0.940883
Si Si2 0.828751 0.804242 0.770551
Si Si3 0.773696 0.483620 0.134785
Si Si4 0.206648 0.570821 0.281381
Si Si5 0.327274 0.364554 0.721314
Si Si6 0.620581 0.389211 0.689652
Si Si7 0.134118 0.859851 0.410806
Si Si8 0.866515 0.011947 0.272907
O O1 0.831982 0.997482 0.937616
O O2 0.556519 0.755408 0.588787
O O3 0.794086 0.295935 0.078457
O O4 0.813986 0.111620 0.182942
O O5 0.795433 0.596133 0.714766
O O6 0.693924 0.634253 0.437976
O O7 0.000000 0.000000 0.000000
O O8 0.701663 0.482018 0.169522
O O9 0.944340 0.790593 0.439127
O O10 0.643850 0.348954 0.824773
O O11 0.358271 0.743060 0.447229
O O12 0.221319 0.775807 0.468512
O O13 0.055189 0.395753 0.941598
O O14 0.198081 0.058524 0.473834
O O15 0.500000 0.500000 0.000000
O O16 0.758276 0.706627 0.962578
O O17 0.175146 0.002107 0.648032
#
# Coordination Sequence:
#
# PCOD8035405 Si02
#       8
#     2   2   2   2   2   2   2   2
#     4  12  29  43  70 107 142 179 230 291 351 402
#     4  12  26  45  70  98 143 183 224 280 348 416
#     4  12  26  46  72 100 137 187 234 282 345 414
#     4  11  25  44  73 102 135 181 232 284 346 411
#     4  12  27  44  67 102 143 178 224 286 349 406
#     4  12  24  47  71  99 139 183 233 286 343 406
#     4  11  25  45  72 103 134 183 232 285 341 415
#     4  12  24  46  73  99 135 182 238 285 334 415
#
# _framework density 22.386804000000001
#
# number of rings (size 3 to 8) (size 9 to 14) (size 15 to 20)
#    0.000    0.250    5.000    3.750    7.000    0.000 
#    0.000    1.250    0.000    0.000    0.000    0.000 
#    0.000    0.000    0.000    0.000    0.000    0.000 
#
# Total GULP energy -198491.403482 kJ/mol
# GULP energy per Si atom -12405.712718 kJ/mol
# Density = 2.233585 g / cm^3
# Si number density = 22.386804 Si / 1000 Ang^3
#
#
#
# Elastic Constant Matrix: (Units=GPa)
#
#
# Indices 1 2 3 4 5 6 
#
# 1 107.1492 45.9032 27.4462 0.4770 -3.8457 -15.5075
# 2 45.9032 96.8184 11.9156 -8.5144 -19.6578 -15.7407
# 3 27.4462 11.9156 78.3644 -16.3745 5.8006 -2.4063
# 4 0.4770 -8.5144 -16.3745 40.7040 3.8430 -7.0625
# 5 -3.8457 -19.6578 5.8006 3.8430 32.7925 -7.1593
# 6 -15.5075 -15.7407 -2.4063 -7.0625 -7.1593 39.5153
#
#
#
# Elastic Compliance Matrix: (Units=1/GPa)
#
#
# Indices 1 2 3 4 5 6 
#
# 1 0.013144 -0.005674 -0.004200 -0.002632 -0.000348 0.002109
# 2 -0.005674 0.016625 -0.000345 0.003618 0.010447 0.006914
# 3 -0.004200 -0.000345 0.016012 0.006765 -0.004413 -0.000401
# 4 -0.002632 0.003618 0.006765 0.029220 -0.001501 0.005771
# 5 -0.000348 0.010447 -0.004413 -0.001501 0.040017 0.010738
# 6 0.002109 0.006914 -0.000401 0.005771 0.010738 0.031841
#
#
# Mechanical properties :
#
#
# Convention : Reuss Voigt Hill
#
# Bulk Modulus (GPa) = 39.46074 50.31798 44.88936
# Shear Modulus (GPa) = 28.45016 35.74015 32.09516
#
# Velocity S-wave (km/s) = 3.56876 3.99994 3.79048
# Velocity P-wave (km/s) = 5.88612 6.62254 6.26516
#
# Compressibility (1/GPa) = 0.02534164
#
# Stress axis : x y z
#
# Youngs Moduli (GPa) = 76.08118 60.15130 62.45144
#
# Poissons Ratio (x) = 0.34130 0.26230
# Poissons Ratio (y) = 0.43169 0.02158
# Poissons Ratio (z) = 0.31955 0.02078
#
# Static dielectric constant tensor:
#      x y z
#    x 4.328190 0.013180 -0.086810 
#    y 0.013180 4.217420 -0.223180 
#    z -0.086810 -0.223180 4.006260 
# 
# 
# High freq. dielectric constant tensor:
#      x y z
#    x 1.896420 -0.003300 -0.001520 
#    y -0.003300 1.892920 -0.012720 
#    z -0.001520 -0.012720 1.875860 
# 
# From -- ./inp_files/243109.got.cif
#   From: 2010.06.25/outbox.cif.g09.slc.cpg/sg2_122_cif.got.tgz:243109.got - 2010.06.27 13:26:56.
