data_PCOD8035926
_publ_section_title
;
Structure prediction by ZEFSAII (Michael W. Deem and Ramdas Pophale) SiO2 
 PCOD8035926
Probable space group: P -1
;
_chemical_formula_sum "Si O2"
_cell_formula_units_Z 12
_cell_length_a 9.456945
_cell_length_b 8.740206
_cell_length_c 11.629200
_cell_angle_alpha 112.620220
_cell_angle_beta 143.388034
_cell_angle_gamma 85.463432
_cell_volume 480.929707
_symmetry_space_group_name_H-M "P -1"
_symmetry_group_IT_number 2
_symmetry_cell_setting 'triclinic'
loop_
_space_group_symop_operation_xyz
x,y,z
-x,-y,-z
loop_
_atom_site_type_symbol
_atom_site_label
_atom_site_fract_x
_atom_site_fract_y
_atom_site_fract_z
Si Si1 0.477243 0.786012 0.278707
Si Si2 0.068924 0.176502 0.251700
Si Si3 0.770668 0.309836 0.262159
Si Si4 0.163353 0.890045 0.537580
Si Si5 0.046898 0.224411 0.996107
Si Si6 0.712873 0.601338 0.019328
O O1 0.683306 0.753361 0.484391
O O2 0.380120 0.613725 0.077355
O O3 0.597549 0.977953 0.346000
O O4 0.247299 0.792907 0.208431
O O5 0.152020 0.270860 0.208391
O O6 0.846519 0.229160 0.174884
O O7 0.942629 0.959780 0.094920
O O8 0.719453 0.168910 0.293127
O O9 0.507464 0.332215 0.068675
O O10 0.000000 0.500000 0.500000
O O11 0.000000 0.000000 0.500000
O O12 0.977786 0.712045 0.293751
O O13 0.232492 0.380561 0.077164
#
# Coordination Sequence:
#
# PCOD8035926 Si02
#       6
#     2   2   2   2   2   2
#     4  12  26  49  74 110 152 191 249 305 368 442
#     4  11  25  48  72 109 149 195 246 301 375 430
#     4  12  27  49  76 112 150 192 248 314 367 441
#     4  12  27  46  75 111 149 196 245 306 370 437
#     4  11  27  46  76 108 151 201 243 306 367 449
#     4  12  28  48  78 113 145 198 251 302 377 436
#
# _framework density 24.951671999999999
#
# number of rings (size 3 to 8) (size 9 to 14) (size 15 to 20)
#    0.000    0.333    5.000    1.000    9.333    3.333 
#    0.000    0.000    0.000    0.000    0.000    0.000 
#    0.000    0.000    0.000    0.000    0.000    0.000 
#
# Total GULP energy -148887.600010 kJ/mol
# GULP energy per Si atom -12407.300001 kJ/mol
# Density = 2.489488 g / cm^3
# Si number density = 24.951672 Si / 1000 Ang^3
#
#
#
# Elastic Constant Matrix: (Units=GPa)
#
#
# Indices 1 2 3 4 5 6 
#
# 1 128.4499 47.2188 24.1545 12.5108 1.8782 -26.5991
# 2 47.2188 86.2864 42.8526 2.8634 -1.2559 -11.9395
# 3 24.1545 42.8526 88.9534 27.9555 -7.3190 -5.6838
# 4 12.5108 2.8634 27.9555 30.7989 -6.0191 3.1530
# 5 1.8782 -1.2559 -7.3190 -6.0191 40.8328 -3.5122
# 6 -26.5991 -11.9395 -5.6838 3.1530 -3.5122 42.9437
#
#
#
# Elastic Compliance Matrix: (Units=1/GPa)
#
#
# Indices 1 2 3 4 5 6 
#
# 1 0.011759 -0.006660 0.002667 -0.007379 -0.000817 0.006260
# 2 -0.006660 0.020604 -0.011795 0.011669 0.000479 -0.000775
# 3 0.002667 -0.011795 0.023092 -0.021101 0.000805 0.003044
# 4 -0.007379 0.011669 -0.021101 0.055190 0.004380 -0.007813
# 5 -0.000817 0.000479 0.000805 0.004380 0.025461 0.001495
# 6 0.006260 -0.000775 0.003044 -0.007813 0.001495 0.028047
#
#
# Mechanical properties :
#
#
# Convention : Reuss Voigt Hill
#
# Bulk Modulus (GPa) = 41.87711 59.12683 50.50197
# Shear Modulus (GPa) = 24.54746 35.54599 30.04673
#
# Velocity S-wave (km/s) = 3.13996 3.77847 3.47392
# Velocity P-wave (km/s) = 5.47408 6.54093 6.03114
#
# Compressibility (1/GPa) = 0.02387939
#
# Stress axis : x y z
#
# Youngs Moduli (GPa) = 85.04286 48.53413 43.30555
#
# Poissons Ratio (x) = 0.32325 -0.11551
# Poissons Ratio (y) = 0.56641 0.51077
# Poissons Ratio (z) = -0.22683 0.57244
#
# Static dielectric constant tensor:
#      x y z
#    x 4.721710 0.217030 -0.036890 
#    y 0.217030 4.882930 0.018550 
#    z -0.036890 0.018550 4.436500 
# 
# 
# High freq. dielectric constant tensor:
#      x y z
#    x 2.004980 -0.001120 -0.005900 
#    y -0.001120 2.007250 -0.001940 
#    z -0.005900 -0.001940 1.993460 
# 
# From -- ./inp_files/190064.got.cif
#   From: 2010.06.25/outbox.cif.g09.slc.cpg/sg2_96_cif.got.tgz:190064.got - 2010.06.27 13:26:56.
