data_PCOD8035397
_publ_section_title
;
Structure prediction by ZEFSAII (Michael W. Deem and Ramdas Pophale) SiO2 
 PCOD8035397
Probable space group: P -1
;
_chemical_formula_sum "Si O2"
_cell_formula_units_Z 12
_cell_length_a 5.176376
_cell_length_b 9.275422
_cell_length_c 15.920065
_cell_angle_alpha 49.840223
_cell_angle_beta 109.441469
_cell_angle_gamma 85.845696
_cell_volume 505.261951
_symmetry_space_group_name_H-M "P -1"
_symmetry_group_IT_number 2
_symmetry_cell_setting 'triclinic'
loop_
_space_group_symop_operation_xyz
x,y,z
-x,-y,-z
loop_
_atom_site_type_symbol
_atom_site_label
_atom_site_fract_x
_atom_site_fract_y
_atom_site_fract_z
Si Si1 0.149003 0.659763 0.464778
Si Si2 0.821284 0.862136 0.048032
Si Si3 0.232916 0.523591 0.346980
Si Si4 0.160408 0.139402 0.430946
Si Si5 0.880381 0.125703 0.246186
Si Si6 0.199415 0.267646 0.091504
O O1 0.250622 0.655035 0.380300
O O2 0.410490 0.589722 0.591000
O O3 0.000000 0.500000 0.500000
O O4 0.937082 0.895487 0.369379
O O5 0.024564 0.672633 0.198755
O O6 0.772112 0.775464 0.987420
O O7 0.500000 0.000000 0.000000
O O8 0.000000 0.000000 0.000000
O O9 0.126264 0.331167 0.418202
O O10 0.005691 0.234985 0.289311
O O11 0.500000 0.000000 0.500000
O O12 0.000000 0.000000 0.500000
O O13 0.526864 0.238688 0.166323
O O14 0.050862 0.130360 0.175820
O O15 0.000000 0.500000 0.000000
#
# Coordination Sequence:
#
# PCOD8035397 Si02
#       6
#     2   2   2   2   2   2
#     4  11  25  44  72 108 141 190 239 305 381 432
#     4  12  28  49  74 109 147 198 255 306 366 440
#     4  11  26  44  72 104 145 188 243 306 366 444
#     4  12  25  45  70 110 146 187 239 300 374 440
#     4  12  26  47  77 106 152 190 249 306 372 445
#     4  12  27  50  75 108 149 202 248 304 370 443
#
# _framework density 23.750057999999999
#
# number of rings (size 3 to 8) (size 9 to 14) (size 15 to 20)
#    0.000    0.333    1.667    6.500    9.333    1.333 
#    0.000    0.000    0.000    0.000    0.000    0.000 
#    0.000    0.000    0.000    0.000    0.000    0.000 
#
# Total GULP energy -148693.945102 kJ/mol
# GULP energy per Si atom -12391.162092 kJ/mol
# Density = 2.369600 g / cm^3
# Si number density = 23.750058 Si / 1000 Ang^3
#
#
#
# Elastic Constant Matrix: (Units=GPa)
#
#
# Indices 1 2 3 4 5 6 
#
# 1 162.9588 27.9853 67.1929 -4.1997 27.2654 15.1682
# 2 27.9853 135.9554 50.2487 -6.2765 23.6165 3.7317
# 3 67.1929 50.2487 166.2745 3.5173 32.4982 10.6926
# 4 -4.1997 -6.2765 3.5173 31.8287 7.2902 -2.7647
# 5 27.2654 23.6165 32.4982 7.2902 51.7183 -1.6681
# 6 15.1682 3.7317 10.6926 -2.7647 -1.6681 43.5035
#
#
#
# Elastic Compliance Matrix: (Units=1/GPa)
#
#
# Indices 1 2 3 4 5 6 
#
# 1 0.007911 -0.000056 -0.002517 0.001786 -0.002884 -0.002132
# 2 -0.000056 0.008794 -0.002083 0.002642 -0.003055 -0.000172
# 3 -0.002517 -0.002083 0.008311 -0.001115 -0.002825 -0.001166
# 4 0.001786 0.002642 -0.001115 0.033828 -0.006172 0.001338
# 5 -0.002884 -0.003055 -0.002825 -0.006172 0.024978 0.002527
# 6 -0.002132 -0.000172 -0.001166 0.001338 0.002527 0.024213
#
#
# Mechanical properties :
#
#
# Convention : Reuss Voigt Hill
#
# Bulk Modulus (GPa) = 63.67389 84.00474 73.83932
# Shear Modulus (GPa) = 40.78908 46.72754 43.75831
#
# Velocity S-wave (km/s) = 4.14869 4.44043 4.29703
# Velocity P-wave (km/s) = 7.05811 7.85729 7.46840
#
# Compressibility (1/GPa) = 0.01570502
#
# Stress axis : x y z
#
# Youngs Moduli (GPa) = 126.40666 113.71336 120.31755
#
# Poissons Ratio (x) = 0.00639 0.30283
# Poissons Ratio (y) = 0.00711 0.25056
# Poissons Ratio (z) = 0.31816 0.23681
#
# Static dielectric constant tensor:
#      x y z
#    x 4.359220 -0.775660 -0.582000 
#    y -0.775660 10.978820 3.575870 
#    z -0.582000 3.575870 5.892930 
# 
# 
# High freq. dielectric constant tensor:
#      x y z
#    x 1.953100 0.003280 0.008040 
#    y 0.003280 1.963720 0.005580 
#    z 0.008040 0.005580 1.949490 
# 
# From -- ./inp_files/502450.got.cif
#   From: 2010.06.25/outbox.cif.g09.slc.cpg/sg2_252_cif.got.tgz:502450.got - 2010.06.27 13:26:56.
