data_PCOD8035888
_publ_section_title
;
Structure prediction by ZEFSAII (Michael W. Deem and Ramdas Pophale) SiO2 
 PCOD8035888
Probable space group: P -1
;
_chemical_formula_sum "Si O2"
_cell_formula_units_Z 14
_cell_length_a 9.846718
_cell_length_b 5.114860
_cell_length_c 26.324164
_cell_angle_alpha 67.305229
_cell_angle_beta 154.482437
_cell_angle_gamma 107.926891
_cell_volume 524.192109
_symmetry_space_group_name_H-M "P -1"
_symmetry_group_IT_number 2
_symmetry_cell_setting 'triclinic'
loop_
_space_group_symop_operation_xyz
x,y,z
-x,-y,-z
loop_
_atom_site_type_symbol
_atom_site_label
_atom_site_fract_x
_atom_site_fract_y
_atom_site_fract_z
Si Si1 0.132576 0.680714 0.075697
Si Si2 0.176903 0.172960 0.860396
Si Si3 0.270016 0.104354 0.700917
Si Si4 0.366756 0.991075 0.629645
Si Si5 0.977574 0.594077 0.681957
Si Si6 0.104182 0.394191 0.187321
Si Si7 0.346985 0.546207 0.521280
O O1 0.516519 0.682832 0.211797
O O2 0.976942 0.564652 0.082311
O O3 0.000000 0.500000 0.000000
O O4 0.000000 0.000000 0.000000
O O5 0.175709 0.305665 0.793207
O O6 0.076706 0.455950 0.838164
O O7 0.935357 0.941949 0.803793
O O8 0.500000 0.000000 0.000000
O O9 0.458549 0.003418 0.720154
O O10 0.918845 0.244802 0.554946
O O11 0.215754 0.837967 0.739461
O O12 0.477550 0.268479 0.618089
O O13 0.510297 0.678845 0.677569
O O14 0.000000 0.000000 0.500000
O O15 0.667988 0.693448 0.605614
O O16 0.842168 0.530506 0.586542
#
# Coordination Sequence:
#
# PCOD8035888 Si02
#       7
#     2   2   2   2   2   2   2
#     4  12  29  51  82 115 160 218 284 358 417 489
#     4  12  29  52  84 112 162 224 282 341 415 498
#     4  12  27  46  81 120 167 221 285 348 429 508
#     4  12  24  46  79 123 169 221 273 342 435 512
#     4  11  27  47  76 123 166 221 283 345 424 501
#     4  12  28  54  77 119 160 213 279 347 415 497
#     4  11  25  47  77 119 173 219 279 344 422 509
#
# _framework density 26.707768000000002
#
# number of rings (size 3 to 8) (size 9 to 14) (size 15 to 20)
#    0.000    0.286    2.857    4.714    8.000    1.143 
#    0.000    0.000    0.000    0.000    0.000    0.000 
#    0.000    0.000    0.000    0.000    0.000    0.000 
#
# Total GULP energy -173504.128804 kJ/mol
# GULP energy per Si atom -12393.152057 kJ/mol
# Density = 2.664698 g / cm^3
# Si number density = 26.707768 Si / 1000 Ang^3
#
#
#
# Elastic Constant Matrix: (Units=GPa)
#
#
# Indices 1 2 3 4 5 6 
#
# 1 117.6728 58.9856 45.7456 -14.2036 -2.4511 20.1021
# 2 58.9856 142.0088 52.2867 -16.5825 -19.7450 18.8306
# 3 45.7456 52.2867 156.0288 -20.1032 -2.0263 -0.9261
# 4 -14.2036 -16.5825 -20.1032 61.2350 -4.1928 -0.2969
# 5 -2.4511 -19.7450 -2.0263 -4.1928 37.8598 -22.5781
# 6 20.1021 18.8306 -0.9261 -0.2969 -22.5781 44.4465
#
#
#
# Elastic Compliance Matrix: (Units=1/GPa)
#
#
# Indices 1 2 3 4 5 6 
#
# 1 0.012606 -0.004167 -0.002329 0.000626 -0.005432 -0.006740
# 2 -0.004167 0.010409 -0.001996 0.001561 0.005309 0.000140
# 3 -0.002329 -0.001996 0.007997 0.001621 0.000939 0.002553
# 4 0.000626 0.001561 0.001621 0.017674 0.003480 0.000975
# 5 -0.005432 0.005309 0.000939 0.003480 0.042199 0.021687
# 6 -0.006740 0.000140 0.002553 0.000975 0.021687 0.036564
#
#
# Mechanical properties :
#
#
# Convention : Reuss Voigt Hill
#
# Bulk Modulus (GPa) = 71.28319 81.08291 76.18305
# Shear Modulus (GPa) = 33.53238 45.95444 39.74341
#
# Velocity S-wave (km/s) = 3.54719 4.15256 3.86175
# Velocity P-wave (km/s) = 6.59733 7.30868 6.96210
#
# Compressibility (1/GPa) = 0.01402855
#
# Stress axis : x y z
#
# Youngs Moduli (GPa) = 79.32565 96.06862 125.04648
#
# Poissons Ratio (x) = 0.40031 0.29129
# Poissons Ratio (y) = 0.33054 0.24954
# Poissons Ratio (z) = 0.18479 0.19171
#
# Static dielectric constant tensor:
#      x y z
#    x 9.669550 1.696630 0.043670 
#    y 1.696630 5.561550 -0.017500 
#    z 0.043670 -0.017500 5.248550 
# 
# 
# High freq. dielectric constant tensor:
#      x y z
#    x 2.077690 0.015030 -0.003070 
#    y 0.015030 2.073800 -0.007840 
#    z -0.003070 -0.007840 2.094130 
# 
# From -- ./inp_files/616318.got.cif
#   From: 2010.06.25/outbox.cif.g09.slc.cpg/sg2_309_cif.got.tgz:616318.got - 2010.06.27 13:26:56.
