data_PCOD8035863
_publ_section_title
;
Structure prediction by ZEFSAII (Michael W. Deem and Ramdas Pophale) SiO2 
 PCOD8035863
Probable space group: P -1
;
_chemical_formula_sum "Si O2"
_cell_formula_units_Z 12
_cell_length_a 5.217474
_cell_length_b 15.834677
_cell_length_c 12.142803
_cell_angle_alpha 151.226355
_cell_angle_beta 80.298019
_cell_angle_gamma 99.668559
_cell_volume 475.552421
_symmetry_space_group_name_H-M "P -1"
_symmetry_group_IT_number 2
_symmetry_cell_setting 'triclinic'
loop_
_space_group_symop_operation_xyz
x,y,z
-x,-y,-z
loop_
_atom_site_type_symbol
_atom_site_label
_atom_site_fract_x
_atom_site_fract_y
_atom_site_fract_z
Si Si1 0.149263 0.580512 0.186390
Si Si2 0.534259 0.902651 0.530209
Si Si3 0.812939 0.803086 0.607238
Si Si4 0.578834 0.699278 0.736310
Si Si5 0.035932 0.830445 0.000494
Si Si6 0.757896 0.785057 0.175788
O O1 0.318340 0.753355 0.336218
O O2 0.946557 0.631619 0.355320
O O3 0.320180 0.424387 0.046392
O O4 0.000000 0.500000 0.000000
O O5 0.599175 0.871185 0.615532
O O6 0.781874 0.870220 0.394118
O O7 0.450204 0.102612 0.748703
O O8 0.672564 0.771311 0.695220
O O9 0.024231 0.966283 0.790789
O O10 0.500000 0.500000 0.500000
O O11 0.326763 0.798653 0.904977
O O12 0.814636 0.710849 0.819760
O O13 0.021370 0.802619 0.103053
#
# Coordination Sequence:
#
# PCOD8035863 Si02
#       6
#     2   2   2   2   2   2
#     4  12  26  45  73 117 152 207 265 322 396 470
#     4  11  26  47  72 113 155 210 255 331 401 461
#     4  12  27  49  78 111 161 203 270 326 397 474
#     4  12  29  50  81 116 156 210 272 328 401 475
#     4  12  27  50  77 118 154 219 257 331 398 475
#     4  11  25  47  75 107 160 198 266 316 399 471
#
# _framework density 25.233813000000001
#
# number of rings (size 3 to 8) (size 9 to 14) (size 15 to 20)
#    0.000    0.333    3.333    4.000    4.667    5.333 
#    0.000    0.000    0.000    0.000    0.000    0.000 
#    0.000    0.000    0.000    0.000    0.000    0.000 
#
# Total GULP energy -148746.916386 kJ/mol
# GULP energy per Si atom -12395.576365 kJ/mol
# Density = 2.517638 g / cm^3
# Si number density = 25.233813 Si / 1000 Ang^3
#
#
#
# Elastic Constant Matrix: (Units=GPa)
#
#
# Indices 1 2 3 4 5 6 
#
# 1 97.5508 27.7520 45.7296 -4.8525 3.4514 2.8718
# 2 27.7520 144.3806 46.2661 -6.2134 1.6404 8.0397
# 3 45.7296 46.2661 146.2215 13.5032 -11.1876 1.2112
# 4 -4.8525 -6.2134 13.5032 65.1436 0.5788 -13.4225
# 5 3.4514 1.6404 -11.1876 0.5788 48.2241 3.3922
# 6 2.8718 8.0397 1.2112 -13.4225 3.3922 33.6599
#
#
#
# Elastic Compliance Matrix: (Units=1/GPa)
#
#
# Indices 1 2 3 4 5 6 
#
# 1 0.012512 -0.001084 -0.003864 0.001683 -0.001788 0.000182
# 2 -0.001084 0.007994 -0.002312 0.000897 -0.000649 -0.001311
# 3 -0.003864 -0.002312 0.009222 -0.002596 0.002578 -0.000745
# 4 0.001683 0.000897 -0.002596 0.017528 -0.001447 0.006871
# 5 -0.001788 -0.000649 0.002578 -0.001447 0.021681 -0.002547
# 6 0.000182 -0.001311 -0.000745 0.006871 -0.002547 0.033030
#
#
# Mechanical properties :
#
#
# Convention : Reuss Voigt Hill
#
# Bulk Modulus (GPa) = 65.75224 69.73873 67.74548
# Shear Modulus (GPa) = 41.13248 47.29919 44.21583
#
# Velocity S-wave (km/s) = 4.04177 4.33417 4.19052
# Velocity P-wave (km/s) = 6.92062 7.26249 7.09362
#
# Compressibility (1/GPa) = 0.01520861
#
# Stress axis : x y z
#
# Youngs Moduli (GPa) = 79.92059 125.08767 108.43561
#
# Poissons Ratio (x) = 0.13563 0.41897
# Poissons Ratio (y) = 0.08666 0.25071
# Poissons Ratio (z) = 0.30880 0.28921
#
# Static dielectric constant tensor:
#      x y z
#    x 4.137170 0.052460 -0.154700 
#    y 0.052460 4.729290 0.098620 
#    z -0.154700 0.098620 5.174520 
# 
# 
# High freq. dielectric constant tensor:
#      x y z
#    x 1.981920 0.011810 -0.015060 
#    y 0.011810 2.023300 -0.004300 
#    z -0.015060 -0.004300 2.035570 
# 
# From -- ./inp_files/60183.got.cif
#   From: 2010.06.25/outbox.cif.g09.slc.cpg/sg2_31_cif.got.tgz:60183.got - 2010.06.27 13:26:56.
