data_PCOD8035902
_publ_section_title
;
Structure prediction by ZEFSAII (Michael W. Deem and Ramdas Pophale) SiO2 
 PCOD8035902
Probable space group: P -1
;
_chemical_formula_sum "Si O2"
_cell_formula_units_Z 16
_cell_length_a 19.727225
_cell_length_b 12.352234
_cell_length_c 9.576115
_cell_angle_alpha 44.742555
_cell_angle_beta 134.548105
_cell_angle_gamma 152.944186
_cell_volume 729.604685
_symmetry_space_group_name_H-M "P -1"
_symmetry_group_IT_number 2
_symmetry_cell_setting 'triclinic'
loop_
_space_group_symop_operation_xyz
x,y,z
-x,-y,-z
loop_
_atom_site_type_symbol
_atom_site_label
_atom_site_fract_x
_atom_site_fract_y
_atom_site_fract_z
Si Si1 0.928944 0.074865 0.843875
Si Si2 0.345966 0.178572 0.693300
Si Si3 0.565596 0.002841 0.456859
Si Si4 0.978034 0.145880 0.383667
Si Si5 0.596142 0.722152 0.633073
Si Si6 0.900350 0.525799 0.508070
Si Si7 0.967290 0.616103 0.035238
Si Si8 0.376072 0.876124 0.049663
O O1 0.992595 0.285758 0.637430
O O2 0.962305 0.165113 0.966522
O O3 0.749626 0.824752 0.793915
O O4 0.000000 0.000000 0.000000
O O5 0.456384 0.428570 0.711780
O O6 0.397609 0.210556 0.579431
O O7 0.178803 0.040568 0.585381
O O8 0.351624 0.022435 0.919655
O O9 0.736376 0.284066 0.423840
O O10 0.500000 0.000000 0.500000
O O11 0.578132 0.833410 0.621644
O O12 0.438362 0.877425 0.275615
O O13 0.109627 0.354484 0.496417
O O14 0.000000 0.000000 0.500000
O O15 0.976902 0.270272 0.143931
O O16 0.974249 0.474885 0.743228
O O17 0.784470 0.398713 0.977236
O O18 0.500000 0.000000 0.000000
#
# Coordination Sequence:
#
# PCOD8035902 Si02
#       8
#     2   2   2   2   2   2   2   2
#     4  12  26  44  73 106 139 188 238 298 356 422
#     4  11  26  45  73 101 146 189 240 291 356 436
#     4  12  28  45  72 106 145 183 234 300 362 418
#     4  12  27  46  73 107 143 192 237 296 362 425
#     4  11  25  48  69 104 146 189 235 296 358 429
#     4  12  25  49  72 101 143 191 242 295 352 426
#     4  12  26  45  76 101 144 186 245 300 350 423
#     4  12  25  45  73 106 136 191 243 289 350 431
#
# _framework density 21.929684000000002
#
# number of rings (size 3 to 8) (size 9 to 14) (size 15 to 20)
#    0.000    0.250    5.000    3.000    8.750    0.000 
#    0.000    1.250    0.000    0.000    0.000    0.000 
#    0.000    0.000    0.000    0.000    0.000    0.000 
#
# Total GULP energy -198390.484634 kJ/mol
# GULP energy per Si atom -12399.405290 kJ/mol
# Density = 2.187977 g / cm^3
# Si number density = 21.929684 Si / 1000 Ang^3
#
#
#
# Elastic Constant Matrix: (Units=GPa)
#
#
# Indices 1 2 3 4 5 6 
#
# 1 109.1423 20.3166 2.8396 1.0399 9.8921 -12.0310
# 2 20.3166 126.5375 13.3360 14.6940 7.3315 -9.1581
# 3 2.8396 13.3360 65.0888 6.4602 11.9399 4.6927
# 4 1.0399 14.6940 6.4602 34.7351 1.3250 0.1731
# 5 9.8921 7.3315 11.9399 1.3250 45.2174 0.2752
# 6 -12.0310 -9.1581 4.6927 0.1731 0.2752 40.1842
#
#
#
# Elastic Compliance Matrix: (Units=1/GPa)
#
#
# Indices 1 2 3 4 5 6 
#
# 1 0.009877 -0.001314 -0.000026 0.000327 -0.001967 0.002673
# 2 -0.001314 0.008830 -0.001418 -0.003415 -0.000681 0.001804
# 3 -0.000026 -0.001418 0.016808 -0.002357 -0.004120 -0.002255
# 4 0.000327 -0.003415 -0.002357 0.030657 0.000210 -0.000539
# 5 -0.001967 -0.000681 -0.004120 0.000210 0.023740 -0.000426
# 6 0.002673 0.001804 -0.002255 -0.000539 -0.000426 0.026365
#
#
# Mechanical properties :
#
#
# Convention : Reuss Voigt Hill
#
# Bulk Modulus (GPa) = 33.33432 41.52810 37.43121
# Shear Modulus (GPa) = 37.93830 41.64578 39.79204
#
# Velocity S-wave (km/s) = 4.16384 4.36255 4.26435
# Velocity P-wave (km/s) = 6.19276 6.65987 6.43055
#
# Compressibility (1/GPa) = 0.02999911
#
# Stress axis : x y z
#
# Youngs Moduli (GPa) = 101.24156 113.25338 59.49708
#
# Poissons Ratio (x) = 0.14878 0.00155
# Poissons Ratio (y) = 0.13300 0.08437
# Poissons Ratio (z) = 0.00264 0.16060
#
# Static dielectric constant tensor:
#      x y z
#    x 3.665350 0.329140 0.073410 
#    y 0.329140 3.862220 0.074260 
#    z 0.073410 0.074260 3.874220 
# 
# 
# High freq. dielectric constant tensor:
#      x y z
#    x 1.872580 -0.010580 0.003960 
#    y -0.010580 1.879870 0.012050 
#    z 0.003960 0.012050 1.856190 
# 
# From -- ./inp_files/298657.got.cif
#   From: 2010.06.25/outbox.cif.g09.slc.cpg/sg2_150_cif.got.tgz:298657.got - 2010.06.27 13:26:56.
