data_PCOD8035075
_publ_section_title
;
Structure prediction by ZEFSAII (Michael W. Deem and Ramdas Pophale) SiO2 
 PCOD8035075
Probable space group: P -1
;
_chemical_formula_sum "Si O2"
_cell_formula_units_Z 10
_cell_length_a 12.412982
_cell_length_b 14.474568
_cell_length_c 9.834088
_cell_angle_alpha 152.816317
_cell_angle_beta 35.676541
_cell_angle_gamma 150.256261
_cell_volume 394.195571
_symmetry_space_group_name_H-M "P -1"
_symmetry_group_IT_number 2
_symmetry_cell_setting 'triclinic'
loop_
_space_group_symop_operation_xyz
x,y,z
-x,-y,-z
loop_
_atom_site_type_symbol
_atom_site_label
_atom_site_fract_x
_atom_site_fract_y
_atom_site_fract_z
Si Si1 0.008834 0.736656 0.017643
Si Si2 0.535398 0.160859 0.375246
Si Si3 0.608865 0.532713 0.578295
Si Si4 0.587884 0.279796 0.765555
Si Si5 0.935998 0.153843 0.591146
O O1 0.848854 0.465528 0.769959
O O2 0.256811 0.866929 0.875004
O O3 0.002571 0.709873 0.150718
O O4 0.913729 0.897539 0.284871
O O5 0.522176 0.273490 0.393649
O O6 0.553072 0.321106 0.696864
O O7 0.301877 0.900105 0.283945
O O8 0.500000 0.500000 0.500000
O O9 0.873394 0.671782 0.481242
O O10 0.555535 0.680331 0.929188
O O11 0.500000 0.000000 0.500000
#
# Coordination Sequence:
#
# PCOD8035075 Si02
#       5
#     2   2   2   2   2
#     4  11  24  49  74 109 152 196 245 308 365 448
#     4  12  27  46  78 113 147 194 251 304 375 435
#     4  12  25  49  79 106 153 196 246 306 366 444
#     4  12  27  49  75 112 155 194 245 308 374 437
#     4  11  24  47  78 106 151 193 251 304 366 439
#
# _framework density 25.368119
#
# number of rings (size 3 to 8) (size 9 to 14) (size 15 to 20)
#    0.000    0.400    4.000    4.200    2.800    3.200 
#    0.000    0.000    0.000    0.000    0.000    0.000 
#    0.000    0.000    0.000    0.000    0.000    0.000 
#
# Total GULP energy -124008.264907 kJ/mol
# GULP energy per Si atom -12400.826491 kJ/mol
# Density = 2.531038 g / cm^3
# Si number density = 25.368119 Si / 1000 Ang^3
#
#
#
# Elastic Constant Matrix: (Units=GPa)
#
#
# Indices 1 2 3 4 5 6 
#
# 1 90.8729 48.0931 22.5080 -7.6150 31.9687 15.5452
# 2 48.0931 192.5224 31.5012 -24.8715 4.6820 43.1140
# 3 22.5080 31.5012 64.6219 -10.4042 18.0389 1.8595
# 4 -7.6150 -24.8715 -10.4042 55.0738 -0.1969 4.6897
# 5 31.9687 4.6820 18.0389 -0.1969 37.5453 -10.2438
# 6 15.5452 43.1140 1.8595 4.6897 -10.2438 38.9001
#
#
#
# Elastic Compliance Matrix: (Units=1/GPa)
#
#
# Indices 1 2 3 4 5 6 
#
# 1 0.022368 -0.001585 0.000263 0.003502 -0.022662 -0.013585
# 2 -0.001585 0.008723 -0.002426 0.004086 -0.001206 -0.009729
# 3 0.000263 -0.002426 0.019765 0.002747 -0.009746 -0.001259
# 4 0.003502 0.004086 0.002747 0.021890 -0.007617 -0.010704
# 5 -0.022662 -0.001206 -0.009746 -0.007617 0.058112 0.027080
# 6 -0.013585 -0.009729 -0.001259 -0.010704 0.027080 0.050400
#
#
# Mechanical properties :
#
#
# Convention : Reuss Voigt Hill
#
# Bulk Modulus (GPa) = 23.06297 61.35799 42.21048
# Shear Modulus (GPa) = 24.60550 42.69817 33.65183
#
# Velocity S-wave (km/s) = 3.11776 4.10706 3.64612
# Velocity P-wave (km/s) = 4.69805 6.83595 5.86523
#
# Compressibility (1/GPa) = 0.04335954
#
# Stress axis : x y z
#
# Youngs Moduli (GPa) = 44.70704 114.64169 50.59497
#
# Poissons Ratio (x) = 0.18168 -0.01329
# Poissons Ratio (y) = 0.07085 0.12273
# Poissons Ratio (z) = -0.01174 0.27809
#
# Static dielectric constant tensor:
#      x y z
#    x 4.616060 0.000580 0.254590 
#    y 0.000580 4.868610 -0.366610 
#    z 0.254590 -0.366610 4.779680 
# 
# 
# High freq. dielectric constant tensor:
#      x y z
#    x 2.003960 0.005830 0.012440 
#    y 0.005830 2.035100 -0.011870 
#    z 0.012440 -0.011870 2.016350 
# 
# From -- ./inp_files/144041.got.cif
#   From: 2010.06.25/outbox.cif.g09.slc.cpg/sg2_73_cif.got.tgz:144041.got - 2010.06.27 13:26:56.
