data_PCOD8035597
_publ_section_title
;
Structure prediction by ZEFSAII (Michael W. Deem and Ramdas Pophale) SiO2 
 PCOD8035597
Probable space group: P -1
;
_chemical_formula_sum "Si O2"
_cell_formula_units_Z 12
_cell_length_a 9.521265
_cell_length_b 8.298787
_cell_length_c 9.007726
_cell_angle_alpha 86.838811
_cell_angle_beta 50.404990
_cell_angle_gamma 105.092137
_cell_volume 505.609037
_symmetry_space_group_name_H-M "P -1"
_symmetry_group_IT_number 2
_symmetry_cell_setting 'triclinic'
loop_
_space_group_symop_operation_xyz
x,y,z
-x,-y,-z
loop_
_atom_site_type_symbol
_atom_site_label
_atom_site_fract_x
_atom_site_fract_y
_atom_site_fract_z
Si Si1 0.912433 0.346256 0.338658
Si Si2 0.119205 0.175449 0.997736
Si Si3 0.023106 0.693059 0.383663
Si Si4 0.399808 0.369407 0.210170
Si Si5 0.313997 0.049634 0.098063
Si Si6 0.336974 0.529640 0.700753
O O1 0.845555 0.278143 0.554885
O O2 0.739653 0.339709 0.342204
O O3 0.011291 0.220651 0.209614
O O4 0.058159 0.551527 0.256824
O O5 0.313562 0.153049 0.938655
O O6 0.166704 0.337201 0.845412
O O7 0.000000 0.000000 0.000000
O O8 0.787552 0.608928 0.584594
O O9 0.107219 0.880611 0.238778
O O10 0.311423 0.169588 0.230798
O O11 0.575773 0.389916 0.204232
O O12 0.500000 0.500000 0.000000
O O13 0.500000 0.000000 0.000000
O O14 0.500000 0.500000 0.500000
#
# Coordination Sequence:
#
# PCOD8035597 Si02
#       6
#     2   2   2   2   2   2
#     4  11  25  45  78 101 145 189 245 290 371 425
#     4  12  28  47  71 103 147 190 243 299 363 430
#     4  11  25  48  76 106 146 192 243 299 369 431
#     4  12  25  49  76 106 148 192 243 299 362 440
#     4  12  29  44  72 108 144 191 245 297 360 432
#     4  12  26  45  74 109 141 185 243 300 362 429
#
# _framework density 23.733754000000001
#
# number of rings (size 3 to 8) (size 9 to 14) (size 15 to 20)
#    0.000    0.333    5.000    2.000   11.667    0.000 
#    0.000    1.667    0.000    0.000    0.000    0.000 
#    0.000    0.000    0.000    0.000    0.000    0.000 
#
# Total GULP energy -148684.279627 kJ/mol
# GULP energy per Si atom -12390.356636 kJ/mol
# Density = 2.367973 g / cm^3
# Si number density = 23.733754 Si / 1000 Ang^3
#
#
#
# Elastic Constant Matrix: (Units=GPa)
#
#
# Indices 1 2 3 4 5 6 
#
# 1 174.0242 22.7651 15.3202 14.3784 9.8617 -10.1217
# 2 22.7651 139.2010 13.1564 18.2054 -3.8250 23.4095
# 3 15.3202 13.1564 58.7223 4.0888 -6.5733 4.4957
# 4 14.3784 18.2054 4.0888 36.4501 3.8343 1.4542
# 5 9.8617 -3.8250 -6.5733 3.8343 30.9149 3.3683
# 6 -10.1217 23.4095 4.4957 1.4542 3.3683 49.5386
#
#
#
# Elastic Compliance Matrix: (Units=1/GPa)
#
#
# Indices 1 2 3 4 5 6 
#
# 1 0.006463 -0.001128 -0.001788 -0.001598 -0.002627 0.002241
# 2 -0.001128 0.008743 -0.000814 -0.003892 0.002222 -0.004325
# 3 -0.001788 -0.000814 0.018458 -0.001384 0.004777 -0.001940
# 4 -0.001598 -0.003892 -0.001384 0.030562 -0.004168 0.001024
# 5 -0.002627 0.002222 0.004777 -0.004168 0.035462 -0.004309
# 6 0.002241 -0.004325 -0.001940 0.001024 -0.004309 0.023127
#
#
# Mechanical properties :
#
#
# Convention : Reuss Voigt Hill
#
# Bulk Modulus (GPa) = 38.16177 52.71453 45.43815
# Shear Modulus (GPa) = 35.96945 44.76110 40.36528
#
# Velocity S-wave (km/s) = 3.89722 4.34748 4.12849
# Velocity P-wave (km/s) = 6.03035 6.88911 6.47398
#
# Compressibility (1/GPa) = 0.02620423
#
# Stress axis : x y z
#
# Youngs Moduli (GPa) = 154.73735 114.38306 54.17811
#
# Poissons Ratio (x) = 0.12902 0.09685
# Poissons Ratio (y) = 0.17454 0.04408
# Poissons Ratio (z) = 0.27662 0.09306
#
# Static dielectric constant tensor:
#      x y z
#    x 6.928070 0.323370 0.522280 
#    y 0.323370 4.584210 0.192190 
#    z 0.522280 0.192190 4.104290 
# 
# 
# High freq. dielectric constant tensor:
#      x y z
#    x 1.961190 -0.003010 0.018710 
#    y -0.003010 1.952370 0.008600 
#    z 0.018710 0.008600 1.916490 
# 
# From -- ./inp_files/157835.got.cif
#   From: 2010.06.25/outbox.cif.g09.slc.cpg/sg2_79_cif.got.tgz:157835.got - 2010.06.27 13:26:56.
