data_PCOD8035376
_publ_section_title
;
Structure prediction by ZEFSAII (Michael W. Deem and Ramdas Pophale) SiO2 
 PCOD8035376
Probable space group: P -1
;
_chemical_formula_sum "Si O2"
_cell_formula_units_Z 16
_cell_length_a 11.640225
_cell_length_b 11.714145
_cell_length_c 13.704939
_cell_angle_alpha 114.620797
_cell_angle_beta 149.786568
_cell_angle_gamma 83.340448
_cell_volume 723.087990
_symmetry_space_group_name_H-M "P -1"
_symmetry_group_IT_number 2
_symmetry_cell_setting 'triclinic'
loop_
_space_group_symop_operation_xyz
x,y,z
-x,-y,-z
loop_
_atom_site_type_symbol
_atom_site_label
_atom_site_fract_x
_atom_site_fract_y
_atom_site_fract_z
Si Si1 0.640586 0.951829 0.660100
Si Si2 0.257587 0.837422 0.008152
Si Si3 0.181887 0.107521 0.586682
Si Si4 0.940801 0.992486 0.168963
Si Si5 0.840349 0.364534 0.762286
Si Si6 0.225879 0.371303 0.792838
Si Si7 0.857555 0.494386 0.618394
Si Si8 0.688096 0.684303 0.948213
O O1 0.452951 0.772608 0.469537
O O2 0.922854 0.995148 0.832209
O O3 0.500000 0.000000 0.500000
O O4 0.678607 0.040389 0.818540
O O5 0.160595 0.893927 0.866509
O O6 0.037285 0.672088 0.822510
O O7 0.506861 0.833785 0.146018
O O8 0.122087 0.238770 0.591496
O O9 0.136800 0.036896 0.421313
O O10 0.000000 0.000000 0.500000
O O11 0.697950 0.824978 0.955526
O O12 0.778281 0.428286 0.644294
O O13 0.000000 0.500000 0.000000
O O14 0.039838 0.306164 0.879147
O O15 0.014956 0.423010 0.661340
O O16 0.500000 0.500000 0.000000
O O17 0.299240 0.317168 0.926382
O O18 0.593506 0.455778 0.347927
#
# Coordination Sequence:
#
# PCOD8035376 Si02
#       8
#     2   2   2   2   2   2   2   2
#     4  12  23  47  74  99 142 182 230 285 340 411
#     4  12  27  45  72 106 137 184 233 281 346 413
#     4  12  26  47  72 101 138 183 235 283 346 409
#     4  12  27  45  73 103 139 181 232 287 343 411
#     4  11  25  44  70  99 139 182 226 284 347 408
#     4  11  25  47  69  96 137 180 229 287 342 406
#     4  11  27  44  67 101 142 178 228 283 346 414
#     4  11  25  45  67 100 138 181 226 284 348 406
#
# _framework density 22.127320000000001
#
# number of rings (size 3 to 8) (size 9 to 14) (size 15 to 20)
#    0.000    0.500    5.000    1.875    7.000    2.500 
#    0.000    0.000    0.000    0.000    0.000    0.000 
#    0.000    0.000    0.000    0.000    0.000    0.000 
#
# Total GULP energy -198300.559292 kJ/mol
# GULP energy per Si atom -12393.784956 kJ/mol
# Density = 2.207696 g / cm^3
# Si number density = 22.127320 Si / 1000 Ang^3
#
#
#
# Elastic Constant Matrix: (Units=GPa)
#
#
# Indices 1 2 3 4 5 6 
#
# 1 100.6402 22.1697 27.2237 14.2694 5.3265 5.6087
# 2 22.1697 115.3565 29.4410 19.2985 5.4051 12.3097
# 3 27.2237 29.4410 104.1981 19.6211 6.4330 3.7695
# 4 14.2694 19.2985 19.6211 52.8322 2.5876 0.1018
# 5 5.3265 5.4051 6.4330 2.5876 30.4438 14.3614
# 6 5.6087 12.3097 3.7695 0.1018 14.3614 30.0275
#
#
#
# Elastic Compliance Matrix: (Units=1/GPa)
#
#
# Indices 1 2 3 4 5 6 
#
# 1 0.011116 -0.001152 -0.002174 -0.001740 -0.000656 -0.001012
# 2 -0.001152 0.010259 -0.001993 -0.002738 0.001025 -0.004222
# 3 -0.002174 -0.001993 0.011341 -0.002814 -0.001721 0.000632
# 4 -0.001740 -0.002738 -0.002814 0.021518 -0.001626 0.002505
# 5 -0.000656 0.001025 -0.001721 -0.001626 0.043025 -0.020654
# 6 -0.001012 -0.004222 0.000632 0.002505 -0.020654 0.045013
#
#
# Mechanical properties :
#
#
# Convention : Reuss Voigt Hill
#
# Bulk Modulus (GPa) = 45.29049 53.09596 49.19323
# Shear Modulus (GPa) = 31.19741 38.75141 34.97441
#
# Velocity S-wave (km/s) = 3.75894 4.18938 3.97999
# Velocity P-wave (km/s) = 6.27313 6.88832 6.58791
#
# Compressibility (1/GPa) = 0.02207969
#
# Stress axis : x y z
#
# Youngs Moduli (GPa) = 89.96033 97.47284 88.17218
#
# Poissons Ratio (x) = 0.11225 0.19170
# Poissons Ratio (y) = 0.10360 0.17571
# Poissons Ratio (z) = 0.19558 0.19424
#
# Static dielectric constant tensor:
#      x y z
#    x 5.473480 0.904250 -0.033760 
#    y 0.904250 4.855100 -0.025290 
#    z -0.033760 -0.025290 3.882040 
# 
# 
# High freq. dielectric constant tensor:
#      x y z
#    x 1.874120 0.004500 0.002370 
#    y 0.004500 1.887110 0.006540 
#    z 0.002370 0.006540 1.876460 
# 
# From -- ./inp_files/333224.got.cif
#   From: 2010.06.25/outbox.cif.g09.slc.cpg/sg2_167_cif.got.tgz:333224.got - 2010.06.27 13:26:56.
