data_PCOD8035579
_publ_section_title
;
Structure prediction by ZEFSAII (Michael W. Deem and Ramdas Pophale) SiO2 
 PCOD8035579
Probable space group: P -1
;
_chemical_formula_sum "Si O2"
_cell_formula_units_Z 12
_cell_length_a 9.621391
_cell_length_b 9.356742
_cell_length_c 12.231351
_cell_angle_alpha 125.462838
_cell_angle_beta 34.187424
_cell_angle_gamma 120.460538
_cell_volume 503.067073
_symmetry_space_group_name_H-M "P -1"
_symmetry_group_IT_number 2
_symmetry_cell_setting 'triclinic'
loop_
_space_group_symop_operation_xyz
x,y,z
-x,-y,-z
loop_
_atom_site_type_symbol
_atom_site_label
_atom_site_fract_x
_atom_site_fract_y
_atom_site_fract_z
Si Si1 0.902057 0.500275 0.941024
Si Si2 0.877965 0.720290 0.467320
Si Si3 0.819767 0.753054 0.922500
Si Si4 0.646012 0.533848 0.736996
Si Si5 0.331624 0.950615 0.318070
Si Si6 0.283715 0.867097 0.540986
O O1 0.861761 0.687543 0.990079
O O2 0.123428 0.421448 0.691656
O O3 0.629072 0.398797 0.073113
O O4 0.000000 0.500000 0.000000
O O5 0.841992 0.628107 0.567531
O O6 0.148744 0.815307 0.311777
O O7 0.661532 0.855326 0.653002
O O8 0.742685 0.585591 0.819268
O O9 0.068992 0.856384 0.765562
O O10 0.609515 0.892040 0.118097
O O11 0.630287 0.325121 0.635018
O O12 0.196103 0.958358 0.527792
O O13 0.500000 0.000000 0.500000
#
# Coordination Sequence:
#
# PCOD8035579 Si02
#       6
#     2   2   2   2   2   2
#     4  12  27  44  74 112 148 192 250 312 368 437
#     4  11  25  46  75 113 149 189 249 312 366 433
#     4  12  24  49  81 105 143 206 257 290 369 458
#     4  12  24  48  82 104 143 206 254 294 368 456
#     4  11  25  45  75 113 148 190 250 310 364 441
#     4  12  27  44  74 110 149 192 246 315 371 432
#
# _framework density 23.853676
#
# number of rings (size 3 to 8) (size 9 to 14) (size 15 to 20)
#    0.000    0.333    6.667    2.000    2.333    4.667 
#    0.000    0.000    0.000    0.000    0.000    0.000 
#    0.000    0.000    0.000    0.000    0.000    0.000 
#
# Total GULP energy -148718.912523 kJ/mol
# GULP energy per Si atom -12393.242710 kJ/mol
# Density = 2.379938 g / cm^3
# Si number density = 23.853676 Si / 1000 Ang^3
#
#
#
# Elastic Constant Matrix: (Units=GPa)
#
#
# Indices 1 2 3 4 5 6 
#
# 1 129.6844 27.3862 27.1666 -6.3292 -2.5171 -13.8085
# 2 27.3862 80.5031 9.0570 -6.8351 -19.2365 2.7816
# 3 27.1666 9.0570 88.4912 -17.3504 -20.3214 0.9962
# 4 -6.3292 -6.8351 -17.3504 38.4393 -6.0322 -3.7580
# 5 -2.5171 -19.2365 -20.3214 -6.0322 40.2785 -7.6239
# 6 -13.8085 2.7816 0.9962 -3.7580 -7.6239 27.6944
#
#
#
# Elastic Compliance Matrix: (Units=1/GPa)
#
#
# Indices 1 2 3 4 5 6 
#
# 1 0.009553 -0.003516 -0.003090 -0.000269 -0.001792 0.004698
# 2 -0.003516 0.015998 0.002560 0.004878 0.009405 -0.000201
# 3 -0.003090 0.002560 0.016295 0.009211 0.010988 0.001891
# 4 -0.000269 0.004878 0.009211 0.033816 0.013411 0.007325
# 5 -0.001792 0.009405 0.010988 0.013411 0.038697 0.010239
# 6 0.004698 -0.000201 0.001891 0.007325 0.010239 0.042216
#
#
# Mechanical properties :
#
#
# Convention : Reuss Voigt Hill
#
# Bulk Modulus (GPa) = 29.62444 47.32204 38.47324
# Shear Modulus (GPa) = 28.42226 36.95369 32.68798
#
# Velocity S-wave (km/s) = 3.45559 3.94024 3.70585
# Velocity P-wave (km/s) = 5.32613 6.37041 5.87153
#
# Compressibility (1/GPa) = 0.03375592
#
# Stress axis : x y z
#
# Youngs Moduli (GPa) = 104.67886 62.50676 61.36749
#
# Poissons Ratio (x) = 0.21975 0.18963
# Poissons Ratio (y) = 0.36800 -0.15712
# Poissons Ratio (z) = 0.32347 -0.16004
#
# Static dielectric constant tensor:
#      x y z
#    x 4.344700 0.013160 0.223630 
#    y 0.013160 4.390600 0.121690 
#    z 0.223630 0.121690 4.705760 
# 
# 
# High freq. dielectric constant tensor:
#      x y z
#    x 1.939890 -0.011150 0.000080 
#    y -0.011150 1.936590 -0.006610 
#    z 0.000080 -0.006610 1.960820 
# 
# From -- ./inp_files/149673.got.cif
#   From: 2010.06.25/outbox.cif.g09.slc.cpg/sg2_75_cif.got.tgz:149673.got - 2010.06.27 13:26:56.
