data_PCOD8035690
_publ_section_title
;
Structure prediction by ZEFSAII (Michael W. Deem and Ramdas Pophale) SiO2 
 PCOD8035690
Probable space group: P -1
;
_chemical_formula_sum "Si O2"
_cell_formula_units_Z 12
_cell_length_a 8.600915
_cell_length_b 13.387007
_cell_length_c 7.532532
_cell_angle_alpha 139.688701
_cell_angle_beta 106.608175
_cell_angle_gamma 59.327336
_cell_volume 474.223725
_symmetry_space_group_name_H-M "P -1"
_symmetry_group_IT_number 2
_symmetry_cell_setting 'triclinic'
loop_
_space_group_symop_operation_xyz
x,y,z
-x,-y,-z
loop_
_atom_site_type_symbol
_atom_site_label
_atom_site_fract_x
_atom_site_fract_y
_atom_site_fract_z
Si Si1 0.603344 0.290980 0.146727
Si Si2 0.782629 0.419247 0.625584
Si Si3 0.505335 0.826987 0.689431
Si Si4 0.099764 0.477314 0.684061
Si Si5 0.334524 0.974091 0.474792
Si Si6 0.955535 0.197719 0.696261
O O1 0.741135 0.371882 0.347524
O O2 0.411098 0.416197 0.154492
O O3 0.556291 0.252638 0.277440
O O4 0.713253 0.131695 0.834467
O O5 0.956591 0.456753 0.744023
O O6 0.829462 0.260897 0.565019
O O7 0.704978 0.695456 0.497961
O O8 0.367593 0.876683 0.543357
O O9 0.500000 0.000000 0.000000
O O10 0.000000 0.500000 0.500000
O O11 0.130007 0.644120 0.973628
O O12 0.500000 0.000000 0.500000
O O13 0.162375 0.167506 0.687882
O O14 0.000000 0.000000 0.500000
#
# Coordination Sequence:
#
# PCOD8035690 Si02
#       6
#     2   2   2   2   2   2
#     4  11  25  46  72 108 146 197 246 303 376 436
#     4  11  25  48  72 106 150 192 247 306 371 440
#     4  12  24  46  76 109 148 195 252 308 368 443
#     4  12  25  47  76 107 151 191 247 304 371 438
#     4  12  24  44  71 104 150 190 244 302 369 437
#     4  12  28  48  75 112 146 197 250 303 369 443
#
# _framework density 25.304514000000001
#
# number of rings (size 3 to 8) (size 9 to 14) (size 15 to 20)
#    0.000    0.333    3.333    5.500    2.333    0.667 
#    0.000    4.167    0.000    0.000    0.000    0.000 
#    0.000    0.000    0.000    0.000    0.000    0.000 
#
# Total GULP energy -148679.044169 kJ/mol
# GULP energy per Si atom -12389.920347 kJ/mol
# Density = 2.524692 g / cm^3
# Si number density = 25.304514 Si / 1000 Ang^3
#
#
#
# Elastic Constant Matrix: (Units=GPa)
#
#
# Indices 1 2 3 4 5 6 
#
# 1 48.9421 19.6524 19.3314 9.7565 -2.6190 -2.2506
# 2 19.6524 177.3633 39.5342 4.9278 -18.7903 -7.4577
# 3 19.3314 39.5342 179.6786 5.1457 -2.7096 -10.2502
# 4 9.7565 4.9278 5.1457 45.7044 -5.3292 -2.2209
# 5 -2.6190 -18.7903 -2.7096 -5.3292 38.9349 11.5248
# 6 -2.2506 -7.4577 -10.2502 -2.2209 11.5248 35.8274
#
#
#
# Elastic Compliance Matrix: (Units=1/GPa)
#
#
# Indices 1 2 3 4 5 6 
#
# 1 0.022871 -0.002006 -0.001879 -0.004470 -0.000258 0.000287
# 2 -0.002006 0.006422 -0.001162 0.000205 0.002926 -0.000050
# 3 -0.001879 -0.001162 0.006109 -0.000172 -0.000766 0.001624
# 4 -0.004470 0.000205 -0.000172 0.023179 0.002894 0.000219
# 5 -0.000258 0.002926 -0.000766 0.002894 0.030126 -0.009138
# 6 0.000287 -0.000050 0.001624 0.000219 -0.009138 0.031337
#
#
# Mechanical properties :
#
#
# Convention : Reuss Voigt Hill
#
# Bulk Modulus (GPa) = 39.51320 62.55779 51.03550
# Shear Modulus (GPa) = 36.08199 45.92442 41.00321
#
# Velocity S-wave (km/s) = 3.78022 4.26475 4.02978
# Velocity P-wave (km/s) = 5.89087 7.00189 6.47027
#
# Compressibility (1/GPa) = 0.02530800
#
# Stress axis : x y z
#
# Youngs Moduli (GPa) = 43.72427 155.72447 163.68703
#
# Poissons Ratio (x) = 0.31244 0.30751
# Poissons Ratio (y) = 0.08773 0.19015
# Poissons Ratio (z) = 0.08214 0.18090
#
# Static dielectric constant tensor:
#      x y z
#    x 7.945670 -0.245920 1.246110 
#    y -0.245920 5.003800 0.365990 
#    z 1.246110 0.365990 5.848770 
# 
# 
# High freq. dielectric constant tensor:
#      x y z
#    x 2.026290 -0.008170 0.000220 
#    y -0.008170 2.023340 -0.000320 
#    z 0.000220 -0.000320 2.015160 
# 
# From -- ./inp_files/204797.got.cif
#   From: 2010.06.25/outbox.cif.g09.slc.cpg/sg2_103_cif.got.tgz:204797.got - 2010.06.27 13:26:56.
