data_PCOD8035098
_publ_section_title
;
Structure prediction by ZEFSAII (Michael W. Deem and Ramdas Pophale) SiO2 
 PCOD8035098
Probable space group: P -1
;
_chemical_formula_sum "Si O2"
_cell_formula_units_Z 14
_cell_length_a 11.021866
_cell_length_b 10.110886
_cell_length_c 10.926243
_cell_angle_alpha 58.529728
_cell_angle_beta 139.573976
_cell_angle_gamma 129.461769
_cell_volume 607.822258
_symmetry_space_group_name_H-M "P -1"
_symmetry_group_IT_number 2
_symmetry_cell_setting 'triclinic'
loop_
_space_group_symop_operation_xyz
x,y,z
-x,-y,-z
loop_
_atom_site_type_symbol
_atom_site_label
_atom_site_fract_x
_atom_site_fract_y
_atom_site_fract_z
Si Si1 0.508849 0.027720 0.351254
Si Si2 0.101666 0.666087 0.580846
Si Si3 0.857232 0.574490 0.103605
Si Si4 0.508761 0.440625 0.716454
Si Si5 0.129451 0.129515 0.644961
Si Si6 0.854287 0.894489 0.051396
Si Si7 0.310502 0.644609 0.333412
O O1 0.744146 0.161236 0.449222
O O2 0.500000 0.000000 0.500000
O O3 0.463185 0.846436 0.341714
O O4 0.367749 0.113464 0.146504
O O5 0.213061 0.613086 0.801213
O O6 0.000000 0.500000 0.500000
O O7 0.927068 0.710592 0.482500
O O8 0.866874 0.712130 0.148230
O O9 0.079501 0.631154 0.180469
O O10 0.669778 0.558697 0.882706
O O11 0.374272 0.239119 0.748615
O O12 0.374909 0.548444 0.536318
O O13 0.664375 0.445242 0.726294
O O14 0.091427 0.039932 0.795684
O O15 0.000000 0.000000 0.500000
O O16 0.000000 0.000000 0.000000
#
# Coordination Sequence:
#
# PCOD8035098 Si02
#       7
#     2   2   2   2   2   2   2
#     4  12  25  43  72 106 149 191 251 312 371 445
#     4  12  25  45  72 103 150 196 245 307 374 437
#     4  12  24  46  76 106 144 193 253 306 373 450
#     4  11  26  45  76 106 147 201 246 303 384 446
#     4  12  27  48  73 110 157 197 250 311 377 450
#     4  12  26  45  75 110 145 196 252 308 376 450
#     4  11  24  48  70 109 151 194 245 308 375 449
#
# _framework density 23.033049999999999
#
# number of rings (size 3 to 8) (size 9 to 14) (size 15 to 20)
#    0.000    0.286    4.286    4.714    2.000    4.571 
#    0.000    2.857    0.000    0.000    0.000    0.000 
#    0.000    0.000    0.000    0.000    0.000    0.000 
#
# Total GULP energy -173458.933194 kJ/mol
# GULP energy per Si atom -12389.923800 kJ/mol
# Density = 2.298063 g / cm^3
# Si number density = 23.033050 Si / 1000 Ang^3
#
#
#
# Elastic Constant Matrix: (Units=GPa)
#
#
# Indices 1 2 3 4 5 6 
#
# 1 93.3441 40.8768 45.6989 7.0631 -11.3873 4.1208
# 2 40.8768 125.6791 30.5283 9.7168 -1.5924 9.2937
# 3 45.6989 30.5283 120.4041 8.2548 -13.8644 -2.7990
# 4 7.0631 9.7168 8.2548 44.9565 1.7810 1.2245
# 5 -11.3873 -1.5924 -13.8644 1.7810 35.8662 -4.7298
# 6 4.1208 9.2937 -2.7990 1.2245 -4.7298 47.4093
#
#
#
# Elastic Compliance Matrix: (Units=1/GPa)
#
#
# Indices 1 2 3 4 5 6 
#
# 1 0.014871 -0.003640 -0.004347 -0.000850 0.002852 -0.000529
# 2 -0.003640 0.009630 -0.001175 -0.001193 -0.001353 -0.001745
# 3 -0.004347 -0.001175 0.010714 -0.001191 0.002975 0.001568
# 4 -0.000850 -0.001193 -0.001191 0.022948 -0.001996 -0.000554
# 5 0.002852 -0.001353 0.002975 -0.001996 0.030408 0.003278
# 6 -0.000529 -0.001745 0.001568 -0.000554 0.003278 0.021915
#
#
# Mechanical properties :
#
#
# Convention : Reuss Voigt Hill
#
# Bulk Modulus (GPa) = 59.20116 63.73726 61.46921
# Shear Modulus (GPa) = 37.19154 40.46795 38.82974
#
# Velocity S-wave (km/s) = 4.02270 4.19615 4.11034
# Velocity P-wave (km/s) = 6.88002 7.15605 7.01939
#
# Compressibility (1/GPa) = 0.01689156
#
# Stress axis : x y z
#
# Youngs Moduli (GPa) = 67.24641 103.84119 93.33779
#
# Poissons Ratio (x) = 0.37796 0.40573
# Poissons Ratio (y) = 0.24476 0.10966
# Poissons Ratio (z) = 0.29231 0.12200
#
# Static dielectric constant tensor:
#      x y z
#    x 4.797920 0.788180 0.232710 
#    y 0.788180 5.365750 0.053250 
#    z 0.232710 0.053250 4.500420 
# 
# 
# High freq. dielectric constant tensor:
#      x y z
#    x 1.918720 0.003560 0.002320 
#    y 0.003560 1.910980 -0.008750 
#    z 0.002320 -0.008750 1.920870 
# 
# From -- ./inp_files/199999.got.cif
#   From: 2010.06.25/outbox.cif.g09.slc.cpg/sg2_100_cif.got.tgz:199999.got - 2010.06.27 13:26:56.
