data_PCOD8035150
_publ_section_title
;
Structure prediction by ZEFSAII (Michael W. Deem and Ramdas Pophale) SiO2 
 PCOD8035150
Probable space group: P -1
;
_chemical_formula_sum "Si O2"
_cell_formula_units_Z 14
_cell_length_a 9.476702
_cell_length_b 12.837737
_cell_length_c 10.351883
_cell_angle_alpha 39.540442
_cell_angle_beta 127.818333
_cell_angle_gamma 129.800960
_cell_volume 597.301921
_symmetry_space_group_name_H-M "P -1"
_symmetry_group_IT_number 2
_symmetry_cell_setting 'triclinic'
loop_
_space_group_symop_operation_xyz
x,y,z
-x,-y,-z
loop_
_atom_site_type_symbol
_atom_site_label
_atom_site_fract_x
_atom_site_fract_y
_atom_site_fract_z
Si Si1 0.951199 0.335119 0.901185
Si Si2 0.253944 0.651495 0.629360
Si Si3 0.538423 0.518313 0.286097
Si Si4 0.232893 0.397896 0.431752
Si Si5 0.442753 0.822356 0.818344
Si Si6 0.938006 0.165450 0.317617
Si Si7 0.849023 0.096418 0.839715
O O1 0.779452 0.408671 0.756892
O O2 0.869990 0.161994 0.936071
O O3 0.128702 0.478317 0.797318
O O4 0.019958 0.285861 0.124290
O O5 0.389425 0.600410 0.654048
O O6 0.389108 0.796725 0.661577
O O7 0.116381 0.736124 0.394574
O O8 0.385837 0.388010 0.420770
O O9 0.707121 0.643720 0.351566
O O10 0.443728 0.635405 0.042970
O O11 0.027644 0.265175 0.404637
O O12 0.287359 0.880353 0.754401
O O13 0.641386 0.968011 0.814382
O O14 0.000000 0.000000 0.500000
O O15 0.000000 0.000000 0.000000
#
# Coordination Sequence:
#
# PCOD8035150 Si02
#       7
#     2   2   2   2   2   2   2
#     4  12  25  49  80 104 146 205 254 297 373 449
#     4  12  26  50  77 109 149 201 253 304 369 451
#     4  11  25  45  76 111 144 201 252 311 358 453
#     4  11  24  48  75 106 150 195 258 300 368 447
#     4  12  27  47  74 109 155 191 252 309 380 438
#     4  12  29  47  77 110 153 196 247 316 381 438
#     4  12  30  47  74 115 155 192 244 315 381 436
#
# _framework density 23.438731000000001
#
# number of rings (size 3 to 8) (size 9 to 14) (size 15 to 20)
#    0.000    0.286    4.286    3.429    8.000    1.714 
#    0.000    0.000    0.000    0.000    0.000    0.000 
#    0.000    0.000    0.000    0.000    0.000    0.000 
#
# Total GULP energy -173662.068218 kJ/mol
# GULP energy per Si atom -12404.433444 kJ/mol
# Density = 2.338538 g / cm^3
# Si number density = 23.438731 Si / 1000 Ang^3
#
#
#
# Elastic Constant Matrix: (Units=GPa)
#
#
# Indices 1 2 3 4 5 6 
#
# 1 156.3019 58.1343 48.8902 -10.4140 22.4032 -13.4711
# 2 58.1343 127.6556 18.9825 18.0679 10.0670 -6.9954
# 3 48.8902 18.9825 110.7408 -0.7925 27.6885 -19.3020
# 4 -10.4140 18.0679 -0.7925 39.1267 -5.3893 4.6292
# 5 22.4032 10.0670 27.6885 -5.3893 41.2762 -2.3138
# 6 -13.4711 -6.9954 -19.3020 4.6292 -2.3138 46.6694
#
#
#
# Elastic Compliance Matrix: (Units=1/GPa)
#
#
# Indices 1 2 3 4 5 6 
#
# 1 0.009462 -0.004323 -0.002961 0.004201 -0.001526 0.000366
# 2 -0.004323 0.010812 0.000580 -0.006472 -0.001458 0.001182
# 3 -0.002961 0.000580 0.012777 -0.002302 -0.007160 0.004390
# 4 0.004201 -0.006472 -0.002302 0.030676 0.004651 -0.003522
# 5 -0.001526 -0.001458 -0.007160 0.004651 0.030677 -0.002561
# 6 0.000366 0.001182 0.004390 -0.003522 -0.002561 0.023748
#
#
# Mechanical properties :
#
#
# Convention : Reuss Voigt Hill
#
# Bulk Modulus (GPa) = 50.91095 71.85695 61.38395
# Shear Modulus (GPa) = 36.20355 43.32721 39.76538
#
# Velocity S-wave (km/s) = 3.93441 4.30412 4.12341
# Velocity P-wave (km/s) = 6.51210 7.44476 6.99400
#
# Compressibility (1/GPa) = 0.01964214
#
# Stress axis : x y z
#
# Youngs Moduli (GPa) = 105.68476 92.49058 78.26722
#
# Poissons Ratio (x) = 0.39983 0.23174
# Poissons Ratio (y) = 0.45687 -0.04536
# Poissons Ratio (z) = 0.31292 -0.05360
#
# Static dielectric constant tensor:
#      x y z
#    x 4.354520 -0.328520 0.007390 
#    y -0.328520 4.311390 0.340730 
#    z 0.007390 0.340730 4.536110 
# 
# 
# High freq. dielectric constant tensor:
#      x y z
#    x 1.936650 -0.011770 0.009770 
#    y -0.011770 1.928250 0.017540 
#    z 0.009770 0.017540 1.938750 
# 
# From -- ./inp_files/184548.got.cif
#   From: 2010.06.25/outbox.cif.g09.slc.cpg/sg2_93_cif.got.tgz:184548.got - 2010.06.27 13:26:56.
