data_PCOD8035507
_publ_section_title
;
Structure prediction by ZEFSAII (Michael W. Deem and Ramdas Pophale) SiO2 
 PCOD8035507
Probable space group: P -1
;
_chemical_formula_sum "Si O2"
_cell_formula_units_Z 14
_cell_length_a 16.496367
_cell_length_b 6.690738
_cell_length_c 9.539674
_cell_angle_alpha 48.677474
_cell_angle_beta 57.600038
_cell_angle_gamma 58.615682
_cell_volume 644.088541
_symmetry_space_group_name_H-M "P -1"
_symmetry_group_IT_number 2
_symmetry_cell_setting 'triclinic'
loop_
_space_group_symop_operation_xyz
x,y,z
-x,-y,-z
loop_
_atom_site_type_symbol
_atom_site_label
_atom_site_fract_x
_atom_site_fract_y
_atom_site_fract_z
Si Si1 0.957890 0.820788 0.863781
Si Si2 0.597249 0.077973 0.926399
Si Si3 0.381408 0.906653 0.782194
Si Si4 0.536731 0.580819 0.576918
Si Si5 0.836636 0.070419 0.117161
Si Si6 0.914830 0.783835 0.453704
Si Si7 0.806322 0.698095 0.861619
O O1 0.865621 0.866106 0.822995
O O2 0.039089 0.965088 0.657474
O O3 0.000000 0.500000 0.000000
O O4 0.925379 0.974208 0.969098
O O5 0.612811 0.320804 0.699558
O O6 0.689624 0.812898 0.945163
O O7 0.585273 0.184513 0.048244
O O8 0.500000 0.000000 0.000000
O O9 0.442082 0.684424 0.718751
O O10 0.265546 0.935087 0.859452
O O11 0.400305 0.201161 0.600381
O O12 0.500000 0.500000 0.500000
O O13 0.858008 0.858479 0.324581
O O14 0.835965 0.376717 0.025785
O O15 0.830699 0.744370 0.656606
O O16 0.000000 0.500000 0.500000
#
# Coordination Sequence:
#
# PCOD8035507 Si02
#       7
#     2   2   2   2   2   2   2
#     4  12  24  48  74 101 145 192 238 300 366 428
#     4  12  25  46  74 103 145 191 243 296 362 442
#     4  11  26  45  71 104 141 193 234 304 364 426
#     4  11  25  45  72 103 143 186 240 296 365 426
#     4  12  26  46  71 105 148 183 242 297 371 426
#     4  12  26  46  74 105 147 189 242 307 360 434
#     4  12  27  45  73 108 142 194 243 298 364 433
#
# _framework density 21.736142000000001
#
# number of rings (size 3 to 8) (size 9 to 14) (size 15 to 20)
#    0.000    0.286    5.714    3.000    2.000    3.429 
#    0.000    0.000    0.000    0.000    0.000    0.000 
#    0.000    0.000    0.000    0.000    0.000    0.000 
#
# Total GULP energy -173686.994935 kJ/mol
# GULP energy per Si atom -12406.213924 kJ/mol
# Density = 2.168667 g / cm^3
# Si number density = 21.736142 Si / 1000 Ang^3
#
#
#
# Elastic Constant Matrix: (Units=GPa)
#
#
# Indices 1 2 3 4 5 6 
#
# 1 115.9439 24.6868 26.1823 4.8927 10.2441 14.2971
# 2 24.6868 120.9012 35.5965 3.1883 9.4883 -0.6937
# 3 26.1823 35.5965 113.1676 0.9104 22.2030 4.2358
# 4 4.8927 3.1883 0.9104 48.6413 3.8921 3.5186
# 5 10.2441 9.4883 22.2030 3.8921 46.1960 3.4753
# 6 14.2971 -0.6937 4.2358 3.5186 3.4753 33.7663
#
#
#
# Elastic Compliance Matrix: (Units=1/GPa)
#
#
# Indices 1 2 3 4 5 6 
#
# 1 0.009858 -0.001517 -0.001493 -0.000518 -0.000821 -0.003879
# 2 -0.001517 0.009388 -0.002564 -0.000472 -0.000414 0.001249
# 3 -0.001493 -0.002564 0.010857 0.000493 -0.004373 -0.000384
# 4 -0.000518 -0.000472 0.000493 0.020899 -0.001646 -0.001861
# 5 -0.000821 -0.000414 -0.004373 -0.001646 0.024263 -0.001438
# 6 -0.003879 0.001249 -0.000384 -0.001861 -0.001438 0.031674
#
#
# Mechanical properties :
#
#
# Convention : Reuss Voigt Hill
#
# Bulk Modulus (GPa) = 52.75811 58.10488 55.43149
# Shear Modulus (GPa) = 40.19181 43.29053 41.74117
#
# Velocity S-wave (km/s) = 4.30476 4.46762 4.38694
# Velocity P-wave (km/s) = 7.00233 7.30772 7.15666
#
# Compressibility (1/GPa) = 0.01895443
#
# Stress axis : x y z
#
# Youngs Moduli (GPa) = 101.44180 106.51947 92.10998
#
# Poissons Ratio (x) = 0.16164 0.13751
# Poissons Ratio (y) = 0.15394 0.23614
# Poissons Ratio (z) = 0.15144 0.27308
#
# Static dielectric constant tensor:
#      x y z
#    x 3.659290 -0.211870 0.269980 
#    y -0.211870 3.773110 0.130740 
#    z 0.269980 0.130740 4.103620 
# 
# 
# High freq. dielectric constant tensor:
#      x y z
#    x 1.863330 0.004830 0.003560 
#    y 0.004830 1.860320 -0.002750 
#    z 0.003560 -0.002750 1.868030 
# 
# From -- ./inp_files/39060.got.cif
#   From: 2010.06.25/outbox.cif.g09.slc.cpg/sg2_20_cif.got.tgz:39060.got - 2010.06.27 13:26:56.
