data_PCOD8035557
_publ_section_title
;
Structure prediction by ZEFSAII (Michael W. Deem and Ramdas Pophale) SiO2 
 PCOD8035557
Probable space group: P -1
;
_chemical_formula_sum "Si O2"
_cell_formula_units_Z 14
_cell_length_a 10.459944
_cell_length_b 13.668668
_cell_length_c 19.243046
_cell_angle_alpha 33.907377
_cell_angle_beta 23.118282
_cell_angle_gamma 34.983470
_cell_volume 582.558356
_symmetry_space_group_name_H-M "P -1"
_symmetry_group_IT_number 2
_symmetry_cell_setting 'triclinic'
loop_
_space_group_symop_operation_xyz
x,y,z
-x,-y,-z
loop_
_atom_site_type_symbol
_atom_site_label
_atom_site_fract_x
_atom_site_fract_y
_atom_site_fract_z
Si Si1 0.066364 0.112071 0.834932
Si Si2 0.322639 0.538919 0.730272
Si Si3 0.769779 0.355992 0.142545
Si Si4 0.159354 0.968493 0.151949
Si Si5 0.083107 0.752789 0.438818
Si Si6 0.327879 0.502421 0.158622
Si Si7 0.153856 0.927103 0.538514
O O1 0.830588 0.080844 0.906442
O O2 0.973979 0.321026 0.782374
O O3 0.461976 0.062174 0.648793
O O4 0.000000 0.000000 0.000000
O O5 0.454353 0.612057 0.693254
O O6 0.591669 0.417811 0.614291
O O7 0.119658 0.720815 0.684449
O O8 0.126469 0.403272 0.941921
O O9 0.605625 0.494932 0.082389
O O10 0.846993 0.144457 0.210722
O O11 0.054326 0.802850 0.341806
O O12 0.500000 0.000000 0.000000
O O13 0.781499 0.683601 0.663779
O O14 0.091531 0.940132 0.362345
O O15 0.500000 0.500000 0.000000
O O16 0.000000 0.000000 0.500000
#
# Coordination Sequence:
#
# PCOD8035557 Si02
#       7
#     2   2   2   2   2   2   2
#     4  12  29  50  75 111 157 201 255 318 388 457
#     4  11  25  47  73 111 144 199 252 316 374 461
#     4  11  25  45  74 108 153 191 253 310 385 449
#     4  12  26  47  80 114 152 201 258 319 380 459
#     4  12  26  48  78 109 151 201 259 315 386 452
#     4  12  28  48  73 110 156 199 254 320 385 460
#     4  12  29  48  77 110 153 201 258 318 383 456
#
# _framework density 24.031925999999999
#
# number of rings (size 3 to 8) (size 9 to 14) (size 15 to 20)
#    0.000    0.286    4.286    3.429   10.000    4.000 
#    0.000    0.000    0.000    0.000    0.000    0.000 
#    0.000    0.000    0.000    0.000    0.000    0.000 
#
# Total GULP energy -173456.228847 kJ/mol
# GULP energy per Si atom -12389.730632 kJ/mol
# Density = 2.397723 g / cm^3
# Si number density = 24.031926 Si / 1000 Ang^3
#
#
#
# Elastic Constant Matrix: (Units=GPa)
#
#
# Indices 1 2 3 4 5 6 
#
# 1 136.2444 40.0996 28.7672 4.1212 26.0199 -14.2851
# 2 40.0996 194.0272 30.4996 -1.1770 18.4255 5.7159
# 3 28.7672 30.4996 93.2775 -12.2460 19.4150 -3.0331
# 4 4.1212 -1.1770 -12.2460 46.4309 -4.9251 12.1366
# 5 26.0199 18.4255 19.4150 -4.9251 41.5718 -5.2624
# 6 -14.2851 5.7159 -3.0331 12.1366 -5.2624 34.5071
#
#
#
# Elastic Compliance Matrix: (Units=1/GPa)
#
#
# Indices 1 2 3 4 5 6 
#
# 1 0.009509 -0.001421 -0.001827 -0.002965 -0.004263 0.004404
# 2 -0.001421 0.005825 -0.001209 0.000330 -0.001339 -0.001980
# 3 -0.001827 -0.001209 0.012947 0.003437 -0.004119 -0.001255
# 4 -0.002965 0.000330 0.003437 0.025436 0.001898 -0.009637
# 5 -0.004263 -0.001339 -0.004119 0.001898 0.029713 0.001959
# 6 0.004404 -0.001980 -0.001255 -0.009637 0.001959 0.034709
#
#
# Mechanical properties :
#
#
# Convention : Reuss Voigt Hill
#
# Bulk Modulus (GPa) = 51.63051 69.14240 60.38645
# Shear Modulus (GPa) = 37.45082 46.11413 41.78247
#
# Velocity S-wave (km/s) = 3.95191 4.38524 4.17420
# Velocity P-wave (km/s) = 6.50801 7.38065 6.95803
#
# Compressibility (1/GPa) = 0.01936839
#
# Stress axis : x y z
#
# Youngs Moduli (GPa) = 105.16024 171.67034 77.23696
#
# Poissons Ratio (x) = 0.24395 0.14111
# Poissons Ratio (y) = 0.14944 0.09335
# Poissons Ratio (z) = 0.19212 0.20749
#
# Static dielectric constant tensor:
#      x y z
#    x 4.202840 -0.021840 0.220610 
#    y -0.021840 4.577350 0.015050 
#    z 0.220610 0.015050 4.262950 
# 
# 
# High freq. dielectric constant tensor:
#      x y z
#    x 1.941440 -0.000500 0.021420 
#    y -0.000500 1.980940 -0.010260 
#    z 0.021420 -0.010260 1.949940 
# 
# From -- ./inp_files/184466.got.cif
#   From: 2010.06.25/outbox.cif.g09.slc.cpg/sg2_93_cif.got.tgz:184466.got - 2010.06.27 13:26:56.
