data_PCOD8035884
_publ_section_title
;
Structure prediction by ZEFSAII (Michael W. Deem and Ramdas Pophale) SiO2 
 PCOD8035884
Probable space group: P -1
;
_chemical_formula_sum "Si O2"
_cell_formula_units_Z 12
_cell_length_a 7.492632
_cell_length_b 14.212959
_cell_length_c 5.161446
_cell_angle_alpha 100.852124
_cell_angle_beta 64.818262
_cell_angle_gamma 71.372357
_cell_volume 436.381440
_symmetry_space_group_name_H-M "P -1"
_symmetry_group_IT_number 2
_symmetry_cell_setting 'triclinic'
loop_
_space_group_symop_operation_xyz
x,y,z
-x,-y,-z
loop_
_atom_site_type_symbol
_atom_site_label
_atom_site_fract_x
_atom_site_fract_y
_atom_site_fract_z
Si Si1 0.300669 0.835667 0.231392
Si Si2 0.588153 0.567491 0.205472
Si Si3 0.788447 0.604643 0.606976
Si Si4 0.768878 0.333667 0.127452
Si Si5 0.114358 0.044862 0.150452
Si Si6 0.235387 0.214986 0.987011
O O1 0.085693 0.854132 0.536420
O O2 0.267599 0.949422 0.193628
O O3 0.321576 0.750643 0.950607
O O4 0.520567 0.799678 0.258982
O O5 0.733607 0.593059 0.339814
O O6 0.681941 0.438632 0.050305
O O7 0.335498 0.624203 0.498302
O O8 0.600179 0.613803 0.940158
O O9 0.818428 0.712856 0.678372
O O10 0.000000 0.500000 0.500000
O O11 0.036048 0.278506 0.942051
O O12 0.259210 0.096344 0.958318
O O13 0.000000 0.000000 0.000000
#
# Coordination Sequence:
#
# PCOD8035884 Si02
#       6
#     2   2   2   2   2   2
#     4  11  26  50  74 110 148 196 251 320 384 457
#     4  11  27  48  75 113 163 201 254 322 372 462
#     4  12  26  47  73 116 154 205 261 310 385 460
#     4  11  25  47  77 112 150 205 252 315 382 458
#     4  11  26  50  75 108 147 191 258 316 387 455
#     4  12  26  45  78 107 147 202 249 319 381 459
#
# _framework density 27.498881999999998
#
# number of rings (size 3 to 8) (size 9 to 14) (size 15 to 20)
#    0.000    0.667    5.000    1.000    4.667    3.333 
#    3.000    0.000    0.000    0.000    0.000    0.000 
#    0.000    0.000    0.000    0.000    0.000    0.000 
#
# Total GULP energy -148715.890659 kJ/mol
# GULP energy per Si atom -12392.990888 kJ/mol
# Density = 2.743629 g / cm^3
# Si number density = 27.498882 Si / 1000 Ang^3
#
#
#
# Elastic Constant Matrix: (Units=GPa)
#
#
# Indices 1 2 3 4 5 6 
#
# 1 163.2982 47.3946 7.0157 20.6695 -7.9788 2.5050
# 2 47.3946 118.4296 21.3865 31.8139 -4.3203 12.1960
# 3 7.0157 21.3865 72.4427 11.0869 2.8616 5.9621
# 4 20.6695 31.8139 11.0869 32.2355 0.7435 -2.7665
# 5 -7.9788 -4.3203 2.8616 0.7435 38.8126 19.0102
# 6 2.5050 12.1960 5.9621 -2.7665 19.0102 56.6201
#
#
#
# Elastic Compliance Matrix: (Units=1/GPa)
#
#
# Indices 1 2 3 4 5 6 
#
# 1 0.007140 -0.002069 0.000322 -0.002730 0.001537 -0.000554
# 2 -0.002069 0.013289 -0.001722 -0.011650 0.003532 -0.004345
# 3 0.000322 -0.001722 0.014977 -0.003750 -0.000563 -0.001215
# 4 -0.002730 -0.011650 -0.003750 0.046328 -0.006055 0.007322
# 5 0.001537 0.003532 -0.000563 -0.006055 0.032497 -0.011976
# 6 -0.000554 -0.004345 -0.001215 0.007322 -0.011976 0.023129
#
#
# Mechanical properties :
#
#
# Convention : Reuss Voigt Hill
#
# Bulk Modulus (GPa) = 35.12699 56.19602 45.66150
# Shear Modulus (GPa) = 32.51274 44.09188 38.30231
#
# Velocity S-wave (km/s) = 3.44223 4.00860 3.73616
# Velocity P-wave (km/s) = 5.34793 6.47343 5.93741
#
# Compressibility (1/GPa) = 0.02846814
#
# Stress axis : x y z
#
# Youngs Moduli (GPa) = 140.06548 75.25214 66.76828
#
# Poissons Ratio (x) = 0.15569 -0.02150
# Poissons Ratio (y) = 0.28979 0.11495
# Poissons Ratio (z) = -0.04510 0.12956
#
# Static dielectric constant tensor:
#      x y z
#    x 5.169820 0.108750 -0.259320 
#    y 0.108750 5.423570 0.479370 
#    z -0.259320 0.479370 5.292520 
# 
# 
# High freq. dielectric constant tensor:
#      x y z
#    x 2.127880 0.003290 -0.004240 
#    y 0.003290 2.126790 0.030890 
#    z -0.004240 0.030890 2.083470 
# 
# From -- ./inp_files/30222.got.cif
#   From: 2010.06.25/outbox.cif.g09.slc.cpg/sg2_16_cif.got.tgz:30222.got - 2010.06.27 13:26:56.
