data_PCOD8035593
_publ_section_title
;
Structure prediction by ZEFSAII (Michael W. Deem and Ramdas Pophale) SiO2 
 PCOD8035593
Probable space group: P -1
;
_chemical_formula_sum "Si O2"
_cell_formula_units_Z 16
_cell_length_a 5.824698
_cell_length_b 11.731459
_cell_length_c 11.425632
_cell_angle_alpha 89.444722
_cell_angle_beta 122.178413
_cell_angle_gamma 97.734605
_cell_volume 653.009749
_symmetry_space_group_name_H-M "P -1"
_symmetry_group_IT_number 2
_symmetry_cell_setting 'triclinic'
loop_
_space_group_symop_operation_xyz
x,y,z
-x,-y,-z
loop_
_atom_site_type_symbol
_atom_site_label
_atom_site_fract_x
_atom_site_fract_y
_atom_site_fract_z
Si Si1 0.130764 0.052145 0.415500
Si Si2 0.143212 0.399397 0.588650
Si Si3 0.023018 0.286347 0.329089
Si Si4 0.341099 0.892585 0.302225
Si Si5 0.725724 0.539017 0.773863
Si Si6 0.558388 0.704733 0.908040
Si Si7 0.024517 0.340486 0.811564
Si Si8 0.333487 0.028199 0.074758
O O1 0.994469 0.148851 0.305049
O O2 0.429822 0.115962 0.536709
O O3 0.121756 0.955554 0.313124
O O4 0.000000 0.000000 0.500000
O O5 0.072385 0.294716 0.480800
O O6 0.460794 0.443084 0.693105
O O7 0.002194 0.348656 0.667619
O O8 0.000000 0.500000 0.500000
O O9 0.269337 0.372742 0.335525
O O10 0.762165 0.337113 0.202063
O O11 0.202020 0.769135 0.215008
O O12 0.461846 0.964720 0.218758
O O13 0.737398 0.624990 0.885257
O O14 0.969649 0.462102 0.850441
O O15 0.613754 0.836949 0.885606
O O16 0.670019 0.684970 0.069066
O O17 0.500000 0.000000 0.000000
O O18 0.000000 0.000000 0.000000
#
# Coordination Sequence:
#
# PCOD8035593 Si02
#       8
#     2   2   2   2   2   2   2   2
#     4  11  25  45  77 110 148 198 260 331 397 469
#     4  12  25  47  70 107 145 197 254 316 386 467
#     4  12  26  45  77 106 150 198 250 326 389 470
#     4  11  26  48  73 114 149 201 264 325 394 476
#     4  12  26  46  74 104 151 199 258 313 398 458
#     4  12  28  47  75 112 149 197 259 319 394 468
#     4  12  27  47  74 106 154 199 259 315 392 465
#     4  12  29  52  81 114 162 211 263 325 404 477
#
# _framework density 24.501932
#
# number of rings (size 3 to 8) (size 9 to 14) (size 15 to 20)
#    0.000    0.250    3.750    3.750    7.000    7.000 
#    0.000    0.000    0.000    0.000    0.000    0.000 
#    0.000    0.000    0.000    0.000    0.000    0.000 
#
# Total GULP energy -198253.762768 kJ/mol
# GULP energy per Si atom -12390.860173 kJ/mol
# Density = 2.444616 g / cm^3
# Si number density = 24.501932 Si / 1000 Ang^3
#
#
#
# Elastic Constant Matrix: (Units=GPa)
#
#
# Indices 1 2 3 4 5 6 
#
# 1 90.7236 36.9023 19.9993 -3.4688 -16.5613 -4.8881
# 2 36.9023 155.2871 32.9392 -6.8036 -9.7961 -11.2044
# 3 19.9993 32.9392 97.1565 -11.3717 -9.6817 -5.8742
# 4 -3.4688 -6.8036 -11.3717 48.2083 0.4114 -2.8375
# 5 -16.5613 -9.7961 -9.6817 0.4114 35.0529 2.2955
# 6 -4.8881 -11.2044 -5.8742 -2.8375 2.2955 32.0443
#
#
#
# Elastic Compliance Matrix: (Units=1/GPa)
#
#
# Indices 1 2 3 4 5 6 
#
# 1 0.013319 -0.002507 -0.001307 0.000286 0.005191 0.000569
# 2 -0.002507 0.007614 -0.001850 0.000571 0.000297 0.001970
# 3 -0.001307 -0.001850 0.011762 0.002484 0.001994 0.001387
# 4 0.000286 0.000571 0.002484 0.021577 0.000559 0.002569
# 5 0.005191 0.000297 0.001994 0.000559 0.031671 -0.000958
# 6 0.000569 0.001970 0.001387 0.002569 -0.000958 0.032533
#
#
# Mechanical properties :
#
#
# Convention : Reuss Voigt Hill
#
# Bulk Modulus (GPa) = 46.79803 58.09430 52.44616
# Shear Modulus (GPa) = 36.51625 39.94952 38.23288
#
# Velocity S-wave (km/s) = 3.86468 4.04228 3.95448
# Velocity P-wave (km/s) = 6.24944 6.74895 6.50399
#
# Compressibility (1/GPa) = 0.02136842
#
# Stress axis : x y z
#
# Youngs Moduli (GPa) = 75.07827 131.34238 85.01867
#
# Poissons Ratio (x) = 0.32928 0.11109
# Poissons Ratio (y) = 0.18822 0.15726
# Poissons Ratio (z) = 0.09810 0.24294
#
# Static dielectric constant tensor:
#      x y z
#    x 4.612260 -0.190690 0.040740 
#    y -0.190690 4.203910 -0.543380 
#    z 0.040740 -0.543380 3.727760 
# 
# 
# High freq. dielectric constant tensor:
#      x y z
#    x 1.963390 -0.004340 0.002750 
#    y -0.004340 1.995050 -0.004530 
#    z 0.002750 -0.004530 1.982560 
# 
# From -- ./inp_files/364654.got.cif
#   From: 2010.06.25/outbox.cif.g09.slc.cpg/sg2_183_cif.got.tgz:364654.got - 2010.06.27 13:26:56.
