data_PCOD8035137
_publ_section_title
;
Structure prediction by ZEFSAII (Michael W. Deem and Ramdas Pophale) SiO2 
 PCOD8035137
Probable space group: P -1
;
_chemical_formula_sum "Si O2"
_cell_formula_units_Z 16
_cell_length_a 8.577440
_cell_length_b 12.548071
_cell_length_c 8.928149
_cell_angle_alpha 127.538801
_cell_angle_beta 82.378943
_cell_angle_gamma 101.593910
_cell_volume 746.357624
_symmetry_space_group_name_H-M "P -1"
_symmetry_group_IT_number 2
_symmetry_cell_setting 'triclinic'
loop_
_space_group_symop_operation_xyz
x,y,z
-x,-y,-z
loop_
_atom_site_type_symbol
_atom_site_label
_atom_site_fract_x
_atom_site_fract_y
_atom_site_fract_z
Si Si1 0.424775 0.355422 0.827815
Si Si2 0.095515 0.578007 0.684055
Si Si3 0.130719 0.261537 0.991899
Si Si4 0.303996 0.135709 0.131503
Si Si5 0.344064 0.840647 0.794509
Si Si6 0.384824 0.868080 0.453947
Si Si7 0.790255 0.682876 0.438538
Si Si8 0.042623 0.854750 0.352260
O O1 0.265855 0.313584 0.902978
O O2 0.554866 0.257860 0.742359
O O3 0.377238 0.343371 0.648965
O O4 0.500000 0.500000 0.000000
O O5 0.210769 0.711277 0.727139
O O6 0.195726 0.470792 0.649849
O O7 0.000000 0.500000 0.500000
O O8 0.951268 0.614300 0.833499
O O9 0.986255 0.171836 0.843952
O O10 0.217821 0.180951 0.034181
O O11 0.494423 0.185727 0.163719
O O12 0.218188 0.203970 0.335584
O O13 0.279849 0.970948 0.989684
O O14 0.372129 0.863567 0.632344
O O15 0.221499 0.865552 0.388719
O O16 0.500000 0.000000 0.500000
O O17 0.940101 0.739837 0.366877
O O18 0.000000 0.000000 0.500000
#
# Coordination Sequence:
#
# PCOD8035137 Si02
#       8
#     2   2   2   2   2   2   2   2
#     4  11  27  44  71 102 143 191 240 290 356 426
#     4  12  27  45  70 106 149 188 236 296 373 436
#     4  11  27  45  70 107 141 189 238 294 360 427
#     4  11  24  48  74 105 145 179 250 295 367 427
#     4  11  27  44  76 109 140 191 238 307 363 427
#     4  12  25  48  75 103 142 187 245 296 355 425
#     4  11  25  47  70 106 145 191 237 300 359 435
#     4  11  26  45  75 103 144 189 244 294 361 421
#
# _framework density 21.437443999999999
#
# number of rings (size 3 to 8) (size 9 to 14) (size 15 to 20)
#    0.000    0.750    2.500    3.750    8.750    3.000 
#    0.000    0.000    0.000    0.000    0.000    0.000 
#    0.000    0.000    0.000    0.000    0.000    0.000 
#
# Total GULP energy -198266.833910 kJ/mol
# GULP energy per Si atom -12391.677119 kJ/mol
# Density = 2.138865 g / cm^3
# Si number density = 21.437444 Si / 1000 Ang^3
#
#
#
# Elastic Constant Matrix: (Units=GPa)
#
#
# Indices 1 2 3 4 5 6 
#
# 1 167.0437 64.2933 74.9097 7.2663 12.0525 -21.0411
# 2 64.2933 118.9621 63.9952 14.2413 5.6551 -10.5335
# 3 74.9097 63.9952 170.2387 16.3579 -0.4932 -15.2972
# 4 7.2663 14.2413 16.3579 42.5845 -6.8005 1.7199
# 5 12.0525 5.6551 -0.4932 -6.8005 52.7039 4.9204
# 6 -21.0411 -10.5335 -15.2972 1.7199 4.9204 27.2874
#
#
#
# Elastic Compliance Matrix: (Units=1/GPa)
#
#
# Indices 1 2 3 4 5 6 
#
# 1 0.008996 -0.003030 -0.002375 -0.000161 -0.002228 0.004848
# 2 -0.003030 0.012034 -0.002845 -0.002628 -0.001064 0.001072
# 3 -0.002375 -0.002845 0.008324 -0.001828 0.000526 0.001757
# 4 -0.000161 -0.002628 -0.001828 0.025924 0.004070 -0.004531
# 5 -0.002228 -0.001064 0.000526 0.004070 0.020671 -0.005817
# 6 0.004848 0.001072 0.001757 -0.004531 -0.005817 0.043118
#
#
# Mechanical properties :
#
#
# Convention : Reuss Voigt Hill
#
# Bulk Modulus (GPa) = 77.79470 95.84898 86.82184
# Shear Modulus (GPa) = 35.75255 41.38492 38.56873
#
# Velocity S-wave (km/s) = 4.08825 4.39851 4.24622
# Velocity P-wave (km/s) = 7.65853 8.40261 8.03918
#
# Compressibility (1/GPa) = 0.01285435
#
# Stress axis : x y z
#
# Youngs Moduli (GPa) = 111.16051 83.09801 120.14143
#
# Poissons Ratio (x) = 0.25178 0.28532
# Poissons Ratio (y) = 0.33681 0.34177
# Poissons Ratio (z) = 0.26399 0.23639
#
# Static dielectric constant tensor:
#      x y z
#    x 4.048190 -0.346210 0.167510 
#    y -0.346210 3.413020 -0.117280 
#    z 0.167510 -0.117280 4.264670 
# 
# 
# High freq. dielectric constant tensor:
#      x y z
#    x 1.863200 -0.013260 0.004250 
#    y -0.013260 1.836560 0.004600 
#    z 0.004250 0.004600 1.868250 
# 
# From -- ./inp_files/190713.got.cif
#   From: 2010.06.25/outbox.cif.g09.slc.cpg/sg2_96_cif.got.tgz:190713.got - 2010.06.27 13:26:56.
