data_PCOD8035042
_publ_section_title
;
Structure prediction by ZEFSAII (Michael W. Deem and Ramdas Pophale) SiO2 
 PCOD8035042
Probable space group: P -1
;
_chemical_formula_sum "Si O2"
_cell_formula_units_Z 12
_cell_length_a 14.834685
_cell_length_b 5.503250
_cell_length_c 6.724914
_cell_angle_alpha 106.334289
_cell_angle_beta 78.890385
_cell_angle_gamma 94.237588
_cell_volume 516.869061
_symmetry_space_group_name_H-M "P -1"
_symmetry_group_IT_number 2
_symmetry_cell_setting 'triclinic'
loop_
_space_group_symop_operation_xyz
x,y,z
-x,-y,-z
loop_
_atom_site_type_symbol
_atom_site_label
_atom_site_fract_x
_atom_site_fract_y
_atom_site_fract_z
Si Si1 0.688529 0.482206 0.580092
Si Si2 0.213209 0.681613 0.118954
Si Si3 0.989844 0.289316 0.629582
Si Si4 0.179788 0.289175 0.719201
Si Si5 0.556801 0.749307 0.965681
Si Si6 0.300024 0.954496 0.801815
O O1 0.719655 0.332498 0.727088
O O2 0.777321 0.636085 0.494607
O O3 0.609388 0.674247 0.722463
O O4 0.652645 0.289449 0.376990
O O5 0.107455 0.700637 0.223563
O O6 0.223361 0.440020 0.919498
O O7 0.250947 0.916196 0.027254
O O8 0.000000 0.500000 0.500000
O O9 0.070872 0.329796 0.766183
O O10 0.000000 0.000000 0.500000
O O11 0.216993 0.011760 0.693364
O O12 0.500000 0.500000 0.000000
O O13 0.500000 0.000000 0.000000
O O14 0.623638 0.825538 0.140038
#
# Coordination Sequence:
#
# PCOD8035042 Si02
#       6
#     2   2   2   2   2   2
#     4  11  25  48  77 105 153 198 245 313 376 451
#     4  11  24  47  74 107 157 199 249 307 362 443
#     4  12  27  44  72 113 153 202 253 299 363 432
#     4  11  25  45  75 109 146 205 250 301 370 440
#     4  12  29  51  77 112 149 192 249 319 385 457
#     4  11  27  46  79 111 144 206 251 303 387 446
#
# _framework density 23.216712999999999
#
# number of rings (size 3 to 8) (size 9 to 14) (size 15 to 20)
#    0.000    0.667    3.333    2.500   14.000    2.000 
#    0.000    0.000    0.000    0.000    0.000    0.000 
#    0.000    0.000    0.000    0.000    0.000    0.000 
#
# Total GULP energy -148698.957952 kJ/mol
# GULP energy per Si atom -12391.579829 kJ/mol
# Density = 2.316387 g / cm^3
# Si number density = 23.216713 Si / 1000 Ang^3
#
#
#
# Elastic Constant Matrix: (Units=GPa)
#
#
# Indices 1 2 3 4 5 6 
#
# 1 139.8992 61.1319 51.9058 2.3565 -8.3690 -5.6323
# 2 61.1319 141.5068 51.9527 -11.4458 -3.2419 -3.7859
# 3 51.9058 51.9527 129.1161 1.9351 -13.5760 1.1476
# 4 2.3565 -11.4458 1.9351 35.5321 -12.3338 -0.3553
# 5 -8.3690 -3.2419 -13.5760 -12.3338 38.7617 0.2511
# 6 -5.6323 -3.7859 1.1476 -0.3553 0.2511 42.8321
#
#
#
# Elastic Compliance Matrix: (Units=1/GPa)
#
#
# Indices 1 2 3 4 5 6 
#
# 1 0.009606 -0.003320 -0.002463 -0.001394 0.000483 0.001021
# 2 -0.003320 0.009780 -0.002625 0.003635 0.000335 0.000526
# 3 -0.002463 -0.002625 0.010086 -0.000306 0.002689 -0.000844
# 4 -0.001394 0.003635 -0.000306 0.033040 0.010406 0.000359
# 5 0.000483 0.000335 0.002689 0.010406 0.030185 -0.000069
# 6 0.001021 0.000526 -0.000844 0.000359 -0.000069 0.023554
#
#
# Mechanical properties :
#
#
# Convention : Reuss Voigt Hill
#
# Bulk Modulus (GPa) = 79.00727 82.27810 80.64268
# Shear Modulus (GPa) = 36.42044 39.79396 38.10720
#
# Velocity S-wave (km/s) = 3.96500 4.14457 4.05578
# Velocity P-wave (km/s) = 7.42064 7.64325 7.53277
#
# Compressibility (1/GPa) = 0.01265706
#
# Stress axis : x y z
#
# Youngs Moduli (GPa) = 104.09968 102.24463 99.14576
#
# Poissons Ratio (x) = 0.33945 0.24422
# Poissons Ratio (y) = 0.34561 0.26022
# Poissons Ratio (z) = 0.25642 0.26836
#
# Static dielectric constant tensor:
#      x y z
#    x 4.291430 0.153790 -0.000250 
#    y 0.153790 4.335600 0.011250 
#    z -0.000250 0.011250 4.136720 
# 
# 
# High freq. dielectric constant tensor:
#      x y z
#    x 1.918890 -0.004400 -0.002630 
#    y -0.004400 1.929460 0.008130 
#    z -0.002630 0.008130 1.926520 
# 
# From -- ./inp_files/3110.got.cif
#   From: 2010.06.25/outbox.cif.g09.slc.cpg/sg2_2_cif.got.tgz:3110.got - 2010.06.27 13:26:56.
