data_PCOD8035919
_publ_section_title
;
Structure prediction by ZEFSAII (Michael W. Deem and Ramdas Pophale) SiO2 
 PCOD8035919
Probable space group: P -1
;
_chemical_formula_sum "Si O2"
_cell_formula_units_Z 16
_cell_length_a 17.460529
_cell_length_b 9.360207
_cell_length_c 11.440258
_cell_angle_alpha 52.830465
_cell_angle_beta 43.224872
_cell_angle_gamma 86.443362
_cell_volume 735.597598
_symmetry_space_group_name_H-M "P -1"
_symmetry_group_IT_number 2
_symmetry_cell_setting 'triclinic'
loop_
_space_group_symop_operation_xyz
x,y,z
-x,-y,-z
loop_
_atom_site_type_symbol
_atom_site_label
_atom_site_fract_x
_atom_site_fract_y
_atom_site_fract_z
Si Si1 0.884130 0.353511 0.307938
Si Si2 0.921584 0.727530 0.247282
Si Si3 0.372185 0.389489 0.345951
Si Si4 0.884554 0.216167 0.794295
Si Si5 0.879743 0.022685 0.652530
Si Si6 0.459298 0.023036 0.660203
Si Si7 0.449757 0.499536 0.683805
Si Si8 0.604486 0.885260 0.713534
O O1 0.889750 0.552440 0.265262
O O2 0.921418 0.237621 0.416873
O O3 0.719269 0.127111 0.546251
O O4 0.000000 0.500000 0.000000
O O5 0.752007 0.591847 0.549270
O O6 0.047461 0.795460 0.161588
O O7 0.000000 0.000000 0.000000
O O8 0.405438 0.380842 0.449314
O O9 0.318781 0.143292 0.464512
O O10 0.528906 0.646091 0.993295
O O11 0.000000 0.500000 0.500000
O O12 0.891218 0.085541 0.744376
O O13 0.714521 0.101600 0.065749
O O14 0.703194 0.760312 0.962398
O O15 0.000000 0.000000 0.500000
O O16 0.579035 0.320878 0.390148
O O17 0.500000 0.000000 0.500000
O O18 0.484912 0.897141 0.789282
O O19 0.500000 0.500000 0.500000
#
# Coordination Sequence:
#
# PCOD8035919 Si02
#       8
#     2   2   2   2   2   2   2   2
#     4  12  29  49  72 110 149 196 252 307 379 451
#     4  12  28  45  77 104 153 193 244 308 377 449
#     4  11  25  48  71 108 144 199 242 306 372 445
#     4  12  27  50  73 109 151 200 254 302 380 449
#     4  12  30  49  77 110 154 201 250 318 377 450
#     4  12  27  45  76 109 148 198 248 312 371 451
#     4  12  26  48  74 108 150 192 260 305 371 448
#     4  11  26  45  75 104 150 187 252 301 374 442
#
# _framework density 21.751024000000001
#
# number of rings (size 3 to 8) (size 9 to 14) (size 15 to 20)
#    0.000    0.250    5.000    2.250   10.500    0.500 
#    0.000    0.000    0.000    0.000    0.000    0.000 
#    0.000    0.000    0.000    0.000    0.000    0.000 
#
# Total GULP energy -198275.106976 kJ/mol
# GULP energy per Si atom -12392.194186 kJ/mol
# Density = 2.170152 g / cm^3
# Si number density = 21.751024 Si / 1000 Ang^3
#
#
#
# Elastic Constant Matrix: (Units=GPa)
#
#
# Indices 1 2 3 4 5 6 
#
# 1 131.8822 72.7152 26.0518 5.8587 -4.3072 6.1101
# 2 72.7152 203.6054 61.4429 1.1001 -7.1934 9.0442
# 3 26.0518 61.4429 99.4941 -2.9524 -0.3979 1.3860
# 4 5.8587 1.1001 -2.9524 49.6843 -6.4110 0.7907
# 5 -4.3072 -7.1934 -0.3979 -6.4110 40.6636 -3.3556
# 6 6.1101 9.0442 1.3860 0.7907 -3.3556 42.8352
#
#
#
# Elastic Compliance Matrix: (Units=1/GPa)
#
#
# Indices 1 2 3 4 5 6 
#
# 1 0.009538 -0.003201 -0.000542 -0.001047 0.000222 -0.000630
# 2 -0.003201 0.007208 -0.003593 0.000128 0.000848 -0.000885
# 3 -0.000542 -0.003593 0.012429 0.000823 -0.000410 0.000387
# 4 -0.001047 0.000128 0.000823 0.020708 0.003181 -0.000037
# 5 0.000222 0.000848 -0.000410 0.003181 0.025406 0.001734
# 6 -0.000630 -0.000885 0.000387 -0.000037 0.001734 0.023746
#
#
# Mechanical properties :
#
#
# Convention : Reuss Voigt Hill
#
# Bulk Modulus (GPa) = 68.95798 83.93349 76.44574
# Shear Modulus (GPa) = 42.17939 44.95475 43.56707
#
# Velocity S-wave (km/s) = 4.40840 4.55113 4.48033
# Velocity P-wave (km/s) = 7.59501 8.14181 7.87316
#
# Compressibility (1/GPa) = 0.01450158
#
# Stress axis : x y z
#
# Youngs Moduli (GPa) = 104.84857 138.74017 80.45537
#
# Poissons Ratio (x) = 0.44414 0.04359
# Poissons Ratio (y) = 0.33564 0.28911
# Poissons Ratio (z) = 0.05681 0.49855
#
# Static dielectric constant tensor:
#      x y z
#    x 3.965020 0.107770 0.040010 
#    y 0.107770 4.353510 -0.182400 
#    z 0.040010 -0.182400 4.077550 
# 
# 
# High freq. dielectric constant tensor:
#      x y z
#    x 1.865440 0.002320 0.008610 
#    y 0.002320 1.875580 -0.010790 
#    z 0.008610 -0.010790 1.866430 
# 
# From -- ./inp_files/190267.got.cif
#   From: 2010.06.25/outbox.cif.g09.slc.cpg/sg2_96_cif.got.tgz:190267.got - 2010.06.27 13:26:56.
