data_PCOD8035702
_publ_section_title
;
Structure prediction by ZEFSAII (Michael W. Deem and Ramdas Pophale) SiO2 
 PCOD8035702
Probable space group: P -1
;
_chemical_formula_sum "Si O2"
_cell_formula_units_Z 16
_cell_length_a 6.902832
_cell_length_b 24.333152
_cell_length_c 11.874101
_cell_angle_alpha 27.496463
_cell_angle_beta 54.076967
_cell_angle_gamma 50.337305
_cell_volume 707.687116
_symmetry_space_group_name_H-M "P -1"
_symmetry_group_IT_number 2
_symmetry_cell_setting 'triclinic'
loop_
_space_group_symop_operation_xyz
x,y,z
-x,-y,-z
loop_
_atom_site_type_symbol
_atom_site_label
_atom_site_fract_x
_atom_site_fract_y
_atom_site_fract_z
Si Si1 0.994624 0.340777 0.283463
Si Si2 0.574428 0.267768 0.147470
Si Si3 0.670525 0.082283 0.253814
Si Si4 0.423186 0.761936 0.434263
Si Si5 0.949174 0.406792 0.777807
Si Si6 0.847234 0.545269 0.786491
Si Si7 0.375929 0.171527 0.981781
Si Si8 0.764436 0.060653 0.638061
O O1 0.279162 0.300295 0.213864
O O2 0.991620 0.371158 0.363946
O O3 0.862443 0.234316 0.503788
O O4 0.819586 0.459946 0.056436
O O5 0.632244 0.203655 0.123099
O O6 0.738976 0.173666 0.355470
O O7 0.669758 0.391071 0.891014
O O8 0.500000 0.000000 0.500000
O O9 0.613010 0.133443 0.053505
O O10 0.951903 0.992027 0.323088
O O11 0.573385 0.635214 0.679847
O O12 0.572537 0.763438 0.266739
O O13 0.406036 0.883124 0.296149
O O14 0.990711 0.460695 0.787663
O O15 0.000000 0.500000 0.500000
O O16 0.142671 0.267955 0.949941
O O17 0.321470 0.044244 0.202933
#
# Coordination Sequence:
#
# PCOD8035702 Si02
#       8
#     2   2   2   2   2   2   2   2
#     4  11  26  44  75 109 136 193 243 293 355 422
#     4  12  24  47  75 104 145 187 241 299 354 425
#     4  12  24  44  75 105 143 187 244 293 351 431
#     4  12  26  46  73 104 148 185 238 301 360 423
#     4  12  26  46  75 103 146 192 232 294 362 422
#     4  11  25  46  73 103 144 189 241 289 354 424
#     4  12  27  48  71 107 145 193 234 298 364 420
#     4  12  25  47  73 105 143 189 241 295 362 421
#
# _framework density 22.60886
#
# number of rings (size 3 to 8) (size 9 to 14) (size 15 to 20)
#    0.000    0.250    5.000    4.125    3.500    2.500 
#    0.000    1.875    0.000    0.000    0.000    0.000 
#    0.000    0.000    0.000    0.000    0.000    0.000 
#
# Total GULP energy -198400.948021 kJ/mol
# GULP energy per Si atom -12400.059251 kJ/mol
# Density = 2.255740 g / cm^3
# Si number density = 22.608860 Si / 1000 Ang^3
#
#
#
# Elastic Constant Matrix: (Units=GPa)
#
#
# Indices 1 2 3 4 5 6 
#
# 1 123.6948 64.2550 46.0804 4.6954 15.0886 15.9578
# 2 64.2550 164.8658 30.9902 -11.6077 1.4540 21.4312
# 3 46.0804 30.9902 77.5132 -2.6214 -5.2722 3.8536
# 4 4.6954 -11.6077 -2.6214 30.7696 1.3059 -2.8271
# 5 15.0886 1.4540 -5.2722 1.3059 26.4278 -2.5296
# 6 15.9578 21.4312 3.8536 -2.8271 -2.5296 45.3610
#
#
#
# Elastic Compliance Matrix: (Units=1/GPa)
#
#
# Indices 1 2 3 4 5 6 
#
# 1 0.015041 -0.004136 -0.007948 -0.004427 -0.010061 -0.003499
# 2 -0.004136 0.008284 -0.000534 0.003456 0.001426 -0.002119
# 3 -0.007948 -0.000534 0.018382 0.002418 0.008316 0.002101
# 4 -0.004427 0.003456 0.002418 0.034810 0.001287 0.001961
# 5 -0.010061 0.001426 0.008316 0.001287 0.045558 0.004780
# 6 -0.003499 -0.002119 0.002101 0.001961 0.004780 0.024487
#
#
# Mechanical properties :
#
#
# Convention : Reuss Voigt Hill
#
# Bulk Modulus (GPa) = 60.71268 72.08055 66.39661
# Shear Modulus (GPa) = 28.20258 35.49488 31.84873
#
# Velocity S-wave (km/s) = 3.53570 3.96656 3.75732
# Velocity P-wave (km/s) = 6.60152 7.27523 6.94655
#
# Compressibility (1/GPa) = 0.01647102
#
# Stress axis : x y z
#
# Youngs Moduli (GPa) = 66.48703 120.71398 54.40004
#
# Poissons Ratio (x) = 0.49928 0.43236
# Poissons Ratio (y) = 0.27500 0.02905
# Poissons Ratio (z) = 0.52843 0.06446
#
# Static dielectric constant tensor:
#      x y z
#    x 4.477870 0.201680 -0.050210 
#    y 0.201680 4.364330 -0.106500 
#    z -0.050210 -0.106500 4.042050 
# 
# 
# High freq. dielectric constant tensor:
#      x y z
#    x 1.906250 0.015420 0.004050 
#    y 0.015420 1.906440 -0.015100 
#    z 0.004050 -0.015100 1.876570 
# 
# From -- ./inp_files/370947.got.cif
#   From: 2010.06.25/outbox.cif.g09.slc.cpg/sg2_186_cif.got.tgz:370947.got - 2010.06.27 13:26:56.
