data_PCOD8035497
_publ_section_title
;
Structure prediction by ZEFSAII (Michael W. Deem and Ramdas Pophale) SiO2 
 PCOD8035497
Probable space group: P -1
;
_chemical_formula_sum "Si O2"
_cell_formula_units_Z 14
_cell_length_a 11.107141
_cell_length_b 11.643665
_cell_length_c 6.674175
_cell_angle_alpha 90.195268
_cell_angle_beta 72.660688
_cell_angle_gamma 127.612474
_cell_volume 634.240226
_symmetry_space_group_name_H-M "P -1"
_symmetry_group_IT_number 2
_symmetry_cell_setting 'triclinic'
loop_
_space_group_symop_operation_xyz
x,y,z
-x,-y,-z
loop_
_atom_site_type_symbol
_atom_site_label
_atom_site_fract_x
_atom_site_fract_y
_atom_site_fract_z
Si Si1 0.664270 0.110722 0.310617
Si Si2 0.007425 0.108582 0.643292
Si Si3 0.909478 0.287880 0.526663
Si Si4 0.882617 0.455076 0.863738
Si Si5 0.456740 0.747052 0.845942
Si Si6 0.377733 0.319099 0.561373
Si Si7 0.716950 0.909998 0.062487
O O1 0.775570 0.232103 0.424325
O O2 0.633707 0.185163 0.154771
O O3 0.500000 0.000000 0.500000
O O4 0.729673 0.028065 0.197793
O O5 0.195731 0.253909 0.590663
O O6 0.920051 0.161223 0.573974
O O7 0.000000 0.000000 0.500000
O O8 0.903175 0.007529 0.888883
O O9 0.867866 0.324638 0.757371
O O10 0.067586 0.427443 0.335025
O O11 0.708023 0.414650 0.004249
O O12 0.000000 0.500000 0.000000
O O13 0.546656 0.732624 0.623304
O O14 0.588970 0.853124 0.948029
O O15 0.500000 0.500000 0.500000
O O16 0.349394 0.241520 0.789517
#
# Coordination Sequence:
#
# PCOD8035497 Si02
#       7
#     2   2   2   2   2   2   2
#     4  12  22  43  76 106 140 177 237 308 364 421
#     4  12  26  51  73 103 145 196 252 290 359 435
#     4  11  26  44  73 106 145 187 239 301 359 434
#     4  11  25  45  71 108 146 191 232 299 376 430
#     4  12  25  45  72 109 143 184 246 293 372 430
#     4  12  30  47  72 105 147 196 244 299 354 440
#     4  12  26  48  77 104 144 193 240 308 364 423
#
# _framework density 22.073653
#
# number of rings (size 3 to 8) (size 9 to 14) (size 15 to 20)
#    0.000    0.286    4.286    4.286    4.000    1.714 
#    0.000    0.000    0.000    0.000    0.000    0.000 
#    0.000    0.000    0.000    0.000    0.000    0.000 
#
# Total GULP energy -173454.272181 kJ/mol
# GULP energy per Si atom -12389.590870 kJ/mol
# Density = 2.202341 g / cm^3
# Si number density = 22.073653 Si / 1000 Ang^3
#
#
#
# Elastic Constant Matrix: (Units=GPa)
#
#
# Indices 1 2 3 4 5 6 
#
# 1 84.8308 39.8412 45.3293 -7.5766 4.2772 9.9591
# 2 39.8412 123.6929 55.3056 -4.8361 -1.3115 5.7800
# 3 45.3293 55.3056 143.2038 -6.8164 -16.1950 2.2423
# 4 -7.5766 -4.8361 -6.8164 47.8677 10.9846 0.0511
# 5 4.2772 -1.3115 -16.1950 10.9846 46.2879 -8.7108
# 6 9.9591 5.7800 2.2423 0.0511 -8.7108 51.4484
#
#
#
# Elastic Compliance Matrix: (Units=1/GPa)
#
#
# Indices 1 2 3 4 5 6 
#
# 1 0.016421 -0.003152 -0.004296 0.002678 -0.004382 -0.003382
# 2 -0.003152 0.010525 -0.003121 0.000275 -0.000671 -0.000550
# 3 -0.004296 -0.003121 0.009975 -0.000540 0.004201 0.001459
# 4 0.002678 0.000275 -0.000540 0.022668 -0.006106 -0.001582
# 5 -0.004382 -0.000671 0.004201 -0.006106 0.025874 0.005127
# 6 -0.003382 -0.000550 0.001459 -0.001582 0.005127 0.020959
#
#
# Mechanical properties :
#
#
# Convention : Reuss Voigt Hill
#
# Bulk Modulus (GPa) = 63.36070 70.29776 66.82923
# Shear Modulus (GPa) = 37.64474 43.20423 40.42448
#
# Velocity S-wave (km/s) = 4.13415 4.42891 4.28406
# Velocity P-wave (km/s) = 7.18016 7.62035 7.40353
#
# Compressibility (1/GPa) = 0.01578265
#
# Stress axis : x y z
#
# Youngs Moduli (GPa) = 60.89720 95.01465 100.25396
#
# Poissons Ratio (x) = 0.29951 0.43065
# Poissons Ratio (y) = 0.19197 0.31290
# Poissons Ratio (z) = 0.26159 0.29655
#
# Static dielectric constant tensor:
#      x y z
#    x 3.341090 0.647350 -0.329140 
#    y 0.647350 4.703740 -0.514700 
#    z -0.329140 -0.514700 4.427120 
# 
# 
# High freq. dielectric constant tensor:
#      x y z
#    x 1.868330 0.010630 -0.004180 
#    y 0.010630 1.880400 -0.014390 
#    z -0.004180 -0.014390 1.893340 
# 
# From -- ./inp_files/71148.got.cif
#   From: 2010.06.25/outbox.cif.g09.slc.cpg/sg2_36_cif.got.tgz:71148.got - 2010.06.27 13:26:56.
