data_PCOD8035648
_publ_section_title
;
Structure prediction by ZEFSAII (Michael W. Deem and Ramdas Pophale) SiO2 
 PCOD8035648
Probable space group: P -1
;
_chemical_formula_sum "Si O2"
_cell_formula_units_Z 16
_cell_length_a 9.541486
_cell_length_b 15.009738
_cell_length_c 8.901774
_cell_angle_alpha 75.577363
_cell_angle_beta 102.961110
_cell_angle_gamma 46.406764
_cell_volume 738.059118
_symmetry_space_group_name_H-M "P -1"
_symmetry_group_IT_number 2
_symmetry_cell_setting 'triclinic'
loop_
_space_group_symop_operation_xyz
x,y,z
-x,-y,-z
loop_
_atom_site_type_symbol
_atom_site_label
_atom_site_fract_x
_atom_site_fract_y
_atom_site_fract_z
Si Si1 0.904045 0.287210 0.013301
Si Si2 0.217740 0.853341 0.024227
Si Si3 0.682705 0.844879 0.021582
Si Si4 0.998235 0.194925 0.413534
Si Si5 0.916087 0.671645 0.443318
Si Si6 0.361437 0.358212 0.580615
Si Si7 0.358664 0.874191 0.752146
Si Si8 0.500779 0.367369 0.300273
O O1 0.134504 0.184833 0.012157
O O2 0.988853 0.235064 0.225678
O O3 0.777773 0.258921 0.938412
O O4 0.720185 0.463099 0.883069
O O5 0.442252 0.774821 0.201181
O O6 0.212890 0.899463 0.838793
O O7 0.000000 0.000000 0.000000
O O8 0.554541 0.843726 0.873937
O O9 0.825729 0.714245 0.232500
O O10 0.500000 0.000000 0.000000
O O11 0.118637 0.212766 0.536152
O O12 0.739306 0.303625 0.364977
O O13 0.167915 0.021127 0.539367
O O14 0.774513 0.664008 0.503165
O O15 0.190294 0.509672 0.572419
O O16 0.472925 0.359460 0.471947
O O17 0.494371 0.729459 0.750062
#
# Coordination Sequence:
#
# PCOD8035648 Si02
#       8
#     2   2   2   2   2   2   2   2
#     4  12  29  46  72 106 144 190 231 291 361 417
#     4  12  26  45  73 103 142 186 238 291 350 415
#     4  12  25  49  71 101 139 184 241 292 348 416
#     4  12  27  46  73 104 147 184 236 288 355 420
#     4  11  25  46  71 103 139 184 237 293 344 422
#     4  11  26  44  73 104 139 185 237 287 355 414
#     4  12  27  46  72 103 144 188 235 294 349 422
#     4  12  27  47  72 106 146 184 234 292 355 426
#
# _framework density 21.678478999999999
#
# number of rings (size 3 to 8) (size 9 to 14) (size 15 to 20)
#    0.000    0.250    5.000    3.000    7.000    2.000 
#    0.000    0.000    0.000    0.000    0.000    0.000 
#    0.000    0.000    0.000    0.000    0.000    0.000 
#
# Total GULP energy -198518.992545 kJ/mol
# GULP energy per Si atom -12407.437034 kJ/mol
# Density = 2.162914 g / cm^3
# Si number density = 21.678479 Si / 1000 Ang^3
#
#
#
# Elastic Constant Matrix: (Units=GPa)
#
#
# Indices 1 2 3 4 5 6 
#
# 1 98.9693 37.4478 30.4451 0.3611 -2.8321 -0.9454
# 2 37.4478 120.7328 46.2039 -15.9272 3.6049 8.2460
# 3 30.4451 46.2039 125.9208 -10.7754 -9.7672 -10.5933
# 4 0.3611 -15.9272 -10.7754 34.9601 -0.7083 2.6347
# 5 -2.8321 3.6049 -9.7672 -0.7083 39.0949 3.7604
# 6 -0.9454 8.2460 -10.5933 2.6347 3.7604 42.2965
#
#
#
# Elastic Compliance Matrix: (Units=1/GPa)
#
#
# Indices 1 2 3 4 5 6 
#
# 1 0.011956 -0.003398 -0.001737 -0.002237 0.000650 0.000576
# 2 -0.003398 0.011516 -0.003440 0.004435 -0.001769 -0.003302
# 3 -0.001737 -0.003440 0.010179 0.001422 0.002484 0.002872
# 4 -0.002237 0.004435 0.001422 0.031291 0.000598 -0.002561
# 5 0.000650 -0.001769 0.002484 0.000598 0.026557 -0.001417
# 6 0.000576 -0.003302 0.002872 -0.002561 -0.001417 0.025304
#
#
# Mechanical properties :
#
#
# Convention : Reuss Voigt Hill
#
# Bulk Modulus (GPa) = 60.59145 63.75740 62.17442
# Shear Modulus (GPa) = 35.85439 38.70536 37.27988
#
# Velocity S-wave (km/s) = 4.07125 4.23002 4.15139
# Velocity P-wave (km/s) = 7.07890 7.30286 7.19175
#
# Compressibility (1/GPa) = 0.01650398
#
# Stress axis : x y z
#
# Youngs Moduli (GPa) = 83.63831 86.83327 98.23685
#
# Poissons Ratio (x) = 0.29504 0.17060
# Poissons Ratio (y) = 0.28418 0.33790
# Poissons Ratio (z) = 0.14525 0.29868
#
# Static dielectric constant tensor:
#      x y z
#    x 3.973360 0.057350 -0.127720 
#    y 0.057350 3.895890 -0.023310 
#    z -0.127720 -0.023310 4.168930 
# 
# 
# High freq. dielectric constant tensor:
#      x y z
#    x 1.868400 0.000200 -0.002190 
#    y 0.000200 1.857050 -0.008350 
#    z -0.002190 -0.008350 1.862500 
# 
# From -- ./inp_files/184157.got.cif
#   From: 2010.06.25/outbox.cif.g09.slc.cpg/sg2_93_cif.got.tgz:184157.got - 2010.06.27 13:26:56.
