data_PCOD8035417
_publ_section_title
;
Structure prediction by ZEFSAII (Michael W. Deem and Ramdas Pophale) SiO2 
 PCOD8035417
Probable space group: P -1
;
_chemical_formula_sum "Si O2"
_cell_formula_units_Z 14
_cell_length_a 5.319997
_cell_length_b 18.215847
_cell_length_c 12.944359
_cell_angle_alpha 28.452777
_cell_angle_beta 78.149371
_cell_angle_gamma 77.745021
_cell_volume 583.554459
_symmetry_space_group_name_H-M "P -1"
_symmetry_group_IT_number 2
_symmetry_cell_setting 'triclinic'
loop_
_space_group_symop_operation_xyz
x,y,z
-x,-y,-z
loop_
_atom_site_type_symbol
_atom_site_label
_atom_site_fract_x
_atom_site_fract_y
_atom_site_fract_z
Si Si1 0.550378 0.834470 0.448565
Si Si2 0.732996 0.601824 0.877446
Si Si3 0.631434 0.347424 0.498820
Si Si4 0.126181 0.017248 0.359598
Si Si5 0.388405 0.309103 0.998051
Si Si6 0.062534 0.335140 0.646653
Si Si7 0.183756 0.884500 0.910987
O O1 0.758350 0.711152 0.638397
O O2 0.377498 0.756123 0.474290
O O3 0.366961 0.892530 0.487489
O O4 0.653810 0.990970 0.194147
O O5 0.500000 0.500000 0.000000
O O6 0.643512 0.699440 0.865210
O O7 0.000000 0.500000 0.000000
O O8 0.672995 0.521197 0.248965
O O9 0.879573 0.302363 0.604885
O O10 0.363941 0.327088 0.605725
O O11 0.939582 0.988804 0.315857
O O12 0.188414 0.194007 0.113387
O O13 0.000000 0.000000 0.500000
O O14 0.664758 0.249007 0.004020
O O15 0.000000 0.500000 0.500000
O O16 0.017596 0.195542 0.900992
#
# Coordination Sequence:
#
# PCOD8035417 Si02
#       7
#     2   2   2   2   2   2   2
#     4  11  28  48  70 116 150 195 251 310 381 443
#     4  12  28  45  75 109 151 192 244 307 376 447
#     4  12  28  46  79 109 151 193 254 315 371 440
#     4  11  25  46  78 105 153 197 250 302 376 452
#     4  11  25  44  73 109 142 197 252 304 376 435
#     4  12  27  49  78 110 147 197 258 307 373 445
#     4  11  26  46  76 104 152 196 252 311 371 444
#
# _framework density 23.990905000000001
#
# number of rings (size 3 to 8) (size 9 to 14) (size 15 to 20)
#    0.000    0.571    2.857    3.000   14.000    3.429 
#    0.000    0.000    0.000    0.000    0.000    0.000 
#    0.000    0.000    0.000    0.000    0.000    0.000 
#
# Total GULP energy -173481.960580 kJ/mol
# GULP energy per Si atom -12391.568613 kJ/mol
# Density = 2.393630 g / cm^3
# Si number density = 23.990905 Si / 1000 Ang^3
#
#
#
# Elastic Constant Matrix: (Units=GPa)
#
#
# Indices 1 2 3 4 5 6 
#
# 1 81.7327 19.3471 23.4433 -1.2902 -3.4565 8.1471
# 2 19.3471 97.8806 43.9714 -6.3681 -8.6339 10.7488
# 3 23.4433 43.9714 126.1415 2.4070 -8.6453 4.2718
# 4 -1.2902 -6.3681 2.4070 42.6192 4.0299 0.3239
# 5 -3.4565 -8.6339 -8.6453 4.0299 37.7390 13.8771
# 6 8.1471 10.7488 4.2718 0.3239 13.8771 31.8654
#
#
#
# Elastic Compliance Matrix: (Units=1/GPa)
#
#
# Indices 1 2 3 4 5 6 
#
# 1 0.013496 -0.001288 -0.001817 0.000174 0.001818 -0.003566
# 2 -0.001288 0.013297 -0.003996 0.001859 0.003749 -0.005272
# 3 -0.001817 -0.003996 0.009776 -0.001329 0.001323 -0.000061
# 4 0.000174 0.001859 -0.001329 0.024062 -0.002573 0.000383
# 5 0.001818 0.003749 0.001323 -0.002573 0.034281 -0.016809
# 6 -0.003566 -0.005272 -0.000061 0.000383 -0.016809 0.041396
#
#
# Mechanical properties :
#
#
# Convention : Reuss Voigt Hill
#
# Bulk Modulus (GPa) = 44.70836 53.25317 48.98076
# Shear Modulus (GPa) = 31.65233 37.04427 34.34830
#
# Velocity S-wave (km/s) = 3.63622 3.93376 3.78791
# Velocity P-wave (km/s) = 6.02540 6.54813 6.29220
#
# Compressibility (1/GPa) = 0.02236718
#
# Stress axis : x y z
#
# Youngs Moduli (GPa) = 74.09494 75.20694 102.28818
#
# Poissons Ratio (x) = 0.09687 0.18588
# Poissons Ratio (y) = 0.09544 0.40871
# Poissons Ratio (z) = 0.13465 0.30050
#
# Static dielectric constant tensor:
#      x y z
#    x 4.726820 0.257030 0.247000 
#    y 0.257030 4.459530 0.169640 
#    z 0.247000 0.169640 5.168530 
# 
# 
# High freq. dielectric constant tensor:
#      x y z
#    x 1.957090 0.009710 -0.014670 
#    y 0.009710 1.959400 -0.009500 
#    z -0.014670 -0.009500 1.961850 
# 
# From -- ./inp_files/40270.got.cif
#   From: 2010.06.25/outbox.cif.g09.slc.cpg/sg2_21_cif.got.tgz:40270.got - 2010.06.27 13:26:56.
