data_PCOD8035061
_publ_section_title
;
Structure prediction by ZEFSAII (Michael W. Deem and Ramdas Pophale) SiO2 
 PCOD8035061
Probable space group: P -1
;
_chemical_formula_sum "Si O2"
_cell_formula_units_Z 16
_cell_length_a 9.717241
_cell_length_b 21.165805
_cell_length_c 8.162001
_cell_angle_alpha 85.430213
_cell_angle_beta 48.116831
_cell_angle_gamma 124.621530
_cell_volume 681.282920
_symmetry_space_group_name_H-M "P -1"
_symmetry_group_IT_number 2
_symmetry_cell_setting 'triclinic'
loop_
_space_group_symop_operation_xyz
x,y,z
-x,-y,-z
loop_
_atom_site_type_symbol
_atom_site_label
_atom_site_fract_x
_atom_site_fract_y
_atom_site_fract_z
Si Si1 0.705734 0.236233 0.253073
Si Si2 0.619234 0.366077 0.848846
Si Si3 0.817796 0.052836 0.163149
Si Si4 0.653447 0.233060 0.938210
Si Si5 0.233280 0.284523 0.852319
Si Si6 0.602288 0.584993 0.784793
Si Si7 0.716220 0.906495 0.071825
Si Si8 0.820033 0.514499 0.155040
O O1 0.469952 0.182886 0.607510
O O2 0.520415 0.170332 0.236167
O O3 0.907020 0.233116 0.163507
O O4 0.934998 0.362217 0.992480
O O5 0.627361 0.300781 0.939617
O O6 0.421917 0.305397 0.848228
O O7 0.000000 0.500000 0.500000
O O8 0.392677 0.346207 0.144996
O O9 0.500000 0.000000 0.500000
O O10 0.746041 0.990680 0.068825
O O11 0.106331 0.188368 0.863875
O O12 0.930810 0.032075 0.215039
O O13 0.450175 0.145569 0.963963
O O14 0.040085 0.321774 0.603572
O O15 0.483334 0.407201 0.548821
O O16 0.288177 0.491709 0.932749
O O17 0.500000 0.500000 0.000000
O O18 0.000000 0.500000 0.000000
#
# Coordination Sequence:
#
# PCOD8035061 Si02
#       8
#     2   2   2   2   2   2   2   2
#     4  12  25  45  72 107 148 187 237 298 359 434
#     4  12  24  40  65 102 143 186 237 290 351 430
#     4  11  24  47  77 103 137 192 242 296 362 420
#     4  12  25  45  68 105 140 185 239 296 358 421
#     4  12  23  44  69  99 146 187 231 296 357 416
#     4  12  24  39  63  97 143 191 236 283 351 426
#     4  11  25  48  78 101 138 191 242 294 364 425
#     4  12  25  41  64 103 145 189 234 283 360 434
#
# _framework density 23.485102000000001
#
# number of rings (size 3 to 8) (size 9 to 14) (size 15 to 20)
#    0.000    0.250    5.000    5.625    0.000    0.000 
#    0.000    3.125    2.750    0.000    0.000    0.000 
#    0.000    0.000    0.000    0.000    0.000    0.000 
#
# Total GULP energy -198274.558068 kJ/mol
# GULP energy per Si atom -12392.159879 kJ/mol
# Density = 2.343165 g / cm^3
# Si number density = 23.485102 Si / 1000 Ang^3
#
#
#
# Elastic Constant Matrix: (Units=GPa)
#
#
# Indices 1 2 3 4 5 6 
#
# 1 141.8113 40.1515 41.6677 7.7740 -18.9397 16.5338
# 2 40.1515 142.1147 31.3615 -0.8325 -5.8844 -2.8321
# 3 41.6677 31.3615 49.5464 15.1599 -1.3376 0.6887
# 4 7.7740 -0.8325 15.1599 29.9906 -10.4433 -7.8519
# 5 -18.9397 -5.8844 -1.3376 -10.4433 42.7891 6.7106
# 6 16.5338 -2.8321 0.6887 -7.8519 6.7106 53.4339
#
#
#
# Elastic Compliance Matrix: (Units=1/GPa)
#
#
# Indices 1 2 3 4 5 6 
#
# 1 0.011132 -0.000860 -0.009517 0.002966 0.005809 -0.003661
# 2 -0.000860 0.008750 -0.006149 0.004434 0.001513 0.001271
# 3 -0.009517 -0.006149 0.037906 -0.019834 -0.008764 0.000316
# 4 0.002966 0.004434 -0.019834 0.048350 0.012298 0.005133
# 5 0.005809 0.001513 -0.008764 0.012298 0.029425 -0.003493
# 6 -0.003661 0.001271 0.000316 0.005133 -0.003493 0.021104
#
#
# Mechanical properties :
#
#
# Convention : Reuss Voigt Hill
#
# Bulk Modulus (GPa) = 40.42558 62.20374 51.31466
# Shear Modulus (GPa) = 25.25699 39.92883 32.59291
#
# Velocity S-wave (km/s) = 3.28296 4.12779 3.72938
# Velocity P-wave (km/s) = 5.62326 7.01870 6.35937
#
# Compressibility (1/GPa) = 0.02473681
#
# Stress axis : x y z
#
# Youngs Moduli (GPa) = 89.83497 114.28039 26.38074
#
# Poissons Ratio (x) = 0.09826 0.25106
# Poissons Ratio (y) = 0.07724 0.16222
# Poissons Ratio (z) = 0.85495 0.70271
#
# Static dielectric constant tensor:
#      x y z
#    x 4.571280 0.003550 -0.099420 
#    y 0.003550 4.609490 -0.244370 
#    z -0.099420 -0.244370 4.717850 
# 
# 
# High freq. dielectric constant tensor:
#      x y z
#    x 1.939120 -0.010090 -0.022090 
#    y -0.010090 1.943860 0.000740 
#    z -0.022090 0.000740 1.923770 
# 
# From -- ./inp_files/223577.got.cif
#   From: 2010.06.25/outbox.cif.g09.slc.cpg/sg2_112_cif.got.tgz:223577.got - 2010.06.27 13:26:56.
