data_PCOD8035559
_publ_section_title
;
Structure prediction by ZEFSAII (Michael W. Deem and Ramdas Pophale) SiO2 
 PCOD8035559
Probable space group: P -1
;
_chemical_formula_sum "Si O2"
_cell_formula_units_Z 16
_cell_length_a 10.258810
_cell_length_b 8.515930
_cell_length_c 11.098567
_cell_angle_alpha 120.956175
_cell_angle_beta 86.935272
_cell_angle_gamma 60.647104
_cell_volume 661.402801
_symmetry_space_group_name_H-M "P -1"
_symmetry_group_IT_number 2
_symmetry_cell_setting 'triclinic'
loop_
_space_group_symop_operation_xyz
x,y,z
-x,-y,-z
loop_
_atom_site_type_symbol
_atom_site_label
_atom_site_fract_x
_atom_site_fract_y
_atom_site_fract_z
Si Si1 0.335230 0.300123 0.802597
Si Si2 0.039503 0.615144 0.397782
Si Si3 0.972795 0.965139 0.709853
Si Si4 0.566590 0.194126 0.395934
Si Si5 0.617580 0.309312 0.825754
Si Si6 0.080890 0.584876 0.109826
Si Si7 0.200112 0.495005 0.636364
Si Si8 0.357048 0.526859 0.358732
O O1 0.519431 0.218685 0.738799
O O2 0.210925 0.465776 0.768788
O O3 0.338041 0.077126 0.715552
O O4 0.265480 0.441765 0.988817
O O5 0.074555 0.530658 0.226236
O O6 0.224329 0.483881 0.393352
O O7 0.971883 0.875428 0.539035
O O8 0.914459 0.570612 0.440960
O O9 0.096211 0.765430 0.718812
O O10 0.779875 0.109308 0.810407
O O11 0.018268 0.140333 0.781589
O O12 0.387586 0.333803 0.520844
O O13 0.533823 0.295930 0.300358
O O14 0.677207 0.251639 0.481991
O O15 0.660404 0.420031 0.761497
O O16 0.500000 0.500000 0.000000
O O17 0.000000 0.500000 0.000000
#
# Coordination Sequence:
#
# PCOD8035559 Si02
#       8
#     2   2   2   2   2   2   2   2
#     4  12  26  48  71 103 154 194 244 299 377 438
#     4  12  25  46  73 110 143 189 250 306 361 431
#     4  12  27  46  80 104 148 192 246 312 359 443
#     4  11  26  47  74 108 145 194 243 314 359 441
#     4  12  25  48  70 106 144 191 239 296 372 441
#     4  12  27  47  69 110 148 193 243 307 374 436
#     4  12  26  47  77 111 145 194 258 297 368 439
#     4  11  25  45  74 110 143 189 253 296 374 428
#
# _framework density 24.191006999999999
#
# number of rings (size 3 to 8) (size 9 to 14) (size 15 to 20)
#    0.000    0.250    6.250    1.875    5.250    0.500 
#    2.250    1.250    0.000    0.000    0.000    0.000 
#    0.000    0.000    0.000    0.000    0.000    0.000 
#
# Total GULP energy -198214.789975 kJ/mol
# GULP energy per Si atom -12388.424373 kJ/mol
# Density = 2.413595 g / cm^3
# Si number density = 24.191007 Si / 1000 Ang^3
#
#
#
# Elastic Constant Matrix: (Units=GPa)
#
#
# Indices 1 2 3 4 5 6 
#
# 1 110.0039 -5.9264 -1.2906 -2.6400 20.5685 5.6832
# 2 -5.9264 87.4694 16.9699 13.6707 -0.2988 -11.4755
# 3 -1.2906 16.9699 92.7933 2.2454 1.9482 -12.6704
# 4 -2.6400 13.6707 2.2454 17.7952 1.8744 1.6194
# 5 20.5685 -0.2988 1.9482 1.8744 41.8603 2.8051
# 6 5.6832 -11.4755 -12.6704 1.6194 2.8051 34.5232
#
#
#
# Elastic Compliance Matrix: (Units=1/GPa)
#
#
# Indices 1 2 3 4 5 6 
#
# 1 0.010148 0.000189 -0.000015 0.002006 -0.004987 -0.001302
# 2 0.000189 0.014092 -0.001696 -0.011025 0.000277 0.004525
# 3 -0.000015 -0.001696 0.011631 -0.000430 -0.000781 0.003791
# 4 0.002006 -0.011025 -0.000430 0.066022 -0.003534 -0.006962
# 5 -0.004987 0.000277 -0.000781 -0.003534 0.026628 -0.001371
# 6 -0.001302 0.004525 0.003791 -0.006962 -0.001371 0.032514
#
#
# Mechanical properties :
#
#
# Convention : Reuss Voigt Hill
#
# Bulk Modulus (GPa) = 30.46141 34.41915 32.44028
# Shear Modulus (GPa) = 28.56792 37.53667 33.05230
#
# Velocity S-wave (km/s) = 3.44020 3.94341 3.70037
# Velocity P-wave (km/s) = 5.32910 5.91548 5.62993
#
# Compressibility (1/GPa) = 0.03282842
#
# Stress axis : x y z
#
# Youngs Moduli (GPa) = 98.53675 70.96172 85.97725
#
# Poissons Ratio (x) = -0.01342 0.00130
# Poissons Ratio (y) = -0.01864 0.14579
# Poissons Ratio (z) = 0.00149 0.12033
#
# Static dielectric constant tensor:
#      x y z
#    x 5.580480 -0.032480 -0.267500 
#    y -0.032480 4.343450 -0.209720 
#    z -0.267500 -0.209720 4.584300 
# 
# 
# High freq. dielectric constant tensor:
#      x y z
#    x 2.003180 -0.004300 0.007920 
#    y -0.004300 1.944900 -0.009890 
#    z 0.007920 -0.009890 1.950410 
# 
# From -- ./inp_files/420024.got.cif
#   From: 2010.06.25/outbox.cif.g09.slc.cpg/sg2_211_cif.got.tgz:420024.got - 2010.06.27 13:26:56.
