data_PCOD8035851
_publ_section_title
;
Structure prediction by ZEFSAII (Michael W. Deem and Ramdas Pophale) SiO2 
 PCOD8035851
Probable space group: P -1
;
_chemical_formula_sum "Si O2"
_cell_formula_units_Z 14
_cell_length_a 5.693200
_cell_length_b 8.529617
_cell_length_c 22.381679
_cell_angle_alpha 136.724148
_cell_angle_beta 119.998076
_cell_angle_gamma 50.713488
_cell_volume 575.114324
_symmetry_space_group_name_H-M "P -1"
_symmetry_group_IT_number 2
_symmetry_cell_setting 'triclinic'
loop_
_space_group_symop_operation_xyz
x,y,z
-x,-y,-z
loop_
_atom_site_type_symbol
_atom_site_label
_atom_site_fract_x
_atom_site_fract_y
_atom_site_fract_z
Si Si1 0.885275 0.924342 0.403331
Si Si2 0.419526 0.440876 0.305380
Si Si3 0.245328 0.600724 0.548754
Si Si4 0.807073 0.876523 0.180693
Si Si5 0.557847 0.035732 0.949426
Si Si6 0.182407 0.593311 0.883432
Si Si7 0.463479 0.707054 0.266780
O O1 0.549141 0.935723 0.362889
O O2 0.067421 0.623552 0.325674
O O3 0.921388 0.091723 0.399652
O O4 0.000000 0.000000 0.500000
O O5 0.589463 0.503883 0.397470
O O6 0.495803 0.525199 0.275652
O O7 0.526632 0.138767 0.240773
O O8 0.500000 0.500000 0.500000
O O9 0.000000 0.500000 0.500000
O O10 0.758862 0.876185 0.102567
O O11 0.748314 0.652534 0.137006
O O12 0.130849 0.856262 0.235288
O O13 0.667779 0.254305 0.019939
O O14 0.817229 0.769642 0.880493
O O15 0.500000 0.000000 0.000000
O O16 0.316412 0.501779 0.810003
#
# Coordination Sequence:
#
# PCOD8035851 Si02
#       7
#     2   2   2   2   2   2   2
#     4  12  27  50  75 107 150 201 261 326 395 469
#     4  12  27  46  75 104 154 201 257 321 396 465
#     4  12  28  49  79 115 150 203 266 334 407 475
#     4  12  26  46  72 110 151 199 256 315 393 465
#     4  11  25  48  77 110 149 200 250 313 387 464
#     4  11  25  47  74 109 152 195 254 311 388 468
#     4  12  27  46  75 108 151 202 255 323 388 469
#
# _framework density 24.342984000000001
#
# number of rings (size 3 to 8) (size 9 to 14) (size 15 to 20)
#    0.000    0.286    1.429    7.286    4.000    8.000 
#    0.000    1.429    0.000    0.000    0.000    0.000 
#    0.000    0.000    0.000    0.000    0.000    0.000 
#
# Total GULP energy -173457.840482 kJ/mol
# GULP energy per Si atom -12389.845749 kJ/mol
# Density = 2.428758 g / cm^3
# Si number density = 24.342984 Si / 1000 Ang^3
#
#
#
# Elastic Constant Matrix: (Units=GPa)
#
#
# Indices 1 2 3 4 5 6 
#
# 1 119.4627 77.4735 67.4888 -6.7084 9.5844 2.6240
# 2 77.4735 181.5045 86.5478 -13.4090 10.7969 1.0299
# 3 67.4888 86.5478 109.6620 -2.1239 -1.6303 -1.7660
# 4 -6.7084 -13.4090 -2.1239 66.2913 6.7811 -2.6939
# 5 9.5844 10.7969 -1.6303 6.7811 49.6963 3.8010
# 6 2.6240 1.0299 -1.7660 -2.6939 3.8010 33.1361
#
#
#
# Elastic Compliance Matrix: (Units=1/GPa)
#
#
# Indices 1 2 3 4 5 6 
#
# 1 0.014090 -0.002643 -0.006621 0.000882 -0.002401 -0.001039
# 2 -0.002643 0.009798 -0.006104 0.001727 -0.002051 -0.000045
# 3 -0.006621 -0.006104 0.018048 -0.001620 0.003327 0.001163
# 4 0.000882 0.001727 -0.001620 0.015822 -0.002865 0.001405
# 5 -0.002401 -0.002051 0.003327 -0.002865 0.021706 -0.002292
# 6 -0.001039 -0.000045 0.001163 0.001405 -0.002292 0.030701
#
#
# Mechanical properties :
#
#
# Convention : Reuss Voigt Hill
#
# Bulk Modulus (GPa) = 89.28412 97.07216 93.17814
# Shear Modulus (GPa) = 34.56968 41.76601 38.16785
#
# Velocity S-wave (km/s) = 3.77252 4.14663 3.96399
# Velocity P-wave (km/s) = 7.46546 7.93029 7.70138
#
# Compressibility (1/GPa) = 0.01120020
#
# Stress axis : x y z
#
# Youngs Moduli (GPa) = 70.97009 102.05876 55.40891
#
# Poissons Ratio (x) = 0.26979 0.36684
# Poissons Ratio (y) = 0.18761 0.33821
# Poissons Ratio (z) = 0.46987 0.62296
#
# Static dielectric constant tensor:
#      x y z
#    x 4.256370 -0.048390 0.021170 
#    y -0.048390 5.088450 -0.040920 
#    z 0.021170 -0.040920 4.829100 
# 
# 
# High freq. dielectric constant tensor:
#      x y z
#    x 1.956160 -0.003340 0.004990 
#    y -0.003340 1.989870 -0.005590 
#    z 0.004990 -0.005590 1.994010 
# 
# From -- ./inp_files/604103.got.cif
#   From: 2010.06.25/outbox.cif.g09.slc.cpg/sg2_303_cif.got.tgz:604103.got - 2010.06.27 13:26:56.
