data_PCOD8035877
_publ_section_title
;
Structure prediction by ZEFSAII (Michael W. Deem and Ramdas Pophale) SiO2 
 PCOD8035877
Probable space group: P -1
;
_chemical_formula_sum "Si O2"
_cell_formula_units_Z 14
_cell_length_a 15.848967
_cell_length_b 8.003194
_cell_length_c 12.014819
_cell_angle_alpha 62.851981
_cell_angle_beta 28.194465
_cell_angle_gamma 53.500629
_cell_volume 569.468981
_symmetry_space_group_name_H-M "P -1"
_symmetry_group_IT_number 2
_symmetry_cell_setting 'triclinic'
loop_
_space_group_symop_operation_xyz
x,y,z
-x,-y,-z
loop_
_atom_site_type_symbol
_atom_site_label
_atom_site_fract_x
_atom_site_fract_y
_atom_site_fract_z
Si Si1 0.639820 0.832847 0.667969
Si Si2 0.065642 0.003826 0.069136
Si Si3 0.776427 0.094991 0.853753
Si Si4 0.180282 0.530968 0.833016
Si Si5 0.041591 0.585301 0.215524
Si Si6 0.564997 0.124832 0.471654
Si Si7 0.884630 0.786570 0.614762
O O1 0.727006 0.872013 0.671249
O O2 0.806117 0.642392 0.456735
O O3 0.563583 0.051255 0.621555
O O4 0.464363 0.763013 0.909367
O O5 0.166473 0.035386 0.055558
O O6 0.013351 0.815279 0.214443
O O7 0.210699 0.928715 0.814667
O O8 0.867020 0.226175 0.207857
O O9 0.894216 0.235396 0.663991
O O10 0.813570 0.936566 0.757961
O O11 0.402546 0.374293 0.576519
O O12 0.179523 0.486979 0.978939
O O13 0.000000 0.500000 0.000000
O O14 0.112841 0.433991 0.286146
O O15 0.500000 0.000000 0.500000
#
# Coordination Sequence:
#
# PCOD8035877 Si02
#       7
#     2   2   2   2   2   2   2
#     4  12  23  45  78 107 148 194 251 312 366 456
#     4  12  25  48  72 113 152 197 245 317 376 450
#     4  11  25  47  77 102 150 196 260 303 378 445
#     4  12  24  45  75 108 151 199 247 314 380 445
#     4  12  26  46  71 108 156 193 251 310 378 442
#     4  12  24  45  77 114 146 192 255 302 382 454
#     4  11  26  49  71 108 147 204 248 316 369 441
#
# _framework density 24.584309999999999
#
# number of rings (size 3 to 8) (size 9 to 14) (size 15 to 20)
#    0.000    0.286    5.714    3.000    0.000    1.143 
#    2.571    0.000    0.000    0.000    0.000    0.000 
#    0.000    0.000    0.000    0.000    0.000    0.000 
#
# Total GULP energy -173469.245865 kJ/mol
# GULP energy per Si atom -12390.660419 kJ/mol
# Density = 2.452835 g / cm^3
# Si number density = 24.584310 Si / 1000 Ang^3
#
#
#
# Elastic Constant Matrix: (Units=GPa)
#
#
# Indices 1 2 3 4 5 6 
#
# 1 136.2059 58.6297 26.8482 -13.7121 14.6975 -20.2235
# 2 58.6297 165.1934 64.5546 2.3614 1.7257 -10.1147
# 3 26.8482 64.5546 121.6791 14.3992 10.4439 -8.8211
# 4 -13.7121 2.3614 14.3992 49.9825 0.1543 4.1056
# 5 14.6975 1.7257 10.4439 0.1543 34.5431 1.3975
# 6 -20.2235 -10.1147 -8.8211 4.1056 1.3975 29.7881
#
#
#
# Elastic Compliance Matrix: (Units=1/GPa)
#
#
# Indices 1 2 3 4 5 6 
#
# 1 0.010366 -0.003302 -0.000035 0.002550 -0.004480 0.005765
# 2 -0.003302 0.008794 -0.004163 -0.000081 0.002248 -0.000583
# 3 -0.000035 -0.004163 0.011283 -0.003259 -0.003275 0.002507
# 4 0.002550 -0.000081 -0.003259 0.021836 -0.000101 -0.002266
# 5 -0.004480 0.002248 -0.003275 -0.000101 0.031925 -0.004732
# 6 0.005765 -0.000583 0.002507 -0.002266 -0.004732 0.038563
#
#
# Mechanical properties :
#
#
# Convention : Reuss Voigt Hill
#
# Bulk Modulus (GPa) = 64.74863 80.34926 72.54895
# Shear Modulus (GPa) = 34.98597 41.06582 38.02589
#
# Velocity S-wave (km/s) = 3.77649 4.09150 3.93715
# Velocity P-wave (km/s) = 6.73873 7.42122 7.08819
#
# Compressibility (1/GPa) = 0.01544434
#
# Stress axis : x y z
#
# Youngs Moduli (GPa) = 96.46749 113.71169 88.62960
#
# Poissons Ratio (x) = 0.37550 0.00307
# Poissons Ratio (y) = 0.31856 0.36892
# Poissons Ratio (z) = 0.00335 0.47333
#
# Static dielectric constant tensor:
#      x y z
#    x 4.685130 -0.051280 0.037440 
#    y -0.051280 4.498620 -0.177260 
#    z 0.037440 -0.177260 5.340960 
# 
# 
# High freq. dielectric constant tensor:
#      x y z
#    x 2.000110 -0.004170 0.007070 
#    y -0.004170 1.958830 -0.005280 
#    z 0.007070 -0.005280 1.989730 
# 
# From -- ./inp_files/446895.got.cif
#   From: 2010.06.25/outbox.cif.g09.slc.cpg/sg2_224_cif.got.tgz:446895.got - 2010.06.27 13:26:56.
