data_PCOD8035358
_publ_section_title
;
Structure prediction by ZEFSAII (Michael W. Deem and Ramdas Pophale) SiO2 
 PCOD8035358
Probable space group: P -1
;
_chemical_formula_sum "Si O2"
_cell_formula_units_Z 16
_cell_length_a 11.648095
_cell_length_b 18.047109
_cell_length_c 14.400341
_cell_angle_alpha 31.088595
_cell_angle_beta 151.363030
_cell_angle_gamma 133.112619
_cell_volume 720.143504
_symmetry_space_group_name_H-M "P -1"
_symmetry_group_IT_number 2
_symmetry_cell_setting 'triclinic'
loop_
_space_group_symop_operation_xyz
x,y,z
-x,-y,-z
loop_
_atom_site_type_symbol
_atom_site_label
_atom_site_fract_x
_atom_site_fract_y
_atom_site_fract_z
Si Si1 0.398487 0.177225 0.487908
Si Si2 0.993892 0.349584 0.429890
Si Si3 0.238048 0.450840 0.784043
Si Si4 0.490405 0.611653 0.287916
Si Si5 0.361252 0.509388 0.117641
Si Si6 0.140579 0.002101 0.878834
Si Si7 0.693687 0.866175 0.734723
Si Si8 0.104804 0.893380 0.772087
O O1 0.448489 0.332802 0.380883
O O2 0.447968 0.138352 0.457564
O O3 0.104933 0.192884 0.271138
O O4 0.587750 0.055208 0.818037
O O5 0.252917 0.390864 0.578855
O O6 0.021767 0.173158 0.641144
O O7 0.797251 0.428757 0.286018
O O8 0.909860 0.422335 0.191725
O O9 0.466910 0.440038 0.890146
O O10 0.000000 0.500000 0.500000
O O11 0.267798 0.287882 0.020046
O O12 0.500000 0.500000 0.500000
O O13 0.334121 0.574959 0.131182
O O14 0.367402 0.777415 0.059626
O O15 0.159717 0.989739 0.794150
O O16 0.961919 0.899800 0.889500
O O17 0.500000 0.000000 0.500000
O O18 0.000000 0.000000 0.500000
#
# Coordination Sequence:
#
# PCOD8035358 Si02
#       8
#     2   2   2   2   2   2   2   2
#     4  11  25  44  69  99 140 180 230 284 348 409
#     4  12  26  45  71 107 137 183 233 281 348 416
#     4  12  25  46  74  99 147 182 226 288 347 412
#     4  12  27  44  72 102 138 180 237 287 342 408
#     4  12  25  45  71 102 140 183 227 285 350 411
#     4  11  26  44  71 101 140 180 234 282 349 410
#     4  11  26  45  67 103 140 182 228 281 340 413
#     4  11  25  46  68  98 140 183 231 293 340 405
#
# _framework density 22.217794000000001
#
# number of rings (size 3 to 8) (size 9 to 14) (size 15 to 20)
#    0.000    0.500    2.500    4.875    5.250    8.500 
#    0.000    0.000    0.000    0.000    0.000    0.000 
#    0.000    0.000    0.000    0.000    0.000    0.000 
#
# Total GULP energy -198359.612475 kJ/mol
# GULP energy per Si atom -12397.475780 kJ/mol
# Density = 2.216723 g / cm^3
# Si number density = 22.217794 Si / 1000 Ang^3
#
#
#
# Elastic Constant Matrix: (Units=GPa)
#
#
# Indices 1 2 3 4 5 6 
#
# 1 95.9480 23.3006 31.0612 -15.9531 -16.2551 -19.0738
# 2 23.3006 84.4271 28.6464 -17.3768 -14.7258 -21.1553
# 3 31.0612 28.6464 132.3564 -14.6208 -20.0994 -18.1772
# 4 -15.9531 -17.3768 -14.6208 50.2068 -5.2188 -4.5515
# 5 -16.2551 -14.7258 -20.0994 -5.2188 42.6848 4.5029
# 6 -19.0738 -21.1553 -18.1772 -4.5515 4.5029 36.0243
#
#
#
# Elastic Compliance Matrix: (Units=1/GPa)
#
#
# Indices 1 2 3 4 5 6 
#
# 1 0.013768 0.000205 -0.001015 0.005275 0.004746 0.006972
# 2 0.000205 0.016943 -0.000740 0.007175 0.005406 0.009916
# 3 -0.001015 -0.000740 0.009333 0.002855 0.003719 0.003633
# 4 0.005275 0.007175 0.002855 0.026717 0.007953 0.010829
# 5 0.004746 0.005406 0.003719 0.007953 0.029306 0.004905
# 6 0.006972 0.009916 0.003633 0.010829 0.004905 0.039862
#
#
# Mechanical properties :
#
#
# Convention : Reuss Voigt Hill
#
# Bulk Modulus (GPa) = 27.06729 53.19420 40.13075
# Shear Modulus (GPa) = 33.03769 41.09809 37.06789
#
# Velocity S-wave (km/s) = 3.86034 4.30558 4.08902
# Velocity P-wave (km/s) = 5.66381 6.97936 6.35571
#
# Compressibility (1/GPa) = 0.03694496
#
# Stress axis : x y z
#
# Youngs Moduli (GPa) = 72.63211 59.02035 107.15003
#
# Poissons Ratio (x) = -0.01209 0.10871
# Poissons Ratio (y) = -0.01488 0.07928
# Poissons Ratio (z) = 0.07369 0.04367
#
# Static dielectric constant tensor:
#      x y z
#    x 3.962390 -0.093470 0.118580 
#    y -0.093470 4.145830 0.204070 
#    z 0.118580 0.204070 4.186050 
# 
# 
# High freq. dielectric constant tensor:
#      x y z
#    x 1.883740 -0.007470 -0.004380 
#    y -0.007470 1.887310 0.005280 
#    z -0.004380 0.005280 1.890660 
# 
# From -- ./inp_files/447430.got.cif
#   From: 2010.06.25/outbox.cif.g09.slc.cpg/sg2_224_cif.got.tgz:447430.got - 2010.06.27 13:26:56.
