data_PCOD8035072
_publ_section_title
;
Structure prediction by ZEFSAII (Michael W. Deem and Ramdas Pophale) SiO2 
 PCOD8035072
Probable space group: P -1
;
_chemical_formula_sum "Si O2"
_cell_formula_units_Z 16
_cell_length_a 6.004449
_cell_length_b 11.173472
_cell_length_c 11.250900
_cell_angle_alpha 103.089792
_cell_angle_beta 107.014210
_cell_angle_gamma 67.454129
_cell_volume 661.022117
_symmetry_space_group_name_H-M "P -1"
_symmetry_group_IT_number 2
_symmetry_cell_setting 'triclinic'
loop_
_space_group_symop_operation_xyz
x,y,z
-x,-y,-z
loop_
_atom_site_type_symbol
_atom_site_label
_atom_site_fract_x
_atom_site_fract_y
_atom_site_fract_z
Si Si1 0.079413 0.102118 0.956808
Si Si2 0.393226 0.268125 0.125660
Si Si3 0.188043 0.752538 0.412230
Si Si4 0.292043 0.082962 0.742903
Si Si5 0.062030 0.621083 0.589661
Si Si6 0.442825 0.521102 0.223868
Si Si7 0.441359 0.730734 0.106465
Si Si8 0.559611 0.815376 0.639023
O O1 0.835410 0.194928 0.873228
O O2 0.270665 0.033410 0.864591
O O3 0.189965 0.195487 0.072043
O O4 0.000000 0.000000 0.000000
O O5 0.280602 0.427679 0.149432
O O6 0.547414 0.222484 0.262141
O O7 0.565481 0.242239 0.029781
O O8 0.277873 0.636105 0.306858
O O9 0.419863 0.795584 0.494734
O O10 0.970196 0.878287 0.356393
O O11 0.095934 0.704436 0.504509
O O12 0.367944 0.211757 0.786959
O O13 0.505737 0.970904 0.679872
O O14 0.844381 0.722172 0.656450
O O15 0.000000 0.500000 0.500000
O O16 0.302653 0.566700 0.696087
O O17 0.511459 0.580986 0.126002
#
# Coordination Sequence:
#
# PCOD8035072 Si02
#       8
#     2   2   2   2   2   2   2   2
#     4  11  24  47  78 104 148 197 241 308 370 429
#     4  11  26  45  73 113 144 192 251 298 364 444
#     4  12  25  48  71 107 147 193 240 306 364 431
#     4  11  26  47  74 109 147 187 251 302 367 436
#     4  12  25  44  72 102 147 199 241 291 367 432
#     4  12  24  49  72 106 155 191 246 300 365 435
#     4  11  25  48  73 108 148 195 241 307 366 428
#     4  12  26  46  72 109 145 191 247 301 362 442
#
# _framework density 24.204937999999999
#
# number of rings (size 3 to 8) (size 9 to 14) (size 15 to 20)
#    0.000    0.500    3.750    4.125    1.750    5.000 
#    0.000    0.000    0.000    0.000    0.000    0.000 
#    0.000    0.000    0.000    0.000    0.000    0.000 
#
# Total GULP energy -198317.716986 kJ/mol
# GULP energy per Si atom -12394.857312 kJ/mol
# Density = 2.414985 g / cm^3
# Si number density = 24.204938 Si / 1000 Ang^3
#
#
#
# Elastic Constant Matrix: (Units=GPa)
#
#
# Indices 1 2 3 4 5 6 
#
# 1 80.8642 52.1483 36.1340 9.9842 1.5820 -0.3773
# 2 52.1483 142.0655 46.4522 9.6605 -1.4806 1.4172
# 3 36.1340 46.4522 85.7290 5.9404 -4.3445 -2.9267
# 4 9.9842 9.6605 5.9404 42.3327 -1.3018 -0.4266
# 5 1.5820 -1.4806 -4.3445 -1.3018 30.7062 7.5380
# 6 -0.3773 1.4172 -2.9267 -0.4266 7.5380 53.9585
#
#
#
# Elastic Compliance Matrix: (Units=1/GPa)
#
#
# Indices 1 2 3 4 5 6 
#
# 1 0.018047 -0.004881 -0.004881 -0.002517 -0.002025 0.000253
# 2 -0.004881 0.009961 -0.003295 -0.000654 0.000368 -0.000531
# 3 -0.004881 -0.003295 0.015652 -0.000221 0.002151 0.000599
# 4 -0.002517 -0.000654 -0.000221 0.024430 0.001096 0.000028
# 5 -0.002025 0.000368 0.002151 0.001096 0.034187 -0.004674
# 6 0.000253 -0.000531 0.000599 0.000028 -0.004674 0.019234
#
#
# Mechanical properties :
#
#
# Convention : Reuss Voigt Hill
#
# Bulk Modulus (GPa) = 56.99072 64.23644 60.61358
# Shear Modulus (GPa) = 32.57871 36.99445 34.78658
#
# Velocity S-wave (km/s) = 3.67270 3.91370 3.79511
# Velocity P-wave (km/s) = 6.44835 6.85703 6.65583
#
# Compressibility (1/GPa) = 0.01754672
#
# Stress axis : x y z
#
# Youngs Moduli (GPa) = 55.41132 100.38692 63.88929
#
# Poissons Ratio (x) = 0.48997 0.31187
# Poissons Ratio (y) = 0.27045 0.21049
# Poissons Ratio (z) = 0.27049 0.33073
#
# Static dielectric constant tensor:
#      x y z
#    x 4.266110 -0.182910 0.661410 
#    y -0.182910 7.034020 -5.210370 
#    z 0.661410 -5.210370 15.743300 
# 
# 
# High freq. dielectric constant tensor:
#      x y z
#    x 1.948010 0.007990 -0.005720 
#    y 0.007990 1.973530 0.000140 
#    z -0.005720 0.000140 1.975760 
# 
# From -- ./inp_files/365085.got.cif
#   From: 2010.06.25/outbox.cif.g09.slc.cpg/sg2_183_cif.got.tgz:365085.got - 2010.06.27 13:26:56.
