data_PCOD8035035
_publ_section_title
;
Structure prediction by ZEFSAII (Michael W. Deem and Ramdas Pophale) SiO2 
 PCOD8035035
Probable space group: P -1
;
_chemical_formula_sum "Si O2"
_cell_formula_units_Z 16
_cell_length_a 5.133743
_cell_length_b 9.563992
_cell_length_c 17.672512
_cell_angle_alpha 115.762099
_cell_angle_beta 72.404779
_cell_angle_gamma 118.152463
_cell_volume 683.825669
_symmetry_space_group_name_H-M "P -1"
_symmetry_group_IT_number 2
_symmetry_cell_setting 'triclinic'
loop_
_space_group_symop_operation_xyz
x,y,z
-x,-y,-z
loop_
_atom_site_type_symbol
_atom_site_label
_atom_site_fract_x
_atom_site_fract_y
_atom_site_fract_z
Si Si1 0.972583 0.897275 0.814111
Si Si2 0.304238 0.923942 0.651641
Si Si3 0.838310 0.225567 0.741218
Si Si4 0.404730 0.904152 0.115928
Si Si5 0.751606 0.384217 0.050296
Si Si6 0.223770 0.118592 0.571490
Si Si7 0.815940 0.568820 0.841063
Si Si8 0.339329 0.616368 0.512698
O O1 0.009340 0.899595 0.719719
O O2 0.884460 0.706015 0.801898
O O3 0.265908 0.022448 0.861097
O O4 0.696917 0.948252 0.867763
O O5 0.352308 0.749714 0.607879
O O6 0.562536 0.058544 0.706794
O O7 0.313598 0.984488 0.578342
O O8 0.849209 0.216423 0.830180
O O9 0.796991 0.395891 0.762576
O O10 0.107394 0.213888 0.667114
O O11 0.414749 0.798621 0.016455
O O12 0.505517 0.463526 0.102418
O O13 0.911188 0.366211 0.108836
O O14 0.000000 0.500000 0.000000
O O15 0.499660 0.274171 0.548965
O O16 0.000000 0.000000 0.500000
O O17 0.500000 0.500000 0.500000
O O18 0.000000 0.500000 0.500000
#
# Coordination Sequence:
#
# PCOD8035035 Si02
#       8
#     2   2   2   2   2   2   2   2
#     4  11  26  46  71 109 146 189 241 305 374 429
#     4  11  26  48  74 103 149 195 249 295 367 454
#     4  11  26  45  76 106 141 200 247 301 361 444
#     4  11  24  47  74 101 147 196 241 297 369 438
#     4  12  26  46  74 108 146 193 251 302 355 439
#     4  12  25  50  79 107 144 201 257 294 368 460
#     4  12  28  45  74 111 148 188 246 309 368 428
#     4  12  29  47  73 112 149 187 239 313 373 424
#
# _framework density 23.397777000000001
#
# number of rings (size 3 to 8) (size 9 to 14) (size 15 to 20)
#    0.000    0.500    3.750    3.000    8.750    3.000 
#    0.000    0.000    0.000    0.000    0.000    0.000 
#    0.000    0.000    0.000    0.000    0.000    0.000 
#
# Total GULP energy -198373.273836 kJ/mol
# GULP energy per Si atom -12398.329615 kJ/mol
# Density = 2.334452 g / cm^3
# Si number density = 23.397777 Si / 1000 Ang^3
#
#
#
# Elastic Constant Matrix: (Units=GPa)
#
#
# Indices 1 2 3 4 5 6 
#
# 1 116.1074 36.2826 31.3275 4.2693 -1.3726 -9.2755
# 2 36.2826 134.8409 35.7083 12.7246 -1.7570 -2.2971
# 3 31.3275 35.7083 95.9827 14.8081 -6.0871 4.2834
# 4 4.2693 12.7246 14.8081 36.8799 -5.2894 -11.8280
# 5 -1.3726 -1.7570 -6.0871 -5.2894 34.8801 0.6336
# 6 -9.2755 -2.2971 4.2834 -11.8280 0.6336 42.9213
#
#
#
# Elastic Compliance Matrix: (Units=1/GPa)
#
#
# Indices 1 2 3 4 5 6 
#
# 1 0.010222 -0.002076 -0.002942 0.001622 -0.000021 0.002839
# 2 -0.002076 0.008759 -0.002278 -0.002012 -0.000338 -0.000302
# 3 -0.002942 -0.002278 0.013261 -0.005129 0.001370 -0.003515
# 4 0.001622 -0.002012 -0.005129 0.033426 0.003956 0.009908
# 5 -0.000021 -0.000338 0.001370 0.003956 0.029482 0.000496
# 6 0.002839 -0.000302 -0.003515 0.009908 0.000496 0.026969
#
#
# Mechanical properties :
#
#
# Convention : Reuss Voigt Hill
#
# Bulk Modulus (GPa) = 56.66173 61.50753 59.08463
# Shear Modulus (GPa) = 35.06414 39.17709 37.12061
#
# Velocity S-wave (km/s) = 3.87539 4.09637 3.98741
# Velocity P-wave (km/s) = 6.65538 6.97987 6.81956
#
# Compressibility (1/GPa) = 0.01764860
#
# Stress axis : x y z
#
# Youngs Moduli (GPa) = 97.82512 114.17478 75.40679
#
# Poissons Ratio (x) = 0.23707 0.22186
# Poissons Ratio (y) = 0.20313 0.17179
# Poissons Ratio (z) = 0.28782 0.26011
#
# Static dielectric constant tensor:
#      x y z
#    x 4.003800 -0.081510 0.078850 
#    y -0.081510 4.396740 -0.161910 
#    z 0.078850 -0.161910 4.711770 
# 
# 
# High freq. dielectric constant tensor:
#      x y z
#    x 1.924000 -0.002760 -0.012110 
#    y -0.002760 1.936560 0.002830 
#    z -0.012110 0.002830 1.940350 
# 
# From -- ./inp_files/548288.got.cif
#   From: 2010.06.25/outbox.cif.g09.slc.cpg/sg2_275_cif.got.tgz:548288.got - 2010.06.27 13:26:56.
