data_PCOD8035552
_publ_section_title
;
Structure prediction by ZEFSAII (Michael W. Deem and Ramdas Pophale) SiO2 
 PCOD8035552
Probable space group: P -1
;
_chemical_formula_sum "Si O2"
_cell_formula_units_Z 12
_cell_length_a 8.550598
_cell_length_b 9.361908
_cell_length_c 14.515511
_cell_angle_alpha 75.282574
_cell_angle_beta 32.949909
_cell_angle_gamma 63.547463
_cell_volume 548.455578
_symmetry_space_group_name_H-M "P -1"
_symmetry_group_IT_number 2
_symmetry_cell_setting 'triclinic'
loop_
_space_group_symop_operation_xyz
x,y,z
-x,-y,-z
loop_
_atom_site_type_symbol
_atom_site_label
_atom_site_fract_x
_atom_site_fract_y
_atom_site_fract_z
Si Si1 0.815112 0.216211 0.648694
Si Si2 0.737490 0.435503 0.153228
Si Si3 0.186528 0.833075 0.989216
Si Si4 0.655205 0.327618 0.403658
Si Si5 0.796309 0.830511 0.358402
Si Si6 0.776007 0.895276 0.709380
O O1 0.592300 0.401625 0.698891
O O2 0.925520 0.218920 0.696900
O O3 0.116278 0.151034 0.441692
O O4 0.642209 0.094016 0.750950
O O5 0.810019 0.328954 0.228011
O O6 0.719679 0.326404 0.094943
O O7 0.000000 0.500000 0.000000
O O8 0.950350 0.829668 0.184492
O O9 0.503785 0.836333 0.875863
O O10 0.000000 0.000000 0.000000
O O11 0.500000 0.500000 0.500000
O O12 0.340713 0.301324 0.551445
O O13 0.928134 0.188656 0.352885
O O14 0.500000 0.000000 0.500000
#
# Coordination Sequence:
#
# PCOD8035552 Si02
#       6
#     2   2   2   2   2   2
#     4  11  25  45  74 102 143 187 236 286 353 417
#     4  12  27  46  72 106 147 183 236 292 350 415
#     4  12  28  46  72 105 145 183 238 293 352 415
#     4  12  25  45  74 105 143 187 234 286 352 416
#     4  12  26  48  72 102 139 190 234 289 354 424
#     4  11  25  46  75 106 140 185 236 290 350 416
#
# _framework density 21.879619999999999
#
# number of rings (size 3 to 8) (size 9 to 14) (size 15 to 20)
#    0.000    0.333    3.333    5.000    7.000    2.667 
#    0.000    0.000    0.000    0.000    0.000    0.000 
#    0.000    0.000    0.000    0.000    0.000    0.000 
#
# Total GULP energy -148846.207495 kJ/mol
# GULP energy per Si atom -12403.850625 kJ/mol
# Density = 2.182982 g / cm^3
# Si number density = 21.879620 Si / 1000 Ang^3
#
#
#
# Elastic Constant Matrix: (Units=GPa)
#
#
# Indices 1 2 3 4 5 6 
#
# 1 104.3042 39.4522 39.4992 -9.2503 13.0527 11.7969
# 2 39.4522 127.1483 40.1067 -1.8600 6.9154 22.2820
# 3 39.4992 40.1067 118.3322 -27.3948 14.9530 19.4875
# 4 -9.2503 -1.8600 -27.3948 47.2921 -0.5003 -1.6389
# 5 13.0527 6.9154 14.9530 -0.5003 42.8668 -9.3090
# 6 11.7969 22.2820 19.4875 -1.6389 -9.3090 48.3521
#
#
#
# Elastic Compliance Matrix: (Units=1/GPa)
#
#
# Indices 1 2 3 4 5 6 
#
# 1 0.012027 -0.002595 -0.002410 0.000782 -0.002666 -0.001253
# 2 -0.002595 0.009964 -0.002232 -0.001530 -0.000764 -0.003258
# 3 -0.002410 -0.002232 0.012751 0.006641 -0.004167 -0.004099
# 4 0.000782 -0.001530 0.006641 0.024998 -0.002402 -0.001778
# 5 -0.002666 -0.000764 -0.004167 -0.002402 0.027399 0.007875
# 6 -0.001253 -0.003258 -0.004099 -0.001778 0.007875 0.025597
#
#
# Mechanical properties :
#
#
# Convention : Reuss Voigt Hill
#
# Bulk Modulus (GPa) = 49.34281 65.32233 57.33257
# Shear Modulus (GPa) = 37.32298 43.08396 40.20347
#
# Velocity S-wave (km/s) = 4.13465 4.44231 4.29124
# Velocity P-wave (km/s) = 6.73756 7.49882 7.12836
#
# Compressibility (1/GPa) = 0.02026638
#
# Stress axis : x y z
#
# Youngs Moduli (GPa) = 83.14968 100.35879 78.42591
#
# Poissons Ratio (x) = 0.26045 0.18904
# Poissons Ratio (y) = 0.21579 0.17504
# Poissons Ratio (z) = 0.20043 0.22400
#
# Static dielectric constant tensor:
#      x y z
#    x 3.786770 0.347550 0.116390 
#    y 0.347550 3.735030 0.018230 
#    z 0.116390 0.018230 3.914550 
# 
# 
# High freq. dielectric constant tensor:
#      x y z
#    x 1.873230 0.008760 0.005120 
#    y 0.008760 1.879040 -0.005390 
#    z 0.005120 -0.005390 1.864450 
# 
# From -- ./inp_files/148155.got.cif
#   From: 2010.06.25/outbox.cif.g09.slc.cpg/sg2_75_cif.got.tgz:148155.got - 2010.06.27 13:26:56.
