data_PCOD8035775
_publ_section_title
;
Structure prediction by ZEFSAII (Michael W. Deem and Ramdas Pophale) SiO2 
 PCOD8035775
Probable space group: P -1
;
_chemical_formula_sum "Si O2"
_cell_formula_units_Z 16
_cell_length_a 17.887864
_cell_length_b 8.791067
_cell_length_c 11.975026
_cell_angle_alpha 127.571871
_cell_angle_beta 152.007598
_cell_angle_gamma 49.326225
_cell_volume 667.228538
_symmetry_space_group_name_H-M "P -1"
_symmetry_group_IT_number 2
_symmetry_cell_setting 'triclinic'
loop_
_space_group_symop_operation_xyz
x,y,z
-x,-y,-z
loop_
_atom_site_type_symbol
_atom_site_label
_atom_site_fract_x
_atom_site_fract_y
_atom_site_fract_z
Si Si1 0.191020 0.883421 0.187772
Si Si2 0.391290 0.214494 0.914119
Si Si3 0.236654 0.272678 0.502573
Si Si4 0.965153 0.640516 0.377366
Si Si5 0.951073 0.749370 0.167101
Si Si6 0.551856 0.549585 0.285722
Si Si7 0.799649 0.190885 0.083916
Si Si8 0.234242 0.560286 0.286881
O O1 0.264158 0.717549 0.306602
O O2 0.265852 0.071408 0.377045
O O3 0.214729 0.773415 0.051791
O O4 0.000000 0.000000 0.000000
O O5 0.341876 0.190910 0.713185
O O6 0.226251 0.316879 0.817182
O O7 0.524575 0.334644 0.146087
O O8 0.500000 0.000000 0.000000
O O9 0.294532 0.435606 0.580768
O O10 0.046300 0.402366 0.345690
O O11 0.973919 0.775883 0.341306
O O12 0.076254 0.697559 0.647698
O O13 0.123840 0.685388 0.298957
O O14 0.844016 0.959507 0.069371
O O15 0.854168 0.584415 0.953922
O O16 0.594598 0.572858 0.485038
O O17 0.391793 0.709113 0.089071
#
# Coordination Sequence:
#
# PCOD8035775 Si02
#       8
#     2   2   2   2   2   2   2   2
#     4  12  25  45  80 109 151 201 258 310 377 455
#     4  12  29  47  74 115 155 197 251 315 384 448
#     4  12  26  49  79 106 154 205 251 310 376 454
#     4  12  27  49  81 111 152 200 258 308 377 461
#     4  11  25  46  79 109 149 201 256 308 378 453
#     4  12  28  48  75 112 159 196 253 320 379 442
#     4  12  28  47  76 114 151 207 252 310 381 454
#     4  11  25  48  74 113 153 197 253 316 376 446
#
# _framework density 23.979787000000002
#
# number of rings (size 3 to 8) (size 9 to 14) (size 15 to 20)
#    0.000    0.250    3.750    4.125    7.000    2.500 
#    0.000    0.000    0.000    0.000    0.000    0.000 
#    0.000    0.000    0.000    0.000    0.000    0.000 
#
# Total GULP energy -198335.135980 kJ/mol
# GULP energy per Si atom -12395.945999 kJ/mol
# Density = 2.392521 g / cm^3
# Si number density = 23.979787 Si / 1000 Ang^3
#
#
#
# Elastic Constant Matrix: (Units=GPa)
#
#
# Indices 1 2 3 4 5 6 
#
# 1 214.1344 90.0859 107.6871 28.3858 -44.5740 41.6588
# 2 90.0859 151.8062 66.3217 10.0741 -13.9622 32.9997
# 3 107.6871 66.3217 141.2182 7.3026 -23.0698 18.2431
# 4 28.3858 10.0741 7.3026 44.2590 4.7818 -8.4737
# 5 -44.5740 -13.9622 -23.0698 4.7818 49.3930 -8.1521
# 6 41.6588 32.9997 18.2431 -8.4737 -8.1521 38.6673
#
#
#
# Elastic Compliance Matrix: (Units=1/GPa)
#
#
# Indices 1 2 3 4 5 6 
#
# 1 0.013846 -0.001492 -0.006540 -0.010478 0.008197 -0.011127
# 2 -0.001492 0.010148 -0.002813 -0.002027 -0.000636 -0.006305
# 3 -0.006540 -0.002813 0.012582 0.003615 -0.000477 0.004202
# 4 -0.010478 -0.002027 0.003615 0.033340 -0.008801 0.016764
# 5 0.008197 -0.000636 -0.000477 -0.008801 0.027397 -0.004217
# 6 -0.011127 -0.006305 0.004202 0.016764 -0.004217 0.044032
#
#
# Mechanical properties :
#
#
# Convention : Reuss Voigt Hill
#
# Bulk Modulus (GPa) = 67.17140 115.03869 91.10504
# Shear Modulus (GPa) = 29.76264 42.66812 36.21538
#
# Velocity S-wave (km/s) = 3.52683 4.22280 3.89040
# Velocity P-wave (km/s) = 6.68260 8.47663 7.63251
#
# Compressibility (1/GPa) = 0.01488729
#
# Stress axis : x y z
#
# Youngs Moduli (GPa) = 72.22226 98.54060 79.48126
#
# Poissons Ratio (x) = 0.14698 0.51978
# Poissons Ratio (y) = 0.10773 0.22358
# Poissons Ratio (z) = 0.47231 0.27720
#
# Static dielectric constant tensor:
#      x y z
#    x 3.916540 0.058310 -0.234210 
#    y 0.058310 3.133500 -1.105250 
#    z -0.234210 -1.105250 3.604680 
# 
# 
# High freq. dielectric constant tensor:
#      x y z
#    x 1.954880 0.015310 -0.012580 
#    y 0.015310 1.960540 -0.008080 
#    z -0.012580 -0.008080 1.961590 
# 
# From -- ./inp_files/298661.got.cif
#   From: 2010.06.25/outbox.cif.g09.slc.cpg/sg2_150_cif.got.tgz:298661.got - 2010.06.27 13:26:56.
