data_PCOD8035166
_publ_section_title
;
Structure prediction by ZEFSAII (Michael W. Deem and Ramdas Pophale) SiO2 
 PCOD8035166
Probable space group: P -1
;
_chemical_formula_sum "Si O2"
_cell_formula_units_Z 16
_cell_length_a 11.792547
_cell_length_b 26.071724
_cell_length_c 6.665552
_cell_angle_alpha 134.340943
_cell_angle_beta 123.379982
_cell_angle_gamma 31.092386
_cell_volume 750.394733
_symmetry_space_group_name_H-M "P -1"
_symmetry_group_IT_number 2
_symmetry_cell_setting 'triclinic'
loop_
_space_group_symop_operation_xyz
x,y,z
-x,-y,-z
loop_
_atom_site_type_symbol
_atom_site_label
_atom_site_fract_x
_atom_site_fract_y
_atom_site_fract_z
Si Si1 0.825826 0.621927 0.263432
Si Si2 0.006624 0.804346 0.747396
Si Si3 0.500128 0.303291 0.570501
Si Si4 0.107851 0.254291 0.185122
Si Si5 0.547106 0.049320 0.807042
Si Si6 0.498136 0.211401 0.946203
Si Si7 0.184511 0.868512 0.271895
Si Si8 0.284327 0.641032 0.186085
O O1 0.718111 0.606199 0.258597
O O2 0.926404 0.645897 0.553791
O O3 0.677912 0.720505 0.217098
O O4 0.000000 0.500000 0.000000
O O5 0.184372 0.701839 0.474930
O O6 0.923135 0.770755 0.699046
O O7 0.123492 0.810250 0.031189
O O8 0.796826 0.936843 0.823131
O O9 0.658123 0.185010 0.529478
O O10 0.623302 0.326828 0.739892
O O11 0.430258 0.300358 0.281717
O O12 0.359041 0.134429 0.027977
O O13 0.921196 0.306459 0.990889
O O14 0.531869 0.121980 0.840834
O O15 0.500000 0.000000 0.500000
O O16 0.725849 0.142891 0.885757
O O17 0.000000 0.000000 0.500000
O O18 0.500000 0.500000 0.000000
#
# Coordination Sequence:
#
# PCOD8035166 Si02
#       8
#     2   2   2   2   2   2   2   2
#     4  11  28  46  74 103 140 190 235 296 352 417
#     4  12  26  45  71 106 143 188 236 291 360 423
#     4  11  24  49  67 103 142 183 236 285 353 416
#     4  12  27  49  70 108 145 185 242 292 360 421
#     4  12  25  44  73 102 144 190 236 292 356 425
#     4  11  25  45  68 103 142 181 241 287 348 420
#     4  11  25  40  70 103 140 184 223 286 351 420
#     4  12  29  47  75 105 142 192 239 294 353 426
#
# _framework density 21.322111
#
# number of rings (size 3 to 8) (size 9 to 14) (size 15 to 20)
#    0.000    0.500    5.000    1.875    8.750    2.000 
#    0.000    0.000    0.000    0.000    0.000    0.000 
#    0.000    0.000    0.000    0.000    0.000    0.000 
#
# Total GULP energy -198286.936164 kJ/mol
# GULP energy per Si atom -12392.933510 kJ/mol
# Density = 2.127358 g / cm^3
# Si number density = 21.322111 Si / 1000 Ang^3
#
#
#
# Elastic Constant Matrix: (Units=GPa)
#
#
# Indices 1 2 3 4 5 6 
#
# 1 144.5220 25.2195 37.8682 12.6897 -11.2403 0.2124
# 2 25.2195 54.9821 23.9897 16.7674 -5.0234 0.6621
# 3 37.8682 23.9897 121.4553 16.6755 4.5526 -2.7463
# 4 12.6897 16.7674 16.6755 47.3406 -7.6936 -2.9102
# 5 -11.2403 -5.0234 4.5526 -7.6936 38.0838 -7.3736
# 6 0.2124 0.6621 -2.7463 -2.9102 -7.3736 24.4417
#
#
#
# Elastic Compliance Matrix: (Units=1/GPa)
#
#
# Indices 1 2 3 4 5 6 
#
# 1 0.008106 -0.002562 -0.002084 -0.000118 0.002370 0.000466
# 2 -0.002562 0.022633 -0.002887 -0.006223 0.001058 -0.001337
# 3 -0.002084 -0.002887 0.009872 -0.002313 -0.002616 0.000141
# 4 -0.000118 -0.006223 -0.002313 0.025335 0.005422 0.004562
# 5 0.002370 0.001058 -0.002616 0.005422 0.030336 0.009454
# 6 0.000466 -0.001337 0.000141 0.004562 0.009454 0.044357
#
#
# Mechanical properties :
#
#
# Convention : Reuss Voigt Hill
#
# Bulk Modulus (GPa) = 39.14540 55.01268 47.07904
# Shear Modulus (GPa) = 30.44673 37.56535 34.00604
#
# Velocity S-wave (km/s) = 3.78291 4.20194 3.99792
# Velocity P-wave (km/s) = 6.12205 7.02840 6.59082
#
# Compressibility (1/GPa) = 0.02554579
#
# Stress axis : x y z
#
# Youngs Moduli (GPa) = 123.35906 44.18276 101.29530
#
# Poissons Ratio (x) = 0.11321 0.21105
# Poissons Ratio (y) = 0.31610 0.29245
# Poissons Ratio (z) = 0.25702 0.12756
#
# Static dielectric constant tensor:
#      x y z
#    x 4.326000 -0.544390 0.013850 
#    y -0.544390 3.823230 -0.449020 
#    z 0.013850 -0.449020 3.970480 
# 
# 
# High freq. dielectric constant tensor:
#      x y z
#    x 1.859100 -0.006620 -0.003030 
#    y -0.006620 1.833370 -0.003910 
#    z -0.003030 -0.003910 1.852100 
# 
# From -- ./inp_files/85166.got.cif
#   From: 2010.06.25/outbox.cif.g09.slc.cpg/sg2_43_cif.got.tgz:85166.got - 2010.06.27 13:26:56.
