data_PCOD8035930
_publ_section_title
;
Structure prediction by ZEFSAII (Michael W. Deem and Ramdas Pophale) SiO2 
 PCOD8035930
Probable space group: P -1
;
_chemical_formula_sum "Si O2"
_cell_formula_units_Z 14
_cell_length_a 10.005160
_cell_length_b 19.542175
_cell_length_c 19.511517
_cell_angle_alpha 21.018533
_cell_angle_beta 30.947952
_cell_angle_gamma 25.507858
_cell_volume 586.395240
_symmetry_space_group_name_H-M "P -1"
_symmetry_group_IT_number 2
_symmetry_cell_setting 'triclinic'
loop_
_space_group_symop_operation_xyz
x,y,z
-x,-y,-z
loop_
_atom_site_type_symbol
_atom_site_label
_atom_site_fract_x
_atom_site_fract_y
_atom_site_fract_z
Si Si1 0.741162 0.214401 0.455709
Si Si2 0.339360 0.431774 0.935219
Si Si3 0.223524 0.527816 0.685926
Si Si4 0.895581 0.139949 0.801218
Si Si5 0.280453 0.073866 0.811821
Si Si6 0.161859 0.060648 0.614974
Si Si7 0.779744 0.371278 0.049563
O O1 0.551435 0.436205 0.283413
O O2 0.913673 0.273021 0.382173
O O3 0.505667 0.159884 0.645163
O O4 0.000000 0.000000 0.500000
O O5 0.358278 0.504755 0.934355
O O6 0.564687 0.164078 0.075160
O O7 0.000000 0.500000 0.000000
O O8 0.590181 0.354912 0.699187
O O9 0.114958 0.674051 0.526582
O O10 0.072592 0.381449 0.891185
O O11 0.831170 0.956577 0.035825
O O12 0.008680 0.233671 0.726326
O O13 0.149580 0.021028 0.739180
O O14 0.094888 0.895718 0.755212
O O15 0.500000 0.000000 0.500000
O O16 0.500000 0.500000 0.000000
#
# Coordination Sequence:
#
# PCOD8035930 Si02
#       7
#     2   2   2   2   2   2   2
#     4  12  24  40  77 111 142 193 247 302 365 437
#     4  12  22  43  73 110 146 186 248 308 365 435
#     4  12  26  48  71 110 147 194 249 297 374 445
#     4  11  27  52  69 107 154 194 244 308 375 441
#     4  11  25  48  73 105 153 191 245 308 369 437
#     4  12  28  49  76 107 146 195 251 304 368 447
#     4  12  25  45  74 112 149 191 245 311 369 431
#
# _framework density 23.874682
#
# number of rings (size 3 to 8) (size 9 to 14) (size 15 to 20)
#    0.000    0.286    5.714    2.143    6.000    1.143 
#    2.571    0.000    0.000    0.000    0.000    0.000 
#    0.000    0.000    0.000    0.000    0.000    0.000 
#
# Total GULP energy -173531.769203 kJ/mol
# GULP energy per Si atom -12395.126372 kJ/mol
# Density = 2.382034 g / cm^3
# Si number density = 23.874682 Si / 1000 Ang^3
#
#
#
# Elastic Constant Matrix: (Units=GPa)
#
#
# Indices 1 2 3 4 5 6 
#
# 1 130.8661 40.0319 56.2522 15.1216 10.9164 3.5972
# 2 40.0319 90.4140 43.6880 14.5177 6.5360 -8.3945
# 3 56.2522 43.6880 168.7131 15.8123 -4.8987 2.3389
# 4 15.1216 14.5177 15.8123 38.5132 1.1210 4.2865
# 5 10.9164 6.5360 -4.8987 1.1210 49.8627 2.4143
# 6 3.5972 -8.3945 2.3389 4.2865 2.4143 45.4641
#
#
#
# Elastic Compliance Matrix: (Units=1/GPa)
#
#
# Indices 1 2 3 4 5 6 
#
# 1 0.009967 -0.002905 -0.002461 -0.001647 -0.001961 -0.000939
# 2 -0.002905 0.014616 -0.002569 -0.003656 -0.001619 0.003491
# 3 -0.002461 -0.002569 0.007579 -0.001154 0.001677 -0.000650
# 4 -0.001647 -0.003656 -0.001154 0.028814 0.000234 -0.003214
# 5 -0.001961 -0.001619 0.001677 0.000234 0.020922 -0.001363
# 6 -0.000939 0.003491 -0.000650 -0.003214 -0.001363 0.023123
#
#
# Mechanical properties :
#
#
# Convention : Reuss Voigt Hill
#
# Bulk Modulus (GPa) = 61.37784 74.43749 67.90766
# Shear Modulus (GPa) = 39.58133 43.43607 41.50870
#
# Velocity S-wave (km/s) = 4.07612 4.26999 4.17418
# Velocity P-wave (km/s) = 6.92222 7.45363 7.19284
#
# Compressibility (1/GPa) = 0.01629253
#
# Stress axis : x y z
#
# Youngs Moduli (GPa) = 100.32682 68.41780 131.94912
#
# Poissons Ratio (x) = 0.19878 0.32467
# Poissons Ratio (y) = 0.29148 0.33897
# Poissons Ratio (z) = 0.24686 0.17576
#
# Static dielectric constant tensor:
#      x y z
#    x 4.668030 -0.062570 0.004800 
#    y -0.062570 4.208830 -0.159330 
#    z 0.004800 -0.159330 4.850280 
# 
# 
# High freq. dielectric constant tensor:
#      x y z
#    x 1.952110 -0.009410 0.010980 
#    y -0.009410 1.944930 -0.000280 
#    z 0.010980 -0.000280 1.956810 
# 
# From -- ./inp_files/591757.got.cif
#   From: 2010.06.25/outbox.cif.g09.slc.cpg/sg2_296_cif.got.tgz:591757.got - 2010.06.27 13:26:56.
