data_PCOD8035325
_publ_section_title
;
Structure prediction by ZEFSAII (Michael W. Deem and Ramdas Pophale) SiO2 
 PCOD8035325
Probable space group: P -1
;
_chemical_formula_sum "Si O2"
_cell_formula_units_Z 16
_cell_length_a 9.173184
_cell_length_b 19.077195
_cell_length_c 13.599306
_cell_angle_alpha 22.190479
_cell_angle_beta 49.531284
_cell_angle_gamma 51.784227
_cell_volume 682.510058
_symmetry_space_group_name_H-M "P -1"
_symmetry_group_IT_number 2
_symmetry_cell_setting 'triclinic'
loop_
_space_group_symop_operation_xyz
x,y,z
-x,-y,-z
loop_
_atom_site_type_symbol
_atom_site_label
_atom_site_fract_x
_atom_site_fract_y
_atom_site_fract_z
Si Si1 0.325965 0.518329 0.225288
Si Si2 0.317293 0.947121 0.707297
Si Si3 0.734015 0.318618 0.281188
Si Si4 0.032702 0.494281 0.218045
Si Si5 0.362964 0.333051 0.769826
Si Si6 0.494441 0.988409 0.264364
Si Si7 0.935632 0.142671 0.610729
Si Si8 0.701719 0.818817 0.206153
O O1 0.555352 0.469113 0.182191
O O2 0.228135 0.482093 0.210534
O O3 0.223702 0.385568 0.521014
O O4 0.285633 0.729366 0.001736
O O5 0.339631 0.012375 0.725919
O O6 0.143773 0.070217 0.573234
O O7 0.500000 0.000000 0.500000
O O8 0.670037 0.152744 0.451890
O O9 0.802529 0.227873 0.472323
O O10 0.912854 0.413341 0.029902
O O11 0.863205 0.608394 0.202500
O O12 0.954502 0.293795 0.491634
O O13 0.500000 0.500000 0.500000
O O14 0.411691 0.219322 0.795807
O O15 0.407838 0.198653 0.017382
O O16 0.563578 0.907952 0.233689
O O17 0.864701 0.958466 0.932768
#
# Coordination Sequence:
#
# PCOD8035325 Si02
#       8
#     2   2   2   2   2   2   2   2
#     4  11  26  46  75 102 149 189 238 305 358 430
#     4  12  27  47  72 109 149 190 244 299 366 429
#     4  11  25  47  75 103 148 190 241 299 365 432
#     4  12  27  45  72 109 143 193 246 296 366 430
#     4  12  26  42  72 107 147 185 244 298 358 427
#     4  11  25  43  74 101 145 197 230 299 363 426
#     4  12  26  45  75 107 146 193 239 304 357 439
#     4  11  25  48  72 103 147 187 247 293 366 429
#
# _framework density 23.442879999999999
#
# number of rings (size 3 to 8) (size 9 to 14) (size 15 to 20)
#    0.000    0.500    1.250    6.375    8.750    5.500 
#    0.000    0.000    0.000    0.000    0.000    0.000 
#    0.000    0.000    0.000    0.000    0.000    0.000 
#
# Total GULP energy -198403.519201 kJ/mol
# GULP energy per Si atom -12400.219950 kJ/mol
# Density = 2.338952 g / cm^3
# Si number density = 23.442880 Si / 1000 Ang^3
#
#
#
# Elastic Constant Matrix: (Units=GPa)
#
#
# Indices 1 2 3 4 5 6 
#
# 1 133.4832 50.2402 39.7365 -14.5347 -3.9587 1.7970
# 2 50.2402 71.3510 15.7699 2.7944 1.3015 1.3238
# 3 39.7365 15.7699 110.6277 -3.3357 -13.0280 12.6867
# 4 -14.5347 2.7944 -3.3357 41.3921 0.1944 -2.9854
# 5 -3.9587 1.3015 -13.0280 0.1944 45.2312 -11.8073
# 6 1.7970 1.3238 12.6867 -2.9854 -11.8073 39.5085
#
#
#
# Elastic Compliance Matrix: (Units=1/GPa)
#
#
# Indices 1 2 3 4 5 6 
#
# 1 0.011875 -0.007898 -0.003065 0.004544 0.000693 0.001259
# 2 -0.007898 0.019829 -0.000182 -0.004194 -0.001566 -0.001031
# 3 -0.003065 -0.000182 0.010713 -0.000405 0.002122 -0.002691
# 4 0.004544 -0.004194 -0.000405 0.026167 0.000892 0.002308
# 5 0.000693 -0.001566 0.002122 0.000892 0.024585 0.006754
# 6 0.001259 -0.001031 -0.002691 0.002308 0.006754 0.028345
#
#
# Mechanical properties :
#
#
# Convention : Reuss Voigt Hill
#
# Bulk Modulus (GPa) = 49.68905 58.55055 54.11980
# Shear Modulus (GPa) = 33.21962 39.20739 36.21351
#
# Velocity S-wave (km/s) = 3.76845 4.09401 3.93460
# Velocity P-wave (km/s) = 6.33851 6.88317 6.61645
#
# Compressibility (1/GPa) = 0.02012516
#
# Stress axis : x y z
#
# Youngs Moduli (GPa) = 84.20982 50.43211 93.34790
#
# Poissons Ratio (x) = 0.39831 0.28615
# Poissons Ratio (y) = 0.66509 0.01701
# Poissons Ratio (z) = 0.25814 0.00919
#
# Static dielectric constant tensor:
#      x y z
#    x 4.378020 -0.026390 -0.066340 
#    y -0.026390 4.007080 -0.047260 
#    z -0.066340 -0.047260 4.818720 
# 
# 
# High freq. dielectric constant tensor:
#      x y z
#    x 1.934480 0.001080 -0.004650 
#    y 0.001080 1.915190 -0.008410 
#    z -0.004650 -0.008410 1.953860 
# 
# From -- ./inp_files/508045.got.cif
#   From: 2010.06.25/outbox.cif.g09.slc.cpg/sg2_255_cif.got.tgz:508045.got - 2010.06.27 13:26:56.
