data_PCOD8035267
_publ_section_title
;
Structure prediction by ZEFSAII (Michael W. Deem and Ramdas Pophale) SiO2 
 PCOD8035267
Probable space group: P -1
;
_chemical_formula_sum "Si O2"
_cell_formula_units_Z 14
_cell_length_a 9.132508
_cell_length_b 8.480486
_cell_length_c 21.816727
_cell_angle_alpha 131.685591
_cell_angle_beta 150.738124
_cell_angle_gamma 59.694238
_cell_volume 603.435243
_symmetry_space_group_name_H-M "P -1"
_symmetry_group_IT_number 2
_symmetry_cell_setting 'triclinic'
loop_
_space_group_symop_operation_xyz
x,y,z
-x,-y,-z
loop_
_atom_site_type_symbol
_atom_site_label
_atom_site_fract_x
_atom_site_fract_y
_atom_site_fract_z
Si Si1 0.419561 0.239811 0.906967
Si Si2 0.086935 0.251409 0.143726
Si Si3 0.161198 0.431422 0.339441
Si Si4 0.804534 0.682120 0.357887
Si Si5 0.170291 0.036196 0.881983
Si Si6 0.345857 0.977965 0.694053
Si Si7 0.807923 0.630615 0.924385
O O1 0.178120 0.176788 0.858583
O O2 0.266666 0.117798 0.758658
O O3 0.500000 0.500000 0.000000
O O4 0.733728 0.147330 0.007047
O O5 0.171217 0.447573 0.273277
O O6 0.327470 0.092194 0.195627
O O7 0.068682 0.337145 0.090880
O O8 0.500000 0.500000 0.500000
O O9 0.952505 0.586832 0.329149
O O10 0.067818 0.188276 0.267994
O O11 0.549399 0.487707 0.241920
O O12 0.064340 0.771385 0.527204
O O13 0.641477 0.872966 0.323688
O O14 0.112388 0.146607 0.952799
O O15 0.500000 0.000000 0.000000
O O16 0.000000 0.500000 0.000000
#
# Coordination Sequence:
#
# PCOD8035267 Si02
#       7
#     2   2   2   2   2   2   2
#     4  12  25  46  71 106 145 191 245 302 367 433
#     4  12  25  42  73 103 143 187 245 295 358 434
#     4  12  26  46  71 107 145 194 242 301 368 432
#     4  11  25  47  69  99 152 189 240 301 368 431
#     4  12  24  43  71  99 141 187 239 297 356 429
#     4  11  25  42  72 104 138 196 240 300 363 434
#     4  12  27  44  71 109 143 186 245 305 361 432
#
# _framework density 23.200500999999999
#
# number of rings (size 3 to 8) (size 9 to 14) (size 15 to 20)
#    0.000    0.286    4.286    4.714    4.000    1.714 
#    0.000    0.000    0.000    6.000    0.000    0.000 
#    0.000    0.000    0.000    0.000    0.000    0.000 
#
# Total GULP energy -173463.920644 kJ/mol
# GULP energy per Si atom -12390.280046 kJ/mol
# Density = 2.314770 g / cm^3
# Si number density = 23.200501 Si / 1000 Ang^3
#
#
#
# Elastic Constant Matrix: (Units=GPa)
#
#
# Indices 1 2 3 4 5 6 
#
# 1 149.7862 37.2826 59.0233 6.6508 -24.3870 4.3431
# 2 37.2826 106.6937 41.1185 3.2422 -4.0112 -3.1998
# 3 59.0233 41.1185 140.6960 22.4344 -8.9859 1.4145
# 4 6.6508 3.2422 22.4344 41.3435 -3.7830 -6.4350
# 5 -24.3870 -4.0112 -8.9859 -3.7830 50.9575 5.5167
# 6 4.3431 -3.1998 1.4145 -6.4350 5.5167 37.6066
#
#
#
# Elastic Compliance Matrix: (Units=1/GPa)
#
#
# Indices 1 2 3 4 5 6 
#
# 1 0.008988 -0.001890 -0.003031 0.000452 0.003822 -0.001568
# 2 -0.001890 0.011049 -0.002659 0.001064 -0.000590 0.001527
# 3 -0.003031 -0.002659 0.009934 -0.004874 -0.000155 -0.001061
# 4 0.000452 0.001064 -0.004874 0.027509 0.000965 0.004787
# 5 0.003822 -0.000590 -0.000155 0.000965 0.021833 -0.003523
# 6 -0.001568 0.001527 -0.001061 0.004787 -0.003523 0.028278
#
#
# Mechanical properties :
#
#
# Convention : Reuss Voigt Hill
#
# Bulk Modulus (GPa) = 67.51185 74.66941 71.09063
# Shear Modulus (GPa) = 39.15796 43.29831 41.22814
#
# Velocity S-wave (km/s) = 4.11275 4.32472 4.22006
# Velocity P-wave (km/s) = 7.19134 7.56253 7.37927
#
# Compressibility (1/GPa) = 0.01481221
#
# Stress axis : x y z
#
# Youngs Moduli (GPa) = 111.25373 90.50550 100.66538
#
# Poissons Ratio (x) = 0.17105 0.30509
# Poissons Ratio (y) = 0.21027 0.26766
# Poissons Ratio (z) = 0.33718 0.24065
#
# Static dielectric constant tensor:
#      x y z
#    x 3.761610 -0.215160 0.034060 
#    y -0.215160 4.159960 0.055330 
#    z 0.034060 0.055330 4.586850 
# 
# 
# High freq. dielectric constant tensor:
#      x y z
#    x 1.924640 -0.010670 -0.010060 
#    y -0.010670 1.920920 0.003090 
#    z -0.010060 0.003090 1.927070 
# 
# From -- ./inp_files/588171.got.cif
#   From: 2010.06.25/outbox.cif.g09.slc.cpg/sg2_295_cif.got.tgz:588171.got - 2010.06.27 13:26:56.
