data_PCOD8036720
_publ_section_title
;
Structure prediction by ZEFSAII (Michael W. Deem and Ramdas Pophale) SiO2 
 PCOD8036720
Probable space group: P -1
;
_chemical_formula_sum "Si O2"
_cell_formula_units_Z 14
_cell_length_a 10.813682
_cell_length_b 6.861004
_cell_length_c 11.362206
_cell_angle_alpha 66.573914
_cell_angle_beta 131.554277
_cell_angle_gamma 109.725081
_cell_volume 575.485425
_symmetry_space_group_name_H-M "P -1"
_symmetry_group_IT_number 2
_symmetry_cell_setting 'triclinic'
loop_
_space_group_symop_operation_xyz
x,y,z
-x,-y,-z
loop_
_atom_site_type_symbol
_atom_site_label
_atom_site_fract_x
_atom_site_fract_y
_atom_site_fract_z
Si Si1 0.561004 0.228410 0.925322
Si Si2 0.697273 0.486750 0.300412
Si Si3 0.420550 0.706753 0.350657
Si Si4 0.123667 0.573743 0.805542
Si Si5 0.915512 0.165025 0.828459
Si Si6 0.335288 0.950627 0.497117
Si Si7 0.863528 0.822895 0.501770
O O1 0.462028 0.412081 0.877714
O O2 0.523494 0.233480 0.761199
O O3 0.753884 0.302932 0.052108
O O4 0.500000 0.000000 0.000000
O O5 0.799799 0.390214 0.284862
O O6 0.640479 0.295021 0.401183
O O7 0.803566 0.679352 0.387026
O O8 0.500000 0.500000 0.500000
O O9 0.219897 0.696855 0.227761
O O10 0.483210 0.899873 0.439031
O O11 0.077832 0.321768 0.856258
O O12 0.951531 0.676246 0.683803
O O13 0.818882 0.035395 0.692039
O O14 0.000000 0.000000 0.000000
O O15 0.285806 0.076743 0.552960
O O16 0.000000 0.000000 0.500000
#
# Coordination Sequence:
#
# PCOD8036720 Si02
#       7
#     2   2   2   2   2   2   2
#     4  12  28  48  79 114 151 198 254 319 383 447
#     4  12  24  48  76 114 145 196 254 305 387 456
#     4  12  28  53  78 106 155 211 261 301 380 475
#     4  12  26  45  73 111 159 184 243 321 380 445
#     4  12  30  46  72 112 150 201 251 317 380 442
#     4  12  25  49  79 107 149 201 259 309 373 469
#     4  12  22  43  74 113 147 188 242 308 382 450
#
# _framework density 24.327286999999998
#
# number of rings (size 3 to 8) (size 9 to 14) (size 15 to 20)
#    0.000    0.000    4.286    5.571    8.000    0.571 
#    0.000    0.000    0.000    0.000    0.000    0.000 
#    0.000    0.000    0.000    0.000    0.000    0.000 
#
# Total GULP energy -173555.443064 kJ/mol
# GULP energy per Si atom -12396.817362 kJ/mol
# Density = 2.427192 g / cm^3
# Si number density = 24.327287 Si / 1000 Ang^3
#
#
#
# Elastic Constant Matrix: (Units=GPa)
#
#
# Indices 1 2 3 4 5 6 
#
# 1 58.6695 25.4637 33.3648 -8.5323 3.2458 10.9409
# 2 25.4637 127.2428 49.8876 1.0191 -13.8320 18.1375
# 3 33.3648 49.8876 130.9741 -15.3796 -6.3825 4.5109
# 4 -8.5323 1.0191 -15.3796 59.6095 -2.0028 4.3674
# 5 3.2458 -13.8320 -6.3825 -2.0028 39.9372 -7.4597
# 6 10.9409 18.1375 4.5109 4.3674 -7.4597 49.8810
#
#
#
# Elastic Compliance Matrix: (Units=1/GPa)
#
#
# Indices 1 2 3 4 5 6 
#
# 1 0.022012 -0.002508 -0.004440 0.002228 -0.004062 -0.004317
# 2 -0.002508 0.010255 -0.003179 -0.001087 0.002747 -0.002385
# 3 -0.004440 -0.003179 0.010231 0.002011 0.001222 0.001211
# 4 0.002228 -0.001087 0.002011 0.017774 0.000322 -0.001783
# 5 -0.004062 0.002747 0.001222 0.000322 0.027247 0.003828
# 6 -0.004317 -0.002385 0.001211 -0.001783 0.003828 0.022481
#
#
# Mechanical properties :
#
#
# Convention : Reuss Voigt Hill
#
# Bulk Modulus (GPa) = 44.95598 59.36873 52.16235
# Shear Modulus (GPa) = 36.31958 43.76356 40.04157
#
# Velocity S-wave (km/s) = 3.86807 4.24600 4.06144
# Velocity P-wave (km/s) = 6.20234 6.96385 6.59410
#
# Compressibility (1/GPa) = 0.02224398
#
# Stress axis : x y z
#
# Youngs Moduli (GPa) = 45.43008 97.51814 97.74496
#
# Poissons Ratio (x) = 0.24461 0.43395
# Poissons Ratio (y) = 0.11396 0.31069
# Poissons Ratio (z) = 0.20169 0.30997
#
# Static dielectric constant tensor:
#      x y z
#    x 5.120730 0.166620 0.329940 
#    y 0.166620 4.258590 0.157220 
#    z 0.329940 0.157220 4.551880 
# 
# 
# High freq. dielectric constant tensor:
#      x y z
#    x 1.984560 0.001750 0.008950 
#    y 0.001750 1.985580 0.007240 
#    z 0.008950 0.007240 1.974480 
# 
# From -- ./inp_files/83449.got.cif
#   From: 2010.06.25/outbox.cif.g09.slc.cpg/sg2_42_cif.got.tgz:83449.got - 2010.06.27 13:26:56.
