data_PCOD8036509
_publ_section_title
;
Structure prediction by ZEFSAII (Michael W. Deem and Ramdas Pophale) SiO2 
 PCOD8036509
Probable space group: P -1
;
_chemical_formula_sum "Si O2"
_cell_formula_units_Z 12
_cell_length_a 4.874834
_cell_length_b 13.772471
_cell_length_c 7.205901
_cell_angle_alpha 103.885444
_cell_angle_beta 115.021731
_cell_angle_gamma 98.504788
_cell_volume 408.115566
_symmetry_space_group_name_H-M "P -1"
_symmetry_group_IT_number 2
_symmetry_cell_setting 'triclinic'
loop_
_space_group_symop_operation_xyz
x,y,z
-x,-y,-z
loop_
_atom_site_type_symbol
_atom_site_label
_atom_site_fract_x
_atom_site_fract_y
_atom_site_fract_z
Si Si1 0.163241 0.256558 0.120759
Si Si2 0.856520 0.550676 0.639967
Si Si3 0.796247 0.245521 0.460819
Si Si4 0.156338 0.424486 0.885361
Si Si5 0.626477 0.042525 0.855254
Si Si6 0.724369 0.885701 0.520033
O O1 0.069627 0.322129 0.299479
O O2 0.521586 0.249387 0.232794
O O3 0.911726 0.146737 0.992280
O O4 0.143037 0.334161 0.987165
O O5 0.500000 0.500000 0.500000
O O6 0.000000 0.500000 0.500000
O O7 0.945831 0.510311 0.852297
O O8 0.597004 0.206384 0.576172
O O9 0.040441 0.357639 0.630810
O O10 0.970540 0.157689 0.415588
O O11 0.500000 0.500000 0.000000
O O12 0.230392 0.037586 0.253462
O O13 0.323845 0.060258 0.664011
O O14 0.500000 0.000000 0.000000
#
# Coordination Sequence:
#
# PCOD8036509 Si02
#       6
#     2   2   2   2   2   2
#     4  12  29  58  91 134 181 248 307 375 470 557
#     4  12  28  54  88 129 179 235 299 375 451 540
#     4  12  30  56  93 131 189 240 305 387 464 552
#     4  12  29  53  90 134 181 241 306 379 459 552
#     4  11  29  61  98 137 184 245 315 383 473 559
#     4  11  30  61  89 138 188 238 311 396 456 556
#
# _framework density 29.403441000000001
#
# number of rings (size 3 to 8) (size 9 to 14) (size 15 to 20)
#    0.000    0.333    3.333    1.500    7.000    6.667 
#    0.000    0.000    0.000    0.000    0.000    0.000 
#    0.000    0.000    0.000    0.000    0.000    0.000 
#
# Total GULP energy -148720.824099 kJ/mol
# GULP energy per Si atom -12393.402008 kJ/mol
# Density = 2.933652 g / cm^3
# Si number density = 29.403441 Si / 1000 Ang^3
#
#
#
# Elastic Constant Matrix: (Units=GPa)
#
#
# Indices 1 2 3 4 5 6 
#
# 1 188.1105 79.0311 83.2938 -18.9264 23.3224 -21.2397
# 2 79.0311 209.8362 110.5292 -28.2405 19.3307 2.9808
# 3 83.2938 110.5292 188.5104 -15.8236 19.9561 2.3831
# 4 -18.9264 -28.2405 -15.8236 71.2737 10.8230 17.1735
# 5 23.3224 19.3307 19.9561 10.8230 45.9234 -12.6787
# 6 -21.2397 2.9808 2.3831 17.1735 -12.6787 57.6931
#
#
#
# Elastic Compliance Matrix: (Units=1/GPa)
#
#
# Indices 1 2 3 4 5 6 
#
# 1 0.007448 -0.001407 -0.002264 0.000608 -0.001700 0.002353
# 2 -0.001407 0.007695 -0.003388 0.002778 -0.002288 -0.002105
# 3 -0.002264 -0.003388 0.008541 0.000588 -0.001705 -0.001561
# 4 0.000608 0.002778 0.000588 0.018376 -0.008047 -0.007182
# 5 -0.001700 -0.002288 -0.001705 -0.008047 0.028509 0.008224
# 6 0.002353 -0.002105 -0.001561 -0.007182 0.008224 0.022318
#
#
# Mechanical properties :
#
#
# Convention : Reuss Voigt Hill
#
# Bulk Modulus (GPa) = 104.55297 125.79615 115.17456
# Shear Modulus (GPa) = 45.37476 55.88491 50.62984
#
# Velocity S-wave (km/s) = 3.93259 4.36435 4.15408
# Velocity P-wave (km/s) = 7.50038 8.26271 7.89075
#
# Compressibility (1/GPa) = 0.00956453
#
# Stress axis : x y z
#
# Youngs Moduli (GPa) = 134.27227 129.96034 117.07939
#
# Poissons Ratio (x) = 0.18288 0.26511
# Poissons Ratio (y) = 0.18895 0.39664
# Poissons Ratio (z) = 0.30404 0.44028
#
# Static dielectric constant tensor:
#      x y z
#    x 5.759460 -0.174170 -0.700120 
#    y -0.174170 7.395550 0.002820 
#    z -0.700120 0.002820 7.298530 
# 
# 
# High freq. dielectric constant tensor:
#      x y z
#    x 2.208530 0.002880 -0.009800 
#    y 0.002880 2.254940 -0.015920 
#    z -0.009800 -0.015920 2.238350 
# 
# From -- ./inp_files/132474.got.cif
#   From: 2010.06.25/outbox.cif.g09.slc.cpg/sg2_67_cif.got.tgz:132474.got - 2010.06.27 13:26:56.
