data_PCOD8036092
_publ_section_title
;
Structure prediction by ZEFSAII (Michael W. Deem and Ramdas Pophale) SiO2 
 PCOD8036092
Probable space group: P -1
;
_chemical_formula_sum "Si O2"
_cell_formula_units_Z 14
_cell_length_a 16.063858
_cell_length_b 5.216163
_cell_length_c 15.619497
_cell_angle_alpha 108.176261
_cell_angle_beta 27.719864
_cell_angle_gamma 106.817490
_cell_volume 578.144968
_symmetry_space_group_name_H-M "P -1"
_symmetry_group_IT_number 2
_symmetry_cell_setting 'triclinic'
loop_
_space_group_symop_operation_xyz
x,y,z
-x,-y,-z
loop_
_atom_site_type_symbol
_atom_site_label
_atom_site_fract_x
_atom_site_fract_y
_atom_site_fract_z
Si Si1 0.565753 0.864919 0.168856
Si Si2 0.527650 0.870616 0.551720
Si Si3 0.127140 0.550545 0.655627
Si Si4 0.808826 0.463410 0.218879
Si Si5 0.111434 0.231151 0.375896
Si Si6 0.073576 0.006610 0.205970
Si Si7 0.404592 0.313625 0.256603
O O1 0.554748 0.546341 0.125044
O O2 0.464162 0.916479 0.356376
O O3 0.485568 0.029692 0.179214
O O4 0.772572 0.956692 0.002001
O O5 0.723520 0.742062 0.357441
O O6 0.349923 0.674754 0.708445
O O7 0.500000 0.000000 0.500000
O O8 0.083745 0.795621 0.657005
O O9 0.157737 0.685327 0.735986
O O10 0.297600 0.408253 0.447055
O O11 0.976651 0.309627 0.774296
O O12 0.000000 0.500000 0.000000
O O13 0.158995 0.119049 0.228021
O O14 0.291560 0.284119 0.270276
O O15 0.000000 0.500000 0.500000
O O16 0.000000 0.000000 0.500000
#
# Coordination Sequence:
#
# PCOD8036092 Si02
#       7
#     2   2   2   2   2   2   2
#     4  12  27  45  68 102 140 177 226 283 354 403
#     4  11  26  45  67  99 141 181 227 296 346 406
#     4  12  24  45  71 100 133 183 233 273 345 413
#     4  11  26  44  70 101 136 184 236 286 347 419
#     4  12  23  43  69 102 135 174 231 282 339 404
#     4  12  26  44  71 102 137 179 228 289 337 418
#     4  12  24  44  72  97 136 183 221 280 344 411
#
# _framework density 24.215378999999999
#
# number of rings (size 3 to 8) (size 9 to 14) (size 15 to 20)
#    0.000    0.286    4.286    4.286    6.000    1.714 
#    0.000    0.000    0.000    0.000    0.000    0.000 
#    0.000    0.000    0.000    0.000    0.000    0.000 
#
# Total GULP energy -173555.566065 kJ/mol
# GULP energy per Si atom -12396.826148 kJ/mol
# Density = 2.416026 g / cm^3
# Si number density = 24.215379 Si / 1000 Ang^3
#
#
#
# Elastic Constant Matrix: (Units=GPa)
#
#
# Indices 1 2 3 4 5 6 
#
# 1 100.8218 24.8156 -1.5748 7.6581 5.9488 -2.2520
# 2 24.8156 107.2986 -0.6632 -14.3301 -2.5597 -6.2942
# 3 -1.5748 -0.6632 96.0525 -5.3421 -6.4247 -0.2066
# 4 7.6581 -14.3301 -5.3421 30.9279 6.5586 0.0534
# 5 5.9488 -2.5597 -6.4247 6.5586 31.3120 -1.9778
# 6 -2.2520 -6.2942 -0.2066 0.0534 -1.9778 44.8111
#
#
#
# Elastic Compliance Matrix: (Units=1/GPa)
#
#
# Indices 1 2 3 4 5 6 
#
# 1 0.011071 -0.003114 -0.000161 -0.003878 -0.001575 0.000053
# 2 -0.003114 0.010908 0.000379 0.005796 0.000435 0.001390
# 3 -0.000161 0.000379 0.010631 0.001646 0.001909 0.000176
# 4 -0.003878 0.005796 0.001646 0.037601 -0.006308 0.000304
# 5 -0.001575 0.000435 0.001909 -0.006308 0.034079 0.001502
# 6 0.000053 0.001390 0.000176 0.000304 0.001502 0.022581
#
#
# Mechanical properties :
#
#
# Convention : Reuss Voigt Hill
#
# Bulk Modulus (GPa) = 37.28862 38.81422 38.05142
# Shear Modulus (GPa) = 35.31025 40.18320 37.74672
#
# Velocity S-wave (km/s) = 3.82275 4.07800 3.95244
# Velocity P-wave (km/s) = 5.90904 6.18361 6.04788
#
# Compressibility (1/GPa) = 0.02681783
#
# Stress axis : x y z
#
# Youngs Moduli (GPa) = 90.32537 91.67365 94.06816
#
# Poissons Ratio (x) = 0.28546 0.01514
# Poissons Ratio (y) = 0.28126 -0.03562
# Poissons Ratio (z) = 0.01453 -0.03472
#
# Static dielectric constant tensor:
#      x y z
#    x 4.861840 0.514840 -0.115470 
#    y 0.514840 5.242120 -0.005110 
#    z -0.115470 -0.005110 4.413630 
# 
# 
# High freq. dielectric constant tensor:
#      x y z
#    x 1.971960 -0.000460 -0.002390 
#    y -0.000460 1.971870 -0.010470 
#    z -0.002390 -0.010470 1.957380 
# 
# From -- ./inp_files/48776.got.cif
#   From: 2010.06.25/outbox.cif.g09.slc.cpg/sg2_25_cif.got.tgz:48776.got - 2010.06.27 13:26:56.
