data_PCOD8036735
_publ_section_title
;
Structure prediction by ZEFSAII (Michael W. Deem and Ramdas Pophale) SiO2 
 PCOD8036735
Probable space group: P -1
;
_chemical_formula_sum "Si O2"
_cell_formula_units_Z 14
_cell_length_a 19.928913
_cell_length_b 11.336395
_cell_length_c 20.899526
_cell_angle_alpha 30.742688
_cell_angle_beta 20.492560
_cell_angle_gamma 22.612338
_cell_volume 635.082383
_symmetry_space_group_name_H-M "P -1"
_symmetry_group_IT_number 2
_symmetry_cell_setting 'triclinic'
loop_
_space_group_symop_operation_xyz
x,y,z
-x,-y,-z
loop_
_atom_site_type_symbol
_atom_site_label
_atom_site_fract_x
_atom_site_fract_y
_atom_site_fract_z
Si Si1 0.352449 0.288467 0.631954
Si Si2 0.757350 0.717318 0.786901
Si Si3 0.650445 0.296010 0.899142
Si Si4 0.932289 0.303442 0.945303
Si Si5 0.133799 0.624808 0.801833
Si Si6 0.485883 0.402332 0.710035
Si Si7 0.830871 0.605670 0.539599
O O1 0.242323 0.508936 0.688362
O O2 0.370551 0.464434 0.476878
O O3 0.180474 0.212613 0.798878
O O4 0.629820 0.971314 0.548532
O O5 0.834538 0.551187 0.862816
O O6 0.995865 0.506348 0.625243
O O7 0.690995 0.037667 0.705258
O O8 0.504618 0.789096 0.954445
O O9 0.685049 0.475296 0.733510
O O10 0.500000 0.500000 0.000000
O O11 0.928679 0.993152 0.814127
O O12 0.717614 0.450466 0.121290
O O13 0.000000 0.000000 0.000000
O O14 0.359498 0.499930 0.707281
O O15 0.000000 0.500000 0.000000
O O16 0.000000 0.500000 0.500000
#
# Coordination Sequence:
#
# PCOD8036735 Si02
#       7
#     2   2   2   2   2   2   2
#     4  12  26  46  72 102 141 182 228 286 346 405
#     4  12  26  45  68 103 136 181 236 277 340 415
#     4  12  24  41  71 100 140 177 221 287 346 400
#     4  12  28  47  70  99 139 187 234 279 340 414
#     4  12  22  44  73 104 137 178 226 284 352 402
#     4  12  26  46  73 101 139 180 233 286 341 412
#     4  12  24  41  69 102 137 175 227 284 343 404
#
# _framework density 22.044384000000001
#
# number of rings (size 3 to 8) (size 9 to 14) (size 15 to 20)
#    0.000    0.000    4.286    6.000    2.000    4.000 
#    0.000    0.000    0.000    0.000    0.000    0.000 
#    0.000    0.000    0.000    0.000    0.000    0.000 
#
# Total GULP energy -173701.161252 kJ/mol
# GULP energy per Si atom -12407.225804 kJ/mol
# Density = 2.199421 g / cm^3
# Si number density = 22.044384 Si / 1000 Ang^3
#
#
#
# Elastic Constant Matrix: (Units=GPa)
#
#
# Indices 1 2 3 4 5 6 
#
# 1 115.7587 42.7344 46.1461 -12.8696 -42.7300 -11.8390
# 2 42.7344 187.1052 51.5900 8.4143 21.7137 1.7608
# 3 46.1461 51.5900 153.8700 -15.0433 -5.0345 1.1049
# 4 -12.8696 8.4143 -15.0433 82.9454 99.4574 24.0396
# 5 -42.7300 21.7137 -5.0345 99.4574 294.2140 49.5864
# 6 -11.8390 1.7608 1.1049 24.0396 49.5864 44.6493
#
#
#
# Elastic Compliance Matrix: (Units=1/GPa)
#
#
# Indices 1 2 3 4 5 6 
#
# 1 0.011196 -0.001966 -0.002779 -0.001324 0.001877 0.001743
# 2 -0.001966 0.006334 -0.001611 -0.000552 -0.000641 0.000278
# 3 -0.002779 -0.001611 0.008104 0.002520 -0.000765 -0.001381
# 4 -0.001324 -0.000552 0.002520 0.021701 -0.006655 -0.004685
# 5 0.001877 -0.000641 -0.000765 -0.006655 0.006471 -0.003062
# 6 0.001743 0.000278 -0.001381 -0.004685 -0.003062 0.028805
#
#
# Mechanical properties :
#
#
# Convention : Reuss Voigt Hill
#
# Bulk Modulus (GPa) = 77.38530 81.96390 79.67460
# Shear Modulus (GPa) = 50.18481 105.44596 77.81539
#
# Velocity S-wave (km/s) = 4.77648 6.92368 5.94778
# Velocity P-wave (km/s) = 8.09940 10.05875 9.13178
#
# Compressibility (1/GPa) = 0.01292235
#
# Stress axis : x y z
#
# Youngs Moduli (GPa) = 89.31532 157.86917 123.39701
#
# Poissons Ratio (x) = 0.31031 0.34295
# Poissons Ratio (y) = 0.17556 0.19882
# Poissons Ratio (z) = 0.24823 0.25436
#
# Static dielectric constant tensor:
#      x y z
#    x 4.073630 0.046970 -0.087190 
#    y 0.046970 3.968190 -0.483650 
#    z -0.087190 -0.483650 4.237800 
# 
# 
# High freq. dielectric constant tensor:
#      x y z
#    x 1.857910 0.002990 0.003860 
#    y 0.002990 1.887920 -0.005500 
#    z 0.003860 -0.005500 1.895940 
# 
# From -- ./inp_files/183729.got.cif
#   From: 2010.06.25/outbox.cif.g09.slc.cpg/sg2_92_cif.got.tgz:183729.got - 2010.06.27 13:26:56.
