data_PCOD8036726
_publ_section_title
;
Structure prediction by ZEFSAII (Michael W. Deem and Ramdas Pophale) SiO2 
 PCOD8036726
Probable space group: P -1
;
_chemical_formula_sum "Si O2"
_cell_formula_units_Z 16
_cell_length_a 6.882592
_cell_length_b 13.999588
_cell_length_c 14.414028
_cell_angle_alpha 140.813956
_cell_angle_beta 57.439637
_cell_angle_gamma 109.943685
_cell_volume 732.019882
_symmetry_space_group_name_H-M "P -1"
_symmetry_group_IT_number 2
_symmetry_cell_setting 'triclinic'
loop_
_space_group_symop_operation_xyz
x,y,z
-x,-y,-z
loop_
_atom_site_type_symbol
_atom_site_label
_atom_site_fract_x
_atom_site_fract_y
_atom_site_fract_z
Si Si1 0.025410 0.356857 0.587017
Si Si2 0.321670 0.149054 0.669529
Si Si3 0.730972 0.377346 0.329819
Si Si4 0.809387 0.131846 0.790229
Si Si5 0.364337 0.153698 0.460422
Si Si6 0.121746 0.829783 0.689095
Si Si7 0.703983 0.093142 0.991951
Si Si8 0.640907 0.339252 0.829901
O O1 0.964403 0.268203 0.445230
O O2 0.833211 0.340067 0.701508
O O3 0.059332 0.531439 0.689381
O O4 0.278401 0.277363 0.497250
O O5 0.288675 0.227707 0.635561
O O6 0.432660 0.246457 0.789340
O O7 0.076129 0.109826 0.739301
O O8 0.500000 0.000000 0.500000
O O9 0.500000 0.500000 0.500000
O O10 0.833512 0.285867 0.324295
O O11 0.681974 0.253425 0.172503
O O12 0.665643 0.135703 0.925248
O O13 0.753271 0.284901 0.859024
O O14 0.763822 0.993937 0.631762
O O15 0.640526 0.106724 0.349574
O O16 0.941176 0.981200 0.870981
O O17 0.500000 0.000000 0.000000
O O18 0.500000 0.500000 0.000000
#
# Coordination Sequence:
#
# PCOD8036726 Si02
#       8
#     2   2   2   2   2   2   2   2
#     4  12  25  47  72 108 145 195 243 300 363 435
#     4  12  23  43  73 104 139 191 240 288 362 425
#     4  12  27  48  75 105 148 195 245 302 370 436
#     4  12  26  44  75 104 147 187 241 305 354 431
#     4  12  22  43  77 107 143 186 247 298 361 427
#     4  12  25  48  79 106 143 194 245 306 363 433
#     4  12  28  50  76 111 144 190 249 304 364 436
#     4  12  29  44  69 110 154 194 239 295 367 438
#
# _framework density 21.857330000000001
#
# number of rings (size 3 to 8) (size 9 to 14) (size 15 to 20)
#    0.000    0.000    6.250    4.125    1.750    3.500 
#    0.000    0.000    0.000    0.000    0.000    0.000 
#    0.000    0.000    0.000    0.000    0.000    0.000 
#
# Total GULP energy -198410.289938 kJ/mol
# GULP energy per Si atom -12400.643121 kJ/mol
# Density = 2.180758 g / cm^3
# Si number density = 21.857330 Si / 1000 Ang^3
#
#
#
# Elastic Constant Matrix: (Units=GPa)
#
#
# Indices 1 2 3 4 5 6 
#
# 1 116.0719 35.1565 46.8008 -0.6851 4.4976 8.8083
# 2 35.1565 110.7156 39.0072 -5.4540 3.1092 3.3429
# 3 46.8008 39.0072 125.2010 11.6930 3.2552 0.6234
# 4 -0.6851 -5.4540 11.6930 42.2165 -2.0894 3.3658
# 5 4.4976 3.1092 3.2552 -2.0894 32.8526 -1.7273
# 6 8.8083 3.3429 0.6234 3.3658 -1.7273 58.4854
#
#
#
# Elastic Compliance Matrix: (Units=1/GPa)
#
#
# Indices 1 2 3 4 5 6 
#
# 1 0.010797 -0.002098 -0.003437 0.000932 -0.000961 -0.001552
# 2 -0.002098 0.010802 -0.002770 0.002144 -0.000346 -0.000406
# 3 -0.003437 -0.002770 0.010461 -0.003394 -0.000480 0.000746
# 4 0.000932 0.002144 -0.003394 0.025125 0.001518 -0.001628
# 5 -0.000961 -0.000346 -0.000480 0.001518 0.030800 0.000992
# 6 -0.001552 -0.000406 0.000746 -0.001628 0.000992 0.017470
#
#
# Mechanical properties :
#
#
# Convention : Reuss Voigt Hill
#
# Bulk Modulus (GPa) = 64.72658 65.99085 65.35871
# Shear Modulus (GPa) = 39.30382 42.11248 40.70815
#
# Velocity S-wave (km/s) = 4.24512 4.39418 4.32029
# Velocity P-wave (km/s) = 7.32841 7.48347 7.40634
#
# Compressibility (1/GPa) = 0.01544960
#
# Stress axis : x y z
#
# Youngs Moduli (GPa) = 92.61863 92.57576 95.59536
#
# Poissons Ratio (x) = 0.19421 0.32853
# Poissons Ratio (y) = 0.19430 0.26484
# Poissons Ratio (z) = 0.31830 0.25648
#
# Static dielectric constant tensor:
#      x y z
#    x 4.335310 -0.295700 0.120950 
#    y -0.295700 4.449350 -0.238060 
#    z 0.120950 -0.238060 3.925580 
# 
# 
# High freq. dielectric constant tensor:
#      x y z
#    x 1.880510 -0.003190 0.000900 
#    y -0.003190 1.880240 -0.005330 
#    z 0.000900 -0.005330 1.848740 
# 
# From -- ./inp_files/98583.got.cif
#   From: 2010.06.25/outbox.cif.g09.slc.cpg/sg2_50_cif.got.tgz:98583.got - 2010.06.27 13:26:56.
