data_PCOD8036981
_publ_section_title
;
Structure prediction by ZEFSAII (Michael W. Deem and Ramdas Pophale) SiO2 
 PCOD8036981
Probable space group: P -1
;
_chemical_formula_sum "Si O2"
_cell_formula_units_Z 16
_cell_length_a 13.130972
_cell_length_b 15.209455
_cell_length_c 18.857461
_cell_angle_alpha 29.765935
_cell_angle_beta 153.373701
_cell_angle_gamma 132.104107
_cell_volume 737.718356
_symmetry_space_group_name_H-M "P -1"
_symmetry_group_IT_number 2
_symmetry_cell_setting 'triclinic'
loop_
_space_group_symop_operation_xyz
x,y,z
-x,-y,-z
loop_
_atom_site_type_symbol
_atom_site_label
_atom_site_fract_x
_atom_site_fract_y
_atom_site_fract_z
Si Si1 0.806186 0.881283 0.280429
Si Si2 0.009501 0.754717 0.029512
Si Si3 0.653081 0.450373 0.892974
Si Si4 0.424237 0.901120 0.389796
Si Si5 0.610652 0.096161 0.792657
Si Si6 0.931486 0.653278 0.659562
Si Si7 0.028730 0.180409 0.198877
Si Si8 0.227707 0.312273 0.737566
O O1 0.899932 0.807335 0.469675
O O2 0.893213 0.703794 0.401550
O O3 0.931550 0.019043 0.240618
O O4 0.500000 0.000000 0.000000
O O5 0.958774 0.731751 0.931361
O O6 0.762221 0.929719 0.790756
O O7 0.255667 0.789322 0.164919
O O8 0.066399 0.536967 0.246579
O O9 0.480400 0.687885 0.607295
O O10 0.477349 0.341555 0.861574
O O11 0.848169 0.362312 0.010265
O O12 0.804444 0.405368 0.093112
O O13 0.294277 0.932394 0.209642
O O14 0.678428 0.925035 0.517282
O O15 0.305178 0.239756 0.508101
O O16 0.694317 0.882748 0.029612
O O17 0.000000 0.500000 0.500000
#
# Coordination Sequence:
#
# PCOD8036981 Si02
#       8
#     2   2   2   2   2   2   2   2
#     4  12  25  47  71 103 134 181 231 280 341 410
#     4  12  26  45  69 102 142 178 233 288 335 407
#     4  12  26  46  71 103 141 181 231 282 344 415
#     4  12  27  44  69 104 141 183 225 285 351 399
#     4  12  25  46  70 101 139 183 230 278 347 411
#     4  12  26  44  72 106 134 181 234 281 345 409
#     4  12  23  46  72  95 140 183 227 281 336 410
#     4  12  28  47  72 103 142 181 226 287 350 406
#
# _framework density 21.688496000000001
#
# number of rings (size 3 to 8) (size 9 to 14) (size 15 to 20)
#    0.000    0.000    6.250    3.000    5.250    1.000 
#    0.000    1.250    0.000    0.000    0.000    0.000 
#    0.000    0.000    0.000    0.000    0.000    0.000 
#
# Total GULP energy -198488.060018 kJ/mol
# GULP energy per Si atom -12405.503751 kJ/mol
# Density = 2.163913 g / cm^3
# Si number density = 21.688496 Si / 1000 Ang^3
#
#
#
# Elastic Constant Matrix: (Units=GPa)
#
#
# Indices 1 2 3 4 5 6 
#
# 1 86.5744 2.2021 31.6955 1.1910 -11.4909 -21.9895
# 2 2.2021 91.0771 18.6713 -5.9095 -9.3051 5.0568
# 3 31.6955 18.6713 70.2310 -6.9722 -5.9298 -10.1165
# 4 1.1910 -5.9095 -6.9722 25.6264 -5.6402 4.6665
# 5 -11.4909 -9.3051 -5.9298 -5.6402 36.8534 -1.2372
# 6 -21.9895 5.0568 -10.1165 4.6665 -1.2372 42.7183
#
#
#
# Elastic Compliance Matrix: (Units=1/GPa)
#
#
# Indices 1 2 3 4 5 6 
#
# 1 0.016296 0.000766 -0.006453 -0.002753 0.004056 0.007188
# 2 0.000766 0.012281 -0.003347 0.002966 0.003185 -0.002084
# 3 -0.006453 -0.003347 0.018725 0.004633 0.000899 0.001029
# 4 -0.002753 0.002966 0.004633 0.043617 0.007136 -0.005229
# 5 0.004056 0.003185 0.000899 0.007136 0.030508 0.002028
# 6 0.007188 -0.002084 0.001029 -0.005229 0.002028 0.028229
#
#
# Mechanical properties :
#
#
# Convention : Reuss Voigt Hill
#
# Bulk Modulus (GPa) = 34.20934 39.22450 36.71692
# Shear Modulus (GPa) = 28.17365 34.06053 31.11709
#
# Velocity S-wave (km/s) = 3.60809 3.96718 3.79189
# Velocity P-wave (km/s) = 5.75891 6.25375 6.01142
#
# Compressibility (1/GPa) = 0.02923179
#
# Stress axis : x y z
#
# Youngs Moduli (GPa) = 61.36583 81.42659 53.40418
#
# Poissons Ratio (x) = -0.06235 0.34464
# Poissons Ratio (y) = -0.04699 0.17876
# Poissons Ratio (z) = 0.39602 0.27256
#
# Static dielectric constant tensor:
#      x y z
#    x 4.165190 -0.254620 -0.185380 
#    y -0.254620 4.187570 0.242620 
#    z -0.185380 0.242620 4.138050 
# 
# 
# High freq. dielectric constant tensor:
#      x y z
#    x 1.861100 -0.004170 -0.000810 
#    y -0.004170 1.872980 -0.001280 
#    z -0.000810 -0.001280 1.851460 
# 
# From -- ./inp_files/190788.got.cif
#   From: 2010.06.25/outbox.cif.g09.slc.cpg/sg2_96_cif.got.tgz:190788.got - 2010.06.27 13:26:56.
