data_PCOD8036876
_publ_section_title
;
Structure prediction by ZEFSAII (Michael W. Deem and Ramdas Pophale) SiO2 
 PCOD8036876
Probable space group: P -1
;
_chemical_formula_sum "Si O2"
_cell_formula_units_Z 14
_cell_length_a 9.226118
_cell_length_b 14.574598
_cell_length_c 14.816534
_cell_angle_alpha 29.107574
_cell_angle_beta 129.708535
_cell_angle_gamma 109.094647
_cell_volume 586.488620
_symmetry_space_group_name_H-M "P -1"
_symmetry_group_IT_number 2
_symmetry_cell_setting 'triclinic'
loop_
_space_group_symop_operation_xyz
x,y,z
-x,-y,-z
loop_
_atom_site_type_symbol
_atom_site_label
_atom_site_fract_x
_atom_site_fract_y
_atom_site_fract_z
Si Si1 0.536781 0.486424 0.421394
Si Si2 0.392812 0.147694 0.139489
Si Si3 0.725460 0.980393 0.134851
Si Si4 0.934813 0.424779 0.237664
Si Si5 0.053474 0.255423 0.755806
Si Si6 0.247154 0.737229 0.822861
Si Si7 0.289832 0.378738 0.288680
O O1 0.500000 0.500000 0.500000
O O2 0.818109 0.315579 0.656814
O O3 0.436508 0.355601 0.454154
O O4 0.376008 0.762018 0.086001
O O5 0.532756 0.256172 0.081736
O O6 0.565824 0.880833 0.479894
O O7 0.187339 0.324115 0.977267
O O8 0.279121 0.124980 0.024661
O O9 0.867382 0.790517 0.434372
O O10 0.889003 0.900947 0.177771
O O11 0.500000 0.000000 0.000000
O O12 0.745496 0.380715 0.168671
O O13 0.043258 0.441710 0.173135
O O14 0.000000 0.500000 0.500000
O O15 0.255378 0.579435 0.040471
O O16 0.000000 0.000000 0.500000
#
# Coordination Sequence:
#
# PCOD8036876 Si02
#       7
#     2   2   2   2   2   2   2
#     4  12  26  45  70 113 152 190 246 300 367 440
#     4  12  26  49  75 107 148 189 247 303 363 433
#     4  12  24  43  76 106 148 194 240 299 368 433
#     4  12  26  48  75 108 144 196 247 297 365 437
#     4  12  23  43  74 107 149 194 238 297 369 434
#     4  12  27  52  77 104 144 195 246 305 368 431
#     4  12  28  48  74 108 149 190 245 305 366 431
#
# _framework density 23.870881000000001
#
# number of rings (size 3 to 8) (size 9 to 14) (size 15 to 20)
#    0.000    0.000    4.286    6.000    0.000    4.000 
#    2.571    0.000    0.000    0.000    0.000    0.000 
#    0.000    0.000    0.000    0.000    0.000    0.000 
#
# Total GULP energy -173598.726844 kJ/mol
# GULP energy per Si atom -12399.909060 kJ/mol
# Density = 2.381655 g / cm^3
# Si number density = 23.870881 Si / 1000 Ang^3
#
#
#
# Elastic Constant Matrix: (Units=GPa)
#
#
# Indices 1 2 3 4 5 6 
#
# 1 93.1353 5.8968 43.0161 -10.5689 7.4095 1.0077
# 2 5.8968 92.9890 22.8163 -12.3134 2.8781 6.6413
# 3 43.0161 22.8163 126.3087 -32.3294 -2.7771 -5.2608
# 4 -10.5689 -12.3134 -32.3294 39.5477 3.7739 2.8084
# 5 7.4095 2.8781 -2.7771 3.7739 37.4622 3.2216
# 6 1.0077 6.6413 -5.2608 2.8084 3.2216 36.0236
#
#
#
# Elastic Compliance Matrix: (Units=1/GPa)
#
#
# Indices 1 2 3 4 5 6 
#
# 1 0.013093 0.000480 -0.004585 0.000241 -0.002915 -0.000882
# 2 0.000480 0.011717 -0.001732 0.002652 -0.001173 -0.002528
# 3 -0.004585 -0.001732 0.011852 0.007722 0.001013 0.001486
# 4 0.000241 0.002652 0.007722 0.032879 -0.002847 -0.001677
# 5 -0.002915 -0.001173 0.001013 -0.002847 0.027879 -0.001826
# 6 -0.000882 -0.002528 0.001486 -0.001677 -0.001826 0.028761
#
#
# Mechanical properties :
#
#
# Convention : Reuss Voigt Hill
#
# Bulk Modulus (GPa) = 40.02030 50.65457 45.33744
# Shear Modulus (GPa) = 34.20323 38.65362 36.42843
#
# Velocity S-wave (km/s) = 3.78940 4.02839 3.91072
# Velocity P-wave (km/s) = 5.99565 6.55008 6.27899
#
# Compressibility (1/GPa) = 0.02498732
#
# Stress axis : x y z
#
# Youngs Moduli (GPa) = 76.37632 85.34915 84.37328
#
# Poissons Ratio (x) = -0.04096 0.38683
# Poissons Ratio (y) = -0.03665 0.14616
# Poissons Ratio (z) = 0.35017 0.14785
#
# Static dielectric constant tensor:
#      x y z
#    x 4.628630 0.052410 -0.121180 
#    y 0.052410 5.088440 -0.425600 
#    z -0.121180 -0.425600 4.343770 
# 
# 
# High freq. dielectric constant tensor:
#      x y z
#    x 1.938740 0.002890 0.003800 
#    y 0.002890 1.967440 -0.006260 
#    z 0.003800 -0.006260 1.961370 
# 
# From -- ./inp_files/505140.got.cif
#   From: 2010.06.25/outbox.cif.g09.slc.cpg/sg2_253_cif.got.tgz:505140.got - 2010.06.27 13:26:56.
