data_PCOD8036721
_publ_section_title
;
Structure prediction by ZEFSAII (Michael W. Deem and Ramdas Pophale) SiO2 
 PCOD8036721
Probable space group: P -1
;
_chemical_formula_sum "Si O2"
_cell_formula_units_Z 16
_cell_length_a 11.472792
_cell_length_b 26.619938
_cell_length_c 9.674452
_cell_angle_alpha 27.443676
_cell_angle_beta 40.205741
_cell_angle_gamma 32.528126
_cell_volume 730.783027
_symmetry_space_group_name_H-M "P -1"
_symmetry_group_IT_number 2
_symmetry_cell_setting 'triclinic'
loop_
_space_group_symop_operation_xyz
x,y,z
-x,-y,-z
loop_
_atom_site_type_symbol
_atom_site_label
_atom_site_fract_x
_atom_site_fract_y
_atom_site_fract_z
Si Si1 0.931363 0.043851 0.298741
Si Si2 0.771305 0.936733 0.202208
Si Si3 0.319728 0.416388 0.672449
Si Si4 0.818123 0.615581 0.614390
Si Si5 0.371116 0.555751 0.838762
Si Si6 0.419019 0.230833 0.279145
Si Si7 0.357849 0.217777 0.904551
Si Si8 0.973129 0.843847 0.532343
O O1 0.674764 0.141839 0.285744
O O2 0.009082 0.920119 0.432337
O O3 0.000000 0.000000 0.500000
O O4 0.054670 0.110206 0.966553
O O5 0.668991 0.850423 0.512208
O O6 0.893329 0.924026 0.265515
O O7 0.587263 0.088671 0.972342
O O8 0.467573 0.472059 0.367451
O O9 0.390592 0.304730 0.767799
O O10 0.073969 0.537788 0.591786
O O11 0.362880 0.354312 0.936203
O O12 0.696482 0.718801 0.593490
O O13 0.761378 0.697146 0.328448
O O14 0.753846 0.511529 0.921802
O O15 0.201507 0.709677 0.631288
O O16 0.500000 0.500000 0.000000
O O17 0.210658 0.177303 0.205589
#
# Coordination Sequence:
#
# PCOD8036721 Si02
#       8
#     2   2   2   2   2   2   2   2
#     4  12  28  44  68 106 142 179 226 281 345 410
#     4  12  25  47  72 101 140 182 226 286 338 407
#     4  12  24  46  72  99 133 181 232 283 337 405
#     4  12  27  44  67 104 138 179 231 282 339 404
#     4  12  25  43  72  99 135 179 230 284 334 398
#     4  12  27  46  70 102 141 183 226 280 350 405
#     4  12  22  43  74  99 134 178 232 280 337 403
#     4  12  24  46  74 101 136 182 232 281 341 404
#
# _framework density 21.894324000000001
#
# number of rings (size 3 to 8) (size 9 to 14) (size 15 to 20)
#    0.000    0.000    5.000    5.250    3.500    2.500 
#    0.000    0.000    0.000    0.000    0.000    0.000 
#    0.000    0.000    0.000    0.000    0.000    0.000 
#
# Total GULP energy -198504.187051 kJ/mol
# GULP energy per Si atom -12406.511691 kJ/mol
# Density = 2.184449 g / cm^3
# Si number density = 21.894324 Si / 1000 Ang^3
#
#
#
# Elastic Constant Matrix: (Units=GPa)
#
#
# Indices 1 2 3 4 5 6 
#
# 1 90.1323 52.3547 24.2057 -8.6689 38.5749 -8.7327
# 2 52.3547 154.8117 26.7321 -6.2151 11.2398 -16.1520
# 3 24.2057 26.7321 108.1714 18.6318 14.6381 -21.9814
# 4 -8.6689 -6.2151 18.6318 58.2773 -11.9410 -9.9867
# 5 38.5749 11.2398 14.6381 -11.9410 49.4943 12.7329
# 6 -8.7327 -16.1520 -21.9814 -9.9867 12.7329 51.2380
#
#
#
# Elastic Compliance Matrix: (Units=1/GPa)
#
#
# Indices 1 2 3 4 5 6 
#
# 1 0.022855 -0.005717 0.000096 0.000173 -0.018223 0.006696
# 2 -0.005717 0.008513 -0.001318 0.001209 0.003044 0.000623
# 3 0.000096 -0.001318 0.012175 -0.004277 -0.005806 0.005433
# 4 0.000173 0.001209 -0.004277 0.019979 0.005385 0.001132
# 5 -0.018223 0.003044 -0.005806 0.005385 0.040227 -0.013584
# 6 0.006696 0.000623 0.005433 0.001132 -0.013584 0.026782
#
#
# Mechanical properties :
#
#
# Convention : Reuss Voigt Hill
#
# Bulk Modulus (GPa) = 33.71057 62.18893 47.94975
# Shear Modulus (GPa) = 32.40505 48.45680 40.43092
#
# Velocity S-wave (km/s) = 3.85134 4.70958 4.30192
# Velocity P-wave (km/s) = 5.93358 7.61836 6.82813
#
# Compressibility (1/GPa) = 0.02966429
#
# Stress axis : x y z
#
# Youngs Moduli (GPa) = 43.75505 117.46764 82.13265
#
# Poissons Ratio (x) = 0.67154 -0.00785
# Poissons Ratio (y) = 0.25014 0.10826
# Poissons Ratio (z) = -0.00418 0.15483
#
# Static dielectric constant tensor:
#      x y z
#    x 4.046910 -0.131860 -0.007570 
#    y -0.131860 4.140730 0.117160 
#    z -0.007570 0.117160 4.311990 
# 
# 
# High freq. dielectric constant tensor:
#      x y z
#    x 1.864120 -0.014320 0.002370 
#    y -0.014320 1.876260 0.009810 
#    z 0.002370 0.009810 1.881580 
# 
# From -- ./inp_files/272485.got.cif
#   From: 2010.06.25/outbox.cif.g09.slc.cpg/sg2_137_cif.got.tgz:272485.got - 2010.06.27 13:26:56.
