data_PCOD8036360
_publ_section_title
;
Structure prediction by ZEFSAII (Michael W. Deem and Ramdas Pophale) SiO2 
 PCOD8036360
Probable space group: P -1
;
_chemical_formula_sum "Si O2"
_cell_formula_units_Z 10
_cell_length_a 4.968424
_cell_length_b 10.889194
_cell_length_c 8.796779
_cell_angle_alpha 83.421371
_cell_angle_beta 54.300647
_cell_angle_gamma 84.432772
_cell_volume 383.680337
_symmetry_space_group_name_H-M "P -1"
_symmetry_group_IT_number 2
_symmetry_cell_setting 'triclinic'
loop_
_space_group_symop_operation_xyz
x,y,z
-x,-y,-z
loop_
_atom_site_type_symbol
_atom_site_label
_atom_site_fract_x
_atom_site_fract_y
_atom_site_fract_z
Si Si1 0.923800 0.367546 0.170526
Si Si2 0.720622 0.490204 0.717861
Si Si3 0.193397 0.148273 0.264213
Si Si4 0.158320 0.735735 0.096887
Si Si5 0.173028 0.086428 0.605499
O O1 0.599428 0.456236 0.274476
O O2 0.220452 0.427276 0.160924
O O3 0.893659 0.230385 0.271800
O O4 0.009041 0.349233 0.965619
O O5 0.692580 0.349251 0.803004
O O6 0.000000 0.500000 0.500000
O O7 0.164265 0.176209 0.449464
O O8 0.550261 0.183703 0.078488
O O9 0.140979 0.003082 0.275407
O O10 0.864304 0.827440 0.245493
O O11 0.500000 0.000000 0.500000
#
# Coordination Sequence:
#
# PCOD8036360 Si02
#       5
#     2   2   2   2   2
#     4  12  26  50  77 117 157 202 256 319 389 467
#     4  12  28  49  80 118 159 205 257 317 392 471
#     4  11  26  48  79 109 162 197 269 315 393 454
#     4  12  27  47  80 114 159 207 256 326 386 460
#     4  11  27  51  77 115 153 209 265 323 387 461
#
# _framework density 26.063364
#
# number of rings (size 3 to 8) (size 9 to 14) (size 15 to 20)
#    0.000    0.400    2.000    4.800    5.600    6.400 
#    0.000    0.000    0.000    0.000    0.000    0.000 
#    0.000    0.000    0.000    0.000    0.000    0.000 
#
# Total GULP energy -123971.385215 kJ/mol
# GULP energy per Si atom -12397.138521 kJ/mol
# Density = 2.600404 g / cm^3
# Si number density = 26.063364 Si / 1000 Ang^3
#
#
#
# Elastic Constant Matrix: (Units=GPa)
#
#
# Indices 1 2 3 4 5 6 
#
# 1 88.5141 13.9817 32.6697 3.4978 4.1948 -19.8974
# 2 13.9817 93.0592 73.1718 8.8956 -1.0940 -32.1711
# 3 32.6697 73.1718 162.8169 -6.0810 -2.1993 -5.9672
# 4 3.4978 8.8956 -6.0810 56.6231 -5.4881 12.8761
# 5 4.1948 -1.0940 -2.1993 -5.4881 32.1856 -5.0128
# 6 -19.8974 -32.1711 -5.9672 12.8761 -5.0128 49.7894
#
#
#
# Elastic Compliance Matrix: (Units=1/GPa)
#
#
# Indices 1 2 3 4 5 6 
#
# 1 0.015048 0.006360 -0.005697 -0.005086 -0.001348 0.010620
# 2 0.006360 0.030740 -0.014658 -0.012142 0.000862 0.023874
# 3 -0.005697 -0.014658 0.013702 0.006866 0.000509 -0.011830
# 4 -0.005086 -0.012142 0.006866 0.024293 0.002512 -0.015085
# 5 -0.001348 0.000862 0.000509 0.002512 0.032153 0.002667
# 6 0.010620 0.023874 -0.011830 -0.015085 0.002667 0.042507
#
#
# Mechanical properties :
#
#
# Convention : Reuss Voigt Hill
#
# Bulk Modulus (GPa) = 31.74510 64.89296 48.31903
# Shear Modulus (GPa) = 25.38943 42.69075 34.04009
#
# Velocity S-wave (km/s) = 3.12451 4.05156 3.61785
# Velocity P-wave (km/s) = 5.02227 6.84391 6.00259
#
# Compressibility (1/GPa) = 0.03150093
#
# Stress axis : x y z
#
# Youngs Moduli (GPa) = 66.45527 32.53093 72.98151
#
# Poissons Ratio (x) = -0.20690 0.41575
# Poissons Ratio (y) = -0.42266 1.06976
# Poissons Ratio (z) = 0.37857 0.47684
#
# Static dielectric constant tensor:
#      x y z
#    x 4.681830 -0.035890 0.362350 
#    y -0.035890 4.995580 -0.254700 
#    z 0.362350 -0.254700 4.843430 
# 
# 
# High freq. dielectric constant tensor:
#      x y z
#    x 2.036580 -0.006880 0.006610 
#    y -0.006880 2.059410 -0.015780 
#    z 0.006610 -0.015780 2.052250 
# 
# From -- ./inp_files/130527.got.cif
#   From: 2010.06.25/outbox.cif.g09.slc.cpg/sg2_66_cif.got.tgz:130527.got - 2010.06.27 13:26:56.
