data_PCOD8036457
_publ_section_title
;
Structure prediction by ZEFSAII (Michael W. Deem and Ramdas Pophale) SiO2 
 PCOD8036457
Probable space group: P -1
;
_chemical_formula_sum "Si O2"
_cell_formula_units_Z 12
_cell_length_a 9.466010
_cell_length_b 24.744893
_cell_length_c 27.039199
_cell_angle_alpha 169.965778
_cell_angle_beta 27.436812
_cell_angle_gamma 153.643169
_cell_volume 488.825197
_symmetry_space_group_name_H-M "P -1"
_symmetry_group_IT_number 2
_symmetry_cell_setting 'triclinic'
loop_
_space_group_symop_operation_xyz
x,y,z
-x,-y,-z
loop_
_atom_site_type_symbol
_atom_site_label
_atom_site_fract_x
_atom_site_fract_y
_atom_site_fract_z
Si Si1 0.789180 0.195264 0.857624
Si Si2 0.270781 0.818536 0.247826
Si Si3 0.049413 0.019953 0.776785
Si Si4 0.833922 0.731310 0.847681
Si Si5 0.134195 0.180032 0.241934
Si Si6 0.189567 0.395987 0.619497
O O1 0.634943 0.179001 0.836511
O O2 0.833301 0.855886 0.555954
O O3 0.544312 0.308103 0.071320
O O4 0.133516 0.457178 0.986307
O O5 0.590233 0.990641 0.333497
O O6 0.000000 0.000000 0.500000
O O7 0.815383 0.909404 0.797409
O O8 0.926017 0.782779 0.556672
O O9 0.036187 0.381347 0.093474
O O10 0.880014 0.390581 0.510149
O O11 0.000000 0.000000 0.000000
O O12 0.991387 0.847312 0.956748
O O13 0.451962 0.385534 0.301861
#
# Coordination Sequence:
#
# PCOD8036457 Si02
#       6
#     2   2   2   2   2   2
#     4  11  27  47  74 112 140 193 248 302 360 428
#     4  11  27  50  80  99 145 194 252 300 357 435
#     4  12  27  48  72 107 147 197 238 297 366 433
#     4  12  24  42  78 111 145 188 246 303 355 429
#     4  12  24  45  72 107 151 196 240 290 364 437
#     4  12  28  45  73 109 152 186 241 302 365 432
#
# _framework density 24.548652000000001
#
# number of rings (size 3 to 8) (size 9 to 14) (size 15 to 20)
#    0.000    0.333    3.333    4.500    7.000    1.333 
#    0.000    0.000    0.000    0.000    0.000    0.000 
#    0.000    0.000    0.000    0.000    0.000    0.000 
#
# Total GULP energy -148871.532348 kJ/mol
# GULP energy per Si atom -12405.961029 kJ/mol
# Density = 2.449278 g / cm^3
# Si number density = 24.548652 Si / 1000 Ang^3
#
#
#
# Elastic Constant Matrix: (Units=GPa)
#
#
# Indices 1 2 3 4 5 6 
#
# 1 49.6461 17.1756 -7.4539 10.5813 -1.0560 11.0099
# 2 17.1756 113.7603 15.0016 10.5922 -15.9977 -0.6375
# 3 -7.4539 15.0016 89.9247 -6.8541 -19.1309 6.6999
# 4 10.5813 10.5922 -6.8541 48.7491 -4.6422 -5.3452
# 5 -1.0560 -15.9977 -19.1309 -4.6422 47.2475 7.2862
# 6 11.0099 -0.6375 6.6999 -5.3452 7.2862 28.9656
#
#
#
# Elastic Compliance Matrix: (Units=1/GPa)
#
#
# Indices 1 2 3 4 5 6 
#
# 1 0.025919 -0.003655 0.003737 -0.005450 0.002226 -0.012362
# 2 -0.003655 0.010013 -0.001662 -0.001265 0.002331 0.001174
# 3 0.003737 -0.001662 0.013534 0.001386 0.006039 -0.005851
# 4 -0.005450 -0.001265 0.001386 0.022913 0.001399 0.005599
# 5 0.002226 0.002331 0.006039 0.001399 0.025889 -0.008446
# 6 -0.012362 0.001174 -0.005851 0.005599 -0.008446 0.043760
#
#
# Mechanical properties :
#
#
# Convention : Reuss Voigt Hill
#
# Bulk Modulus (GPa) = 21.59461 33.64198 27.61830
# Shear Modulus (GPa) = 31.12895 40.23296 35.68095
#
# Velocity S-wave (km/s) = 3.56483 4.05273 3.81659
# Velocity P-wave (km/s) = 5.07541 5.96938 5.54046
#
# Compressibility (1/GPa) = 0.04630785
#
# Stress axis : x y z
#
# Youngs Moduli (GPa) = 38.58230 99.86541 73.88895
#
# Poissons Ratio (x) = 0.36500 -0.27615
# Poissons Ratio (y) = 0.14101 0.12277
# Poissons Ratio (z) = -0.14420 0.16593
#
# Static dielectric constant tensor:
#      x y z
#    x 4.498390 -0.148260 0.138170 
#    y -0.148260 4.574630 0.107380 
#    z 0.138170 0.107380 5.066650 
# 
# 
# High freq. dielectric constant tensor:
#      x y z
#    x 1.973140 -0.005770 0.000750 
#    y -0.005770 1.984380 0.006770 
#    z 0.000750 0.006770 1.987600 
# 
# From -- ./inp_files/21705.got.cif
#   From: 2010.06.25/outbox.cif.g09.slc.cpg/sg2_11_cif.got.tgz:21705.got - 2010.06.27 13:26:56.
