data_PCOD8036311
_publ_section_title
;
Structure prediction by ZEFSAII (Michael W. Deem and Ramdas Pophale) SiO2 
 PCOD8036311
Probable space group: P -1
;
_chemical_formula_sum "Si O2"
_cell_formula_units_Z 16
_cell_length_a 15.369340
_cell_length_b 9.209906
_cell_length_c 8.497549
_cell_angle_alpha 72.676401
_cell_angle_beta 67.213700
_cell_angle_gamma 39.467880
_cell_volume 704.901217
_symmetry_space_group_name_H-M "P -1"
_symmetry_group_IT_number 2
_symmetry_cell_setting 'triclinic'
loop_
_space_group_symop_operation_xyz
x,y,z
-x,-y,-z
loop_
_atom_site_type_symbol
_atom_site_label
_atom_site_fract_x
_atom_site_fract_y
_atom_site_fract_z
Si Si1 0.121573 0.405994 0.727446
Si Si2 0.819444 0.679116 0.931978
Si Si3 0.300005 0.942589 0.604700
Si Si4 0.880863 0.253068 0.429866
Si Si5 0.364716 0.857006 0.223289
Si Si6 0.410235 0.462572 0.287602
Si Si7 0.361024 0.378388 0.023728
Si Si8 0.855007 0.160338 0.140821
O O1 0.082364 0.614314 0.607330
O O2 0.980541 0.474424 0.824554
O O3 0.234674 0.186737 0.606248
O O4 0.193290 0.343413 0.867819
O O5 0.726727 0.671868 0.899824
O O6 0.762385 0.917824 0.862042
O O7 0.316706 0.896302 0.423126
O O8 0.453148 0.739021 0.639397
O O9 0.185059 0.962502 0.745433
O O10 0.729138 0.400499 0.559175
O O11 0.871236 0.246093 0.252985
O O12 0.000000 0.000000 0.500000
O O13 0.406266 0.645350 0.185298
O O14 0.503072 0.798752 0.129558
O O15 0.415221 0.347254 0.171210
O O16 0.266131 0.633135 0.954668
O O17 0.000000 0.000000 0.000000
#
# Coordination Sequence:
#
# PCOD8036311 Si02
#       8
#     2   2   2   2   2   2   2   2
#     4  11  27  47  73 102 145 189 238 296 363 426
#     4  11  26  48  70 103 143 189 244 292 359 429
#     4  12  27  46  73 108 145 187 239 300 361 421
#     4  12  26  49  74 108 143 186 242 300 357 429
#     4  12  25  46  74 104 146 184 241 300 353 429
#     4  12  26  47  75 105 144 189 242 297 361 424
#     4  12  25  46  72 103 144 191 242 291 360 428
#     4  12  25  46  74 105 147 187 239 293 356 432
#
# _framework density 22.698215999999999
#
# number of rings (size 3 to 8) (size 9 to 14) (size 15 to 20)
#    0.000    0.250    3.750    4.875    5.250    1.000 
#    0.000    0.000    0.000    0.000    0.000    0.000 
#    0.000    0.000    0.000    0.000    0.000    0.000 
#
# Total GULP energy -198500.901408 kJ/mol
# GULP energy per Si atom -12406.306338 kJ/mol
# Density = 2.264655 g / cm^3
# Si number density = 22.698216 Si / 1000 Ang^3
#
#
#
# Elastic Constant Matrix: (Units=GPa)
#
#
# Indices 1 2 3 4 5 6 
#
# 1 109.0101 33.9938 35.1269 5.2721 -14.8266 0.8688
# 2 33.9938 133.8027 43.0276 -2.9553 -13.1545 -2.2281
# 3 35.1269 43.0276 91.7058 6.6719 -14.5163 -12.7806
# 4 5.2721 -2.9553 6.6719 42.8813 -7.5418 -9.6773
# 5 -14.8266 -13.1545 -14.5163 -7.5418 25.8752 -0.0323
# 6 0.8688 -2.2281 -12.7806 -9.6773 -0.0323 40.9346
#
#
#
# Elastic Compliance Matrix: (Units=1/GPa)
#
#
# Indices 1 2 3 4 5 6 
#
# 1 0.011206 -0.001509 -0.003156 -0.000672 0.003686 -0.001461
# 2 -0.001509 0.009266 -0.003543 0.001758 0.002370 -0.000152
# 3 -0.003156 -0.003543 0.015197 -0.000348 0.004820 0.004540
# 4 -0.000672 0.001758 -0.000348 0.026398 0.008015 0.006248
# 5 0.003686 0.002370 0.004820 0.008015 0.047009 0.003488
# 6 -0.001461 -0.000152 0.004540 0.006248 0.003488 0.027349
#
#
# Mechanical properties :
#
#
# Convention : Reuss Voigt Hill
#
# Bulk Modulus (GPa) = 51.94080 62.09058 57.01569
# Shear Modulus (GPa) = 31.39537 36.76289 34.07913
#
# Velocity S-wave (km/s) = 3.72313 4.02884 3.87900
# Velocity P-wave (km/s) = 6.43546 7.00402 6.72575
#
# Compressibility (1/GPa) = 0.01925269
#
# Stress axis : x y z
#
# Youngs Moduli (GPa) = 89.23440 107.92301 65.80325
#
# Poissons Ratio (x) = 0.16287 0.20766
# Poissons Ratio (y) = 0.13466 0.23317
# Poissons Ratio (z) = 0.28160 0.38241
#
# Static dielectric constant tensor:
#      x y z
#    x 4.124090 -0.104930 -0.157740 
#    y -0.104930 4.458250 0.088450 
#    z -0.157740 0.088450 4.165520 
# 
# 
# High freq. dielectric constant tensor:
#      x y z
#    x 1.900700 -0.006250 -0.008930 
#    y -0.006250 1.911050 0.000940 
#    z -0.008930 0.000940 1.900820 
# 
# From -- ./inp_files/206861.got.cif
#   From: 2010.06.25/outbox.cif.g09.slc.cpg/sg2_104_cif.got.tgz:206861.got - 2010.06.27 13:26:56.
