data_PCOD8036414
_publ_section_title
;
Structure prediction by ZEFSAII (Michael W. Deem and Ramdas Pophale) SiO2 
 PCOD8036414
Probable space group: P -1
;
_chemical_formula_sum "Si O2"
_cell_formula_units_Z 10
_cell_length_a 11.572476
_cell_length_b 8.567652
_cell_length_c 6.963423
_cell_angle_alpha 104.957381
_cell_angle_beta 60.816585
_cell_angle_gamma 139.363566
_cell_volume 384.881998
_symmetry_space_group_name_H-M "P -1"
_symmetry_group_IT_number 2
_symmetry_cell_setting 'triclinic'
loop_
_space_group_symop_operation_xyz
x,y,z
-x,-y,-z
loop_
_atom_site_type_symbol
_atom_site_label
_atom_site_fract_x
_atom_site_fract_y
_atom_site_fract_z
Si Si1 0.721229 0.707727 0.309431
Si Si2 0.313857 0.106974 0.926356
Si Si3 0.145847 0.883019 0.413326
Si Si4 0.060616 0.392090 0.013694
Si Si5 0.745612 0.362727 0.671734
O O1 0.500000 0.500000 0.500000
O O2 0.830547 0.636587 0.224637
O O3 0.850857 0.956836 0.403679
O O4 0.700896 0.726039 0.100033
O O5 0.245489 0.026656 0.175963
O O6 0.532001 0.237030 0.748265
O O7 0.157179 0.874766 0.836356
O O8 0.264120 0.841321 0.403712
O O9 0.918370 0.606079 0.479261
O O10 0.209364 0.558519 0.118948
O O11 0.000000 0.500000 0.000000
#
# Coordination Sequence:
#
# PCOD8036414 Si02
#       5
#     2   2   2   2   2
#     4  12  30  50  79 119 156 205 263 318 390 460
#     4  12  27  50  82 109 162 202 255 325 386 454
#     4  11  26  50  78 118 158 200 265 316 385 466
#     4  12  27  53  78 113 160 206 258 322 386 467
#     4  11  26  50  80 120 152 208 260 314 394 463
#
# _framework density 25.981988999999999
#
# number of rings (size 3 to 8) (size 9 to 14) (size 15 to 20)
#    0.000    0.400    4.000    2.400    5.600    4.800 
#    0.000    0.000    0.000    0.000    0.000    0.000 
#    0.000    0.000    0.000    0.000    0.000    0.000 
#
# Total GULP energy -123892.375596 kJ/mol
# GULP energy per Si atom -12389.237560 kJ/mol
# Density = 2.592285 g / cm^3
# Si number density = 25.981989 Si / 1000 Ang^3
#
#
#
# Elastic Constant Matrix: (Units=GPa)
#
#
# Indices 1 2 3 4 5 6 
#
# 1 137.9053 50.7859 78.7928 -4.7735 -27.6121 -25.1276
# 2 50.7859 94.8788 49.8479 2.9366 -24.8830 -13.2024
# 3 78.7928 49.8479 136.7729 -12.4787 -12.1999 -26.0758
# 4 -4.7735 2.9366 -12.4787 57.7062 -5.6379 -7.7077
# 5 -27.6121 -24.8830 -12.1999 -5.6379 60.5016 -10.2289
# 6 -25.1276 -13.2024 -26.0758 -7.7077 -10.2289 44.8559
#
#
#
# Elastic Compliance Matrix: (Units=1/GPa)
#
#
# Indices 1 2 3 4 5 6 
#
# 1 0.012946 -0.002310 -0.005138 0.001208 0.004864 0.004902
# 2 -0.002310 0.015158 -0.003466 -0.000973 0.004740 0.002066
# 3 -0.005138 -0.003466 0.012494 0.002927 -0.000337 0.003791
# 4 0.001208 -0.000973 0.002927 0.019294 0.003592 0.006226
# 5 0.004864 0.004740 -0.000337 0.003592 0.022603 0.009695
# 6 0.004902 0.002066 0.003791 0.006226 0.009695 0.031133
#
#
# Mechanical properties :
#
#
# Convention : Reuss Voigt Hill
#
# Bulk Modulus (GPa) = 53.27288 80.93448 67.10368
# Shear Modulus (GPa) = 35.28292 45.28811 40.28551
#
# Velocity S-wave (km/s) = 3.68907 4.17952 3.94193
# Velocity P-wave (km/s) = 6.22045 7.38303 6.82653
#
# Compressibility (1/GPa) = 0.01877128
#
# Stress axis : x y z
#
# Youngs Moduli (GPa) = 77.24118 65.97291 80.03967
#
# Poissons Ratio (x) = 0.15241 0.41121
# Poissons Ratio (y) = 0.17845 0.27738
# Poissons Ratio (z) = 0.39683 0.22863
#
# Static dielectric constant tensor:
#      x y z
#    x 5.640430 -0.239900 0.587700 
#    y -0.239900 4.899220 -0.097840 
#    z 0.587700 -0.097840 5.098250 
# 
# 
# High freq. dielectric constant tensor:
#      x y z
#    x 2.060870 -0.008540 0.004110 
#    y -0.008540 2.043460 -0.006470 
#    z 0.004110 -0.006470 2.042250 
# 
# From -- ./inp_files/240165.got.cif
#   From: 2010.06.25/outbox.cif.g09.slc.cpg/sg2_121_cif.got.tgz:240165.got - 2010.06.27 13:26:56.
