data_PCOD8036470
_publ_section_title
;
Structure prediction by ZEFSAII (Michael W. Deem and Ramdas Pophale) SiO2 
 PCOD8036470
Probable space group: P -1
;
_chemical_formula_sum "Si O2"
_cell_formula_units_Z 16
_cell_length_a 13.923194
_cell_length_b 11.559230
_cell_length_c 8.349737
_cell_angle_alpha 84.295899
_cell_angle_beta 101.224165
_cell_angle_gamma 149.100168
_cell_volume 670.774521
_symmetry_space_group_name_H-M "P -1"
_symmetry_group_IT_number 2
_symmetry_cell_setting 'triclinic'
loop_
_space_group_symop_operation_xyz
x,y,z
-x,-y,-z
loop_
_atom_site_type_symbol
_atom_site_label
_atom_site_fract_x
_atom_site_fract_y
_atom_site_fract_z
Si Si1 0.971834 0.521570 0.316504
Si Si2 0.498646 0.744686 0.859310
Si Si3 0.053144 0.375038 0.184192
Si Si4 0.454208 0.933310 0.684373
Si Si5 0.098604 0.862665 0.148686
Si Si6 0.462163 0.730425 0.224562
Si Si7 0.177293 0.030318 0.633871
Si Si8 0.863590 0.755292 0.300817
O O1 0.747836 0.320923 0.277573
O O2 0.000000 0.500000 0.500000
O O3 0.052701 0.508493 0.219225
O O4 0.092057 0.764175 0.309010
O O5 0.575496 0.949331 0.791084
O O6 0.330663 0.519462 0.724784
O O7 0.696230 0.876279 0.872444
O O8 0.449953 0.686212 0.038868
O O9 0.252154 0.510162 0.268193
O O10 0.880624 0.128520 0.239815
O O11 0.015002 0.332331 0.989405
O O12 0.500000 0.000000 0.500000
O O13 0.480062 0.076681 0.770744
O O14 0.972788 0.847992 0.154996
O O15 0.605114 0.790377 0.363188
O O16 0.194398 0.170953 0.707515
O O17 0.021555 0.875487 0.465270
#
# Coordination Sequence:
#
# PCOD8036470 Si02
#       8
#     2   2   2   2   2   2   2   2
#     4  12  23  42  67 103 147 182 227 283 352 422
#     4  12  25  46  71 106 143 184 231 286 352 417
#     4  12  24  44  71 104 141 184 229 292 349 413
#     4  12  25  40  71 109 143 184 227 282 347 427
#     4  12  24  44  71 104 141 184 229 292 349 413
#     4  12  25  46  71 106 143 184 231 286 352 417
#     4  11  27  49  72 100 139 185 238 296 351 412
#     4  11  27  49  72 100 139 185 238 296 351 412
#
# _framework density 23.853021999999999
#
# number of rings (size 3 to 8) (size 9 to 14) (size 15 to 20)
#    0.000    0.250    5.000    3.750    3.500    2.000 
#    0.000    2.500    0.000    0.000    0.000    0.000 
#    0.000    0.000    0.000    0.000    0.000    0.000 
#
# Total GULP energy -198225.532549 kJ/mol
# GULP energy per Si atom -12389.095784 kJ/mol
# Density = 2.379873 g / cm^3
# Si number density = 23.853022 Si / 1000 Ang^3
#
#
#
# Elastic Constant Matrix: (Units=GPa)
#
#
# Indices 1 2 3 4 5 6 
#
# 1 135.5865 42.2497 13.1702 18.0751 -16.3631 14.7609
# 2 42.2497 73.2505 9.0546 18.2008 -13.4964 24.9928
# 3 13.1702 9.0546 59.7248 17.4966 -9.5004 1.5706
# 4 18.0751 18.2008 17.4966 36.1504 1.1612 -2.0049
# 5 -16.3631 -13.4964 -9.5004 1.1612 38.6177 2.3997
# 6 14.7609 24.9928 1.5706 -2.0049 2.3997 51.8556
#
#
#
# Elastic Compliance Matrix: (Units=1/GPa)
#
#
# Indices 1 2 3 4 5 6 
#
# 1 0.009414 -0.003833 -0.000201 -0.002827 0.002751 -0.001063
# 2 -0.003833 0.024091 0.002448 -0.012306 0.008480 -0.011462
# 3 -0.000201 0.002448 0.020899 -0.011592 0.006416 -0.002501
# 4 -0.002827 -0.012306 -0.011592 0.041717 -0.010175 0.009171
# 5 0.002751 0.008480 0.006416 -0.010175 0.032341 -0.006954
# 6 -0.001063 -0.011462 -0.002501 0.009171 -0.006954 0.025864
#
#
# Mechanical properties :
#
#
# Convention : Reuss Voigt Hill
#
# Bulk Modulus (GPa) = 19.51902 44.16787 31.84345
# Shear Modulus (GPa) = 28.64118 38.93055 33.78586
#
# Velocity S-wave (km/s) = 3.46892 4.04431 3.76762
# Velocity P-wave (km/s) = 4.92396 6.35338 5.68379
#
# Compressibility (1/GPa) = 0.05123207
#
# Stress axis : x y z
#
# Youngs Moduli (GPa) = 106.22654 41.50921 47.84972
#
# Poissons Ratio (x) = 0.15910 0.00962
# Poissons Ratio (y) = 0.40716 -0.11715
# Poissons Ratio (z) = 0.02136 -0.10163
#
# Static dielectric constant tensor:
#      x y z
#    x 4.470780 0.263230 -0.074550 
#    y 0.263230 4.018320 -0.057800 
#    z -0.074550 -0.057800 3.276870 
# 
# 
# High freq. dielectric constant tensor:
#      x y z
#    x 1.963590 0.023670 -0.007610 
#    y 0.023670 1.940990 0.011970 
#    z -0.007610 0.011970 1.939250 
# 
# From -- ./inp_files/307597.got.cif
#   From: 2010.06.25/outbox.cif.g09.slc.cpg/sg2_154_cif.got.tgz:307597.got - 2010.06.27 13:26:56.
