data_PCOD8036056
_publ_section_title
;
Structure prediction by ZEFSAII (Michael W. Deem and Ramdas Pophale) SiO2 
 PCOD8036056
Probable space group: P -1
;
_chemical_formula_sum "Si O2"
_cell_formula_units_Z 16
_cell_length_a 15.772035
_cell_length_b 9.686434
_cell_length_c 8.158129
_cell_angle_alpha 105.887139
_cell_angle_beta 80.392622
_cell_angle_gamma 43.749277
_cell_volume 693.250484
_symmetry_space_group_name_H-M "P -1"
_symmetry_group_IT_number 2
_symmetry_cell_setting 'triclinic'
loop_
_space_group_symop_operation_xyz
x,y,z
-x,-y,-z
loop_
_atom_site_type_symbol
_atom_site_label
_atom_site_fract_x
_atom_site_fract_y
_atom_site_fract_z
Si Si1 0.162831 0.567218 0.115558
Si Si2 0.630202 0.480298 0.601020
Si Si3 0.105895 0.913186 0.080763
Si Si4 0.833583 0.714162 0.167798
Si Si5 0.683872 0.188323 0.212966
Si Si6 0.641360 0.767034 0.778690
Si Si7 0.159269 0.271239 0.458126
Si Si8 0.879848 0.989407 0.550995
O O1 0.200798 0.643839 0.002712
O O2 0.252760 0.466739 0.216283
O O3 0.990809 0.800721 0.303958
O O4 0.224421 0.340041 0.937484
O O5 0.664819 0.358110 0.378997
O O6 0.469164 0.647187 0.769483
O O7 0.616099 0.671218 0.626245
O O8 0.753663 0.268567 0.624350
O O9 0.036990 0.053159 0.328377
O O10 0.198490 0.926972 0.000785
O O11 0.000000 0.000000 0.000000
O O12 0.830681 0.676744 0.347069
O O13 0.743199 0.979133 0.239350
O O14 0.000000 0.500000 0.000000
O O15 0.717849 0.808651 0.706867
O O16 0.500000 0.000000 0.000000
O O17 0.199861 0.049193 0.379916
O O18 0.000000 0.500000 0.500000
#
# Coordination Sequence:
#
# PCOD8036056 Si02
#       8
#     2   2   2   2   2   2   2   2
#     4  12  26  44  71 107 147 188 242 311 359 436
#     4  11  25  51  72  97 152 193 241 306 368 440
#     4  12  28  41  75 111 144 186 247 303 372 431
#     4  12  23  46  70 108 151 186 250 306 364 436
#     4  11  27  47  72 107 145 196 241 304 372 438
#     4  12  28  49  72 106 150 195 246 304 374 443
#     4  12  27  44  77 108 144 199 247 303 373 436
#     4  12  25  48  74 107 147 194 251 301 369 440
#
# _framework density 23.07968
#
# number of rings (size 3 to 8) (size 9 to 14) (size 15 to 20)
#    0.000    0.250    5.000    2.625   10.500    1.500 
#    0.000    1.250    0.000    0.000    0.000    0.000 
#    0.000    0.000    0.000    0.000    0.000    0.000 
#
# Total GULP energy -198252.419148 kJ/mol
# GULP energy per Si atom -12390.776197 kJ/mol
# Density = 2.302715 g / cm^3
# Si number density = 23.079680 Si / 1000 Ang^3
#
#
#
# Elastic Constant Matrix: (Units=GPa)
#
#
# Indices 1 2 3 4 5 6 
#
# 1 111.1023 37.3979 43.5651 6.2673 2.1694 20.3722
# 2 37.3979 106.6311 40.7287 -1.3351 -12.9519 11.2061
# 3 43.5651 40.7287 98.9237 3.5865 4.8572 -2.4044
# 4 6.2673 -1.3351 3.5865 39.2017 3.7609 7.4438
# 5 2.1694 -12.9519 4.8572 3.7609 50.0526 4.1249
# 6 20.3722 11.2061 -2.4044 7.4438 4.1249 46.8018
#
#
#
# Elastic Compliance Matrix: (Units=1/GPa)
#
#
# Indices 1 2 3 4 5 6 
#
# 1 0.012538 -0.002070 -0.004762 -0.000659 -0.000148 -0.005089
# 2 -0.002070 0.012676 -0.004623 0.001364 0.003958 -0.002937
# 3 -0.004762 -0.004623 0.014392 -0.001286 -0.002649 0.004357
# 4 -0.000659 0.001364 -0.001286 0.026696 -0.001149 -0.004250
# 5 -0.000148 0.003958 -0.002649 -0.001149 0.021579 -0.002738
# 6 -0.005089 -0.002937 0.004357 -0.004250 -0.002738 0.025426
#
#
# Mechanical properties :
#
#
# Convention : Reuss Voigt Hill
#
# Bulk Modulus (GPa) = 59.89119 62.22673 61.05896
# Shear Modulus (GPa) = 35.26560 40.20891 37.73726
#
# Velocity S-wave (km/s) = 3.91320 4.17847 4.04801
# Velocity P-wave (km/s) = 6.81348 7.09223 6.95425
#
# Compressibility (1/GPa) = 0.01669695
#
# Stress axis : x y z
#
# Youngs Moduli (GPa) = 79.75870 78.88738 69.48441
#
# Poissons Ratio (x) = 0.16329 0.33088
# Poissons Ratio (y) = 0.16509 0.32120
# Poissons Ratio (z) = 0.37980 0.36467
#
# Static dielectric constant tensor:
#      x y z
#    x 5.686050 1.026740 1.447460 
#    y 1.026740 4.834610 0.929080 
#    z 1.447460 0.929080 5.316960 
# 
# 
# High freq. dielectric constant tensor:
#      x y z
#    x 1.929180 0.011760 0.024570 
#    y 0.011760 1.913290 0.000220 
#    z 0.024570 0.000220 1.904290 
# 
# From -- ./inp_files/299186.got.cif
#   From: 2010.06.25/outbox.cif.g09.slc.cpg/sg2_150_cif.got.tgz:299186.got - 2010.06.27 13:26:56.
