data_PCOD8036970
_publ_section_title
;
Structure prediction by ZEFSAII (Michael W. Deem and Ramdas Pophale) SiO2 
 PCOD8036970
Probable space group: P -1
;
_chemical_formula_sum "Si O2"
_cell_formula_units_Z 16
_cell_length_a 8.337456
_cell_length_b 24.792424
_cell_length_c 24.746800
_cell_angle_alpha 11.938904
_cell_angle_beta 135.920284
_cell_angle_gamma 135.824036
_cell_volume 732.463948
_symmetry_space_group_name_H-M "P -1"
_symmetry_group_IT_number 2
_symmetry_cell_setting 'triclinic'
loop_
_space_group_symop_operation_xyz
x,y,z
-x,-y,-z
loop_
_atom_site_type_symbol
_atom_site_label
_atom_site_fract_x
_atom_site_fract_y
_atom_site_fract_z
Si Si1 0.656247 0.271427 0.775016
Si Si2 0.498321 0.913206 0.371093
Si Si3 0.585456 0.827735 0.358031
Si Si4 0.977136 0.028710 0.529444
Si Si5 0.365497 0.428556 0.887939
Si Si6 0.156980 0.659370 0.127518
Si Si7 0.870915 0.245313 0.744835
Si Si8 0.315854 0.498676 0.003322
O O1 0.500000 0.500000 0.500000
O O2 0.773252 0.313002 0.820426
O O3 0.867530 0.275055 0.779723
O O4 0.500000 0.000000 0.000000
O O5 0.441228 0.854723 0.351899
O O6 0.374435 0.687034 0.600282
O O7 0.773751 0.928157 0.425860
O O8 0.401511 0.182773 0.099911
O O9 0.729750 0.578089 0.640405
O O10 0.397164 0.793039 0.299203
O O11 0.762643 0.081091 0.140957
O O12 0.840810 0.773090 0.772044
O O13 0.000000 0.000000 0.500000
O O14 0.843109 0.274618 0.270403
O O15 0.568285 0.460582 0.949893
O O16 0.119708 0.390308 0.895921
O O17 0.000000 0.500000 0.500000
O O18 0.000000 0.000000 0.000000
O O19 0.500000 0.500000 0.000000
#
# Coordination Sequence:
#
# PCOD8036970 Si02
#       8
#     2   2   2   2   2   2   2   2
#     4  12  23  46  70  95 130 178 219 270 326 392
#     4  12  27  44  70  97 137 175 223 272 338 397
#     4  12  27  47  66 101 135 177 222 270 333 402
#     4  12  23  46  70  94 132 180 219 275 331 392
#     4  12  26  46  66 102 133 176 222 273 332 402
#     4  12  26  46  70  96 138 177 221 271 336 397
#     4  12  26  43  70  99 134 169 225 276 323 385
#     4  12  26  43  70 100 135 171 229 278 327 391
#
# _framework density 21.844079000000001
#
# number of rings (size 3 to 8) (size 9 to 14) (size 15 to 20)
#    0.000    0.000    5.000    4.500    7.000    0.000 
#    0.000    0.000    0.000    0.000    0.000    0.000 
#    0.000    0.000    0.000    0.000    0.000    0.000 
#
# Total GULP energy -198542.420384 kJ/mol
# GULP energy per Si atom -12408.901274 kJ/mol
# Density = 2.179436 g / cm^3
# Si number density = 21.844079 Si / 1000 Ang^3
#
#
#
# Elastic Constant Matrix: (Units=GPa)
#
#
# Indices 1 2 3 4 5 6 
#
# 1 119.9232 -2.6100 37.6050 -16.8793 -0.2199 0.3299
# 2 -2.6100 46.9567 12.5790 -5.6724 -1.2323 10.7786
# 3 37.6050 12.5790 146.6693 -29.5559 2.0828 13.2204
# 4 -16.8793 -5.6724 -29.5559 31.5332 6.4509 -2.2404
# 5 -0.2199 -1.2323 2.0828 6.4509 59.9057 -3.8099
# 6 0.3299 10.7786 13.2204 -2.2404 -3.8099 50.4525
#
#
#
# Elastic Compliance Matrix: (Units=1/GPa)
#
#
# Indices 1 2 3 4 5 6 
#
# 1 0.009457 0.001391 -0.001824 0.003673 -0.000252 0.000263
# 2 0.001391 0.023149 -0.001239 0.003456 -0.000133 -0.004486
# 3 -0.001824 -0.001239 0.009076 0.007435 -0.001267 -0.001867
# 4 0.003673 0.003456 0.007435 0.042164 -0.004791 -0.001200
# 5 -0.000252 -0.000133 -0.001267 -0.004791 0.017342 0.001459
# 6 0.000263 -0.004486 -0.001867 -0.001200 0.001459 0.021324
#
#
# Mechanical properties :
#
#
# Convention : Reuss Voigt Hill
#
# Bulk Modulus (GPa) = 26.08392 45.41080 35.74736
# Shear Modulus (GPa) = 36.06582 46.10995 41.08789
#
# Velocity S-wave (km/s) = 4.06773 4.59940 4.34171
# Velocity P-wave (km/s) = 5.83342 7.00284 6.44471
#
# Compressibility (1/GPa) = 0.03833780
#
# Stress axis : x y z
#
# Youngs Moduli (GPa) = 105.74562 43.19782 110.17506
#
# Poissons Ratio (x) = -0.06009 0.20095
# Poissons Ratio (y) = -0.14709 0.13655
# Poissons Ratio (z) = 0.19287 0.05354
#
# Static dielectric constant tensor:
#      x y z
#    x 4.093380 0.060290 -0.006380 
#    y 0.060290 3.640360 -0.152980 
#    z -0.006380 -0.152980 4.000130 
# 
# 
# High freq. dielectric constant tensor:
#      x y z
#    x 1.878630 -0.002190 -0.000140 
#    y -0.002190 1.860710 -0.004670 
#    z -0.000140 -0.004670 1.879730 
# 
# From -- ./inp_files/357985.got.cif
#   From: 2010.06.25/outbox.cif.g09.slc.cpg/sg2_179_cif.got.tgz:357985.got - 2010.06.27 13:26:56.
