data_PCOD8036363
_publ_section_title
;
Structure prediction by ZEFSAII (Michael W. Deem and Ramdas Pophale) SiO2 
 PCOD8036363
Probable space group: P -1
;
_chemical_formula_sum "Si O2"
_cell_formula_units_Z 10
_cell_length_a 19.047964
_cell_length_b 8.999374
_cell_length_c 4.976312
_cell_angle_alpha 87.925863
_cell_angle_beta 91.679352
_cell_angle_gamma 25.879836
_cell_volume 368.332741
_symmetry_space_group_name_H-M "P -1"
_symmetry_group_IT_number 2
_symmetry_cell_setting 'triclinic'
loop_
_space_group_symop_operation_xyz
x,y,z
-x,-y,-z
loop_
_atom_site_type_symbol
_atom_site_label
_atom_site_fract_x
_atom_site_fract_y
_atom_site_fract_z
Si Si1 0.696484 0.939026 0.824585
Si Si2 0.598447 0.672280 0.424639
Si Si3 0.792439 0.075783 0.841166
Si Si4 0.085176 0.922854 0.773347
Si Si5 0.895821 0.481276 0.365424
O O1 0.785445 0.765569 0.559311
O O2 0.515642 0.219665 0.767538
O O3 0.689910 0.124509 0.901796
O O4 0.790896 0.660376 0.072375
O O5 0.676365 0.425498 0.686772
O O6 0.738697 0.476023 0.267393
O O7 0.500000 0.000000 0.500000
O O8 0.877708 0.979107 0.124047
O O9 0.937930 0.748120 0.674214
O O10 0.958371 0.195146 0.487272
O O11 0.000000 0.000000 0.000000
#
# Coordination Sequence:
#
# PCOD8036363 Si02
#       5
#     2   2   2   2   2
#     4  12  27  49  84 121 156 202 266 331 395 462
#     4  11  30  50  78 118 163 209 262 328 399 464
#     4  11  26  49  82 116 160 209 262 324 391 475
#     4  11  28  52  81 115 162 212 263 320 395 475
#     4  11  26  48  82 120 155 206 262 322 395 472
#
# _framework density 27.149363999999998
#
# number of rings (size 3 to 8) (size 9 to 14) (size 15 to 20)
#    0.000    0.800    2.000    1.800   14.000    3.200 
#    0.000    4.000    0.000    0.000    0.000    0.000 
#    0.000    0.000    0.000    0.000    0.000    0.000 
#
# Total GULP energy -124021.830335 kJ/mol
# GULP energy per Si atom -12402.183034 kJ/mol
# Density = 2.708757 g / cm^3
# Si number density = 27.149364 Si / 1000 Ang^3
#
#
#
# Elastic Constant Matrix: (Units=GPa)
#
#
# Indices 1 2 3 4 5 6 
#
# 1 184.7489 70.6977 46.1955 1.1183 -1.1753 -24.9702
# 2 70.6977 161.8841 64.2275 6.5419 -5.3350 -24.7396
# 3 46.1955 64.2275 148.7393 -6.3980 -4.8774 -24.4248
# 4 1.1183 6.5419 -6.3980 49.7840 -0.5432 3.8907
# 5 -1.1753 -5.3350 -4.8774 -0.5432 31.9252 -4.3280
# 6 -24.9702 -24.7396 -24.4248 3.8907 -4.3280 45.6326
#
#
#
# Elastic Compliance Matrix: (Units=1/GPa)
#
#
# Indices 1 2 3 4 5 6 
#
# 1 0.006775 -0.002340 -0.000763 -0.000102 0.000017 0.002041
# 2 -0.002340 0.008719 -0.002696 -0.001603 0.001238 0.002258
# 3 -0.000763 -0.002696 0.008676 0.001283 0.001245 0.002773
# 4 -0.000102 -0.001603 0.001283 0.020621 0.000005 -0.001996
# 5 0.000017 0.001238 0.001245 0.000005 0.032319 0.004411
# 6 0.002041 0.002258 0.002773 -0.001996 0.004411 0.026328
#
#
# Mechanical properties :
#
#
# Convention : Reuss Voigt Hill
#
# Bulk Modulus (GPa) = 79.53197 95.29042 87.41120
# Shear Modulus (GPa) = 41.93716 46.41845 44.17781
#
# Velocity S-wave (km/s) = 3.93451 4.13939 4.03825
# Velocity P-wave (km/s) = 7.07095 7.61714 7.34912
#
# Compressibility (1/GPa) = 0.01257356
#
# Stress axis : x y z
#
# Youngs Moduli (GPa) = 147.59289 114.68773 115.26550
#
# Poissons Ratio (x) = 0.26834 0.08790
# Poissons Ratio (y) = 0.34533 0.31076
# Poissons Ratio (z) = 0.11256 0.30920
#
# Static dielectric constant tensor:
#      x y z
#    x 5.432520 -0.189200 0.286450 
#    y -0.189200 5.076800 -0.071060 
#    z 0.286450 -0.071060 5.124930 
# 
# 
# High freq. dielectric constant tensor:
#      x y z
#    x 2.115660 -0.004020 0.009280 
#    y -0.004020 2.100870 -0.002290 
#    z 0.009280 -0.002290 2.101990 
# 
# From -- ./inp_files/103200.got.cif
#   From: 2010.06.25/outbox.cif.g09.slc.cpg/sg2_52_cif.got.tgz:103200.got - 2010.06.27 13:26:56.
