data_PCOD8036205
_publ_section_title
;
Structure prediction by ZEFSAII (Michael W. Deem and Ramdas Pophale) SiO2 
 PCOD8036205
Probable space group: P -1
;
_chemical_formula_sum "Si O2"
_cell_formula_units_Z 16
_cell_length_a 9.349242
_cell_length_b 6.796360
_cell_length_c 21.704866
_cell_angle_alpha 127.179022
_cell_angle_beta 49.573584
_cell_angle_gamma 133.372198
_cell_volume 730.976377
_symmetry_space_group_name_H-M "P -1"
_symmetry_group_IT_number 2
_symmetry_cell_setting 'triclinic'
loop_
_space_group_symop_operation_xyz
x,y,z
-x,-y,-z
loop_
_atom_site_type_symbol
_atom_site_label
_atom_site_fract_x
_atom_site_fract_y
_atom_site_fract_z
Si Si1 0.777819 0.051337 0.827223
Si Si2 0.776847 0.552334 0.276729
Si Si3 0.921467 0.321945 0.549749
Si Si4 0.547175 0.779598 0.073753
Si Si5 0.749906 0.672299 0.448253
Si Si6 0.136704 0.828836 0.038019
Si Si7 0.551961 0.440662 0.720726
Si Si8 0.766993 0.965470 0.169851
O O1 0.665792 0.197899 0.846923
O O2 0.743648 0.114190 0.919315
O O3 0.026191 0.190322 0.764731
O O4 0.660293 0.717814 0.785054
O O5 0.790633 0.623634 0.357750
O O6 0.553757 0.508552 0.301554
O O7 0.792651 0.271299 0.209629
O O8 0.731039 0.357804 0.638336
O O9 0.000000 0.500000 0.500000
O O10 0.118317 0.429538 0.563550
O O11 0.832522 0.999032 0.496813
O O12 0.653016 0.770104 0.106258
O O13 0.500000 0.500000 0.000000
O O14 0.700018 0.050379 0.041188
O O15 0.500000 0.500000 0.500000
O O16 0.999636 0.991477 0.113593
O O17 0.000000 0.500000 0.000000
O O18 0.367924 0.177707 0.758721
#
# Coordination Sequence:
#
# PCOD8036205 Si02
#       8
#     2   2   2   2   2   2   2   2
#     4  12  25  44  69 101 137 181 231 283 345 403
#     4  12  26  46  69 102 141 179 227 282 335 407
#     4  11  26  46  73 106 140 179 225 274 335 405
#     4  12  24  42  66  98 134 178 232 286 340 406
#     4  11  26  46  73 106 140 179 225 274 335 405
#     4  12  24  44  68  98 136 178 232 288 346 406
#     4  12  26  46  69 102 141 179 227 282 335 407
#     4  12  25  44  69 101 137 181 231 283 345 403
#
# _framework density 21.888531
#
# number of rings (size 3 to 8) (size 9 to 14) (size 15 to 20)
#    0.000    0.250    2.500    6.750    3.500    6.000 
#    0.000    0.000    0.000    0.000    0.000    0.000 
#    0.000    0.000    0.000    0.000    0.000    0.000 
#
# Total GULP energy -198511.449609 kJ/mol
# GULP energy per Si atom -12406.965601 kJ/mol
# Density = 2.183871 g / cm^3
# Si number density = 21.888531 Si / 1000 Ang^3
#
#
#
# Elastic Constant Matrix: (Units=GPa)
#
#
# Indices 1 2 3 4 5 6 
#
# 1 122.4366 47.2400 45.0635 -8.7111 -1.7308 1.3375
# 2 47.2400 79.3291 16.5128 5.2746 4.0968 -2.8809
# 3 45.0635 16.5128 105.4435 -1.6043 5.9267 -1.1238
# 4 -8.7111 5.2746 -1.6043 31.3060 -1.3483 2.8407
# 5 -1.7308 4.0968 5.9267 -1.3483 50.4624 -0.8206
# 6 1.3375 -2.8809 -1.1238 2.8407 -0.8206 31.6851
#
#
#
# Elastic Compliance Matrix: (Units=1/GPa)
#
#
# Indices 1 2 3 4 5 6 
#
# 1 0.013009 -0.007292 -0.004456 0.004851 0.001662 -0.001762
# 2 -0.007292 0.017381 0.000442 -0.005224 -0.001815 0.002325
# 3 -0.004456 0.000442 0.011400 -0.000857 -0.001540 0.000670
# 4 0.004851 -0.005224 -0.000857 0.034538 0.001553 -0.003766
# 5 0.001662 -0.001815 -0.001540 0.001553 0.020245 0.000095
# 6 -0.001762 0.002325 0.000670 -0.003766 0.000095 0.032210
#
#
# Mechanical properties :
#
#
# Convention : Reuss Voigt Hill
#
# Bulk Modulus (GPa) = 52.14422 58.31575 55.22999
# Shear Modulus (GPa) = 31.68818 35.91687 33.80253
#
# Velocity S-wave (km/s) = 3.80900 4.05520 3.93403
# Velocity P-wave (km/s) = 6.57412 6.97324 6.77662
#
# Compressibility (1/GPa) = 0.01917758
#
# Stress axis : x y z
#
# Youngs Moduli (GPa) = 76.87091 57.53280 87.72193
#
# Poissons Ratio (x) = 0.41950 0.39090
# Poissons Ratio (y) = 0.56051 -0.03873
# Poissons Ratio (z) = 0.34255 -0.02540
#
# Static dielectric constant tensor:
#      x y z
#    x 4.130890 -0.534440 0.625920 
#    y -0.534440 2.963120 1.252450 
#    z 0.625920 1.252450 2.654810 
# 
# 
# High freq. dielectric constant tensor:
#      x y z
#    x 1.883050 0.000360 -0.000120 
#    y 0.000360 1.869020 0.003760 
#    z -0.000120 0.003760 1.871450 
# 
# From -- ./inp_files/53613.got.cif
#   From: 2010.06.25/outbox.cif.g09.slc.cpg/sg2_27_cif.got.tgz:53613.got - 2010.06.27 13:26:56.
