data_PCOD8036399
_publ_section_title
;
Structure prediction by ZEFSAII (Michael W. Deem and Ramdas Pophale) SiO2 
 PCOD8036399
Probable space group: P -1
;
_chemical_formula_sum "Si O2"
_cell_formula_units_Z 12
_cell_length_a 8.123199
_cell_length_b 7.788001
_cell_length_c 9.035103
_cell_angle_alpha 115.322815
_cell_angle_beta 65.384975
_cell_angle_gamma 98.422789
_cell_volume 469.368708
_symmetry_space_group_name_H-M "P -1"
_symmetry_group_IT_number 2
_symmetry_cell_setting 'triclinic'
loop_
_space_group_symop_operation_xyz
x,y,z
-x,-y,-z
loop_
_atom_site_type_symbol
_atom_site_label
_atom_site_fract_x
_atom_site_fract_y
_atom_site_fract_z
Si Si1 0.509934 0.369115 0.278635
Si Si2 0.414996 0.008619 0.750934
Si Si3 0.660424 0.250483 0.560816
Si Si4 0.222551 0.246815 0.148366
Si Si5 0.088976 0.524655 0.818617
Si Si6 0.040849 0.205210 0.503827
O O1 0.459651 0.173717 0.309523
O O2 0.428078 0.575881 0.445698
O O3 0.404878 0.365716 0.155783
O O4 0.726040 0.369051 0.181480
O O5 0.301121 0.933513 0.625936
O O6 0.531612 0.186406 0.720175
O O7 0.278122 0.072882 0.955473
O O8 0.851124 0.318062 0.575821
O O9 0.049408 0.354563 0.185051
O O10 0.167028 0.175010 0.303931
O O11 0.134589 0.326380 0.642831
O O12 0.000000 0.500000 0.000000
O O13 0.000000 0.000000 0.500000
#
# Coordination Sequence:
#
# PCOD8036399 Si02
#       6
#     2   2   2   2   2   2
#     4  12  27  49  80 107 158 203 254 317 383 459
#     4  11  27  46  80 116 148 210 258 314 389 462
#     4  11  26  49  79 111 158 201 259 321 385 455
#     4  12  28  52  77 114 157 203 260 318 388 457
#     4  12  30  49  80 117 152 205 259 318 391 458
#     4  12  29  50  78 115 157 203 260 322 384 463
#
# _framework density 25.566255000000002
#
# number of rings (size 3 to 8) (size 9 to 14) (size 15 to 20)
#    0.000    0.333    1.667    4.500   16.333    2.667 
#    0.000    0.000    0.000    0.000    0.000    0.000 
#    0.000    0.000    0.000    0.000    0.000    0.000 
#
# Total GULP energy -148759.701582 kJ/mol
# GULP energy per Si atom -12396.641799 kJ/mol
# Density = 2.550806 g / cm^3
# Si number density = 25.566255 Si / 1000 Ang^3
#
#
#
# Elastic Constant Matrix: (Units=GPa)
#
#
# Indices 1 2 3 4 5 6 
#
# 1 171.7601 41.0906 16.4241 -2.4031 -6.3256 7.4442
# 2 41.0906 142.9261 49.7580 -6.2124 -8.8643 -6.7979
# 3 16.4241 49.7580 180.1182 -5.8398 1.3284 4.8336
# 4 -2.4031 -6.2124 -5.8398 41.6452 -1.1699 -2.5285
# 5 -6.3256 -8.8643 1.3284 -1.1699 23.0480 4.2003
# 6 7.4442 -6.7979 4.8336 -2.5285 4.2003 33.6638
#
#
#
# Elastic Compliance Matrix: (Units=1/GPa)
#
#
# Indices 1 2 3 4 5 6 
#
# 1 0.006401 -0.001833 -0.000035 0.000012 0.001411 -0.001956
# 2 -0.001833 0.008623 -0.002259 0.001072 0.002592 0.002228
# 3 -0.000035 -0.002259 0.006233 0.000435 -0.000999 -0.001186
# 4 0.000012 0.001072 0.000435 0.024381 0.001296 0.001821
# 5 0.001411 0.002592 -0.000999 0.001296 0.045855 -0.005269
# 6 -0.001956 0.002228 -0.001186 0.001821 -0.005269 0.031552
#
#
# Mechanical properties :
#
#
# Convention : Reuss Voigt Hill
#
# Bulk Modulus (GPa) = 76.90830 78.81664 77.86247
# Shear Modulus (GPa) = 36.86392 45.50687 41.18539
#
# Velocity S-wave (km/s) = 3.80135 4.22353 4.01799
# Velocity P-wave (km/s) = 7.02953 7.39457 7.21436
#
# Compressibility (1/GPa) = 0.01300250
#
# Stress axis : x y z
#
# Youngs Moduli (GPa) = 156.22997 115.96222 160.44908
#
# Poissons Ratio (x) = 0.21257 0.00558
# Poissons Ratio (y) = 0.28639 0.36250
# Poissons Ratio (z) = 0.00544 0.26199
#
# Static dielectric constant tensor:
#      x y z
#    x 5.285360 0.035840 0.225620 
#    y 0.035840 4.585750 0.104300 
#    z 0.225620 0.104300 4.501400 
# 
# 
# High freq. dielectric constant tensor:
#      x y z
#    x 2.047470 -0.001510 0.011050 
#    y -0.001510 2.023260 0.005100 
#    z 0.011050 0.005100 2.017860 
# 
# From -- ./inp_files/147685.got.cif
#   From: 2010.06.25/outbox.cif.g09.slc.cpg/sg2_74_cif.got.tgz:147685.got - 2010.06.27 13:26:56.
