data_PCOD8036108
_publ_section_title
;
Structure prediction by ZEFSAII (Michael W. Deem and Ramdas Pophale) SiO2 
 PCOD8036108
Probable space group: P -1
;
_chemical_formula_sum "Si O2"
_cell_formula_units_Z 14
_cell_length_a 10.709339
_cell_length_b 15.538421
_cell_length_c 4.993179
_cell_angle_alpha 120.627555
_cell_angle_beta 94.837023
_cell_angle_gamma 61.725187
_cell_volume 616.013477
_symmetry_space_group_name_H-M "P -1"
_symmetry_group_IT_number 2
_symmetry_cell_setting 'triclinic'
loop_
_space_group_symop_operation_xyz
x,y,z
-x,-y,-z
loop_
_atom_site_type_symbol
_atom_site_label
_atom_site_fract_x
_atom_site_fract_y
_atom_site_fract_z
Si Si1 0.219329 0.973594 0.911899
Si Si2 0.880893 0.318112 0.875545
Si Si3 0.595111 0.679635 0.926206
Si Si4 0.594065 0.551792 0.214469
Si Si5 0.400876 0.943108 0.369064
Si Si6 0.931679 0.581601 0.862718
Si Si7 0.100017 0.820788 0.848044
O O1 0.326510 0.942391 0.632464
O O2 0.208980 0.862724 0.833085
O O3 0.278106 0.014782 0.237775
O O4 0.060694 0.074261 0.962863
O O5 0.895122 0.270836 0.505519
O O6 0.759930 0.452144 0.073680
O O7 0.845177 0.243370 0.958575
O O8 0.029783 0.315506 0.969604
O O9 0.562488 0.657512 0.184798
O O10 0.496771 0.814750 0.063695
O O11 0.557413 0.604960 0.591625
O O12 0.760954 0.645436 0.895120
O O13 0.500000 0.500000 0.000000
O O14 0.500000 0.000000 0.500000
O O15 0.000000 0.500000 0.500000
O O16 0.000000 0.500000 0.000000
#
# Coordination Sequence:
#
# PCOD8036108 Si02
#       7
#     2   2   2   2   2   2   2
#     4  11  26  50  69 102 140 178 243 291 354 406
#     4  12  24  43  73 104 136 180 234 284 355 416
#     4  12  26  47  70 103 140 192 226 292 352 409
#     4  12  27  45  70 106 145 182 234 278 354 435
#     4  12  28  48  73 102 142 188 238 287 352 423
#     4  12  23  45  67  98 141 177 230 283 341 417
#     4  11  26  44  76 101 134 184 231 301 346 409
#
# _framework density 22.726773999999999
#
# number of rings (size 3 to 8) (size 9 to 14) (size 15 to 20)
#    0.000    0.286    2.857    5.143   10.000    2.286 
#    0.000    0.000    0.000    0.000    0.000    0.000 
#    0.000    0.000    0.000    0.000    0.000    0.000 
#
# Total GULP energy -173653.965418 kJ/mol
# GULP energy per Si atom -12403.854673 kJ/mol
# Density = 2.267505 g / cm^3
# Si number density = 22.726774 Si / 1000 Ang^3
#
#
#
# Elastic Constant Matrix: (Units=GPa)
#
#
# Indices 1 2 3 4 5 6 
#
# 1 134.3486 21.6510 38.6704 -5.2149 8.9305 9.9800
# 2 21.6510 76.5005 31.4342 -7.4654 -4.6107 4.5104
# 3 38.6704 31.4342 112.1464 -9.9239 2.8777 4.5310
# 4 -5.2149 -7.4654 -9.9239 43.5383 3.1334 2.9159
# 5 8.9305 -4.6107 2.8777 3.1334 40.3158 -6.0871
# 6 9.9800 4.5104 4.5310 2.9159 -6.0871 29.5825
#
#
#
# Elastic Compliance Matrix: (Units=1/GPa)
#
#
# Indices 1 2 3 4 5 6 
#
# 1 0.008762 -0.001409 -0.002389 0.000634 -0.002424 -0.002937
# 2 -0.001409 0.015318 -0.003683 0.001539 0.002052 -0.001026
# 3 -0.002389 -0.003683 0.010973 0.001693 -0.000907 -0.000667
# 4 0.000634 0.001539 0.001693 0.024116 -0.002503 -0.003600
# 5 -0.002424 0.002052 -0.000907 -0.002503 0.026802 0.006406
# 6 -0.002937 -0.001026 -0.000667 -0.003600 0.006406 0.036726
#
#
# Mechanical properties :
#
#
# Convention : Reuss Voigt Hill
#
# Bulk Modulus (GPa) = 49.77353 56.27851 53.02602
# Shear Modulus (GPa) = 34.63641 38.10331 36.36986
#
# Velocity S-wave (km/s) = 3.90813 4.09905 4.00473
# Velocity P-wave (km/s) = 6.50484 6.87167 6.69077
#
# Compressibility (1/GPa) = 0.02009100
#
# Stress axis : x y z
#
# Youngs Moduli (GPa) = 114.12831 65.28158 91.13132
#
# Poissons Ratio (x) = 0.09199 0.21775
# Poissons Ratio (y) = 0.16082 0.33562
# Poissons Ratio (z) = 0.27270 0.24042
#
# Static dielectric constant tensor:
#      x y z
#    x 4.402600 -0.100250 0.114410 
#    y -0.100250 4.295220 -0.136240 
#    z 0.114410 -0.136240 4.102610 
# 
# 
# High freq. dielectric constant tensor:
#      x y z
#    x 1.912100 -0.001710 0.004280 
#    y -0.001710 1.901890 -0.007700 
#    z 0.004280 -0.007700 1.908080 
# 
# From -- ./inp_files/40235.got.cif
#   From: 2010.06.25/outbox.cif.g09.slc.cpg/sg2_21_cif.got.tgz:40235.got - 2010.06.27 13:26:56.
