data_PCOD8036169
_publ_section_title
;
Structure prediction by ZEFSAII (Michael W. Deem and Ramdas Pophale) SiO2 
 PCOD8036169
Probable space group: P -1
;
_chemical_formula_sum "Si O2"
_cell_formula_units_Z 12
_cell_length_a 9.773288
_cell_length_b 13.127664
_cell_length_c 9.007259
_cell_angle_alpha 58.167028
_cell_angle_beta 150.334819
_cell_angle_gamma 125.510635
_cell_volume 464.838304
_symmetry_space_group_name_H-M "P -1"
_symmetry_group_IT_number 2
_symmetry_cell_setting 'triclinic'
loop_
_space_group_symop_operation_xyz
x,y,z
-x,-y,-z
loop_
_atom_site_type_symbol
_atom_site_label
_atom_site_fract_x
_atom_site_fract_y
_atom_site_fract_z
Si Si1 0.198891 0.911318 0.743852
Si Si2 0.208282 0.427643 0.696253
Si Si3 0.222745 0.789352 0.151190
Si Si4 0.258041 0.108681 0.250543
Si Si5 0.190063 0.837775 0.462503
Si Si6 0.756611 0.479938 0.663677
O O1 0.203191 0.842506 0.647520
O O2 0.118766 0.801684 0.876584
O O3 0.000000 0.000000 0.500000
O O4 0.500000 0.000000 0.000000
O O5 0.215417 0.428963 0.521792
O O6 0.000000 0.500000 0.500000
O O7 0.074622 0.283999 0.733264
O O8 0.500000 0.500000 0.000000
O O9 0.537077 0.886146 0.413692
O O10 0.276532 0.656171 0.333428
O O11 0.975155 0.812886 0.009183
O O12 0.493896 0.163484 0.299418
O O13 0.904408 0.044102 0.789443
O O14 0.500000 0.500000 0.500000
O O15 0.000000 0.500000 0.000000
#
# Coordination Sequence:
#
# PCOD8036169 Si02
#       6
#     2   2   2   2   2   2
#     4  12  24  44  71 114 156 203 256 326 405 481
#     4  12  29  52  80 114 158 215 274 333 395 477
#     4  12  24  48  73 110 158 199 264 325 400 479
#     4  11  26  45  76 114 152 204 254 332 407 472
#     4  11  26  48  76 113 158 204 265 325 404 479
#     4  12  27  50  79 113 154 214 270 329 399 473
#
# _framework density 25.815427
#
# number of rings (size 3 to 8) (size 9 to 14) (size 15 to 20)
#    0.000    0.333    3.333    4.000    0.000   12.000 
#    0.000    0.000    0.000    0.000    0.000    0.000 
#    0.000    0.000    0.000    0.000    0.000    0.000 
#
# Total GULP energy -148729.645175 kJ/mol
# GULP energy per Si atom -12394.137098 kJ/mol
# Density = 2.575667 g / cm^3
# Si number density = 25.815427 Si / 1000 Ang^3
#
#
#
# Elastic Constant Matrix: (Units=GPa)
#
#
# Indices 1 2 3 4 5 6 
#
# 1 192.8085 77.4876 72.4809 -5.4128 -0.5887 -4.5499
# 2 77.4876 165.9926 71.8849 10.8052 11.9377 5.1427
# 3 72.4809 71.8849 179.9838 1.7836 21.9152 -1.5223
# 4 -5.4128 10.8052 1.7836 47.6845 -4.7970 0.2779
# 5 -0.5887 11.9377 21.9152 -4.7970 71.9004 -8.0267
# 6 -4.5499 5.1427 -1.5223 0.2779 -8.0267 44.1753
#
#
#
# Elastic Compliance Matrix: (Units=1/GPa)
#
#
# Indices 1 2 3 4 5 6 
#
# 1 0.007081 -0.002704 -0.001941 0.001617 0.001342 0.001211
# 2 -0.002704 0.008495 -0.002161 -0.002252 -0.001095 -0.001527
# 3 -0.001941 -0.002161 0.007439 -0.000204 -0.001943 -0.000044
# 4 0.001617 -0.002252 -0.000204 0.021868 0.001980 0.000644
# 5 0.001342 -0.001095 -0.001943 0.001980 0.015153 0.002940
# 6 0.001211 -0.001527 -0.000044 0.000644 0.002940 0.023468
#
#
# Mechanical properties :
#
#
# Convention : Reuss Voigt Hill
#
# Bulk Modulus (GPa) = 106.35017 109.16577 107.75797
# Shear Modulus (GPa) = 49.87450 53.88078 51.87764
#
# Velocity S-wave (km/s) = 4.40018 4.57349 4.48767
# Velocity P-wave (km/s) = 8.19154 8.38260 8.28762
#
# Compressibility (1/GPa) = 0.00940290
#
# Stress axis : x y z
#
# Youngs Moduli (GPa) = 141.22492 117.71086 134.42712
#
# Poissons Ratio (x) = 0.31833 0.26086
# Poissons Ratio (y) = 0.38192 0.29054
# Poissons Ratio (z) = 0.27406 0.25441
#
# Static dielectric constant tensor:
#      x y z
#    x 5.153270 0.145380 -0.208730 
#    y 0.145380 5.291720 -0.083870 
#    z -0.208730 -0.083870 4.612540 
# 
# 
# High freq. dielectric constant tensor:
#      x y z
#    x 2.059960 -0.007250 -0.017020 
#    y -0.007250 2.037190 0.001960 
#    z -0.017020 0.001960 2.065230 
# 
# From -- ./inp_files/206115.got.cif
#   From: 2010.06.25/outbox.cif.g09.slc.cpg/sg2_104_cif.got.tgz:206115.got - 2010.06.27 13:26:56.
