data_PCOD8036832
_publ_section_title
;
Structure prediction by ZEFSAII (Michael W. Deem and Ramdas Pophale) SiO2 
 PCOD8036832
Probable space group: P -1
;
_chemical_formula_sum "Si O2"
_cell_formula_units_Z 16
_cell_length_a 12.331827
_cell_length_b 18.624838
_cell_length_c 21.785105
_cell_angle_alpha 17.413872
_cell_angle_beta 27.578340
_cell_angle_gamma 35.030083
_cell_volume 680.055067
_symmetry_space_group_name_H-M "P -1"
_symmetry_group_IT_number 2
_symmetry_cell_setting 'triclinic'
loop_
_space_group_symop_operation_xyz
x,y,z
-x,-y,-z
loop_
_atom_site_type_symbol
_atom_site_label
_atom_site_fract_x
_atom_site_fract_y
_atom_site_fract_z
Si Si1 0.906845 0.367573 0.525043
Si Si2 0.013636 0.910972 0.998200
Si Si3 0.634544 0.195239 0.915131
Si Si4 0.103703 0.501137 0.878736
Si Si5 0.574599 0.545742 0.770563
Si Si6 0.451079 0.840582 0.489233
Si Si7 0.177875 0.255853 0.276118
Si Si8 0.839968 0.028041 0.728779
O O1 0.741497 0.387604 0.651050
O O2 0.945502 0.620780 0.262560
O O3 0.164912 0.307940 0.461916
O O4 0.774736 0.147377 0.727533
O O5 0.287044 0.000271 0.769607
O O6 0.000000 0.000000 0.000000
O O7 0.828585 0.021394 0.960278
O O8 0.611055 0.324970 0.886228
O O9 0.382449 0.029082 0.159355
O O10 0.389334 0.620566 0.648747
O O11 0.991315 0.679639 0.745338
O O12 0.075580 0.226797 0.090199
O O13 0.000000 0.500000 0.000000
O O14 0.419276 0.718266 0.673131
O O15 0.429536 0.448309 0.985015
O O16 0.245057 0.989523 0.454688
O O17 0.042720 0.239108 0.422981
#
# Coordination Sequence:
#
# PCOD8036832 Si02
#       8
#     2   2   2   2   2   2   2   2
#     4  12  27  47  70 106 147 188 238 290 362 420
#     4  12  25  42  74 106 133 185 243 298 348 411
#     4  12  25  46  74 103 142 189 240 294 348 424
#     4  12  24  42  72 105 141 186 236 288 353 419
#     4  12  23  44  76 105 139 186 241 299 343 419
#     4  12  23  42  71 107 137 178 241 298 345 409
#     4  12  25  43  71 109 143 182 236 294 357 421
#     4  12  29  46  69 107 153 190 225 293 366 431
#
# _framework density 23.527508000000001
#
# number of rings (size 3 to 8) (size 9 to 14) (size 15 to 20)
#    0.000    0.000    7.500    1.875    3.500    2.000 
#    0.000    1.250    0.000    0.000    0.000    0.000 
#    0.000    0.000    0.000    0.000    0.000    0.000 
#
# Total GULP energy -198258.214484 kJ/mol
# GULP energy per Si atom -12391.138405 kJ/mol
# Density = 2.347396 g / cm^3
# Si number density = 23.527508 Si / 1000 Ang^3
#
#
#
# Elastic Constant Matrix: (Units=GPa)
#
#
# Indices 1 2 3 4 5 6 
#
# 1 81.9298 34.9230 25.2719 -11.7175 3.9460 -25.3813
# 2 34.9230 75.4357 39.4295 -7.0371 1.8494 -20.1172
# 3 25.2719 39.4295 113.9935 0.1934 11.1887 -6.6313
# 4 -11.7175 -7.0371 0.1934 43.4641 -1.8336 0.9444
# 5 3.9460 1.8494 11.1887 -1.8336 43.0053 -7.7896
# 6 -25.3813 -20.1172 -6.6313 0.9444 -7.7896 38.2069
#
#
#
# Elastic Compliance Matrix: (Units=1/GPa)
#
#
# Indices 1 2 3 4 5 6 
#
# 1 0.018212 -0.004490 -0.002032 0.004025 0.000938 0.009473
# 2 -0.004490 0.020489 -0.005917 0.002080 0.002469 0.007231
# 3 -0.002032 -0.005917 0.011402 -0.001623 -0.003154 -0.003090
# 4 0.004025 0.002080 -0.001623 0.024434 0.001586 0.003207
# 5 0.000938 0.002469 -0.003154 0.001586 0.025119 0.006458
# 6 0.009473 0.007231 -0.003090 0.003207 0.006458 0.036975
#
#
# Mechanical properties :
#
#
# Convention : Reuss Voigt Hill
#
# Bulk Modulus (GPa) = 39.64341 52.28976 45.96658
# Shear Modulus (GPa) = 29.42610 36.38423 32.90516
#
# Velocity S-wave (km/s) = 3.54037 3.93677 3.74382
# Velocity P-wave (km/s) = 5.79644 6.55266 6.18612
#
# Compressibility (1/GPa) = 0.02522487
#
# Stress axis : x y z
#
# Youngs Moduli (GPa) = 54.91021 48.80551 87.70206
#
# Poissons Ratio (x) = 0.21914 0.17823
# Poissons Ratio (y) = 0.24655 0.51893
# Poissons Ratio (z) = 0.11159 0.28878
#
# Static dielectric constant tensor:
#      x y z
#    x 4.367260 -0.587230 0.340840 
#    y -0.587230 4.308070 -0.114340 
#    z 0.340840 -0.114340 4.510840 
# 
# 
# High freq. dielectric constant tensor:
#      x y z
#    x 1.923990 -0.034190 0.008940 
#    y -0.034190 1.914970 0.012970 
#    z 0.008940 0.012970 1.950290 
# 
# From -- ./inp_files/595923.got.cif
#   From: 2010.06.25/outbox.cif.g09.slc.cpg/sg2_298_cif.got.tgz:595923.got - 2010.06.27 13:26:56.
