data_PCOD8036125
_publ_section_title
;
Structure prediction by ZEFSAII (Michael W. Deem and Ramdas Pophale) SiO2 
 PCOD8036125
Probable space group: P -1
;
_chemical_formula_sum "Si O2"
_cell_formula_units_Z 12
_cell_length_a 13.736874
_cell_length_b 4.974764
_cell_length_c 13.173810
_cell_angle_alpha 58.038002
_cell_angle_beta 40.817396
_cell_angle_gamma 59.214887
_cell_volume 489.108736
_symmetry_space_group_name_H-M "P -1"
_symmetry_group_IT_number 2
_symmetry_cell_setting 'triclinic'
loop_
_space_group_symop_operation_xyz
x,y,z
-x,-y,-z
loop_
_atom_site_type_symbol
_atom_site_label
_atom_site_fract_x
_atom_site_fract_y
_atom_site_fract_z
Si Si1 0.889621 0.849697 0.790377
Si Si2 0.687010 0.830130 0.300992
Si Si3 0.620129 0.696654 0.593344
Si Si4 0.417421 0.715506 0.114106
Si Si5 0.846331 0.423007 0.087498
Si Si6 0.054115 0.367165 0.592848
O O1 0.759709 0.138359 0.792317
O O2 0.994586 0.659217 0.658300
O O3 0.991372 0.046680 0.737495
O O4 0.823264 0.595057 0.961869
O O5 0.517909 0.007450 0.372273
O O6 0.816820 0.055214 0.168097
O O7 0.685715 0.604546 0.446572
O O8 0.716034 0.588707 0.232585
O O9 0.556592 0.439733 0.763148
O O10 0.764605 0.762670 0.528844
O O11 0.500000 0.500000 0.000000
O O12 0.500000 0.000000 0.000000
O O13 0.000000 0.500000 0.000000
O O14 0.000000 0.500000 0.500000
#
# Coordination Sequence:
#
# PCOD8036125 Si02
#       6
#     2   2   2   2   2   2
#     4  12  25  44  69 103 137 177 232 280 342 407
#     4  11  26  45  70 104 133 187 222 284 340 404
#     4  11  26  46  71  98 144 175 235 278 342 409
#     4  12  26  43  68  98 135 179 220 282 344 399
#     4  12  24  46  72 101 140 176 233 278 341 406
#     4  12  25  44  69 103 138 183 227 281 342 404
#
# _framework density 24.534421999999999
#
# number of rings (size 3 to 8) (size 9 to 14) (size 15 to 20)
#    0.000    0.333    1.667    7.000    0.000    5.333 
#    0.000    0.000    0.000    0.000    0.000    0.000 
#    0.000    0.000    0.000    0.000    0.000    0.000 
#
# Total GULP energy -148675.051067 kJ/mol
# GULP energy per Si atom -12389.587589 kJ/mol
# Density = 2.447858 g / cm^3
# Si number density = 24.534422 Si / 1000 Ang^3
#
#
#
# Elastic Constant Matrix: (Units=GPa)
#
#
# Indices 1 2 3 4 5 6 
#
# 1 107.4214 27.6709 41.8412 0.7732 3.5680 -16.9997
# 2 27.6709 89.5257 32.0509 -0.4945 1.3542 16.3453
# 3 41.8412 32.0509 143.3502 -14.2860 26.0351 -4.1236
# 4 0.7732 -0.4945 -14.2860 37.8451 -9.4937 -3.6678
# 5 3.5680 1.3542 26.0351 -9.4937 62.4059 -3.6510
# 6 -16.9997 16.3453 -4.1236 -3.6678 -3.6510 42.4602
#
#
#
# Elastic Compliance Matrix: (Units=1/GPa)
#
#
# Indices 1 2 3 4 5 6 
#
# 1 0.012372 -0.004001 -0.002736 -0.000530 0.000806 0.006251
# 2 -0.004001 0.014683 -0.002524 -0.001335 0.000316 -0.007587
# 3 -0.002736 -0.002524 0.009212 0.002778 -0.003166 0.000739
# 4 -0.000530 -0.001335 0.002778 0.028656 0.003456 0.003344
# 5 0.000806 0.000316 -0.003166 0.003456 0.017919 0.001733
# 6 0.006251 -0.007587 0.000739 0.003344 0.001733 0.029485
#
#
# Mechanical properties :
#
#
# Convention : Reuss Voigt Hill
#
# Bulk Modulus (GPa) = 56.35217 60.38036 58.36627
# Shear Modulus (GPa) = 36.55948 44.45787 40.50867
#
# Velocity S-wave (km/s) = 3.86441 4.26145 4.06778
# Velocity P-wave (km/s) = 6.55210 6.99122 6.77522
#
# Compressibility (1/GPa) = 0.01774555
#
# Stress axis : x y z
#
# Youngs Moduli (GPa) = 80.82987 68.10465 108.55553
#
# Poissons Ratio (x) = 0.27248 0.29700
# Poissons Ratio (y) = 0.32339 0.27398
# Poissons Ratio (z) = 0.22114 0.17189
#
# Static dielectric constant tensor:
#      x y z
#    x 4.073490 0.082690 0.137420 
#    y 0.082690 4.321930 -0.003340 
#    z 0.137420 -0.003340 4.971000 
# 
# 
# High freq. dielectric constant tensor:
#      x y z
#    x 1.988000 -0.011710 0.001020 
#    y -0.011710 1.968470 0.004470 
#    z 0.001020 0.004470 2.004040 
# 
# From -- ./inp_files/524925.got.cif
#   From: 2010.06.25/outbox.cif.g09.slc.cpg/sg2_263_cif.got.tgz:524925.got - 2010.06.27 13:26:56.
