data_PCOD8036601
_publ_section_title
;
Structure prediction by ZEFSAII (Michael W. Deem and Ramdas Pophale) SiO2 
 PCOD8036601
Probable space group: P -1
;
_chemical_formula_sum "Si O2"
_cell_formula_units_Z 16
_cell_length_a 20.498519
_cell_length_b 9.028276
_cell_length_c 8.090444
_cell_angle_alpha 64.595285
_cell_angle_beta 145.933810
_cell_angle_gamma 117.227991
_cell_volume 741.995801
_symmetry_space_group_name_H-M "P -1"
_symmetry_group_IT_number 2
_symmetry_cell_setting 'triclinic'
loop_
_space_group_symop_operation_xyz
x,y,z
-x,-y,-z
loop_
_atom_site_type_symbol
_atom_site_label
_atom_site_fract_x
_atom_site_fract_y
_atom_site_fract_z
Si Si1 0.271623 0.779096 0.709273
Si Si2 0.462080 0.747090 0.625737
Si Si3 0.127316 0.120717 0.721211
Si Si4 0.517449 0.746050 0.360182
Si Si5 0.711739 0.865016 0.263926
Si Si6 0.314520 0.416673 0.399449
Si Si7 0.125017 0.469930 0.720856
Si Si8 0.695493 0.054028 0.628715
O O1 0.170701 0.625287 0.623088
O O2 0.249011 0.806144 0.455165
O O3 0.267306 0.941932 0.732120
O O4 0.395452 0.718859 0.018604
O O5 0.504370 0.754990 0.523662
O O6 0.384406 0.563646 0.594859
O O7 0.371995 0.873833 0.397862
O O8 0.575472 0.797103 0.957439
O O9 0.193218 0.151430 0.669499
O O10 0.113290 0.297834 0.679360
O O11 0.000000 0.000000 0.500000
O O12 0.203579 0.034284 0.047736
O O13 0.588882 0.602759 0.529946
O O14 0.598942 0.920906 0.387557
O O15 0.736213 0.749992 0.523187
O O16 0.206676 0.474922 0.052093
O O17 0.000000 0.500000 0.500000
#
# Coordination Sequence:
#
# PCOD8036601 Si02
#       8
#     2   2   2   2   2   2   2   2
#     4  12  25  43  73 100 139 181 218 275 338 408
#     4  12  24  38  72 107 141 175 219 277 334 404
#     4  12  28  48  72  97 132 178 231 283 332 394
#     4  12  21  43  68 104 139 180 214 271 342 409
#     4  12  24  45  69 103 140 178 220 275 341 398
#     4  12  26  43  69 102 142 178 223 275 336 406
#     4  12  28  49  70  97 132 180 233 279 332 396
#     4  12  24  45  70 102 140 176 225 270 342 404
#
# _framework density 21.563462999999999
#
# number of rings (size 3 to 8) (size 9 to 14) (size 15 to 20)
#    0.000    0.000    6.250    3.750    5.250    1.000 
#    0.000    3.750    0.000    0.000    0.000    0.000 
#    0.000    0.000    0.000    0.000    0.000    0.000 
#
# Total GULP energy -198469.121821 kJ/mol
# GULP energy per Si atom -12404.320114 kJ/mol
# Density = 2.151438 g / cm^3
# Si number density = 21.563463 Si / 1000 Ang^3
#
#
#
# Elastic Constant Matrix: (Units=GPa)
#
#
# Indices 1 2 3 4 5 6 
#
# 1 110.0250 28.4670 69.7118 -2.3298 13.2135 1.7822
# 2 28.4670 121.3500 45.0733 14.5155 18.4509 -1.6461
# 3 69.7118 45.0733 90.7515 -8.0407 24.1648 3.8189
# 4 -2.3298 14.5155 -8.0407 33.7364 2.2993 2.7505
# 5 13.2135 18.4509 24.1648 2.2993 39.9283 -7.1186
# 6 1.7822 -1.6461 3.8189 2.7505 -7.1186 45.5999
#
#
#
# Elastic Compliance Matrix: (Units=1/GPa)
#
#
# Indices 1 2 3 4 5 6 
#
# 1 0.018500 0.001668 -0.016356 -0.003696 0.003481 0.001473
# 2 0.001668 0.011554 -0.007461 -0.006685 -0.000766 0.001260
# 3 -0.016356 -0.007461 0.031563 0.010789 -0.011710 -0.004752
# 4 -0.003696 -0.006685 0.010789 0.035491 -0.004959 -0.003915
# 5 0.003481 -0.000766 -0.011710 -0.004959 0.032729 0.006226
# 6 0.001473 0.001260 -0.004752 -0.003915 0.006226 0.023524
#
#
# Mechanical properties :
#
#
# Convention : Reuss Voigt Hill
#
# Bulk Modulus (GPa) = 57.74109 67.62563 62.68336
# Shear Modulus (GPa) = 24.57819 35.77787 30.17803
#
# Velocity S-wave (km/s) = 3.37977 4.07773 3.74505
# Velocity P-wave (km/s) = 6.48582 7.32119 6.91613
#
# Compressibility (1/GPa) = 0.01731869
#
# Stress axis : x y z
#
# Youngs Moduli (GPa) = 54.05327 86.55182 31.68279
#
# Poissons Ratio (x) = -0.14437 0.51821
# Poissons Ratio (y) = -0.09016 0.23639
# Poissons Ratio (z) = 0.88410 0.64577
#
# Static dielectric constant tensor:
#      x y z
#    x 3.863740 -0.115540 0.055180 
#    y -0.115540 4.264770 -0.040380 
#    z 0.055180 -0.040380 3.812080 
# 
# 
# High freq. dielectric constant tensor:
#      x y z
#    x 1.856090 -0.001760 0.001450 
#    y -0.001760 1.867890 -0.009080 
#    z 0.001450 -0.009080 1.836230 
# 
# From -- ./inp_files/208146.got.cif
#   From: 2010.06.25/outbox.cif.g09.slc.cpg/sg2_105_cif.got.tgz:208146.got - 2010.06.27 13:26:56.
