data_PCOD8036752
_publ_section_title
;
Structure prediction by ZEFSAII (Michael W. Deem and Ramdas Pophale) SiO2 
 PCOD8036752
Probable space group: P -1
;
_chemical_formula_sum "Si O2"
_cell_formula_units_Z 14
_cell_length_a 11.864061
_cell_length_b 17.950930
_cell_length_c 8.162724
_cell_angle_alpha 51.171542
_cell_angle_beta 137.968526
_cell_angle_gamma 147.283862
_cell_volume 629.073884
_symmetry_space_group_name_H-M "P -1"
_symmetry_group_IT_number 2
_symmetry_cell_setting 'triclinic'
loop_
_space_group_symop_operation_xyz
x,y,z
-x,-y,-z
loop_
_atom_site_type_symbol
_atom_site_label
_atom_site_fract_x
_atom_site_fract_y
_atom_site_fract_z
Si Si1 0.987774 0.858598 0.340285
Si Si2 0.457528 0.582597 0.248956
Si Si3 0.365322 0.703372 0.226078
Si Si4 0.885023 0.162515 0.846857
Si Si5 0.869300 0.905005 0.645788
Si Si6 0.966168 0.574742 0.236650
Si Si7 0.581975 0.075340 0.155264
O O1 0.711413 0.734423 0.266952
O O2 0.027518 0.847367 0.212579
O O3 0.147028 0.850403 0.628753
O O4 0.073336 0.002996 0.264123
O O5 0.500000 0.500000 0.500000
O O6 0.322257 0.592226 0.224173
O O7 0.302716 0.517355 0.002152
O O8 0.582521 0.779873 0.484385
O O9 0.129464 0.628596 0.179457
O O10 0.418942 0.810702 0.008754
O O11 0.958423 0.302803 0.744140
O O12 0.595672 0.032877 0.741744
O O13 0.027473 0.159656 0.139945
O O14 0.000000 0.000000 0.500000
O O15 0.000000 0.500000 0.500000
O O16 0.500000 0.000000 0.000000
#
# Coordination Sequence:
#
# PCOD8036752 Si02
#       7
#     2   2   2   2   2   2   2
#     4  12  26  43  72 109 144 178 230 295 367 415
#     4  12  28  48  73 100 141 194 249 284 341 427
#     4  12  25  45  78  98 140 182 244 290 349 422
#     4  12  26  45  72 104 150 179 232 295 364 415
#     4  12  22  45  74 109 138 177 231 301 359 421
#     4  12  30  49  69 103 145 196 240 287 350 418
#     4  12  22  45  75 106 137 183 231 296 359 424
#
# _framework density 22.254937000000002
#
# number of rings (size 3 to 8) (size 9 to 14) (size 15 to 20)
#    0.000    0.000    5.714    3.000    6.000    0.571 
#    2.571    0.000    0.000    0.000    0.000    0.000 
#    0.000    0.000    0.000    0.000    0.000    0.000 
#
# Total GULP energy -173644.847373 kJ/mol
# GULP energy per Si atom -12403.203384 kJ/mol
# Density = 2.220428 g / cm^3
# Si number density = 22.254937 Si / 1000 Ang^3
#
#
#
# Elastic Constant Matrix: (Units=GPa)
#
#
# Indices 1 2 3 4 5 6 
#
# 1 102.6078 22.0640 8.7300 -7.2901 0.7216 -21.1926
# 2 22.0640 93.7872 40.5442 -11.1782 2.1985 -17.8235
# 3 8.7300 40.5442 132.3543 -8.6969 7.0934 -7.0612
# 4 -7.2901 -11.1782 -8.6969 45.8605 -1.9709 16.8607
# 5 0.7216 2.1985 7.0934 -1.9709 36.1011 -1.2879
# 6 -21.1926 -17.8235 -7.0612 16.8607 -1.2879 38.2291
#
#
#
# Elastic Compliance Matrix: (Units=1/GPa)
#
#
# Indices 1 2 3 4 5 6 
#
# 1 0.011242 -0.001640 0.000020 -0.000739 0.000038 0.005798
# 2 -0.001640 0.013607 -0.003785 0.000718 0.000145 0.004424
# 3 0.000020 -0.003785 0.008821 0.000900 -0.001474 -0.000571
# 4 -0.000739 0.000718 0.000900 0.026287 0.000820 -0.011475
# 5 0.000038 0.000145 -0.001474 0.000820 0.028039 0.000399
# 6 0.005798 0.004424 -0.000571 -0.011475 0.000399 0.036404
#
#
# Mechanical properties :
#
#
# Convention : Reuss Voigt Hill
#
# Bulk Modulus (GPa) = 43.74514 52.38064 48.06289
# Shear Modulus (GPa) = 35.00635 41.19888 38.10262
#
# Velocity S-wave (km/s) = 3.97037 4.30725 4.14224
# Velocity P-wave (km/s) = 6.38103 6.95157 6.67240
#
# Compressibility (1/GPa) = 0.02285968
#
# Stress axis : x y z
#
# Youngs Moduli (GPa) = 88.95504 73.48949 113.36248
#
# Poissons Ratio (x) = 0.12054 -0.00224
# Poissons Ratio (y) = 0.14591 0.42905
# Poissons Ratio (z) = -0.00175 0.27814
#
# Static dielectric constant tensor:
#      x y z
#    x 4.257700 0.009130 0.167950 
#    y 0.009130 4.395600 0.172010 
#    z 0.167950 0.172010 3.865950 
# 
# 
# High freq. dielectric constant tensor:
#      x y z
#    x 1.888330 -0.005420 0.012460 
#    y -0.005420 1.876690 0.003530 
#    z 0.012460 0.003530 1.890240 
# 
# From -- ./inp_files/186584.got.cif
#   From: 2010.06.25/outbox.cif.g09.slc.cpg/sg2_94_cif.got.tgz:186584.got - 2010.06.27 13:26:56.
