data_PCOD8036270
_publ_section_title
;
Structure prediction by ZEFSAII (Michael W. Deem and Ramdas Pophale) SiO2 
 PCOD8036270
Probable space group: P -1
;
_chemical_formula_sum "Si O2"
_cell_formula_units_Z 16
_cell_length_a 8.369096
_cell_length_b 12.829671
_cell_length_c 8.968309
_cell_angle_alpha 50.518962
_cell_angle_beta 75.029588
_cell_angle_gamma 78.875516
_cell_volume 717.482142
_symmetry_space_group_name_H-M "P -1"
_symmetry_group_IT_number 2
_symmetry_cell_setting 'triclinic'
loop_
_space_group_symop_operation_xyz
x,y,z
-x,-y,-z
loop_
_atom_site_type_symbol
_atom_site_label
_atom_site_fract_x
_atom_site_fract_y
_atom_site_fract_z
Si Si1 0.981603 0.470712 0.859395
Si Si2 0.362036 0.929541 0.196516
Si Si3 0.390373 0.679508 0.240277
Si Si4 0.492013 0.861711 0.540886
Si Si5 0.007359 0.982681 0.333972
Si Si6 0.766640 0.221669 0.108585
Si Si7 0.829639 0.726887 0.515804
Si Si8 0.731204 0.597318 0.364138
O O1 0.864657 0.583608 0.711992
O O2 0.153022 0.463315 0.737334
O O3 0.906945 0.326542 0.991703
O O4 0.000000 0.500000 0.000000
O O5 0.300734 0.789719 0.268906
O O6 0.464790 0.894118 0.348554
O O7 0.192266 0.016319 0.199063
O O8 0.500000 0.000000 0.000000
O O9 0.583362 0.674702 0.241567
O O10 0.322176 0.530357 0.408094
O O11 0.360630 0.741328 0.027222
O O12 0.343239 0.775184 0.718500
O O13 0.661607 0.776406 0.591043
O O14 0.500000 0.000000 0.500000
O O15 0.867010 0.077438 0.200226
O O16 0.000000 0.000000 0.500000
O O17 0.970907 0.830722 0.428587
O O18 0.814715 0.702673 0.361988
#
# Coordination Sequence:
#
# PCOD8036270 Si02
#       8
#     2   2   2   2   2   2   2   2
#     4  12  29  46  74 110 146 194 250 309 373 454
#     4  12  27  46  75 108 148 202 251 305 377 449
#     4  11  26  47  74 108 146 196 252 311 370 451
#     4  12  25  49  72 108 152 192 249 310 374 439
#     4  12  26  48  78 109 155 198 247 312 380 444
#     4  12  27  45  76 112 144 194 255 310 367 450
#     4  12  25  49  79 105 149 207 237 311 381 445
#     4  11  26  50  73 105 155 195 247 312 380 448
#
# _framework density 22.300205999999999
#
# number of rings (size 3 to 8) (size 9 to 14) (size 15 to 20)
#    0.000    0.250    5.000    2.625    7.000    1.000 
#    0.000    0.000    0.000    0.000    0.000    0.000 
#    0.000    0.000    0.000    0.000    0.000    0.000 
#
# Total GULP energy -198384.348604 kJ/mol
# GULP energy per Si atom -12399.021788 kJ/mol
# Density = 2.224945 g / cm^3
# Si number density = 22.300206 Si / 1000 Ang^3
#
#
#
# Elastic Constant Matrix: (Units=GPa)
#
#
# Indices 1 2 3 4 5 6 
#
# 1 114.3522 35.8141 51.4647 17.1651 4.4955 -20.8423
# 2 35.8141 116.9358 30.3236 16.5052 7.5311 -1.6403
# 3 51.4647 30.3236 113.6483 16.4268 12.0771 -8.5677
# 4 17.1651 16.5052 16.4268 38.2926 1.0705 -1.3307
# 5 4.4955 7.5311 12.0771 1.0705 39.3882 5.8650
# 6 -20.8423 -1.6403 -8.5677 -1.3307 5.8650 57.2582
#
#
#
# Elastic Compliance Matrix: (Units=1/GPa)
#
#
# Indices 1 2 3 4 5 6 
#
# 1 0.012517 -0.002265 -0.004384 -0.002618 -0.000144 0.003789
# 2 -0.002265 0.010005 -0.001172 -0.002786 -0.001121 -0.000663
# 3 -0.004384 -0.001172 0.011792 -0.002494 -0.002879 0.000372
# 4 -0.002618 -0.002786 -0.002494 0.029505 0.000916 -0.000814
# 5 -0.000144 -0.001121 -0.002879 0.000916 0.026962 -0.003256
# 6 0.003789 -0.000663 0.000372 -0.000814 -0.003256 0.019195
#
#
# Mechanical properties :
#
#
# Convention : Reuss Voigt Hill
#
# Bulk Modulus (GPa) = 53.55815 64.46011 59.00913
# Shear Modulus (GPa) = 37.92405 42.14341 40.03373
#
# Velocity S-wave (km/s) = 4.12832 4.35192 4.24160
# Velocity P-wave (km/s) = 6.84055 7.36347 7.10682
#
# Compressibility (1/GPa) = 0.01867130
#
# Stress axis : x y z
#
# Youngs Moduli (GPa) = 79.89342 99.94572 84.80464
#
# Poissons Ratio (x) = 0.22633 0.37182
# Poissons Ratio (y) = 0.18092 0.09942
# Poissons Ratio (z) = 0.35029 0.11717
#
# Static dielectric constant tensor:
#      x y z
#    x 4.380300 0.191570 0.049250 
#    y 0.191570 4.817450 0.134420 
#    z 0.049250 0.134420 4.181900 
# 
# 
# High freq. dielectric constant tensor:
#      x y z
#    x 1.892980 -0.003210 0.007230 
#    y -0.003210 1.892040 -0.001150 
#    z 0.007230 -0.001150 1.881380 
# 
# From -- ./inp_files/184096.got.cif
#   From: 2010.06.25/outbox.cif.g09.slc.cpg/sg2_93_cif.got.tgz:184096.got - 2010.06.27 13:26:56.
