data_PCOD8036127
_publ_section_title
;
Structure prediction by ZEFSAII (Michael W. Deem and Ramdas Pophale) SiO2 
 PCOD8036127
Probable space group: P -1
;
_chemical_formula_sum "Si O2"
_cell_formula_units_Z 16
_cell_length_a 11.875633
_cell_length_b 12.169640
_cell_length_c 14.389325
_cell_angle_alpha 91.668207
_cell_angle_beta 19.482256
_cell_angle_gamma 92.641286
_cell_volume 692.191547
_symmetry_space_group_name_H-M "P -1"
_symmetry_group_IT_number 2
_symmetry_cell_setting 'triclinic'
loop_
_space_group_symop_operation_xyz
x,y,z
-x,-y,-z
loop_
_atom_site_type_symbol
_atom_site_label
_atom_site_fract_x
_atom_site_fract_y
_atom_site_fract_z
Si Si1 0.873776 0.966227 0.222808
Si Si2 0.155317 0.185045 0.932184
Si Si3 0.767020 0.287094 0.567122
Si Si4 0.974474 0.875878 0.491487
Si Si5 0.345448 0.430734 0.031955
Si Si6 0.014470 0.385849 0.788346
Si Si7 0.215581 0.615265 0.833939
Si Si8 0.208129 0.836423 0.112514
O O1 0.916509 0.867486 0.114546
O O2 0.960857 0.916761 0.253384
O O3 0.500000 0.000000 0.500000
O O4 0.094680 0.081309 0.045682
O O5 0.523250 0.239430 0.673062
O O6 0.913818 0.288195 0.130081
O O7 0.860792 0.188192 0.555886
O O8 0.108300 0.331281 0.253114
O O9 0.624041 0.382589 0.745822
O O10 0.212505 0.868295 0.216867
O O11 0.582485 0.838377 0.777530
O O12 0.000000 0.000000 0.500000
O O13 0.122035 0.503858 0.142980
O O14 0.500000 0.500000 0.000000
O O15 0.414626 0.407468 0.491915
O O16 0.953446 0.287158 0.761632
O O17 0.810340 0.345953 0.038454
O O18 0.000000 0.500000 0.000000
#
# Coordination Sequence:
#
# PCOD8036127 Si02
#       8
#     2   2   2   2   2   2   2   2
#     4  11  26  45  74 103 145 194 238 294 353 425
#     4  11  26  45  70 108 144 189 239 292 358 425
#     4  12  27  47  73 106 144 184 238 296 358 424
#     4  12  27  47  72 103 139 186 234 295 351 413
#     4  12  26  47  72 104 140 189 239 291 358 424
#     4  12  24  44  69 100 136 182 231 285 347 412
#     4  12  25  44  68 103 141 184 231 282 354 418
#     4  12  26  47  73 103 140 184 240 288 350 422
#
# _framework density 23.114989999999999
#
# number of rings (size 3 to 8) (size 9 to 14) (size 15 to 20)
#    0.000    0.250    1.250    7.875    7.000    0.000 
#    0.000    0.000    0.000    0.000    0.000    0.000 
#    0.000    0.000    0.000    0.000    0.000    0.000 
#
# Total GULP energy -198366.498072 kJ/mol
# GULP energy per Si atom -12397.906130 kJ/mol
# Density = 2.306238 g / cm^3
# Si number density = 23.114990 Si / 1000 Ang^3
#
#
#
# Elastic Constant Matrix: (Units=GPa)
#
#
# Indices 1 2 3 4 5 6 
#
# 1 78.2467 34.1258 9.7227 -2.1422 -5.1620 -17.7366
# 2 34.1258 143.0184 7.5922 5.4374 -10.9518 -6.5224
# 3 9.7227 7.5922 85.2512 0.8401 -10.1517 -4.9215
# 4 -2.1422 5.4374 0.8401 41.9221 -2.5944 -13.6287
# 5 -5.1620 -10.9518 -10.1517 -2.5944 44.0106 1.5684
# 6 -17.7366 -6.5224 -4.9215 -13.6287 1.5684 50.8323
#
#
#
# Elastic Compliance Matrix: (Units=1/GPa)
#
#
# Indices 1 2 3 4 5 6 
#
# 1 0.015922 -0.003543 -0.001110 0.003238 0.000713 0.005840
# 2 -0.003543 0.007981 -0.000154 -0.001326 0.001479 -0.000628
# 3 -0.001110 -0.000154 0.012225 0.000117 0.002632 0.000727
# 4 0.003238 -0.001326 0.000117 0.026922 0.001374 0.008147
# 5 0.000713 0.001479 0.002632 0.001374 0.023850 0.000326
# 6 0.005840 -0.000628 0.000727 0.008147 0.000326 0.023874
#
#
# Mechanical properties :
#
#
# Convention : Reuss Voigt Hill
#
# Bulk Modulus (GPa) = 37.71535 45.48864 41.60200
# Shear Modulus (GPa) = 38.69198 44.35804 41.52501
#
# Velocity S-wave (km/s) = 4.09576 4.38541 4.24306
# Velocity P-wave (km/s) = 6.22245 6.73531 6.48395
#
# Compressibility (1/GPa) = 0.02651440
#
# Stress axis : x y z
#
# Youngs Moduli (GPa) = 62.80425 125.30396 81.80211
#
# Poissons Ratio (x) = 0.44390 0.09083
# Poissons Ratio (y) = 0.22249 0.01258
# Poissons Ratio (z) = 0.06973 0.01927
#
# Static dielectric constant tensor:
#      x y z
#    x 4.173130 0.081420 -0.208790 
#    y 0.081420 4.703960 -0.206770 
#    z -0.208790 -0.206770 3.603300 
# 
# 
# High freq. dielectric constant tensor:
#      x y z
#    x 1.919390 -0.002840 -0.005480 
#    y -0.002840 1.942940 0.001240 
#    z -0.005480 0.001240 1.913040 
# 
# From -- ./inp_files/519699.got.cif
#   From: 2010.06.25/outbox.cif.g09.slc.cpg/sg2_260_cif.got.tgz:519699.got - 2010.06.27 13:26:56.
