data_PCOD8036674
_publ_section_title
;
Structure prediction by ZEFSAII (Michael W. Deem and Ramdas Pophale) SiO2 
 PCOD8036674
Probable space group: P -1
;
_chemical_formula_sum "Si O2"
_cell_formula_units_Z 16
_cell_length_a 13.919192
_cell_length_b 19.543556
_cell_length_c 10.735480
_cell_angle_alpha 147.379759
_cell_angle_beta 33.102444
_cell_angle_gamma 151.252072
_cell_volume 699.491734
_symmetry_space_group_name_H-M "P -1"
_symmetry_group_IT_number 2
_symmetry_cell_setting 'triclinic'
loop_
_space_group_symop_operation_xyz
x,y,z
-x,-y,-z
loop_
_atom_site_type_symbol
_atom_site_label
_atom_site_fract_x
_atom_site_fract_y
_atom_site_fract_z
Si Si1 0.494003 0.843965 0.489499
Si Si2 0.315946 0.707065 0.205865
Si Si3 0.519550 0.401779 0.722855
Si Si4 0.731563 0.560958 0.288447
Si Si5 0.003660 0.952468 0.784866
Si Si6 0.875655 0.624587 0.480701
Si Si7 0.204878 0.173289 0.521815
Si Si8 0.356080 0.062322 0.995880
O O1 0.441131 0.789884 0.321981
O O2 0.395471 0.690825 0.446646
O O3 0.753839 0.963540 0.403002
O O4 0.370136 0.917767 0.784061
O O5 0.444178 0.822996 0.132280
O O6 0.083631 0.676623 0.414784
O O7 0.288727 0.545485 0.967332
O O8 0.672209 0.514134 0.619759
O O9 0.291001 0.270860 0.705902
O O10 0.500000 0.500000 0.000000
O O11 0.500000 0.500000 0.500000
O O12 0.857661 0.546466 0.245722
O O13 0.853229 0.737095 0.373412
O O14 0.871441 0.766959 0.654691
O O15 0.874925 0.996803 0.904533
O O16 0.000000 0.000000 0.000000
O O17 0.382447 0.153267 0.234847
O O18 0.000000 0.000000 0.500000
#
# Coordination Sequence:
#
# PCOD8036674 Si02
#       8
#     2   2   2   2   2   2   2   2
#     4  12  27  46  73 111 153 195 244 310 373 441
#     4  12  24  44  74 109 147 191 253 304 368 448
#     4  12  28  49  72 109 154 200 249 303 380 450
#     4  12  23  46  74 102 144 194 245 304 370 440
#     4  12  22  41  76 106 143 192 244 300 369 438
#     4  12  25  44  73 108 140 195 249 301 370 442
#     4  12  27  46  76 111 148 199 252 309 377 446
#     4  12  24  46  74 110 150 190 249 312 367 439
#
# _framework density 22.873752
#
# number of rings (size 3 to 8) (size 9 to 14) (size 15 to 20)
#    0.000    0.000    6.250    3.750    0.000    3.000 
#    0.000    0.000    0.000    0.000    0.000    0.000 
#    0.000    0.000    0.000    0.000    0.000    0.000 
#
# Total GULP energy -198383.394398 kJ/mol
# GULP energy per Si atom -12398.962150 kJ/mol
# Density = 2.282169 g / cm^3
# Si number density = 22.873752 Si / 1000 Ang^3
#
#
#
# Elastic Constant Matrix: (Units=GPa)
#
#
# Indices 1 2 3 4 5 6 
#
# 1 89.5400 60.8815 52.1089 10.3615 -1.4648 -1.6522
# 2 60.8815 122.8090 36.9511 18.9073 -5.2532 -1.5167
# 3 52.1089 36.9511 128.7022 26.2305 -2.9319 -4.8400
# 4 10.3615 18.9073 26.2305 31.3140 1.8231 -9.6908
# 5 -1.4648 -5.2532 -2.9319 1.8231 48.3225 3.5481
# 6 -1.6522 -1.5167 -4.8400 -9.6908 3.5481 41.5878
#
#
#
# Elastic Compliance Matrix: (Units=1/GPa)
#
#
# Indices 1 2 3 4 5 6 
#
# 1 0.020611 -0.008929 -0.006687 0.004492 -0.000983 0.000845
# 2 -0.008929 0.013290 0.001114 -0.006528 0.001591 -0.001397
# 3 -0.006687 0.001114 0.011944 -0.008830 0.001048 -0.000982
# 4 0.004492 -0.006528 -0.008830 0.044992 -0.003519 0.009697
# 5 -0.000983 0.001591 0.001048 -0.003519 0.021217 -0.002489
# 6 0.000845 -0.001397 -0.000982 0.009697 -0.002489 0.026386
#
#
# Mechanical properties :
#
#
# Convention : Reuss Voigt Hill
#
# Bulk Modulus (GPa) = 59.38380 71.21492 65.29936
# Shear Modulus (GPa) = 28.89225 36.98550 32.93887
#
# Velocity S-wave (km/s) = 3.55789 4.02548 3.79889
# Velocity P-wave (km/s) = 6.54951 7.26688 6.91750
#
# Compressibility (1/GPa) = 0.01683961
#
# Stress axis : x y z
#
# Youngs Moduli (GPa) = 48.51869 75.24631 83.72186
#
# Poissons Ratio (x) = 0.67184 0.55989
# Poissons Ratio (y) = 0.43320 -0.09323
# Poissons Ratio (z) = 0.32447 -0.08379
#
# Static dielectric constant tensor:
#      x y z
#    x 4.369480 -0.172210 0.160030 
#    y -0.172210 4.027130 0.203310 
#    z 0.160030 0.203310 4.414160 
# 
# 
# High freq. dielectric constant tensor:
#      x y z
#    x 1.915350 -0.000810 0.010210 
#    y -0.000810 1.907190 0.016510 
#    z 0.010210 0.016510 1.903470 
# 
# From -- ./inp_files/457711.got.cif
#   From: 2010.06.25/outbox.cif.g09.slc.cpg/sg2_229_cif.got.tgz:457711.got - 2010.06.27 13:26:56.
