data_PCOD8036219
_publ_section_title
;
Structure prediction by ZEFSAII (Michael W. Deem and Ramdas Pophale) SiO2 
 PCOD8036219
Probable space group: P -1
;
_chemical_formula_sum "Si O2"
_cell_formula_units_Z 14
_cell_length_a 9.612025
_cell_length_b 13.066955
_cell_length_c 9.161983
_cell_angle_alpha 75.454781
_cell_angle_beta 149.980516
_cell_angle_gamma 102.585190
_cell_volume 557.259012
_symmetry_space_group_name_H-M "P -1"
_symmetry_group_IT_number 2
_symmetry_cell_setting 'triclinic'
loop_
_space_group_symop_operation_xyz
x,y,z
-x,-y,-z
loop_
_atom_site_type_symbol
_atom_site_label
_atom_site_fract_x
_atom_site_fract_y
_atom_site_fract_z
Si Si1 0.568931 0.388964 0.857775
Si Si2 0.467437 0.788924 0.886018
Si Si3 0.258353 0.923481 0.257056
Si Si4 0.090166 0.117980 0.564562
Si Si5 0.123906 0.255009 0.971038
Si Si6 0.621261 0.779595 0.469918
Si Si7 0.949020 0.484956 0.629819
O O1 0.540513 0.321516 0.707621
O O2 0.373043 0.492224 0.637346
O O3 0.477279 0.320068 0.939138
O O4 0.881205 0.429973 0.149502
O O5 0.142892 0.817916 0.578492
O O6 0.629423 0.882254 0.085314
O O7 0.595391 0.779937 0.844805
O O8 0.385486 0.870958 0.244155
O O9 0.138015 0.822694 0.274420
O O10 0.500000 0.000000 0.500000
O O11 0.000000 0.000000 0.000000
O O12 0.139522 0.177140 0.435323
O O13 0.000000 0.000000 0.500000
O O14 0.018337 0.368252 0.785356
O O15 0.216084 0.251124 0.224561
O O16 0.000000 0.500000 0.500000
#
# Coordination Sequence:
#
# PCOD8036219 Si02
#       7
#     2   2   2   2   2   2   2
#     4  11  26  50  79 111 163 204 260 332 396 472
#     4  11  26  46  75 109 153 206 259 323 387 471
#     4  12  29  50  77 112 166 211 261 323 402 469
#     4  11  27  47  75 107 153 208 266 320 395 465
#     4  12  30  48  83 118 160 206 275 331 395 480
#     4  11  29  51  78 119 165 205 270 329 405 473
#     4  12  27  49  82 117 155 212 268 321 404 480
#
# _framework density 25.122969000000001
#
# number of rings (size 3 to 8) (size 9 to 14) (size 15 to 20)
#    0.000    0.571    2.857    2.571   14.000    1.143 
#    0.000    0.000    0.000    0.000    0.000    0.000 
#    0.000    0.000    0.000    0.000    0.000    0.000 
#
# Total GULP energy -173524.122864 kJ/mol
# GULP energy per Si atom -12394.580205 kJ/mol
# Density = 2.506579 g / cm^3
# Si number density = 25.122969 Si / 1000 Ang^3
#
#
#
# Elastic Constant Matrix: (Units=GPa)
#
#
# Indices 1 2 3 4 5 6 
#
# 1 121.4061 37.6567 31.3248 0.3715 0.1231 -6.1415
# 2 37.6567 156.0654 41.0177 13.6203 -5.7541 -0.7920
# 3 31.3248 41.0177 107.0114 6.2326 8.5355 3.0387
# 4 0.3715 13.6203 6.2326 31.8320 -0.7119 10.8386
# 5 0.1231 -5.7541 8.5355 -0.7119 46.5960 -7.7033
# 6 -6.1415 -0.7920 3.0387 10.8386 -7.7033 38.8305
#
#
#
# Elastic Compliance Matrix: (Units=1/GPa)
#
#
# Indices 1 2 3 4 5 6 
#
# 1 0.009416 -0.001714 -0.002209 0.000533 0.000435 0.001565
# 2 -0.001714 0.007819 -0.002470 -0.003251 0.001588 0.001304
# 3 -0.002209 -0.002470 0.011231 -0.000621 -0.002635 -0.001628
# 4 0.000533 -0.003251 -0.000621 0.036426 -0.001450 -0.010388
# 5 0.000435 0.001588 -0.002635 -0.001450 0.022988 0.005273
# 6 0.001565 0.001304 -0.001628 -0.010388 0.005273 0.030100
#
#
# Mechanical properties :
#
#
# Convention : Reuss Voigt Hill
#
# Bulk Modulus (GPa) = 63.77775 67.16459 65.47117
# Shear Modulus (GPa) = 36.76681 41.75061 39.25871
#
# Velocity S-wave (km/s) = 3.82969 4.08100 3.95734
# Velocity P-wave (km/s) = 6.70796 6.99989 6.85548
#
# Compressibility (1/GPa) = 0.01567945
#
# Stress axis : x y z
#
# Youngs Moduli (GPa) = 106.20773 127.89249 89.04059
#
# Poissons Ratio (x) = 0.21917 0.19673
# Poissons Ratio (y) = 0.18201 0.21992
# Poissons Ratio (z) = 0.23466 0.31587
#
# Static dielectric constant tensor:
#      x y z
#    x 4.529380 -0.159510 0.189840 
#    y -0.159510 4.750070 0.115820 
#    z 0.189840 0.115820 4.662540 
# 
# 
# High freq. dielectric constant tensor:
#      x y z
#    x 2.001450 -0.007380 0.014740 
#    y -0.007380 2.015230 0.007430 
#    z 0.014740 0.007430 2.015430 
# 
# From -- ./inp_files/201691.got.cif
#   From: 2010.06.25/outbox.cif.g09.slc.cpg/sg2_101_cif.got.tgz:201691.got - 2010.06.27 13:26:56.
