data_PCOD8036968
_publ_section_title
;
Structure prediction by ZEFSAII (Michael W. Deem and Ramdas Pophale) SiO2 
 PCOD8036968
Probable space group: P -1
;
_chemical_formula_sum "Si O2"
_cell_formula_units_Z 12
_cell_length_a 15.403027
_cell_length_b 8.291355
_cell_length_c 9.197409
_cell_angle_alpha 147.830627
_cell_angle_beta 80.365448
_cell_angle_gamma 113.070041
_cell_volume 542.034879
_symmetry_space_group_name_H-M "P -1"
_symmetry_group_IT_number 2
_symmetry_cell_setting 'triclinic'
loop_
_space_group_symop_operation_xyz
x,y,z
-x,-y,-z
loop_
_atom_site_type_symbol
_atom_site_label
_atom_site_fract_x
_atom_site_fract_y
_atom_site_fract_z
Si Si1 0.550885 0.714816 0.011173
Si Si2 0.936402 0.202349 0.187033
Si Si3 0.468802 0.215816 0.410999
Si Si4 0.750947 0.936307 0.242811
Si Si5 0.064906 0.413976 0.812342
Si Si6 0.743943 0.263729 0.792364
O O1 0.666174 0.991466 0.225692
O O2 0.493780 0.918244 0.123820
O O3 0.500000 0.500000 0.000000
O O4 0.541455 0.420533 0.679074
O O5 0.916852 0.363122 0.169148
O O6 0.000000 0.500000 0.500000
O O7 0.835254 0.989599 0.142527
O O8 0.000000 0.000000 0.000000
O O9 0.500000 0.500000 0.500000
O O10 0.351349 0.073628 0.375144
O O11 0.785220 0.165436 0.557507
O O12 0.702241 0.531249 0.980970
O O13 0.171182 0.548974 0.965445
O O14 0.000000 0.000000 0.500000
O O15 0.000000 0.500000 0.000000
#
# Coordination Sequence:
#
# PCOD8036968 Si02
#       6
#     2   2   2   2   2   2
#     4  12  23  46  70 102 140 187 233 277 341 409
#     4  12  26  47  71 101 133 176 232 288 340 409
#     4  12  26  44  69 103 148 183 229 286 340 411
#     4  12  25  43  74 101 138 184 235 283 338 413
#     4  12  26  46  71  99 136 178 224 286 351 411
#     4  12  24  45  69 102 140 185 228 282 351 407
#
# _framework density 22.138794999999998
#
# number of rings (size 3 to 8) (size 9 to 14) (size 15 to 20)
#    0.000    0.000    3.333    8.000    2.333    0.000 
#    3.000    0.000    0.000    0.000    0.000    0.000 
#    0.000    0.000    0.000    0.000    0.000    0.000 
#
# Total GULP energy -148674.626311 kJ/mol
# GULP energy per Si atom -12389.552193 kJ/mol
# Density = 2.208841 g / cm^3
# Si number density = 22.138795 Si / 1000 Ang^3
#
#
#
# Elastic Constant Matrix: (Units=GPa)
#
#
# Indices 1 2 3 4 5 6 
#
# 1 134.2981 58.7823 50.0727 0.5516 8.1717 13.6235
# 2 58.7823 136.5257 44.8797 3.5759 1.3688 1.8431
# 3 50.0727 44.8797 147.3780 -0.8485 2.6716 0.2570
# 4 0.5516 3.5759 -0.8485 34.8506 -4.2975 -3.6411
# 5 8.1717 1.3688 2.6716 -4.2975 53.0960 1.1192
# 6 13.6235 1.8431 0.2570 -3.6411 1.1192 34.6087
#
#
#
# Elastic Compliance Matrix: (Units=1/GPa)
#
#
# Indices 1 2 3 4 5 6 
#
# 1 0.010401 -0.003610 -0.002406 -0.000424 -0.001339 -0.003885
# 2 -0.003610 0.009431 -0.001657 -0.000825 0.000312 0.000834
# 3 -0.002406 -0.001657 0.008108 0.000516 0.000025 0.001029
# 4 -0.000424 -0.000825 0.000516 0.029428 0.002374 0.003226
# 5 -0.001339 0.000312 0.000025 0.002374 0.019220 0.000139
# 6 -0.003885 0.000834 0.001029 0.003226 0.000139 0.030707
#
#
# Mechanical properties :
#
#
# Convention : Reuss Voigt Hill
#
# Bulk Modulus (GPa) = 79.40677 80.63012 80.01845
# Shear Modulus (GPa) = 39.42029 42.14218 40.78124
#
# Velocity S-wave (km/s) = 4.22429 4.36770 4.29659
# Velocity P-wave (km/s) = 7.72906 7.86988 7.79979
#
# Compressibility (1/GPa) = 0.01259339
#
# Stress axis : x y z
#
# Youngs Moduli (GPa) = 96.14784 106.03250 123.33517
#
# Poissons Ratio (x) = 0.38281 0.29670
# Poissons Ratio (y) = 0.34712 0.20439
# Poissons Ratio (z) = 0.23130 0.17572
#
# Static dielectric constant tensor:
#      x y z
#    x 3.043780 -0.028830 0.320420 
#    y -0.028830 3.978100 -0.040110 
#    z 0.320420 -0.040110 3.655950 
# 
# 
# High freq. dielectric constant tensor:
#      x y z
#    x 1.880880 0.003490 -0.000550 
#    y 0.003490 1.878360 -0.000720 
#    z -0.000550 -0.000720 1.893570 
# 
# From -- ./inp_files/206112.got.cif
#   From: 2010.06.25/outbox.cif.g09.slc.cpg/sg2_104_cif.got.tgz:206112.got - 2010.06.27 13:26:56.
