data_PCOD8036898
_publ_section_title
;
Structure prediction by ZEFSAII (Michael W. Deem and Ramdas Pophale) SiO2 
 PCOD8036898
Probable space group: P -1
;
_chemical_formula_sum "Si O2"
_cell_formula_units_Z 16
_cell_length_a 11.849182
_cell_length_b 22.133336
_cell_length_c 20.337103
_cell_angle_alpha 27.510981
_cell_angle_beta 20.471008
_cell_angle_gamma 30.260821
_cell_volume 843.664484
_symmetry_space_group_name_H-M "P -1"
_symmetry_group_IT_number 2
_symmetry_cell_setting 'triclinic'
loop_
_space_group_symop_operation_xyz
x,y,z
-x,-y,-z
loop_
_atom_site_type_symbol
_atom_site_label
_atom_site_fract_x
_atom_site_fract_y
_atom_site_fract_z
Si Si1 0.332235 0.493493 0.784884
Si Si2 0.269361 0.064964 0.756701
Si Si3 0.298764 0.781882 0.549555
Si Si4 0.188287 0.756057 0.265314
Si Si5 0.934688 0.903373 0.500489
Si Si6 0.181127 0.413738 0.801894
Si Si7 0.090919 0.670354 0.539846
Si Si8 0.839565 0.833964 0.874884
O O1 0.464356 0.626934 0.599395
O O2 0.614978 0.363669 0.773043
O O3 0.261406 0.487605 0.752445
O O4 0.000000 0.500000 0.000000
O O5 0.407524 0.147658 0.657949
O O6 0.108283 0.158346 0.695410
O O7 0.555866 0.952015 0.679978
O O8 0.000000 0.000000 0.000000
O O9 0.140581 0.842961 0.509478
O O10 0.018343 0.801954 0.738639
O O11 0.013946 0.699327 0.477173
O O12 0.449846 0.841566 0.068069
O O13 0.925746 0.796752 0.551383
O O14 0.091583 0.027008 0.268591
O O15 0.961226 0.533796 0.762888
O O16 0.516871 0.355642 0.635144
O O17 0.019139 0.287088 0.033345
#
# Coordination Sequence:
#
# PCOD8036898 Si02
#       8
#     2   2   2   2   2   2   2   2
#     4  10  17  31  61  87 106 139 186 235 277 324
#     4  11  24  38  53  80 120 145 177 234 283 330
#     4  11  19  34  59  86 106 142 190 231 276 326
#     4  10  21  36  55  81 118 146 178 224 283 322
#     4  11  21  34  60  82 109 147 191 224 274 331
#     4   9  17  31  53  85 112 133 181 236 271 306
#     4   9  19  33  55  82 106 150 184 223 267 333
#     4   9  18  33  54  85 109 140 182 237 272 322
#
# _framework density 18.964884999999999
#
# number of rings (size 3 to 8) (size 9 to 14) (size 15 to 20)
#    0.000    2.250    3.750    3.000    0.000    3.000 
#    0.000    0.000    0.000    3.000    0.000    0.000 
#    0.000    0.000    0.000    0.000    0.000    0.000 
#
# Total GULP energy -198283.879986 kJ/mol
# GULP energy per Si atom -12392.742499 kJ/mol
# Density = 1.892172 g / cm^3
# Si number density = 18.964885 Si / 1000 Ang^3
#
#
#
# Elastic Constant Matrix: (Units=GPa)
#
#
# Indices 1 2 3 4 5 6 
#
# 1 67.4580 46.7427 31.0734 2.9828 10.0892 -13.6400
# 2 46.7427 122.5198 42.3296 -14.0160 -4.7865 10.4402
# 3 31.0734 42.3296 81.2649 -9.1097 6.8804 0.0205
# 4 2.9828 -14.0160 -9.1097 28.2441 -9.8315 8.4192
# 5 10.0892 -4.7865 6.8804 -9.8315 21.0920 1.3179
# 6 -13.6400 10.4402 0.0205 8.4192 1.3179 29.4917
#
#
#
# Elastic Compliance Matrix: (Units=1/GPa)
#
#
# Indices 1 2 3 4 5 6 
#
# 1 0.200948 -0.125954 -0.017405 -0.238798 -0.243872 0.216609
# 2 -0.125954 0.091457 0.004667 0.159658 0.162868 -0.143490
# 3 -0.017405 0.004667 0.017540 0.019276 0.013637 -0.015827
# 4 -0.238798 0.159658 0.019276 0.340604 0.320339 -0.278527
# 5 -0.243872 0.162868 0.013637 0.320339 0.363276 -0.278140
# 6 0.216609 -0.143490 -0.015827 -0.278527 -0.278140 0.276840
#
#
# Mechanical properties :
#
#
# Convention : Reuss Voigt Hill
#
# Bulk Modulus (GPa) = 30.71195 56.83711 43.77453
# Shear Modulus (GPa) = 3.16676 25.83867 14.50271
#
# Velocity S-wave (km/s) = 1.29361 3.69514 2.76835
# Velocity P-wave (km/s) = 4.29657 6.94551 5.77497
#
# Compressibility (1/GPa) = 0.03256062
#
# Stress axis : x y z
#
# Youngs Moduli (GPa) = 4.97640 10.93412 57.01237
#
# Poissons Ratio (x) = 1.37719 0.99232
# Poissons Ratio (y) = 0.62680 -0.26607
# Poissons Ratio (z) = 0.08662 -0.05103
#
# Static dielectric constant tensor:
#      x y z
#    x 3.365290 0.097910 0.277300 
#    y 0.097910 4.032630 -0.275860 
#    z 0.277300 -0.275860 3.518540 
# 
# 
# High freq. dielectric constant tensor:
#      x y z
#    x 1.711730 0.004080 0.030680 
#    y 0.004080 1.749500 -0.018720 
#    z 0.030680 -0.018720 1.725990 
# 
# From -- ./inp_files/452131.got.cif
#   From: 2010.06.25/outbox.cif.g09.slc.cpg/sg2_227_cif.got.tgz:452131.got - 2010.06.27 13:26:56.
