data_PCOD8036209
_publ_section_title
;
Structure prediction by ZEFSAII (Michael W. Deem and Ramdas Pophale) SiO2 
 PCOD8036209
Probable space group: P -1
;
_chemical_formula_sum "Si O2"
_cell_formula_units_Z 16
_cell_length_a 12.132431
_cell_length_b 11.794792
_cell_length_c 11.416929
_cell_angle_alpha 73.242981
_cell_angle_beta 101.162298
_cell_angle_gamma 38.681081
_cell_volume 698.635838
_symmetry_space_group_name_H-M "P -1"
_symmetry_group_IT_number 2
_symmetry_cell_setting 'triclinic'
loop_
_space_group_symop_operation_xyz
x,y,z
-x,-y,-z
loop_
_atom_site_type_symbol
_atom_site_label
_atom_site_fract_x
_atom_site_fract_y
_atom_site_fract_z
Si Si1 0.771039 0.928836 0.396424
Si Si2 0.077985 0.619092 0.328839
Si Si3 0.122406 0.791012 0.834824
Si Si4 0.441277 0.625386 0.777841
Si Si5 0.495367 0.058565 0.665404
Si Si6 0.951083 0.706722 0.736002
Si Si7 0.731170 0.810174 0.024960
Si Si8 0.301861 0.654700 0.316692
O O1 0.560509 0.027755 0.308535
O O2 0.975753 0.695514 0.603534
O O3 0.891108 0.843453 0.321169
O O4 0.650515 0.161967 0.351280
O O5 0.240920 0.366797 0.501791
O O6 0.244701 0.568978 0.331263
O O7 0.928282 0.707779 0.161815
O O8 0.205601 0.773213 0.734488
O O9 0.978874 0.805432 0.775912
O O10 0.368197 0.529734 0.033053
O O11 0.947347 0.038195 0.804028
O O12 0.574411 0.429762 0.757763
O O13 0.674315 0.917399 0.635904
O O14 0.639298 0.961843 0.842933
O O15 0.146016 0.430997 0.909535
O O16 0.500000 0.000000 0.000000
O O17 0.500000 0.500000 0.500000
#
# Coordination Sequence:
#
# PCOD8036209 Si02
#       8
#     2   2   2   2   2   2   2   2
#     4  12  23  45  72 101 148 188 234 301 362 433
#     4  12  26  47  73 108 148 191 244 300 365 439
#     4  11  26  50  69 108 142 188 249 298 364 429
#     4  11  26  46  74 102 144 190 241 308 359 429
#     4  12  25  46  70 108 147 188 243 293 369 437
#     4  12  27  44  75 103 146 190 240 300 362 438
#     4  12  26  46  72 109 145 193 239 296 370 437
#     4  12  27  48  74 105 143 192 248 298 369 433
#
# _framework density 22.901774
#
# number of rings (size 3 to 8) (size 9 to 14) (size 15 to 20)
#    0.000    0.250    3.750    5.250    5.250    1.000 
#    4.500    0.000    0.000    0.000    0.000    0.000 
#    0.000    0.000    0.000    0.000    0.000    0.000 
#
# Total GULP energy -198512.243082 kJ/mol
# GULP energy per Si atom -12407.015193 kJ/mol
# Density = 2.284965 g / cm^3
# Si number density = 22.901774 Si / 1000 Ang^3
#
#
#
# Elastic Constant Matrix: (Units=GPa)
#
#
# Indices 1 2 3 4 5 6 
#
# 1 100.8408 33.4034 9.8139 -7.5121 13.1772 3.3334
# 2 33.4034 117.6036 5.5317 -2.3300 -0.1034 -10.4391
# 3 9.8139 5.5317 105.5499 7.0134 10.4596 11.2739
# 4 -7.5121 -2.3300 7.0134 39.8259 -1.8542 0.8127
# 5 13.1772 -0.1034 10.4596 -1.8542 25.7799 1.0345
# 6 3.3334 -10.4391 11.2739 0.8127 1.0345 32.9341
#
#
#
# Elastic Compliance Matrix: (Units=1/GPa)
#
#
# Indices 1 2 3 4 5 6 
#
# 1 0.012108 -0.003585 -0.000253 0.001889 -0.005879 -0.002137
# 2 -0.003585 0.009890 -0.000787 0.000061 0.002047 0.003701
# 3 -0.000253 -0.000787 0.010472 -0.002056 -0.004125 -0.003628
# 4 0.001889 0.000061 -0.002056 0.025915 0.001739 -0.000162
# 5 -0.005879 0.002047 -0.004125 0.001739 0.043552 0.001245
# 6 -0.002137 0.003701 -0.003628 -0.000162 0.001245 0.032960
#
#
# Mechanical properties :
#
#
# Convention : Reuss Voigt Hill
#
# Bulk Modulus (GPa) = 43.06454 46.83249 44.94851
# Shear Modulus (GPa) = 32.91916 38.05765 35.48840
#
# Velocity S-wave (km/s) = 3.79543 4.08091 3.94076
# Velocity P-wave (km/s) = 6.16862 6.53443 6.35416
#
# Compressibility (1/GPa) = 0.02322096
#
# Stress axis : x y z
#
# Youngs Moduli (GPa) = 82.58824 101.11309 95.49403
#
# Poissons Ratio (x) = 0.36247 0.02411
# Poissons Ratio (y) = 0.29606 0.07518
# Poissons Ratio (z) = 0.02086 0.07960
#
# Static dielectric constant tensor:
#      x y z
#    x 4.320760 0.056000 -0.025180 
#    y 0.056000 4.383330 0.033110 
#    z -0.025180 0.033110 4.261350 
# 
# 
# High freq. dielectric constant tensor:
#      x y z
#    x 1.908670 -0.005150 0.002720 
#    y -0.005150 1.910790 0.001990 
#    z 0.002720 0.001990 1.913340 
# 
# From -- ./inp_files/427973.got.cif
#   From: 2010.06.25/outbox.cif.g09.slc.cpg/sg2_214_cif.got.tgz:427973.got - 2010.06.27 13:26:56.
