data_PCOD8036167
_publ_section_title
;
Structure prediction by ZEFSAII (Michael W. Deem and Ramdas Pophale) SiO2 
 PCOD8036167
Probable space group: P -1
;
_chemical_formula_sum "Si O2"
_cell_formula_units_Z 12
_cell_length_a 4.846032
_cell_length_b 8.839098
_cell_length_c 14.336297
_cell_angle_alpha 127.327745
_cell_angle_beta 110.509018
_cell_angle_gamma 80.546140
_cell_volume 456.402050
_symmetry_space_group_name_H-M "P -1"
_symmetry_group_IT_number 2
_symmetry_cell_setting 'triclinic'
loop_
_space_group_symop_operation_xyz
x,y,z
-x,-y,-z
loop_
_atom_site_type_symbol
_atom_site_label
_atom_site_fract_x
_atom_site_fract_y
_atom_site_fract_z
Si Si1 0.609686 0.626861 0.472231
Si Si2 0.136806 0.888247 0.558448
Si Si3 0.516019 0.711321 0.788513
Si Si4 0.002469 0.042019 0.125530
Si Si5 0.283185 0.416883 0.047705
Si Si6 0.526606 0.193191 0.835823
O O1 0.500000 0.500000 0.500000
O O2 0.348357 0.763094 0.476136
O O3 0.653394 0.483444 0.337621
O O4 0.917173 0.760706 0.554708
O O5 0.322560 0.029288 0.701789
O O6 0.000000 0.000000 0.500000
O O7 0.734886 0.792722 0.763408
O O8 0.738163 0.669907 0.884385
O O9 0.301115 0.879504 0.846710
O O10 0.126062 0.862553 0.131699
O O11 0.000000 0.000000 0.000000
O O12 0.504359 0.608287 0.149758
O O13 0.408610 0.238275 0.941648
O O14 0.000000 0.500000 0.000000
#
# Coordination Sequence:
#
# PCOD8036167 Si02
#       6
#     2   2   2   2   2   2
#     4  12  28  52  76 113 156 212 262 321 392 463
#     4  12  28  50  81 112 156 207 270 321 388 468
#     4  12  27  48  77 108 154 198 254 317 386 465
#     4  12  25  47  73 113 149 193 252 313 390 462
#     4  11  26  45  75 110 154 195 252 323 403 454
#     4  11  27  45  73 111 150 198 253 323 388 466
#
# _framework density 26.292611000000001
#
# number of rings (size 3 to 8) (size 9 to 14) (size 15 to 20)
#    0.000    0.333    1.667    5.500    9.333    2.667 
#    0.000    0.000    0.000    0.000    0.000    0.000 
#    0.000    0.000    0.000    0.000    0.000    0.000 
#
# Total GULP energy -148657.024000 kJ/mol
# GULP energy per Si atom -12388.085333 kJ/mol
# Density = 2.623277 g / cm^3
# Si number density = 26.292611 Si / 1000 Ang^3
#
#
#
# Elastic Constant Matrix: (Units=GPa)
#
#
# Indices 1 2 3 4 5 6 
#
# 1 125.6054 47.5216 31.4863 17.7313 2.4343 -12.9416
# 2 47.5216 159.9979 88.3588 19.3974 6.6325 -20.7132
# 3 31.4863 88.3588 92.3693 23.3947 0.4655 -5.8964
# 4 17.7313 19.3974 23.3947 42.3576 -3.6166 -2.2940
# 5 2.4343 6.6325 0.4655 -3.6166 33.0324 4.7786
# 6 -12.9416 -20.7132 -5.8964 -2.2940 4.7786 51.5679
#
#
#
# Elastic Compliance Matrix: (Units=1/GPa)
#
#
# Indices 1 2 3 4 5 6 
#
# 1 0.009382 -0.001910 -0.000584 -0.002719 -0.000811 0.001475
# 2 -0.001910 0.014859 -0.013654 0.001503 -0.003105 0.004282
# 3 -0.000584 -0.013654 0.025841 -0.007775 0.002034 -0.003211
# 4 -0.002719 0.001503 -0.007775 0.028622 0.003140 0.000015
# 5 -0.000811 -0.003105 0.002034 0.003140 0.031855 -0.004030
# 6 0.001475 0.004282 -0.003211 0.000015 -0.004030 0.021489
#
#
# Mechanical properties :
#
#
# Convention : Reuss Voigt Hill
#
# Bulk Modulus (GPa) = 56.22769 79.18956 67.70863
# Shear Modulus (GPa) = 29.36474 39.43198 34.39836
#
# Velocity S-wave (km/s) = 3.34555 3.87684 3.62095
# Velocity P-wave (km/s) = 6.02954 7.08688 6.57948
#
# Compressibility (1/GPa) = 0.01778483
#
# Stress axis : x y z
#
# Youngs Moduli (GPa) = 106.58727 67.30016 38.69840
#
# Poissons Ratio (x) = 0.12852 0.02261
# Poissons Ratio (y) = 0.20354 0.52840
# Poissons Ratio (z) = 0.06228 0.91895
#
# Static dielectric constant tensor:
#      x y z
#    x 5.237180 0.425110 0.324780 
#    y 0.425110 5.448620 0.935360 
#    z 0.324780 0.935360 4.446360 
# 
# 
# High freq. dielectric constant tensor:
#      x y z
#    x 2.064340 0.007360 0.015850 
#    y 0.007360 2.085450 0.029210 
#    z 0.015850 0.029210 2.058330 
# 
# From -- ./inp_files/480129.got.cif
#   From: 2010.06.25/outbox.cif.g09.slc.cpg/sg2_241_cif.got.tgz:480129.got - 2010.06.27 13:26:56.
