data_PCOD8036870
_publ_section_title
;
Structure prediction by ZEFSAII (Michael W. Deem and Ramdas Pophale) SiO2 
 PCOD8036870
Probable space group: P -1
;
_chemical_formula_sum "Si O2"
_cell_formula_units_Z 12
_cell_length_a 13.161518
_cell_length_b 12.252535
_cell_length_c 11.783888
_cell_angle_alpha 134.123177
_cell_angle_beta 131.817770
_cell_angle_gamma 22.060991
_cell_volume 510.715979
_symmetry_space_group_name_H-M "P -1"
_symmetry_group_IT_number 2
_symmetry_cell_setting 'triclinic'
loop_
_space_group_symop_operation_xyz
x,y,z
-x,-y,-z
loop_
_atom_site_type_symbol
_atom_site_label
_atom_site_fract_x
_atom_site_fract_y
_atom_site_fract_z
Si Si1 0.248400 0.644244 0.945844
Si Si2 0.093226 0.281351 0.688855
Si Si3 0.945739 0.104848 0.407263
Si Si4 0.386936 0.238308 0.167633
Si Si5 0.742591 0.694590 0.385182
Si Si6 0.609392 0.494828 0.797539
O O1 0.251126 0.495019 0.756615
O O2 0.500000 0.500000 0.000000
O O3 0.303662 0.531081 0.032295
O O4 0.000000 0.000000 0.000000
O O5 0.227982 0.268269 0.692400
O O6 0.906286 0.325060 0.530947
O O7 0.875264 0.573660 0.822171
O O8 0.355589 0.954292 0.706921
O O9 0.704196 0.247425 0.267414
O O10 0.000000 0.000000 0.500000
O O11 0.214733 0.822404 0.328983
O O12 0.289972 0.473257 0.190971
O O13 0.500000 0.000000 0.000000
O O14 0.000000 0.500000 0.500000
O O15 0.500000 0.000000 0.500000
#
# Coordination Sequence:
#
# PCOD8036870 Si02
#       6
#     2   2   2   2   2   2
#     4  12  29  51  76 109 147 200 258 312 377 448
#     4  12  26  44  72 105 149 184 248 305 369 450
#     4  12  23  43  72 110 142 190 239 291 376 446
#     4  12  24  43  71 105 143 192 235 304 381 447
#     4  12  29  52  78 108 149 201 259 317 378 446
#     4  12  25  44  72 103 150 187 241 303 368 446
#
# _framework density 23.496426
#
# number of rings (size 3 to 8) (size 9 to 14) (size 15 to 20)
#    0.000    0.000    3.333    6.000    7.000    2.667 
#    0.000    0.000    0.000    0.000    0.000    0.000 
#    0.000    0.000    0.000    0.000    0.000    0.000 
#
# Total GULP energy -148716.794983 kJ/mol
# GULP energy per Si atom -12393.066249 kJ/mol
# Density = 2.344295 g / cm^3
# Si number density = 23.496426 Si / 1000 Ang^3
#
#
#
# Elastic Constant Matrix: (Units=GPa)
#
#
# Indices 1 2 3 4 5 6 
#
# 1 120.2061 55.6623 50.1977 11.4207 0.2006 -16.8714
# 2 55.6623 171.1813 60.5634 6.7296 -9.5849 -16.2158
# 3 50.1977 60.5634 142.3485 10.6995 7.5998 1.7823
# 4 11.4207 6.7296 10.6995 54.5808 1.9040 -7.3690
# 5 0.2006 -9.5849 7.5998 1.9040 44.3630 2.9441
# 6 -16.8714 -16.2158 1.7823 -7.3690 2.9441 39.4274
#
#
#
# Elastic Compliance Matrix: (Units=1/GPa)
#
#
# Indices 1 2 3 4 5 6 
#
# 1 0.011219 -0.002201 -0.002984 -0.000961 -0.000231 0.003868
# 2 -0.002201 0.007838 -0.002714 0.000268 0.002004 0.002305
# 3 -0.002984 -0.002714 0.009464 -0.001220 -0.001949 -0.002903
# 4 -0.000961 0.000268 -0.001220 0.019215 -0.000779 0.003404
# 5 -0.000231 0.002004 -0.001949 -0.000779 0.023414 -0.001080
# 6 0.003868 0.002305 -0.002903 0.003404 -0.001080 0.028814
#
#
# Mechanical properties :
#
#
# Convention : Reuss Voigt Hill
#
# Bulk Modulus (GPa) = 78.60081 85.17585 81.88833
# Shear Modulus (GPa) = 41.66531 45.49508 43.58020
#
# Velocity S-wave (km/s) = 4.21558 4.40506 4.31136
# Velocity P-wave (km/s) = 7.56437 7.88683 7.72728
#
# Compressibility (1/GPa) = 0.01272251
#
# Stress axis : x y z
#
# Youngs Moduli (GPa) = 89.13636 127.58571 105.66169
#
# Poissons Ratio (x) = 0.28083 0.31525
# Poissons Ratio (y) = 0.19620 0.28681
# Poissons Ratio (z) = 0.26595 0.34632
#
# Static dielectric constant tensor:
#      x y z
#    x 4.779470 0.458830 -0.205340 
#    y 0.458830 4.630800 -0.288060 
#    z -0.205340 -0.288060 4.143670 
# 
# 
# High freq. dielectric constant tensor:
#      x y z
#    x 1.930620 -0.007280 -0.003320 
#    y -0.007280 1.946900 0.001330 
#    z -0.003320 0.001330 1.942760 
# 
# From -- ./inp_files/378198.got.cif
#   From: 2010.06.25/outbox.cif.g09.slc.cpg/sg2_190_cif.got.tgz:378198.got - 2010.06.27 13:26:56.
