data_PCOD8036622
_publ_section_title
;
Structure prediction by ZEFSAII (Michael W. Deem and Ramdas Pophale) SiO2 
 PCOD8036622
Probable space group: P -1
;
_chemical_formula_sum "Si O2"
_cell_formula_units_Z 16
_cell_length_a 11.467037
_cell_length_b 17.915036
_cell_length_c 9.583644
_cell_angle_alpha 51.575848
_cell_angle_beta 59.215782
_cell_angle_gamma 28.432261
_cell_volume 731.186371
_symmetry_space_group_name_H-M "P -1"
_symmetry_group_IT_number 2
_symmetry_cell_setting 'triclinic'
loop_
_space_group_symop_operation_xyz
x,y,z
-x,-y,-z
loop_
_atom_site_type_symbol
_atom_site_label
_atom_site_fract_x
_atom_site_fract_y
_atom_site_fract_z
Si Si1 0.982499 0.926723 0.305398
Si Si2 0.101219 0.129815 0.846323
Si Si3 0.424894 0.494201 0.192432
Si Si4 0.692507 0.824703 0.499991
Si Si5 0.708790 0.399409 0.376567
Si Si6 0.626804 0.151181 0.784923
Si Si7 0.565581 0.205386 0.436984
Si Si8 0.120204 0.498257 0.813865
O O1 0.035218 0.792037 0.497126
O O2 0.238723 0.834536 0.249685
O O3 0.868412 0.972390 0.169108
O O4 0.793816 0.095037 0.322685
O O5 0.209419 0.167365 0.692891
O O6 0.813557 0.312451 0.831697
O O7 0.240365 0.018307 0.031926
O O8 0.646582 0.379792 0.297166
O O9 0.387449 0.402040 0.309757
O O10 0.500000 0.500000 0.000000
O O11 0.569522 0.806888 0.524453
O O12 0.912334 0.655665 0.654251
O O13 0.500000 0.000000 0.500000
O O14 0.500000 0.500000 0.500000
O O15 0.752032 0.484584 0.213954
O O16 0.658145 0.130313 0.623722
O O17 0.337403 0.317426 0.807487
O O18 0.000000 0.500000 0.000000
#
# Coordination Sequence:
#
# PCOD8036622 Si02
#       8
#     2   2   2   2   2   2   2   2
#     4  12  23  45  78 102 142 190 243 296 353 427
#     4  12  25  46  73 102 145 192 234 291 356 438
#     4  12  27  44  69 110 145 182 237 301 362 412
#     4  12  25  50  72 101 144 193 240 286 364 440
#     4  12  21  46  74 102 143 189 241 297 353 422
#     4  12  26  44  72 111 141 183 246 299 361 415
#     4  12  27  46  74 105 145 186 236 306 359 423
#     4  12  26  44  75 107 146 193 244 292 352 439
#
# _framework density 21.882245999999999
#
# number of rings (size 3 to 8) (size 9 to 14) (size 15 to 20)
#    0.000    0.000    6.250    3.000    3.500    2.500 
#    0.000    0.000    0.000    0.000    0.000    0.000 
#    0.000    0.000    0.000    0.000    0.000    0.000 
#
# Total GULP energy -198440.927620 kJ/mol
# GULP energy per Si atom -12402.557976 kJ/mol
# Density = 2.183244 g / cm^3
# Si number density = 21.882246 Si / 1000 Ang^3
#
#
#
# Elastic Constant Matrix: (Units=GPa)
#
#
# Indices 1 2 3 4 5 6 
#
# 1 129.8949 29.5742 55.6981 3.2023 -11.7147 6.5341
# 2 29.5742 107.3214 47.4369 -0.0587 7.2853 -1.4488
# 3 55.6981 47.4369 161.5054 -2.4506 -6.5538 4.2759
# 4 3.2023 -0.0587 -2.4506 43.0019 -5.6413 -0.4659
# 5 -11.7147 7.2853 -6.5538 -5.6413 40.6134 3.4502
# 6 6.5341 -1.4488 4.2759 -0.4659 3.4502 33.7207
#
#
#
# Elastic Compliance Matrix: (Units=1/GPa)
#
#
# Indices 1 2 3 4 5 6 
#
# 1 0.009571 -0.001673 -0.002658 -0.000530 0.002718 -0.001875
# 2 -0.001673 0.011303 -0.002918 -0.000426 -0.003167 0.001498
# 3 -0.002658 -0.002918 0.008047 0.000806 0.001231 -0.000746
# 4 -0.000530 -0.000426 0.000806 0.023780 0.003359 -0.000033
# 5 0.002718 -0.003167 0.001231 0.003359 0.026939 -0.003529
# 6 -0.001875 0.001498 -0.000746 -0.000033 -0.003529 0.030538
#
#
# Mechanical properties :
#
#
# Convention : Reuss Voigt Hill
#
# Bulk Modulus (GPa) = 69.32182 73.79335 71.55759
# Shear Modulus (GPa) = 38.61453 41.20136 39.90795
#
# Velocity S-wave (km/s) = 4.20533 4.34391 4.27518
# Velocity P-wave (km/s) = 7.43828 7.67825 7.55922
#
# Compressibility (1/GPa) = 0.01442547
#
# Stress axis : x y z
#
# Youngs Moduli (GPa) = 104.47684 88.46832 124.26722
#
# Poissons Ratio (x) = 0.14800 0.33026
# Poissons Ratio (y) = 0.17479 0.36258
# Poissons Ratio (z) = 0.27766 0.25813
#
# Static dielectric constant tensor:
#      x y z
#    x 3.935700 -0.001220 -0.192830 
#    y -0.001220 4.104780 -0.107750 
#    z -0.192830 -0.107750 4.139480 
# 
# 
# High freq. dielectric constant tensor:
#      x y z
#    x 1.859240 -0.002120 -0.004030 
#    y -0.002120 1.867250 -0.004390 
#    z -0.004030 -0.004390 1.874090 
# 
# From -- ./inp_files/262507.got.cif
#   From: 2010.06.25/outbox.cif.g09.slc.cpg/sg2_132_cif.got.tgz:262507.got - 2010.06.27 13:26:56.
