data_PCOD8036389
_publ_section_title
;
Structure prediction by ZEFSAII (Michael W. Deem and Ramdas Pophale) SiO2 
 PCOD8036389
Probable space group: P -1
;
_chemical_formula_sum "Si O2"
_cell_formula_units_Z 16
_cell_length_a 24.502671
_cell_length_b 18.249893
_cell_length_c 6.539460
_cell_angle_alpha 99.091553
_cell_angle_beta 108.918076
_cell_angle_gamma 17.228244
_cell_volume 688.917166
_symmetry_space_group_name_H-M "P -1"
_symmetry_group_IT_number 2
_symmetry_cell_setting 'triclinic'
loop_
_space_group_symop_operation_xyz
x,y,z
-x,-y,-z
loop_
_atom_site_type_symbol
_atom_site_label
_atom_site_fract_x
_atom_site_fract_y
_atom_site_fract_z
Si Si1 0.047900 0.903113 0.801796
Si Si2 0.021167 0.210832 0.885316
Si Si3 0.760468 0.196230 0.247021
Si Si4 0.904716 0.545941 0.301550
Si Si5 0.297069 0.984380 0.287060
Si Si6 0.400920 0.969929 0.069074
Si Si7 0.699327 0.711141 0.491164
Si Si8 0.347112 0.414034 0.146097
O O1 0.156838 0.832458 0.772183
O O2 0.246921 0.595684 0.940259
O O3 0.824023 0.139100 0.535650
O O4 0.000000 0.000000 0.000000
O O5 0.921931 0.412045 0.761206
O O6 0.851489 0.393298 0.934701
O O7 0.081992 0.069962 0.739145
O O8 0.256315 0.949080 0.158194
O O9 0.500000 0.500000 0.000000
O O10 0.755355 0.688578 0.349454
O O11 0.000000 0.500000 0.500000
O O12 0.101773 0.248066 0.327661
O O13 0.754589 0.762229 0.023481
O O14 0.284379 0.052642 0.102439
O O15 0.542233 0.683709 0.564557
O O16 0.625665 0.719041 0.345656
O O17 0.455290 0.875270 0.863380
O O18 0.500000 0.000000 0.500000
#
# Coordination Sequence:
#
# PCOD8036389 Si02
#       8
#     2   2   2   2   2   2   2   2
#     4  11  26  49  77 106 147 189 237 299 367 440
#     4  12  26  47  70 107 146 189 244 297 365 437
#     4  11  28  48  77 110 148 188 242 304 367 436
#     4  12  23  43  65 104 144 188 248 298 356 430
#     4  12  27  44  72 105 146 191 242 303 359 430
#     4  12  24  45  71  97 146 191 240 298 366 425
#     4  12  24  43  73 103 144 193 242 296 363 430
#     4  12  26  47  72 105 143 190 240 296 365 435
#
# _framework density 23.224851000000001
#
# number of rings (size 3 to 8) (size 9 to 14) (size 15 to 20)
#    0.000    0.250    3.750    5.250    3.500    1.500 
#    0.000    0.000    0.000    0.000    0.000    0.000 
#    0.000    0.000    0.000    0.000    0.000    0.000 
#
# Total GULP energy -198318.035305 kJ/mol
# GULP energy per Si atom -12394.877207 kJ/mol
# Density = 2.317199 g / cm^3
# Si number density = 23.224851 Si / 1000 Ang^3
#
#
#
# Elastic Constant Matrix: (Units=GPa)
#
#
# Indices 1 2 3 4 5 6 
#
# 1 139.0852 40.8287 63.3749 -1.3061 14.6161 -9.9910
# 2 40.8287 86.6016 37.5508 3.0291 -3.0531 -5.3517
# 3 63.3749 37.5508 130.2817 0.5311 19.3367 -1.1850
# 4 -1.3061 3.0291 0.5311 39.2669 0.5302 -6.1870
# 5 14.6161 -3.0531 19.3367 0.5302 43.6797 -5.5527
# 6 -9.9910 -5.3517 -1.1850 -6.1870 -5.5527 41.5006
#
#
#
# Elastic Compliance Matrix: (Units=1/GPa)
#
#
# Indices 1 2 3 4 5 6 
#
# 1 0.010147 -0.003132 -0.003764 0.000943 -0.001725 0.001841
# 2 -0.003132 0.014680 -0.003240 -0.001024 0.003697 0.001389
# 3 -0.003764 -0.003240 0.011028 -0.000219 -0.004047 -0.001583
# 4 0.000943 -0.001024 -0.000219 0.026209 -0.000102 0.003982
# 5 -0.001725 0.003697 -0.004047 -0.000102 0.025955 0.003403
# 6 0.001841 0.001389 -0.001583 0.003982 0.003403 0.025722
#
#
# Mechanical properties :
#
#
# Convention : Reuss Voigt Hill
#
# Bulk Modulus (GPa) = 64.17065 71.05303 67.61184
# Shear Modulus (GPa) = 35.91766 39.17038 37.54402
#
# Velocity S-wave (km/s) = 3.93685 4.11124 4.02499
# Velocity P-wave (km/s) = 6.95379 7.29359 7.12571
#
# Compressibility (1/GPa) = 0.01558345
#
# Stress axis : x y z
#
# Youngs Moduli (GPa) = 98.55384 68.11845 90.67963
#
# Poissons Ratio (x) = 0.21332 0.34134
# Poissons Ratio (y) = 0.30863 0.29379
# Poissons Ratio (z) = 0.37098 0.22070
#
# Static dielectric constant tensor:
#      x y z
#    x 4.129470 0.113180 0.369990 
#    y 0.113180 4.205040 -0.109770 
#    z 0.369990 -0.109770 4.422710 
# 
# 
# High freq. dielectric constant tensor:
#      x y z
#    x 1.928190 0.002290 0.010910 
#    y 0.002290 1.909290 -0.002020 
#    z 0.010910 -0.002020 1.940370 
# 
# From -- ./inp_files/124837.got.cif
#   From: 2010.06.25/outbox.cif.g09.slc.cpg/sg2_63_cif.got.tgz:124837.got - 2010.06.27 13:26:56.
