data_PCOD8036816
_publ_section_title
;
Structure prediction by ZEFSAII (Michael W. Deem and Ramdas Pophale) SiO2 
 PCOD8036816
Probable space group: P -1
;
_chemical_formula_sum "Si O2"
_cell_formula_units_Z 16
_cell_length_a 9.444692
_cell_length_b 24.208321
_cell_length_c 11.937043
_cell_angle_alpha 138.492146
_cell_angle_beta 126.702055
_cell_angle_gamma 28.643810
_cell_volume 851.677256
_symmetry_space_group_name_H-M "P -1"
_symmetry_group_IT_number 2
_symmetry_cell_setting 'triclinic'
loop_
_space_group_symop_operation_xyz
x,y,z
-x,-y,-z
loop_
_atom_site_type_symbol
_atom_site_label
_atom_site_fract_x
_atom_site_fract_y
_atom_site_fract_z
Si Si1 0.465008 0.348996 0.223155
Si Si2 0.325798 0.908688 0.046190
Si Si3 0.265713 0.664871 0.462442
Si Si4 0.281400 0.950168 0.544728
Si Si5 0.775946 0.952874 0.569085
Si Si6 0.334679 0.089004 0.942576
Si Si7 0.799686 0.345049 0.218876
Si Si8 0.066924 0.331675 0.534312
O O1 0.583206 0.329128 0.370798
O O2 0.676923 0.308482 0.166046
O O3 0.123908 0.511879 0.295328
O O4 0.458631 0.251607 0.065718
O O5 0.475478 0.908834 0.020993
O O6 0.270683 0.981955 0.240106
O O7 0.000000 0.000000 0.000000
O O8 0.519932 0.507910 0.291513
O O9 0.094400 0.781297 0.461210
O O10 0.017057 0.706171 0.472540
O O11 0.581586 0.782463 0.459038
O O12 0.241722 0.980507 0.441805
O O13 0.292100 0.029215 0.745537
O O14 0.000000 0.000000 0.500000
O O15 0.500000 0.000000 0.500000
O O16 0.999643 0.247021 0.056577
O O17 0.500000 0.000000 0.000000
O O18 0.000719 0.321176 0.363986
#
# Coordination Sequence:
#
# PCOD8036816 Si02
#       8
#     2   2   2   2   2   2   2   2
#     4   9  19  36  66  93 117 156 215 257 295 362
#     4  12  24  39  65  96 121 162 216 254 299 368
#     4   9  17  37  64  92 117 164 207 247 307 363
#     4  12  27  42  62  93 128 168 203 252 321 368
#     4  12  23  42  64  87 130 168 203 250 306 375
#     4  12  24  41  63  93 128 161 207 262 307 359
#     4   9  19  36  66  91 122 157 204 262 306 354
#     4   9  17  39  62  89 122 162 206 253 301 364
#
# _framework density 18.786458
#
# number of rings (size 3 to 8) (size 9 to 14) (size 15 to 20)
#    0.000    1.500    5.000    2.250    3.500    0.000 
#    2.250    3.750    0.000    0.000    0.000    0.000 
#    0.000    0.000    0.000    0.000    0.000    0.000 
#
# Total GULP energy -198319.098321 kJ/mol
# GULP energy per Si atom -12394.943645 kJ/mol
# Density = 1.874370 g / cm^3
# Si number density = 18.786458 Si / 1000 Ang^3
#
#
#
# Elastic Constant Matrix: (Units=GPa)
#
#
# Indices 1 2 3 4 5 6 
#
# 1 121.2204 56.0774 45.8299 5.1214 2.2817 -8.6701
# 2 56.0774 146.2414 47.5600 16.3016 2.8846 -8.1778
# 3 45.8299 47.5600 82.5497 12.9178 -1.5692 -3.9608
# 4 5.1214 16.3016 12.9178 31.8887 -0.0993 0.7315
# 5 2.2817 2.8846 -1.5692 -0.0993 32.8712 1.1578
# 6 -8.6701 -8.1778 -3.9608 0.7315 1.1578 34.4654
#
#
#
# Elastic Compliance Matrix: (Units=1/GPa)
#
#
# Indices 1 2 3 4 5 6 
#
# 1 0.011506 -0.002882 -0.004911 0.001575 -0.000833 0.001641
# 2 -0.002882 0.009450 -0.003323 -0.003052 -0.000840 0.001228
# 3 -0.004911 -0.003323 0.017504 -0.004599 0.001453 0.000036
# 4 0.001575 -0.003052 -0.004599 0.034567 0.000099 -0.001594
# 5 -0.000833 -0.000840 0.001453 0.000099 0.030668 -0.001274
# 6 0.001641 0.001228 0.000036 -0.001594 -0.001274 0.029800
#
#
# Mechanical properties :
#
#
# Convention : Reuss Voigt Hill
#
# Bulk Modulus (GPa) = 61.62739 72.10513 66.86626
# Shear Modulus (GPa) = 31.02975 33.21468 32.12222
#
# Velocity S-wave (km/s) = 4.06853 4.20934 4.13953
# Velocity P-wave (km/s) = 7.41255 7.87968 7.64969
#
# Compressibility (1/GPa) = 0.01622655
#
# Stress axis : x y z
#
# Youngs Moduli (GPa) = 86.91159 105.82463 57.12927
#
# Poissons Ratio (x) = 0.30502 0.28055
# Poissons Ratio (y) = 0.25051 0.18987
# Poissons Ratio (z) = 0.42680 0.35171
#
# Static dielectric constant tensor:
#      x y z
#    x 3.361260 -0.013660 0.028250 
#    y -0.013660 3.666050 0.267450 
#    z 0.028250 0.267450 3.445820 
# 
# 
# High freq. dielectric constant tensor:
#      x y z
#    x 1.718920 -0.001070 -0.000170 
#    y -0.001070 1.740640 0.014770 
#    z -0.000170 0.014770 1.722630 
# 
# From -- ./inp_files/257007.got.cif
#   From: 2010.06.25/outbox.cif.g09.slc.cpg/sg2_129_cif.got.tgz:257007.got - 2010.06.27 13:26:56.
