data_PCOD8036528
_publ_section_title
;
Structure prediction by ZEFSAII (Michael W. Deem and Ramdas Pophale) SiO2 
 PCOD8036528
Probable space group: P -1
;
_chemical_formula_sum "Si O2"
_cell_formula_units_Z 14
_cell_length_a 8.665914
_cell_length_b 12.624638
_cell_length_c 11.711457
_cell_angle_alpha 49.136266
_cell_angle_beta 141.832499
_cell_angle_gamma 121.382959
_cell_volume 598.744621
_symmetry_space_group_name_H-M "P -1"
_symmetry_group_IT_number 2
_symmetry_cell_setting 'triclinic'
loop_
_space_group_symop_operation_xyz
x,y,z
-x,-y,-z
loop_
_atom_site_type_symbol
_atom_site_label
_atom_site_fract_x
_atom_site_fract_y
_atom_site_fract_z
Si Si1 0.089704 0.261527 0.603814
Si Si2 0.780175 0.556136 0.628163
Si Si3 0.785017 0.074818 0.388706
Si Si4 0.061881 0.293657 0.043319
Si Si5 0.397529 0.851742 0.002701
Si Si6 0.031038 0.832020 0.148475
Si Si7 0.593982 0.782547 0.518430
O O1 0.077183 0.417648 0.430203
O O2 0.384089 0.246355 0.758080
O O3 0.887905 0.164587 0.490313
O O4 0.055434 0.234625 0.735801
O O5 0.500000 0.500000 0.500000
O O6 0.771186 0.708789 0.578615
O O7 0.951452 0.449334 0.872828
O O8 0.620080 0.949095 0.432958
O O9 0.626528 0.158821 0.142228
O O10 0.000000 0.000000 0.500000
O O11 0.326178 0.292286 0.264126
O O12 0.865807 0.184920 0.065253
O O13 0.130711 0.238793 0.995985
O O14 0.500000 0.000000 0.000000
O O15 0.303602 0.765965 0.331311
O O16 0.000000 0.000000 0.000000
#
# Coordination Sequence:
#
# PCOD8036528 Si02
#       7
#     2   2   2   2   2   2   2
#     4  12  25  42  65 100 137 176 223 274 334 403
#     4  12  23  46  72  98 131 180 233 280 327 389
#     4  12  21  37  68 101 127 166 223 287 334 379
#     4  12  25  43  69  98 134 180 224 279 334 394
#     4  12  20  37  67  96 126 167 227 281 329 380
#     4  12  27  44  67 101 142 181 215 271 348 413
#     4  12  24  45  70 101 138 171 227 285 333 398
#
# _framework density 23.382256999999999
#
# number of rings (size 3 to 8) (size 9 to 14) (size 15 to 20)
#    0.000    0.000    7.143    3.857    0.000    4.000 
#    0.000    0.714    0.000    0.000    0.000    0.000 
#    0.000    0.000    0.000    0.000    0.000    0.000 
#
# Total GULP energy -173446.900779 kJ/mol
# GULP energy per Si atom -12389.064341 kJ/mol
# Density = 2.332904 g / cm^3
# Si number density = 23.382257 Si / 1000 Ang^3
#
#
#
# Elastic Constant Matrix: (Units=GPa)
#
#
# Indices 1 2 3 4 5 6 
#
# 1 84.2930 19.5302 24.3878 -10.0863 -37.9383 -4.5933
# 2 19.5302 59.3824 28.1051 -6.7695 -17.7540 -3.9880
# 3 24.3878 28.1051 142.4034 3.9666 -27.0643 -9.7816
# 4 -10.0863 -6.7695 3.9666 39.6476 -2.5063 -12.7150
# 5 -37.9383 -17.7540 -27.0643 -2.5063 45.6376 -0.9317
# 6 -4.5933 -3.9880 -9.7816 -12.7150 -0.9317 32.8981
#
#
#
# Elastic Compliance Matrix: (Units=1/GPa)
#
#
# Indices 1 2 3 4 5 6 
#
# 1 0.021741 -0.000103 0.000089 0.008944 0.018721 0.007037
# 2 -0.000103 0.021143 -0.002714 0.005610 0.006922 0.004106
# 3 0.000089 -0.002714 0.008476 -0.000328 0.004072 0.002192
# 4 0.008944 0.005610 -0.000328 0.034148 0.011612 0.015358
# 5 0.018721 0.006922 0.004072 0.011612 0.043431 0.010382
# 6 0.007037 0.004106 0.002192 0.015358 0.010382 0.038759
#
#
# Mechanical properties :
#
#
# Convention : Reuss Voigt Hill
#
# Bulk Modulus (GPa) = 21.78438 47.79166 34.78802
# Shear Modulus (GPa) = 26.53148 37.90703 32.21926
#
# Velocity S-wave (km/s) = 3.37216 4.03077 3.71608
# Velocity P-wave (km/s) = 4.94963 6.49203 5.77257
#
# Compressibility (1/GPa) = 0.04590446
#
# Stress axis : x y z
#
# Youngs Moduli (GPa) = 45.99605 47.29677 117.97709
#
# Poissons Ratio (x) = 0.00488 -0.01053
# Poissons Ratio (y) = 0.00475 0.32018
# Poissons Ratio (z) = -0.00410 0.12836
#
# Static dielectric constant tensor:
#      x y z
#    x 4.244510 0.132920 -0.696250 
#    y 0.132920 4.549690 -0.393090 
#    z -0.696250 -0.393090 4.969760 
# 
# 
# High freq. dielectric constant tensor:
#      x y z
#    x 1.901380 0.007260 -0.022980 
#    y 0.007260 1.911930 0.007040 
#    z -0.022980 0.007040 1.955760 
# 
# From -- ./inp_files/188504.got.cif
#   From: 2010.06.25/outbox.cif.g09.slc.cpg/sg2_95_cif.got.tgz:188504.got - 2010.06.27 13:26:56.
