data_PCOD8036973
_publ_section_title
;
Structure prediction by ZEFSAII (Michael W. Deem and Ramdas Pophale) SiO2 
 PCOD8036973
Probable space group: P -1
;
_chemical_formula_sum "Si O2"
_cell_formula_units_Z 16
_cell_length_a 9.075431
_cell_length_b 8.773164
_cell_length_c 16.661760
_cell_angle_alpha 86.502274
_cell_angle_beta 91.144204
_cell_angle_gamma 31.359873
_cell_volume 682.435145
_symmetry_space_group_name_H-M "P -1"
_symmetry_group_IT_number 2
_symmetry_cell_setting 'triclinic'
loop_
_space_group_symop_operation_xyz
x,y,z
-x,-y,-z
loop_
_atom_site_type_symbol
_atom_site_label
_atom_site_fract_x
_atom_site_fract_y
_atom_site_fract_z
Si Si1 0.996656 0.740688 0.315263
Si Si2 0.102348 0.872661 0.179943
Si Si3 0.535137 0.112144 0.555176
Si Si4 0.239380 0.396407 0.967843
Si Si5 0.497689 0.612538 0.921131
Si Si6 0.279313 0.037796 0.140262
Si Si7 0.579934 0.888362 0.713870
Si Si8 0.051414 0.775372 0.495087
O O1 0.204243 0.411944 0.321593
O O2 0.939888 0.833469 0.403556
O O3 0.128150 0.770826 0.270544
O O4 0.693687 0.965428 0.264538
O O5 0.221539 0.655605 0.120448
O O6 0.302076 0.847274 0.183804
O O7 0.770563 0.182063 0.144448
O O8 0.363560 0.421065 0.520654
O O9 0.500000 0.000000 0.500000
O O10 0.470597 0.118529 0.645195
O O11 0.866237 0.859762 0.559111
O O12 0.461975 0.139407 0.910448
O O13 0.453622 0.263317 0.044343
O O14 0.031726 0.703707 0.913682
O O15 0.000000 0.500000 0.000000
O O16 0.500000 0.500000 0.000000
O O17 0.265455 0.175071 0.205858
O O18 0.000000 0.000000 0.500000
#
# Coordination Sequence:
#
# PCOD8036973 Si02
#       8
#     2   2   2   2   2   2   2   2
#     4  12  26  47  68 106 143 186 235 292 358 434
#     4  12  26  44  71  99 139 183 232 290 363 421
#     4  12  23  48  75 102 141 196 239 291 358 431
#     4  12  27  44  71 101 138 178 239 297 349 419
#     4  12  23  46  71  95 131 186 232 288 351 424
#     4  12  26  48  65 105 140 182 234 291 358 426
#     4  12  27  45  73 101 146 188 235 290 358 435
#     4  12  26  46  74 109 145 184 247 302 353 424
#
# _framework density 23.445452
#
# number of rings (size 3 to 8) (size 9 to 14) (size 15 to 20)
#    0.000    0.000    5.000    4.500    7.000    0.000 
#    2.250    0.000    0.000    0.000    0.000    0.000 
#    0.000    0.000    0.000    0.000    0.000    0.000 
#
# Total GULP energy -198281.279580 kJ/mol
# GULP energy per Si atom -12392.579974 kJ/mol
# Density = 2.339209 g / cm^3
# Si number density = 23.445452 Si / 1000 Ang^3
#
#
#
# Elastic Constant Matrix: (Units=GPa)
#
#
# Indices 1 2 3 4 5 6 
#
# 1 95.4795 22.8452 27.9600 10.5534 15.4896 6.5739
# 2 22.8452 112.7520 13.8463 10.3784 12.4307 8.9659
# 3 27.9600 13.8463 68.7350 9.6863 2.5224 8.4656
# 4 10.5534 10.3784 9.6863 31.6888 -3.0320 0.8052
# 5 15.4896 12.4307 2.5224 -3.0320 28.2569 3.5342
# 6 6.5739 8.9659 8.4656 0.8052 3.5342 40.3773
#
#
#
# Elastic Compliance Matrix: (Units=1/GPa)
#
#
# Indices 1 2 3 4 5 6 
#
# 1 0.013580 -0.001093 -0.004525 -0.003431 -0.006884 -0.000349
# 2 -0.001093 0.010011 -0.000827 -0.002995 -0.003868 -0.001473
# 3 -0.004525 -0.000827 0.017316 -0.003322 0.001286 -0.002757
# 4 -0.003431 -0.002995 -0.003322 0.035372 0.007217 0.000583
# 5 -0.006884 -0.003868 0.001286 0.007217 0.041786 -0.002091
# 6 -0.000349 -0.001473 -0.002757 0.000583 -0.002091 0.025900
#
#
# Mechanical properties :
#
#
# Convention : Reuss Voigt Hill
#
# Bulk Modulus (GPa) = 35.69097 45.14107 40.41602
# Shear Modulus (GPa) = 30.08535 34.21892 32.15214
#
# Velocity S-wave (km/s) = 3.58607 3.82450 3.70720
# Velocity P-wave (km/s) = 5.69233 6.22879 5.96659
#
# Compressibility (1/GPa) = 0.02801829
#
# Stress axis : x y z
#
# Youngs Moduli (GPa) = 73.63707 99.88688 57.74939
#
# Poissons Ratio (x) = 0.10922 0.26130
# Poissons Ratio (y) = 0.08051 0.04773
# Poissons Ratio (z) = 0.33319 0.08256
#
# Static dielectric constant tensor:
#      x y z
#    x 5.276330 -1.321150 1.701830 
#    y -1.321150 4.530690 0.682880 
#    z 1.701830 0.682880 0.983000 
# 
# 
# High freq. dielectric constant tensor:
#      x y z
#    x 1.936510 -0.004040 -0.016210 
#    y -0.004040 1.935770 0.006850 
#    z -0.016210 0.006850 1.927740 
# 
# From -- ./inp_files/222246.got.cif
#   From: 2010.06.25/outbox.cif.g09.slc.cpg/sg2_112_cif.got.tgz:222246.got - 2010.06.27 13:26:56.
