data_PCOD8036442
_publ_section_title
;
Structure prediction by ZEFSAII (Michael W. Deem and Ramdas Pophale) SiO2 
 PCOD8036442
Probable space group: P -1
;
_chemical_formula_sum "Si O2"
_cell_formula_units_Z 16
_cell_length_a 14.406886
_cell_length_b 5.050957
_cell_length_c 8.647680
_cell_angle_alpha 103.679940
_cell_angle_beta 75.517521
_cell_angle_gamma 114.972143
_cell_volume 546.144653
_symmetry_space_group_name_H-M "P -1"
_symmetry_group_IT_number 2
_symmetry_cell_setting 'triclinic'
loop_
_space_group_symop_operation_xyz
x,y,z
-x,-y,-z
loop_
_atom_site_type_symbol
_atom_site_label
_atom_site_fract_x
_atom_site_fract_y
_atom_site_fract_z
Si Si1 0.342479 0.277906 0.104223
Si Si2 0.724036 0.320138 0.253351
Si Si3 0.071171 0.200624 0.277003
Si Si4 0.587914 0.883582 0.474256
Si Si5 0.560563 0.436557 0.185270
Si Si6 0.891769 0.330123 0.941386
Si Si7 0.149821 0.092654 0.548745
Si Si8 0.276235 0.808897 0.289952
O O1 0.457156 0.310297 0.113275
O O2 0.269010 0.939560 0.137935
O O3 0.294518 0.501144 0.236121
O O4 0.349807 0.313252 0.921910
O O5 0.696008 0.085612 0.371461
O O6 0.617642 0.219078 0.178530
O O7 0.758118 0.648812 0.362367
O O8 0.813918 0.310413 0.108000
O O9 0.119305 0.508695 0.197329
O O10 0.114250 0.248617 0.441628
O O11 0.114680 0.995170 0.136223
O O12 0.946263 0.068231 0.316510
O O13 0.500000 0.000000 0.500000
O O14 0.544816 0.554697 0.376868
O O15 0.617816 0.926528 0.650053
O O16 0.000000 0.500000 0.000000
O O17 0.183553 0.829676 0.437432
#
# Coordination Sequence:
#
# PCOD8036442 Si02
#       8
#     2   2   2   2   2   2   2   2
#     4  11  28  47  72 108 153 198 252 314 381 440
#     4  12  28  47  77 113 151 209 259 317 382 466
#     4  11  29  52  77 116 155 206 248 324 390 452
#     4  12  26  46  75 108 154 199 259 316 383 451
#     4  11  27  46  72 108 151 200 253 315 375 461
#     4  12  28  50  82 112 160 196 262 313 390 457
#     4  11  27  49  77 113 157 198 260 318 387 462
#     4  12  26  45  75 106 148 197 251 309 374 460
#
# _framework density 29.296271999999998
#
# number of rings (size 3 to 8) (size 9 to 14) (size 15 to 20)
#    0.000    0.500    3.750    1.875    8.750    6.000 
#    0.000    0.000    0.000    0.000    0.000    0.000 
#    0.000    0.000    0.000    0.000    0.000    0.000 
#
# Total GULP energy -198311.946595 kJ/mol
# GULP energy per Si atom -12394.496662 kJ/mol
# Density = 2.922959 g / cm^3
# Si number density = 29.296272 Si / 1000 Ang^3
#
#
#
# Elastic Constant Matrix: (Units=GPa)
#
#
# Indices 1 2 3 4 5 6 
#
# 1 108.8187 -15.6178 13.8611 9.5799 -4.7305 -17.2876
# 2 -15.6178 99.0595 21.4164 0.4547 4.6642 -3.4576
# 3 13.8611 21.4164 147.1362 -10.2980 -14.9299 -1.6120
# 4 9.5799 0.4547 -10.2980 59.0534 2.8534 2.7991
# 5 -4.7305 4.6642 -14.9299 2.8534 47.4380 6.6410
# 6 -17.2876 -3.4576 -1.6120 2.7991 6.6410 40.0112
#
#
#
# Elastic Compliance Matrix: (Units=1/GPa)
#
#
# Indices 1 2 3 4 5 6 
#
# 1 0.010655 0.002180 -0.001439 -0.002222 -0.000159 0.004916
# 2 0.002180 0.011038 -0.002023 -0.000809 -0.001759 0.002163
# 3 -0.001439 -0.002023 0.007573 0.001497 0.002490 -0.001010
# 4 -0.002222 -0.000809 0.001497 0.017684 -0.000436 -0.002134
# 5 -0.000159 -0.001759 0.002490 -0.000436 0.022584 -0.003839
# 6 0.004916 0.002163 -0.001010 -0.002134 -0.003839 0.028050
#
#
# Mechanical properties :
#
#
# Convention : Reuss Voigt Hill
#
# Bulk Modulus (GPa) = 37.44978 43.81486 40.63232
# Shear Modulus (GPa) = 45.85072 51.65751 48.75411
#
# Velocity S-wave (km/s) = 3.96039 4.20370 4.08386
# Velocity P-wave (km/s) = 5.80722 6.20884 6.01138
#
# Compressibility (1/GPa) = 0.02670243
#
# Stress axis : x y z
#
# Youngs Moduli (GPa) = 93.84827 90.59460 132.04973
#
# Poissons Ratio (x) = -0.19753 0.19001
# Poissons Ratio (y) = -0.20462 0.26720
# Poissons Ratio (z) = 0.13504 0.18332
#
# Static dielectric constant tensor:
#      x y z
#    x 6.187360 0.004310 0.271350 
#    y 0.004310 7.255510 -0.269890 
#    z 0.271350 -0.269890 5.815310 
# 
# 
# High freq. dielectric constant tensor:
#      x y z
#    x 2.234400 0.013360 -0.001990 
#    y 0.013360 2.195840 -0.010580 
#    z -0.001990 -0.010580 2.220220 
# 
# From -- ./inp_files/289004.got.cif
#   From: 2010.06.25/outbox.cif.g09.slc.cpg/sg2_145_cif.got.tgz:289004.got - 2010.06.27 13:26:56.
