data_PCOD8036925
_publ_section_title
;
Structure prediction by ZEFSAII (Michael W. Deem and Ramdas Pophale) SiO2 
 PCOD8036925
Probable space group: P -1
;
_chemical_formula_sum "Si O2"
_cell_formula_units_Z 14
_cell_length_a 5.453037
_cell_length_b 12.184869
_cell_length_c 9.083526
_cell_angle_alpha 98.897201
_cell_angle_beta 101.671707
_cell_angle_gamma 88.204590
_cell_volume 583.958891
_symmetry_space_group_name_H-M "P -1"
_symmetry_group_IT_number 2
_symmetry_cell_setting 'triclinic'
loop_
_space_group_symop_operation_xyz
x,y,z
-x,-y,-z
loop_
_atom_site_type_symbol
_atom_site_label
_atom_site_fract_x
_atom_site_fract_y
_atom_site_fract_z
Si Si1 0.223320 0.983663 0.635332
Si Si2 0.032702 0.101739 0.918059
Si Si3 0.250870 0.735039 0.535034
Si Si4 0.455081 0.826029 0.288802
Si Si5 0.832213 0.649453 0.266359
Si Si6 0.364121 0.587847 0.788688
Si Si7 0.092872 0.337191 0.040655
O O1 0.245161 0.853558 0.643406
O O2 0.466432 0.050245 0.618400
O O3 0.000000 0.000000 0.500000
O O4 0.192473 0.051915 0.795598
O O5 0.779344 0.157871 0.840729
O O6 0.158007 0.205443 0.040348
O O7 0.000000 0.000000 0.000000
O O8 0.415025 0.751416 0.413436
O O9 0.366035 0.647679 0.643289
O O10 0.984822 0.689421 0.436527
O O11 0.661502 0.753433 0.213148
O O12 0.675974 0.542144 0.272440
O O13 0.991921 0.628877 0.130436
O O14 0.643708 0.599549 0.888519
O O15 0.135224 0.631122 0.871865
#
# Coordination Sequence:
#
# PCOD8036925 Si02
#       7
#     2   2   2   2   2   2   2
#     4  12  23  45  69 108 141 194 248 307 382 451
#     4  12  27  44  74 107 151 193 251 315 380 454
#     4  12  27  47  75 109 152 195 253 313 377 453
#     4  12  24  44  77 101 151 196 251 302 390 441
#     4  12  26  50  77 106 151 201 255 308 381 450
#     4  12  31  47  79 114 153 200 260 316 369 445
#     4  12  26  53  73 114 151 202 255 313 381 446
#
# _framework density 23.974288000000001
#
# number of rings (size 3 to 8) (size 9 to 14) (size 15 to 20)
#    0.000    0.000    5.714    3.429    6.000    1.143 
#    0.000    0.000    0.000    0.000    0.000    0.000 
#    0.000    0.000    0.000    0.000    0.000    0.000 
#
# Total GULP energy -173501.169106 kJ/mol
# GULP energy per Si atom -12392.940650 kJ/mol
# Density = 2.391972 g / cm^3
# Si number density = 23.974288 Si / 1000 Ang^3
#
#
#
# Elastic Constant Matrix: (Units=GPa)
#
#
# Indices 1 2 3 4 5 6 
#
# 1 79.2758 15.4021 20.9363 14.0807 7.1450 12.6029
# 2 15.4021 162.3408 50.3670 10.8764 15.4041 36.6290
# 3 20.9363 50.3670 81.0189 -0.1744 -1.4096 0.6981
# 4 14.0807 10.8764 -0.1744 50.8891 6.0841 6.0554
# 5 7.1450 15.4041 -1.4096 6.0841 22.7984 3.7120
# 6 12.6029 36.6290 0.6981 6.0554 3.7120 41.0160
#
#
#
# Elastic Compliance Matrix: (Units=1/GPa)
#
#
# Indices 1 2 3 4 5 6 
#
# 1 0.015593 0.002184 -0.005430 -0.003546 -0.004826 -0.005689
# 2 0.002184 0.011243 -0.007591 -0.001045 -0.006875 -0.009806
# 3 -0.005430 -0.007591 0.018516 0.001555 0.006368 0.007327
# 4 -0.003546 -0.001045 0.001555 0.021397 -0.003661 -0.000832
# 5 -0.004826 -0.006875 0.006368 -0.003661 0.050829 0.003454
# 6 -0.005689 -0.009806 0.007327 -0.000832 0.003454 0.034571
#
#
# Mechanical properties :
#
#
# Convention : Reuss Voigt Hill
#
# Bulk Modulus (GPa) = 42.23224 55.11625 48.67424
# Shear Modulus (GPa) = 27.51569 38.66938 33.09254
#
# Velocity S-wave (km/s) = 3.39147 4.02051 3.71932
# Velocity P-wave (km/s) = 5.74369 6.67775 6.22826
#
# Compressibility (1/GPa) = 0.02367859
#
# Stress axis : x y z
#
# Youngs Moduli (GPa) = 64.13101 88.94777 54.00710
#
# Poissons Ratio (x) = -0.19431 0.29326
# Poissons Ratio (y) = -0.14009 0.40997
# Poissons Ratio (z) = 0.34823 0.67520
#
# Static dielectric constant tensor:
#      x y z
#    x 4.217230 0.330550 -0.081660 
#    y 0.330550 5.072650 0.255480 
#    z -0.081660 0.255480 4.358350 
# 
# 
# High freq. dielectric constant tensor:
#      x y z
#    x 1.946070 0.021120 -0.007230 
#    y 0.021120 1.979030 0.013260 
#    z -0.007230 0.013260 1.952660 
# 
# From -- ./inp_files/45945.got.cif
#   From: 2010.06.25/outbox.cif.g09.slc.cpg/sg2_23_cif.got.tgz:45945.got - 2010.06.27 13:26:56.
