data_PCOD8036126
_publ_section_title
;
Structure prediction by ZEFSAII (Michael W. Deem and Ramdas Pophale) SiO2 
 PCOD8036126
Probable space group: P -1
;
_chemical_formula_sum "Si O2"
_cell_formula_units_Z 14
_cell_length_a 16.015003
_cell_length_b 17.457091
_cell_length_c 5.106911
_cell_angle_alpha 77.566087
_cell_angle_beta 108.242634
_cell_angle_gamma 154.037168
_cell_volume 586.085258
_symmetry_space_group_name_H-M "P -1"
_symmetry_group_IT_number 2
_symmetry_cell_setting 'triclinic'
loop_
_space_group_symop_operation_xyz
x,y,z
-x,-y,-z
loop_
_atom_site_type_symbol
_atom_site_label
_atom_site_fract_x
_atom_site_fract_y
_atom_site_fract_z
Si Si1 0.718953 0.515371 0.180176
Si Si2 0.675859 0.578854 0.608054
Si Si3 0.026120 0.967257 0.801682
Si Si4 0.183122 0.644864 0.263855
Si Si5 0.367128 0.127658 0.157552
Si Si6 0.375940 0.034501 0.727910
Si Si7 0.055275 0.675072 0.465185
O O1 0.713887 0.578808 0.351770
O O2 0.942997 0.662130 0.248189
O O3 0.630836 0.473345 0.845874
O O4 0.583128 0.335222 0.272668
O O5 0.500000 0.500000 0.500000
O O6 0.869879 0.772683 0.779358
O O7 0.237999 0.096411 0.946367
O O8 0.000000 0.000000 0.500000
O O9 0.000000 0.000000 0.000000
O O10 0.397510 0.808851 0.221424
O O11 0.186788 0.731071 0.350566
O O12 0.128521 0.525847 0.472360
O O13 0.000000 0.500000 0.000000
O O14 0.371554 0.063004 0.995180
O O15 0.298615 0.035423 0.434461
O O16 0.219765 0.836749 0.717978
#
# Coordination Sequence:
#
# PCOD8036126 Si02
#       7
#     2   2   2   2   2   2   2
#     4  12  24  44  71  97 141 178 232 285 344 413
#     4  12  25  43  68 102 133 183 230 281 350 412
#     4  12  24  43  67  99 140 180 230 290 351 409
#     4  11  26  46  72 101 144 182 239 289 355 415
#     4  12  25  45  69 103 138 184 233 291 345 420
#     4  12  26  46  71 103 141 183 238 282 356 410
#     4  11  26  45  70 105 137 189 231 293 348 421
#
# _framework density 23.887309999999999
#
# number of rings (size 3 to 8) (size 9 to 14) (size 15 to 20)
#    0.000    0.286    1.429    7.714    6.000    0.571 
#    0.000    0.000    0.000    0.000    0.000    0.000 
#    0.000    0.000    0.000    0.000    0.000    0.000 
#
# Total GULP energy -173565.897409 kJ/mol
# GULP energy per Si atom -12397.564101 kJ/mol
# Density = 2.383294 g / cm^3
# Si number density = 23.887310 Si / 1000 Ang^3
#
#
#
# Elastic Constant Matrix: (Units=GPa)
#
#
# Indices 1 2 3 4 5 6 
#
# 1 141.2932 26.6741 33.9334 16.3523 8.4217 0.2440
# 2 26.6741 78.2041 -5.4399 28.2675 -8.6597 -4.4778
# 3 33.9334 -5.4399 97.4383 4.8683 3.0931 -1.8199
# 4 16.3523 28.2675 4.8683 44.2262 -1.2131 -3.0785
# 5 8.4217 -8.6597 3.0931 -1.2131 49.0511 15.0333
# 6 0.2440 -4.4778 -1.8199 -3.0785 15.0333 35.0104
#
#
#
# Elastic Compliance Matrix: (Units=1/GPa)
#
#
# Indices 1 2 3 4 5 6 
#
# 1 0.008600 -0.002994 -0.003052 -0.000973 -0.001873 0.000117
# 2 -0.002994 0.018225 0.002495 -0.010717 0.003268 0.000136
# 3 -0.003052 0.002495 0.011566 -0.001684 -0.000057 0.000818
# 4 -0.000973 -0.010717 -0.001684 0.030093 -0.001429 0.001808
# 5 -0.001873 0.003268 -0.000057 -0.001429 0.024368 -0.010161
# 6 0.000117 0.000136 0.000818 0.001808 -0.010161 0.033144
#
#
# Mechanical properties :
#
#
# Convention : Reuss Voigt Hill
#
# Bulk Modulus (GPa) = 31.96115 47.47454 39.71784
# Shear Modulus (GPa) = 34.83621 43.10873 38.97247
#
# Velocity S-wave (km/s) = 3.82299 4.25275 4.04358
# Velocity P-wave (km/s) = 5.73550 6.63566 6.20194
#
# Compressibility (1/GPa) = 0.03128799
#
# Stress axis : x y z
#
# Youngs Moduli (GPa) = 116.28222 54.86858 86.45859
#
# Poissons Ratio (x) = 0.16430 0.26386
# Poissons Ratio (y) = 0.34820 -0.21568
# Poissons Ratio (z) = 0.35488 -0.13688
#
# Static dielectric constant tensor:
#      x y z
#    x 4.367820 -0.112940 0.128190 
#    y -0.112940 4.803840 -0.179990 
#    z 0.128190 -0.179990 4.379300 
# 
# 
# High freq. dielectric constant tensor:
#      x y z
#    x 1.961680 -0.004840 0.008320 
#    y -0.004840 1.958680 0.013150 
#    z 0.008320 0.013150 1.954240 
# 
# From -- ./inp_files/38382.got.cif
#   From: 2010.06.25/outbox.cif.g09.slc.cpg/sg2_20_cif.got.tgz:38382.got - 2010.06.27 13:26:56.
