data_PCOD8036867
_publ_section_title
;
Structure prediction by ZEFSAII (Michael W. Deem and Ramdas Pophale) SiO2 
 PCOD8036867
Probable space group: P -1
;
_chemical_formula_sum "Si O2"
_cell_formula_units_Z 16
_cell_length_a 22.137643
_cell_length_b 19.139150
_cell_length_c 13.249469
_cell_angle_alpha 32.431512
_cell_angle_beta 155.527932
_cell_angle_gamma 162.860292
_cell_volume 669.959330
_symmetry_space_group_name_H-M "P -1"
_symmetry_group_IT_number 2
_symmetry_cell_setting 'triclinic'
loop_
_space_group_symop_operation_xyz
x,y,z
-x,-y,-z
loop_
_atom_site_type_symbol
_atom_site_label
_atom_site_fract_x
_atom_site_fract_y
_atom_site_fract_z
Si Si1 0.805400 0.759226 0.686046
Si Si2 0.805844 0.018905 0.288437
Si Si3 0.166840 0.605200 0.342387
Si Si4 0.599310 0.220826 0.870149
Si Si5 0.862313 0.504059 0.357480
Si Si6 0.703005 0.017731 0.910900
Si Si7 0.170634 0.221611 0.064767
Si Si8 0.337396 0.562672 0.484736
O O1 0.500000 0.500000 0.500000
O O2 0.838415 0.822824 0.776405
O O3 0.929929 0.967451 0.550151
O O4 0.002112 0.785980 0.928972
O O5 0.026567 0.293925 0.315647
O O6 0.556443 0.818043 0.232725
O O7 0.681314 0.956453 0.067875
O O8 0.029812 0.437244 0.437118
O O9 0.348140 0.635676 0.522393
O O10 0.922503 0.473820 0.062303
O O11 0.355952 0.872755 0.325371
O O12 0.535900 0.237806 0.644797
O O13 0.500000 0.000000 0.000000
O O14 0.000000 0.500000 0.500000
O O15 0.538626 0.240488 0.196553
O O16 0.923505 0.699067 0.182549
O O17 0.482215 0.432728 0.246648
O O18 0.000000 0.000000 0.000000
#
# Coordination Sequence:
#
# PCOD8036867 Si02
#       8
#     2   2   2   2   2   2   2   2
#     4  12  25  48  78 110 153 200 260 321 392 457
#     4  12  23  44  77 107 150 192 249 322 381 451
#     4  12  26  44  76 107 154 199 252 313 384 461
#     4  12  23  43  71 112 151 191 247 317 389 450
#     4  12  29  51  74 107 155 207 260 313 390 466
#     4  12  25  46  74 108 147 202 260 309 384 470
#     4  12  30  49  78 113 157 204 260 321 390 466
#     4  12  26  47  73 116 150 193 259 317 389 457
#
# _framework density 23.882048000000001
#
# number of rings (size 3 to 8) (size 9 to 14) (size 15 to 20)
#    0.000    0.000    3.750    6.375    7.000    0.500 
#    0.000    0.000    0.000    0.000    0.000    0.000 
#    0.000    0.000    0.000    0.000    0.000    0.000 
#
# Total GULP energy -198395.239921 kJ/mol
# GULP energy per Si atom -12399.702495 kJ/mol
# Density = 2.382769 g / cm^3
# Si number density = 23.882048 Si / 1000 Ang^3
#
#
#
# Elastic Constant Matrix: (Units=GPa)
#
#
# Indices 1 2 3 4 5 6 
#
# 1 152.7575 20.3862 43.2752 -8.5179 2.0739 5.8292
# 2 20.3862 108.2454 26.6954 -11.9029 0.5525 -11.2542
# 3 43.2752 26.6954 87.5004 -14.9550 1.6155 -2.4317
# 4 -8.5179 -11.9029 -14.9550 49.6824 1.8162 2.6738
# 5 2.0739 0.5525 1.6155 1.8162 47.7942 -1.6523
# 6 5.8292 -11.2542 -2.4317 2.6738 -1.6523 38.1635
#
#
#
# Elastic Compliance Matrix: (Units=1/GPa)
#
#
# Indices 1 2 3 4 5 6 
#
# 1 0.007744 -0.000717 -0.003624 0.000164 -0.000268 -0.001648
# 2 -0.000717 0.010457 -0.002504 0.001469 0.000040 0.002932
# 3 -0.003624 -0.002504 0.014544 0.003144 -0.000407 0.000504
# 4 0.000164 0.001469 0.003144 0.021541 -0.000982 -0.000943
# 5 -0.000268 0.000040 -0.000407 -0.000982 0.021020 0.001006
# 6 -0.001648 0.002932 0.000504 -0.000943 0.001006 0.027461
#
#
# Mechanical properties :
#
#
# Convention : Reuss Voigt Hill
#
# Bulk Modulus (GPa) = 52.47907 58.80187 55.64047
# Shear Modulus (GPa) = 40.71340 44.33777 42.52559
#
# Velocity S-wave (km/s) = 4.13337 4.31342 4.22435
# Velocity P-wave (km/s) = 6.69340 7.03440 6.86601
#
# Compressibility (1/GPa) = 0.01905522
#
# Stress axis : x y z
#
# Youngs Moduli (GPa) = 129.12548 95.62940 68.75726
#
# Poissons Ratio (x) = 0.06854 0.24920
# Poissons Ratio (y) = 0.09254 0.17217
# Poissons Ratio (z) = 0.46800 0.23945
#
# Static dielectric constant tensor:
#      x y z
#    x 4.479800 -0.112880 0.190680 
#    y -0.112880 4.262030 -0.075610 
#    z 0.190680 -0.075610 4.532990 
# 
# 
# High freq. dielectric constant tensor:
#      x y z
#    x 1.958630 -0.002830 0.004900 
#    y -0.002830 1.945140 -0.009250 
#    z 0.004900 -0.009250 1.954490 
# 
# From -- ./inp_files/472405.got.cif
#   From: 2010.06.25/outbox.cif.g09.slc.cpg/sg2_237_cif.got.tgz:472405.got - 2010.06.27 13:26:56.
