data_PCOD8036561
_publ_section_title
;
Structure prediction by ZEFSAII (Michael W. Deem and Ramdas Pophale) SiO2 
 PCOD8036561
Probable space group: P -1
;
_chemical_formula_sum "Si O2"
_cell_formula_units_Z 14
_cell_length_a 19.855828
_cell_length_b 12.451926
_cell_length_c 14.349975
_cell_angle_alpha 159.391338
_cell_angle_beta 30.378762
_cell_angle_gamma 147.075417
_cell_volume 621.322792
_symmetry_space_group_name_H-M "P -1"
_symmetry_group_IT_number 2
_symmetry_cell_setting 'triclinic'
loop_
_space_group_symop_operation_xyz
x,y,z
-x,-y,-z
loop_
_atom_site_type_symbol
_atom_site_label
_atom_site_fract_x
_atom_site_fract_y
_atom_site_fract_z
Si Si1 0.141222 0.961875 0.841710
Si Si2 0.451765 0.281320 0.967246
Si Si3 0.136822 0.951588 0.492935
Si Si4 0.039977 0.592921 0.842834
Si Si5 0.742577 0.339869 0.713098
Si Si6 0.580378 0.726808 0.662866
Si Si7 0.673682 0.412549 0.471410
O O1 0.116934 0.755095 0.793516
O O2 0.222307 0.794498 0.535910
O O3 0.229092 0.291436 0.029039
O O4 0.000000 0.000000 0.000000
O O5 0.351174 0.430497 0.273564
O O6 0.500000 0.500000 0.000000
O O7 0.582327 0.232065 0.832796
O O8 0.372525 0.954684 0.760160
O O9 0.170306 0.774406 0.401676
O O10 0.069948 0.705018 0.295763
O O11 0.270901 0.146589 0.448981
O O12 0.033135 0.177310 0.823960
O O13 0.165527 0.502321 0.677743
O O14 0.500000 0.500000 0.500000
O O15 0.588298 0.538417 0.594846
O O16 0.500000 0.000000 0.000000
#
# Coordination Sequence:
#
# PCOD8036561 Si02
#       7
#     2   2   2   2   2   2   2
#     4  12  21  38  60  95 139 171 216 268 337 395
#     4  12  25  45  70 101 139 180 228 273 339 410
#     4  12  24  41  66  98 128 173 227 272 329 400
#     4  12  25  41  65  98 135 174 220 271 338 407
#     4  12  22  38  64  94 130 174 224 277 326 393
#     4  12  27  49  74  99 132 176 232 289 341 393
#     4  12  26  47  69  99 140 180 223 284 341 398
#
# _framework density 22.532571000000001
#
# number of rings (size 3 to 8) (size 9 to 14) (size 15 to 20)
#    0.000    0.000    2.857    8.571    0.000    1.143 
#    0.000    0.000    0.000    0.000    0.000    0.000 
#    0.000    0.000    0.000    0.000    0.000    0.000 
#
# Total GULP energy -173704.453153 kJ/mol
# GULP energy per Si atom -12407.460939 kJ/mol
# Density = 2.248129 g / cm^3
# Si number density = 22.532571 Si / 1000 Ang^3
#
#
#
# Elastic Constant Matrix: (Units=GPa)
#
#
# Indices 1 2 3 4 5 6 
#
# 1 79.1696 15.9202 37.2302 3.2578 -10.9262 4.3399
# 2 15.9202 103.7143 35.5966 6.4636 -0.6445 10.2673
# 3 37.2302 35.5966 151.6945 4.0618 6.0280 8.6226
# 4 3.2578 6.4636 4.0618 37.6781 13.9881 -3.2819
# 5 -10.9262 -0.6445 6.0280 13.9881 38.1650 -2.3003
# 6 4.3399 10.2673 8.6226 -3.2819 -2.3003 48.2057
#
#
#
# Elastic Compliance Matrix: (Units=1/GPa)
#
#
# Indices 1 2 3 4 5 6 
#
# 1 0.015569 -0.000818 -0.003763 -0.003127 0.006155 -0.000473
# 2 -0.000818 0.010856 -0.002218 -0.002071 0.000942 -0.001938
# 3 -0.003763 -0.002218 0.008165 0.000777 -0.002733 -0.000727
# 4 -0.003127 -0.002071 0.000777 0.031962 -0.012637 0.002156
# 5 0.006155 0.000942 -0.002733 -0.012637 0.033071 0.000452
# 6 -0.000473 -0.001938 -0.000727 0.002156 0.000452 0.021498
#
#
# Mechanical properties :
#
#
# Convention : Reuss Voigt Hill
#
# Bulk Modulus (GPa) = 47.63997 56.89692 52.26844
# Shear Modulus (GPa) = 35.28136 41.19853 38.23995
#
# Velocity S-wave (km/s) = 3.96130 4.28062 4.12405
# Velocity P-wave (km/s) = 6.48931 7.05247 6.77675
#
# Compressibility (1/GPa) = 0.02099078
#
# Stress axis : x y z
#
# Youngs Moduli (GPa) = 64.22848 92.11841 122.46729
#
# Poissons Ratio (x) = 0.07539 0.46086
# Poissons Ratio (y) = 0.05256 0.27167
# Poissons Ratio (z) = 0.24170 0.20435
#
# Static dielectric constant tensor:
#      x y z
#    x 0.132500 -0.495690 5.514100 
#    y -0.495690 4.011630 0.937080 
#    z 5.514100 0.937080 -3.758080 
# 
# 
# High freq. dielectric constant tensor:
#      x y z
#    x 1.901520 0.015430 -0.001760 
#    y 0.015430 1.892960 -0.004410 
#    z -0.001760 -0.004410 1.909570 
# 
# From -- ./inp_files/453961.got.cif
#   From: 2010.06.25/outbox.cif.g09.slc.cpg/sg2_227_cif.got.tgz:453961.got - 2010.06.27 13:26:56.
