data_PCOD8036057
_publ_section_title
;
Structure prediction by ZEFSAII (Michael W. Deem and Ramdas Pophale) SiO2 
 PCOD8036057
Probable space group: P -1
;
_chemical_formula_sum "Si O2"
_cell_formula_units_Z 14
_cell_length_a 8.917112
_cell_length_b 7.812133
_cell_length_c 9.028755
_cell_angle_alpha 108.965576
_cell_angle_beta 86.947296
_cell_angle_gamma 107.462323
_cell_volume 566.718527
_symmetry_space_group_name_H-M "P -1"
_symmetry_group_IT_number 2
_symmetry_cell_setting 'triclinic'
loop_
_space_group_symop_operation_xyz
x,y,z
-x,-y,-z
loop_
_atom_site_type_symbol
_atom_site_label
_atom_site_fract_x
_atom_site_fract_y
_atom_site_fract_z
Si Si1 0.224596 0.591989 0.867968
Si Si2 0.487815 0.514670 0.676952
Si Si3 0.797305 0.753375 0.820044
Si Si4 0.726183 0.996147 0.138184
Si Si5 0.403882 0.741624 0.176964
Si Si6 0.902839 0.378054 0.713663
Si Si7 0.960271 0.119180 0.404942
O O1 0.312918 0.525522 0.711157
O O2 0.050171 0.440069 0.837395
O O3 0.219554 0.804932 0.896451
O O4 0.323851 0.584384 0.009787
O O5 0.500000 0.500000 0.500000
O O6 0.615011 0.711447 0.773094
O O7 0.511357 0.339918 0.720874
O O8 0.835363 0.555049 0.759841
O O9 0.910349 0.875419 0.724594
O O10 0.808304 0.859576 0.006863
O O11 0.535646 0.916281 0.142460
O O12 0.793071 0.020433 0.308579
O O13 0.248131 0.792797 0.263176
O O14 0.954717 0.318698 0.533897
O O15 0.000000 0.000000 0.500000
#
# Coordination Sequence:
#
# PCOD8036057 Si02
#       7
#     2   2   2   2   2   2   2
#     4  12  25  48  76 107 149 198 252 300 367 442
#     4  11  26  44  77 105 152 194 247 305 373 438
#     4  11  25  51  74 104 149 198 248 296 375 444
#     4  12  28  47  77 109 153 194 248 310 365 437
#     4  11  27  48  72 113 145 197 249 299 371 443
#     4  11  27  47  79 104 150 192 249 300 372 436
#     4  12  29  46  75 113 152 189 248 311 373 430
#
# _framework density 24.703620000000001
#
# number of rings (size 3 to 8) (size 9 to 14) (size 15 to 20)
#    0.000    0.571    2.857    3.000   12.000    0.571 
#    0.000    0.000    0.000    0.000    0.000    0.000 
#    0.000    0.000    0.000    0.000    0.000    0.000 
#
# Total GULP energy -173472.581189 kJ/mol
# GULP energy per Si atom -12390.898656 kJ/mol
# Density = 2.464739 g / cm^3
# Si number density = 24.703620 Si / 1000 Ang^3
#
#
#
# Elastic Constant Matrix: (Units=GPa)
#
#
# Indices 1 2 3 4 5 6 
#
# 1 133.2897 43.8645 46.1943 7.3071 -3.1045 21.5658
# 2 43.8645 71.9040 41.9391 0.6001 -2.4876 7.9749
# 3 46.1943 41.9391 162.9081 -3.0804 5.8150 -10.1475
# 4 7.3071 0.6001 -3.0804 30.8466 0.5025 -1.0544
# 5 -3.1045 -2.4876 5.8150 0.5025 39.7687 1.7918
# 6 21.5658 7.9749 -10.1475 -1.0544 1.7918 52.7745
#
#
#
# Elastic Compliance Matrix: (Units=1/GPa)
#
#
# Indices 1 2 3 4 5 6 
#
# 1 0.010653 -0.004721 -0.002155 -0.002806 0.001074 -0.004147
# 2 -0.004721 0.019226 -0.003766 0.000285 0.001460 -0.001744
# 3 -0.002155 -0.003766 0.008001 0.001516 -0.001732 0.003077
# 4 -0.002806 0.000285 0.001516 0.033316 -0.000938 0.002093
# 5 0.001074 0.001460 -0.001732 -0.000938 0.025670 -0.001883
# 6 -0.004147 -0.001744 0.003077 0.002093 -0.001883 0.021604
#
#
# Mechanical properties :
#
#
# Convention : Reuss Voigt Hill
#
# Bulk Modulus (GPa) = 60.25853 70.23308 65.24580
# Shear Modulus (GPa) = 34.41481 40.41820 37.41650
#
# Velocity S-wave (km/s) = 3.73649 4.04929 3.89603
# Velocity P-wave (km/s) = 6.56206 7.09608 6.83429
#
# Compressibility (1/GPa) = 0.01659516
#
# Stress axis : x y z
#
# Youngs Moduli (GPa) = 93.87238 52.01346 124.98163
#
# Poissons Ratio (x) = 0.24557 0.26933
# Poissons Ratio (y) = 0.44320 0.47069
# Poissons Ratio (z) = 0.20229 0.19589
#
# Static dielectric constant tensor:
#      x y z
#    x 5.312250 0.701400 -0.363460 
#    y 0.701400 4.492480 -0.091720 
#    z -0.363460 -0.091720 5.078070 
# 
# 
# High freq. dielectric constant tensor:
#      x y z
#    x 2.003480 0.020770 -0.003510 
#    y 0.020770 1.962490 -0.005840 
#    z -0.003510 -0.005840 1.993450 
# 
# From -- ./inp_files/159794.got.cif
#   From: 2010.06.25/outbox.cif.g09.slc.cpg/sg2_80_cif.got.tgz:159794.got - 2010.06.27 13:26:56.
