data_PCOD8036008
_publ_section_title
;
Structure prediction by ZEFSAII (Michael W. Deem and Ramdas Pophale) SiO2 
 PCOD8036008
Probable space group: P -1
;
_chemical_formula_sum "Si O2"
_cell_formula_units_Z 16
_cell_length_a 14.943376
_cell_length_b 15.115235
_cell_length_c 9.302854
_cell_angle_alpha 90.099342
_cell_angle_beta 111.663574
_cell_angle_gamma 30.181457
_cell_volume 720.506016
_symmetry_space_group_name_H-M "P -1"
_symmetry_group_IT_number 2
_symmetry_cell_setting 'triclinic'
loop_
_space_group_symop_operation_xyz
x,y,z
-x,-y,-z
loop_
_atom_site_type_symbol
_atom_site_label
_atom_site_fract_x
_atom_site_fract_y
_atom_site_fract_z
Si Si1 0.441410 0.937250 0.331677
Si Si2 0.440552 0.305782 0.181302
Si Si3 0.055149 0.028320 0.420919
Si Si4 0.991908 0.253043 0.869922
Si Si5 0.613145 0.980584 0.374493
Si Si6 0.379187 0.459143 0.855767
Si Si7 0.968336 0.983396 0.131837
Si Si8 0.104626 0.573092 0.475319
O O1 0.442467 0.037539 0.278778
O O2 0.731800 0.649849 0.487730
O O3 0.342959 0.018042 0.438482
O O4 0.247722 0.045971 0.118464
O O5 0.254255 0.493943 0.199231
O O6 0.731159 0.087960 0.391663
O O7 0.450242 0.190627 0.183849
O O8 0.344839 0.424240 0.972720
O O9 0.799383 0.302696 0.229736
O O10 0.148052 0.893532 0.336771
O O11 0.000000 0.000000 0.500000
O O12 0.039274 0.257197 0.743423
O O13 0.929145 0.203909 0.808199
O O14 0.890716 0.723722 0.464138
O O15 0.301943 0.473176 0.666126
O O16 0.674237 0.239419 0.016984
O O17 0.000000 0.000000 0.000000
#
# Coordination Sequence:
#
# PCOD8036008 Si02
#       8
#     2   2   2   2   2   2   2   2
#     4  11  26  50  72 106 144 182 234 291 353 421
#     4  12  26  46  72 102 141 188 234 289 355 414
#     4  12  26  46  70 100 136 185 239 285 346 418
#     4  12  27  46  70 106 142 182 235 292 350 418
#     4  11  25  49  75 105 142 185 233 290 353 423
#     4  12  25  47  71  99 143 186 232 293 350 413
#     4  12  27  42  68 101 138 184 232 289 349 409
#     4  12  24  47  76 105 142 186 232 291 354 415
#
# _framework density 22.206613000000001
#
# number of rings (size 3 to 8) (size 9 to 14) (size 15 to 20)
#    0.000    0.250    5.000    3.750    5.250    1.500 
#    2.250    0.000    0.000    0.000    0.000    0.000 
#    0.000    0.000    0.000    0.000    0.000    0.000 
#
# Total GULP energy -198475.353371 kJ/mol
# GULP energy per Si atom -12404.709586 kJ/mol
# Density = 2.215607 g / cm^3
# Si number density = 22.206613 Si / 1000 Ang^3
#
#
#
# Elastic Constant Matrix: (Units=GPa)
#
#
# Indices 1 2 3 4 5 6 
#
# 1 107.8010 37.9820 23.2710 -2.5139 -38.4290 8.8895
# 2 37.9820 121.8566 21.7463 -0.9430 -18.8624 -4.0770
# 3 23.2710 21.7463 74.5256 11.0205 -27.0710 2.3869
# 4 -2.5139 -0.9430 11.0205 43.9577 -2.1236 -4.5389
# 5 -38.4290 -18.8624 -27.0710 -2.1236 37.9304 1.6520
# 6 8.8895 -4.0770 2.3869 -4.5389 1.6520 46.1959
#
#
#
# Elastic Compliance Matrix: (Units=1/GPa)
#
#
# Indices 1 2 3 4 5 6 
#
# 1 0.016091 -0.002930 0.001770 0.000794 0.016324 -0.003952
# 2 -0.002930 0.009578 -0.001877 0.000690 0.000425 0.001559
# 3 0.001770 -0.001877 0.019439 -0.004362 0.014596 -0.002461
# 4 0.000794 0.000690 -0.004362 0.024129 -0.000724 0.002530
# 5 0.016324 0.000425 0.014596 -0.000724 0.053746 -0.005851
# 6 -0.003952 0.001559 -0.002461 0.002530 -0.005851 0.023130
#
#
# Mechanical properties :
#
#
# Convention : Reuss Voigt Hill
#
# Bulk Modulus (GPa) = 25.62031 52.24240 38.93135
# Shear Modulus (GPa) = 30.26639 40.36239 35.31439
#
# Velocity S-wave (km/s) = 3.69581 4.26794 3.99214
# Velocity P-wave (km/s) = 5.45659 6.91836 6.23049
#
# Compressibility (1/GPa) = 0.03903154
#
# Stress axis : x y z
#
# Youngs Moduli (GPa) = 62.14813 104.40529 51.44247
#
# Poissons Ratio (x) = 0.30594 -0.09103
# Poissons Ratio (y) = 0.18211 0.09658
# Poissons Ratio (z) = -0.10998 0.19601
#
# Static dielectric constant tensor:
#      x y z
#    x 4.507780 -0.191160 -0.012260 
#    y -0.191160 4.139370 -0.041800 
#    z -0.012260 -0.041800 3.981040 
# 
# 
# High freq. dielectric constant tensor:
#      x y z
#    x 1.882830 0.004880 -0.013810 
#    y 0.004880 1.892550 0.007190 
#    z -0.013810 0.007190 1.871310 
# 
# From -- ./inp_files/37781.got.cif
#   From: 2010.06.25/outbox.cif.g09.slc.cpg/sg2_19_cif.got.tgz:37781.got - 2010.06.27 13:26:56.
