data_PCOD8036325
_publ_section_title
;
Structure prediction by ZEFSAII (Michael W. Deem and Ramdas Pophale) SiO2 
 PCOD8036325
Probable space group: P -1
;
_chemical_formula_sum "Si O2"
_cell_formula_units_Z 14
_cell_length_a 8.405219
_cell_length_b 10.588829
_cell_length_c 10.443931
_cell_angle_alpha 64.535175
_cell_angle_beta 58.729878
_cell_angle_gamma 46.485505
_cell_volume 572.205287
_symmetry_space_group_name_H-M "P -1"
_symmetry_group_IT_number 2
_symmetry_cell_setting 'triclinic'
loop_
_space_group_symop_operation_xyz
x,y,z
-x,-y,-z
loop_
_atom_site_type_symbol
_atom_site_label
_atom_site_fract_x
_atom_site_fract_y
_atom_site_fract_z
Si Si1 0.254131 0.618934 0.326597
Si Si2 0.955777 0.471414 0.220945
Si Si3 0.744187 0.047894 0.091959
Si Si4 0.794786 0.765199 0.336380
Si Si5 0.863823 0.206271 0.439408
Si Si6 0.608439 0.653303 0.058178
Si Si7 0.474419 0.760581 0.634877
O O1 0.290367 0.679513 0.422398
O O2 0.449747 0.586614 0.159672
O O3 0.288925 0.437553 0.379658
O O4 0.986078 0.768453 0.334733
O O5 0.884053 0.571424 0.341968
O O6 0.007425 0.281686 0.304454
O O7 0.743003 0.608939 0.155247
O O8 0.193844 0.439800 0.092639
O O9 0.615303 0.167325 0.218707
O O10 0.752475 0.876635 0.177956
O O11 0.587874 0.141910 0.988483
O O12 0.000000 0.000000 0.000000
O O13 0.557776 0.861130 0.478019
O O14 0.709830 0.247403 0.362584
O O15 0.000000 0.000000 0.500000
#
# Coordination Sequence:
#
# PCOD8036325 Si02
#       7
#     2   2   2   2   2   2   2
#     4  12  24  48  76 107 143 193 241 302 369 435
#     4  11  26  50  74 108 142 198 243 298 367 440
#     4  12  28  46  73 112 151 192 241 304 363 427
#     4  12  26  46  76 108 146 187 250 298 365 428
#     4  12  27  47  75 105 143 186 245 308 359 428
#     4  11  26  48  72 106 151 191 244 290 374 434
#     4  12  26  47  75 103 147 192 248 297 362 435
#
# _framework density 24.466743999999998
#
# number of rings (size 3 to 8) (size 9 to 14) (size 15 to 20)
#    0.000    0.286    4.286    3.857    6.000    1.714 
#    0.000    0.000    0.000    0.000    0.000    0.000 
#    0.000    0.000    0.000    0.000    0.000    0.000 
#
# Total GULP energy -173438.014315 kJ/mol
# GULP energy per Si atom -12388.429594 kJ/mol
# Density = 2.441106 g / cm^3
# Si number density = 24.466744 Si / 1000 Ang^3
#
#
#
# Elastic Constant Matrix: (Units=GPa)
#
#
# Indices 1 2 3 4 5 6 
#
# 1 88.1171 27.5035 32.0966 1.5847 -5.5508 -1.5743
# 2 27.5035 95.1177 31.5153 -7.7512 3.2044 8.9952
# 3 32.0966 31.5153 149.4611 5.5036 -21.6582 5.3155
# 4 1.5847 -7.7512 5.5036 40.6209 -6.0210 4.8818
# 5 -5.5508 3.2044 -21.6582 -6.0210 33.8974 -2.2346
# 6 -1.5743 8.9952 5.3155 4.8818 -2.2346 42.6318
#
#
#
# Elastic Compliance Matrix: (Units=1/GPa)
#
#
# Indices 1 2 3 4 5 6 
#
# 1 0.013265 -0.003452 -0.001974 -0.000930 0.001180 0.001633
# 2 -0.003452 0.012935 -0.002422 0.002847 -0.003030 -0.003040
# 3 -0.001974 -0.002422 0.008405 -0.000733 0.005129 -0.000257
# 4 -0.000930 0.002847 -0.000733 0.026226 0.003547 -0.003361
# 5 0.001180 -0.003030 0.005129 0.003547 0.033981 0.001418
# 6 0.001633 -0.003040 -0.000257 -0.003361 0.001418 0.024650
#
#
# Mechanical properties :
#
#
# Convention : Reuss Voigt Hill
#
# Bulk Modulus (GPa) = 52.88180 57.21410 55.04795
# Shear Modulus (GPa) = 35.34561 39.53539 37.44050
#
# Velocity S-wave (km/s) = 3.80496 4.02417 3.91610
# Velocity P-wave (km/s) = 6.40034 6.71022 6.55711
#
# Compressibility (1/GPa) = 0.01891010
#
# Stress axis : x y z
#
# Youngs Moduli (GPa) = 75.38643 77.30698 118.98234
#
# Poissons Ratio (x) = 0.26683 0.23483
# Poissons Ratio (y) = 0.26020 0.28820
# Poissons Ratio (z) = 0.14879 0.18725
#
# Static dielectric constant tensor:
#      x y z
#    x 4.229010 -0.267580 -0.076590 
#    y -0.267580 4.576240 -0.319080 
#    z -0.076590 -0.319080 4.593670 
# 
# 
# High freq. dielectric constant tensor:
#      x y z
#    x 1.966770 -0.012500 -0.009320 
#    y -0.012500 1.968390 -0.013390 
#    z -0.009320 -0.013390 1.994120 
# 
# From -- ./inp_files/203188.got.cif
#   From: 2010.06.25/outbox.cif.g09.slc.cpg/sg2_102_cif.got.tgz:203188.got - 2010.06.27 13:26:56.
