data_PCOD8036284
_publ_section_title
;
Structure prediction by ZEFSAII (Michael W. Deem and Ramdas Pophale) SiO2 
 PCOD8036284
Probable space group: P -1
;
_chemical_formula_sum "Si O2"
_cell_formula_units_Z 16
_cell_length_a 9.744000
_cell_length_b 9.371729
_cell_length_c 14.494175
_cell_angle_alpha 70.022862
_cell_angle_beta 80.086010
_cell_angle_gamma 33.640340
_cell_volume 672.905443
_symmetry_space_group_name_H-M "P -1"
_symmetry_group_IT_number 2
_symmetry_cell_setting 'triclinic'
loop_
_space_group_symop_operation_xyz
x,y,z
-x,-y,-z
loop_
_atom_site_type_symbol
_atom_site_label
_atom_site_fract_x
_atom_site_fract_y
_atom_site_fract_z
Si Si1 0.372169 0.278001 0.944572
Si Si2 0.339003 0.850124 0.454093
Si Si3 0.533244 0.945774 0.310887
Si Si4 0.738941 0.196954 0.864659
Si Si5 0.964653 0.560861 0.188392
Si Si6 0.872453 0.777997 0.445768
Si Si7 0.241345 0.693100 0.365184
Si Si8 0.160487 0.652213 0.043537
O O1 0.538038 0.245063 0.874969
O O2 0.111187 0.489763 0.871987
O O3 0.335566 0.373416 0.030948
O O4 0.500000 0.000000 0.000000
O O5 0.167369 0.897116 0.399137
O O6 0.486655 0.616911 0.564841
O O7 0.530907 0.773777 0.385419
O O8 0.161272 0.129730 0.467168
O O9 0.249283 0.254039 0.249722
O O10 0.749134 0.754482 0.249452
O O11 0.609582 0.992664 0.373720
O O12 0.745602 0.257417 0.749461
O O13 0.665646 0.397197 0.901697
O O14 0.013410 0.885277 0.932658
O O15 0.966657 0.731915 0.111947
O O16 0.000000 0.500000 0.500000
O O17 0.037177 0.746075 0.375687
#
# Coordination Sequence:
#
# PCOD8036284 Si02
#       8
#     2   2   2   2   2   2   2   2
#     4  12  25  48  77 107 154 202 256 322 383 453
#     4  11  26  47  75 110 154 198 256 319 383 463
#     4  12  27  46  79 115 154 202 262 320 389 460
#     4  11  26  48  75 108 153 202 255 312 393 458
#     4  12  27  46  79 115 154 202 262 320 389 460
#     4  12  25  48  77 107 154 202 256 322 383 453
#     4  11  26  48  75 108 153 202 255 312 393 458
#     4  11  26  47  75 110 154 198 256 319 383 463
#
# _framework density 23.777488000000002
#
# number of rings (size 3 to 8) (size 9 to 14) (size 15 to 20)
#    0.000    0.500    2.500    4.500    7.000    1.000 
#    0.000    0.000    0.000    0.000    0.000    0.000 
#    0.000    0.000    0.000    0.000    0.000    0.000 
#
# Total GULP energy -198426.272819 kJ/mol
# GULP energy per Si atom -12401.642051 kJ/mol
# Density = 2.372337 g / cm^3
# Si number density = 23.777488 Si / 1000 Ang^3
#
#
#
# Elastic Constant Matrix: (Units=GPa)
#
#
# Indices 1 2 3 4 5 6 
#
# 1 185.3521 47.8925 65.0290 -8.1576 1.8724 11.7388
# 2 47.8925 133.2388 57.2934 8.0137 5.2041 12.9336
# 3 65.0290 57.2934 155.5928 -2.9465 -9.1840 2.4343
# 4 -8.1576 8.0137 -2.9465 26.9267 -6.0825 7.2561
# 5 1.8724 5.2041 -9.1840 -6.0825 57.9090 4.6987
# 6 11.7388 12.9336 2.4343 7.2561 4.6987 46.6687
#
#
#
# Elastic Compliance Matrix: (Units=1/GPa)
#
#
# Indices 1 2 3 4 5 6 
#
# 1 0.006774 -0.001491 -0.002208 0.002677 -0.000025 -0.001589
# 2 -0.001491 0.009813 -0.003132 -0.003686 -0.001600 -0.001447
# 3 -0.002208 -0.003132 0.008630 0.001470 0.001830 0.000560
# 4 0.002677 -0.003686 0.001470 0.042291 0.005476 -0.006855
# 5 -0.000025 -0.001600 0.001830 0.005476 0.018470 -0.002357
# 6 -0.001589 -0.001447 0.000560 -0.006855 -0.002357 0.023502
#
#
# Mechanical properties :
#
#
# Convention : Reuss Voigt Hill
#
# Bulk Modulus (GPa) = 86.54260 90.51262 88.52761
# Shear Modulus (GPa) = 39.37236 46.56546 42.96891
#
# Velocity S-wave (km/s) = 4.07365 4.43016 4.25564
# Velocity P-wave (km/s) = 7.65520 8.01983 7.83963
#
# Compressibility (1/GPa) = 0.01155500
#
# Stress axis : x y z
#
# Youngs Moduli (GPa) = 147.62843 101.90979 115.87392
#
# Poissons Ratio (x) = 0.15197 0.25584
# Poissons Ratio (y) = 0.22014 0.36288
# Poissons Ratio (z) = 0.32595 0.31915
#
# Static dielectric constant tensor:
#      x y z
#    x 5.059440 0.204020 0.203050 
#    y 0.204020 4.136620 0.129140 
#    z 0.203050 0.129140 4.647420 
# 
# 
# High freq. dielectric constant tensor:
#      x y z
#    x 1.970740 0.010660 -0.001040 
#    y 0.010660 1.925860 0.003220 
#    z -0.001040 0.003220 1.955530 
# 
# From -- ./inp_files/494644.got.cif
#   From: 2010.06.25/outbox.cif.g09.slc.cpg/sg2_248_cif.got.tgz:494644.got - 2010.06.27 13:26:56.
