data_PCOD8036774
_publ_section_title
;
Structure prediction by ZEFSAII (Michael W. Deem and Ramdas Pophale) SiO2 
 PCOD8036774
Probable space group: P -1
;
_chemical_formula_sum "Si O2"
_cell_formula_units_Z 14
_cell_length_a 8.519936
_cell_length_b 10.952070
_cell_length_c 12.109322
_cell_angle_alpha 101.651594
_cell_angle_beta 80.112860
_cell_angle_gamma 42.025157
_cell_volume 645.526238
_symmetry_space_group_name_H-M "P -1"
_symmetry_group_IT_number 2
_symmetry_cell_setting 'triclinic'
loop_
_space_group_symop_operation_xyz
x,y,z
-x,-y,-z
loop_
_atom_site_type_symbol
_atom_site_label
_atom_site_fract_x
_atom_site_fract_y
_atom_site_fract_z
Si Si1 0.583035 0.092593 0.234607
Si Si2 0.137252 0.036352 0.039705
Si Si3 0.705086 0.495579 0.259542
Si Si4 0.482679 0.693684 0.105542
Si Si5 0.326912 0.515392 0.362385
Si Si6 0.025237 0.361332 0.400701
Si Si7 0.146452 0.656939 0.169144
O O1 0.517297 0.274883 0.317398
O O2 0.338908 0.148804 0.293763
O O3 0.644354 0.052210 0.089589
O O4 0.833228 0.882243 0.234084
O O5 0.282745 0.922410 0.119129
O O6 0.907010 0.282402 0.126729
O O7 0.000000 0.000000 0.000000
O O8 0.572454 0.671867 0.216203
O O9 0.488898 0.542219 0.353433
O O10 0.853865 0.483355 0.331101
O O11 0.318715 0.670290 0.129306
O O12 0.743028 0.515905 0.961896
O O13 0.186513 0.581233 0.273768
O O14 0.097505 0.671624 0.514255
O O15 0.000000 0.500000 0.500000
#
# Coordination Sequence:
#
# PCOD8036774 Si02
#       7
#     2   2   2   2   2   2   2
#     4  11  20  36  59  88 122 153 184 238 298 345
#     4  12  18  34  63  95 122 144 186 244 301 349
#     4  11  21  38  64  88 115 153 198 244 287 343
#     4  10  18  31  56  96 119 139 192 245 290 344
#     4  10  20  38  63  84 115 156 201 233 282 348
#     4  10  25  43  58  80 120 165 199 236 287 344
#     4  10  17  31  59  90 117 150 185 239 295 346
#
# _framework density 21.687733999999999
#
# number of rings (size 3 to 8) (size 9 to 14) (size 15 to 20)
#    0.000    1.429    5.714    1.286    0.000    1.143 
#    0.000    6.429    0.000   10.286    0.000    0.000 
#    0.000    0.000    0.000    0.000    0.000    0.000 
#
# Total GULP energy -173562.712296 kJ/mol
# GULP energy per Si atom -12397.336593 kJ/mol
# Density = 2.163837 g / cm^3
# Si number density = 21.687734 Si / 1000 Ang^3
#
#
#
# Elastic Constant Matrix: (Units=GPa)
#
#
# Indices 1 2 3 4 5 6 
#
# 1 64.5823 31.1522 47.2072 -4.0442 -0.8855 -31.3466
# 2 31.1522 106.9529 19.8441 -1.8424 -11.3102 -34.4997
# 3 47.2072 19.8441 106.5851 -6.2799 -28.9927 -25.1423
# 4 -4.0442 -1.8424 -6.2799 17.1326 -10.3232 6.7606
# 5 -0.8855 -11.3102 -28.9927 -10.3232 38.1825 0.0915
# 6 -31.3466 -34.4997 -25.1423 6.7606 0.0915 32.6732
#
#
#
# Elastic Compliance Matrix: (Units=1/GPa)
#
#
# Indices 1 2 3 4 5 6 
#
# 1 0.041277 -0.001922 -0.017190 -0.018614 -0.017765 0.028245
# 2 -0.001922 0.015790 0.004419 0.000618 0.008111 0.018079
# 3 -0.017190 0.004419 0.024888 0.019337 0.025028 0.003254
# 4 -0.018614 0.000618 0.019337 0.093746 0.039832 -0.021835
# 5 -0.017765 0.008111 0.025028 0.039832 0.057949 0.002376
# 6 0.028245 0.018079 0.003254 -0.021835 0.002376 0.083809
#
#
# Mechanical properties :
#
#
# Convention : Reuss Voigt Hill
#
# Bulk Modulus (GPa) = 19.02293 52.72527 35.87410
# Shear Modulus (GPa) = 13.72244 29.59210 21.65727
#
# Velocity S-wave (km/s) = 2.51814 3.69787 3.16348
# Velocity P-wave (km/s) = 4.15271 6.52658 5.46997
#
# Compressibility (1/GPa) = 0.05256812
#
# Stress axis : x y z
#
# Youngs Moduli (GPa) = 24.22676 63.33217 40.17975
#
# Poissons Ratio (x) = 0.12169 0.69071
# Poissons Ratio (y) = 0.04655 -0.17754
# Poissons Ratio (z) = 0.41647 -0.27984
#
# Static dielectric constant tensor:
#      x y z
#    x 3.783140 -0.266080 -0.495080 
#    y -0.266080 4.061230 -0.204200 
#    z -0.495080 -0.204200 4.404490 
# 
# 
# High freq. dielectric constant tensor:
#      x y z
#    x 1.824140 -0.020200 -0.019680 
#    y -0.020200 1.847970 -0.013890 
#    z -0.019680 -0.013890 1.858100 
# 
# From -- ./inp_files/171314.got.cif
#   From: 2010.06.25/outbox.cif.g09.slc.cpg/sg2_86_cif.got.tgz:171314.got - 2010.06.27 13:26:56.
