data_PCOD8036097
_publ_section_title
;
Structure prediction by ZEFSAII (Michael W. Deem and Ramdas Pophale) SiO2 
 PCOD8036097
Probable space group: P -1
;
_chemical_formula_sum "Si O2"
_cell_formula_units_Z 16
_cell_length_a 5.255584
_cell_length_b 15.026625
_cell_length_c 9.760727
_cell_angle_alpha 94.661695
_cell_angle_beta 72.024272
_cell_angle_gamma 92.287436
_cell_volume 730.698905
_symmetry_space_group_name_H-M "P -1"
_symmetry_group_IT_number 2
_symmetry_cell_setting 'triclinic'
loop_
_space_group_symop_operation_xyz
x,y,z
-x,-y,-z
loop_
_atom_site_type_symbol
_atom_site_label
_atom_site_fract_x
_atom_site_fract_y
_atom_site_fract_z
Si Si1 0.264232 0.724097 0.522656
Si Si2 0.548211 0.879401 0.115140
Si Si3 0.265912 0.041315 0.632094
Si Si4 0.206492 0.530129 0.584499
Si Si5 0.793899 0.952316 0.827644
Si Si6 0.755862 0.835563 0.578415
Si Si7 0.046253 0.428211 0.868170
Si Si8 0.432038 0.684525 0.182112
O O1 0.215205 0.636697 0.611587
O O2 0.515434 0.778189 0.547408
O O3 0.312121 0.698115 0.354270
O O4 0.991002 0.776699 0.591028
O O5 0.635335 0.892281 0.258048
O O6 0.455469 0.777130 0.105449
O O7 0.311625 0.947080 0.125527
O O8 0.785926 0.901625 0.968785
O O9 0.109110 0.102228 0.555647
O O10 0.500000 0.000000 0.500000
O O11 0.094162 0.961602 0.719567
O O12 0.500000 0.500000 0.500000
O O13 0.121212 0.485131 0.732015
O O14 0.000000 0.500000 0.500000
O O15 0.634372 0.895066 0.730879
O O16 0.279680 0.360722 0.862387
O O17 0.771305 0.374603 0.880955
O O18 0.000000 0.500000 0.000000
#
# Coordination Sequence:
#
# PCOD8036097 Si02
#       8
#     2   2   2   2   2   2   2   2
#     4  12  24  42  72 107 138 178 240 294 340 415
#     4  11  26  44  71  98 144 190 235 292 352 415
#     4  12  23  43  69 100 138 196 243 290 342 415
#     4  12  23  44  72 102 136 177 227 288 350 418
#     4  11  26  45  64 103 145 190 235 289 358 413
#     4  12  25  41  70 102 144 183 238 290 342 407
#     4  12  27  48  74 103 143 180 228 288 363 429
#     4  12  25  46  73 107 135 184 237 287 348 425
#
# _framework density 21.896844000000002
#
# number of rings (size 3 to 8) (size 9 to 14) (size 15 to 20)
#    0.000    0.250    5.000    4.125    1.750    2.000 
#    0.000    0.000    0.000    0.000    0.000    0.000 
#    0.000    0.000    0.000    0.000    0.000    0.000 
#
# Total GULP energy -198423.869461 kJ/mol
# GULP energy per Si atom -12401.491841 kJ/mol
# Density = 2.184701 g / cm^3
# Si number density = 21.896844 Si / 1000 Ang^3
#
#
#
# Elastic Constant Matrix: (Units=GPa)
#
#
# Indices 1 2 3 4 5 6 
#
# 1 127.5604 54.9547 39.8482 -0.6651 -2.8096 7.0371
# 2 54.9547 168.2159 68.3777 -13.9320 -0.2015 1.2498
# 3 39.8482 68.3777 136.6210 -7.2059 -6.7691 7.9395
# 4 -0.6651 -13.9320 -7.2059 37.9225 5.6580 9.7860
# 5 -2.8096 -0.2015 -6.7691 5.6580 21.2321 3.1174
# 6 7.0371 1.2498 7.9395 9.7860 3.1174 35.4540
#
#
#
# Elastic Compliance Matrix: (Units=1/GPa)
#
#
# Indices 1 2 3 4 5 6 
#
# 1 0.009486 -0.002604 -0.001371 -0.000886 0.001227 -0.001347
# 2 -0.002604 0.008402 -0.003442 0.002583 -0.002119 0.000464
# 3 -0.001371 -0.003442 0.009760 0.000693 0.003043 -0.002251
# 4 -0.000886 0.002583 0.000693 0.030490 -0.006839 -0.007885
# 5 0.001227 -0.002119 0.003043 -0.006839 0.050534 -0.003406
# 6 -0.001347 0.000464 -0.002251 -0.007885 -0.003406 0.031437
#
#
# Mechanical properties :
#
#
# Convention : Reuss Voigt Hill
#
# Bulk Modulus (GPa) = 78.03028 84.30652 81.16840
# Shear Modulus (GPa) = 31.40435 36.86950 34.13692
#
# Velocity S-wave (km/s) = 3.79119 4.10784 3.95269
# Velocity P-wave (km/s) = 7.40789 7.81565 7.61450
#
# Compressibility (1/GPa) = 0.01281554
#
# Stress axis : x y z
#
# Youngs Moduli (GPa) = 105.41617 119.01615 102.45723
#
# Poissons Ratio (x) = 0.30986 0.14051
# Poissons Ratio (y) = 0.27445 0.35262
# Poissons Ratio (z) = 0.14457 0.40960
#
# Static dielectric constant tensor:
#      x y z
#    x 4.165590 -0.105450 -0.001400 
#    y -0.105450 4.507250 -0.156870 
#    z -0.001400 -0.156870 4.121850 
# 
# 
# High freq. dielectric constant tensor:
#      x y z
#    x 1.864060 0.001840 0.003320 
#    y 0.001840 1.878640 -0.002570 
#    z 0.003320 -0.002570 1.865320 
# 
# From -- ./inp_files/39487.got.cif
#   From: 2010.06.25/outbox.cif.g09.slc.cpg/sg2_20_cif.got.tgz:39487.got - 2010.06.27 13:26:56.
