data_PCOD8036129
_publ_section_title
;
Structure prediction by ZEFSAII (Michael W. Deem and Ramdas Pophale) SiO2 
 PCOD8036129
Probable space group: P -1
;
_chemical_formula_sum "Si O2"
_cell_formula_units_Z 16
_cell_length_a 9.511566
_cell_length_b 17.766553
_cell_length_c 5.137894
_cell_angle_alpha 82.704238
_cell_angle_beta 55.185406
_cell_angle_gamma 96.826049
_cell_volume 687.260593
_symmetry_space_group_name_H-M "P -1"
_symmetry_group_IT_number 2
_symmetry_cell_setting 'triclinic'
loop_
_space_group_symop_operation_xyz
x,y,z
-x,-y,-z
loop_
_atom_site_type_symbol
_atom_site_label
_atom_site_fract_x
_atom_site_fract_y
_atom_site_fract_z
Si Si1 0.962145 0.933916 0.360700
Si Si2 0.826388 0.438439 0.136105
Si Si3 0.171537 0.738041 0.761902
Si Si4 0.563746 0.811800 0.256212
Si Si5 0.617954 0.725420 0.731406
Si Si6 0.013992 0.233152 0.559611
Si Si7 0.312940 0.025876 0.729044
Si Si8 0.379918 0.559641 0.129193
O O1 0.942822 0.848569 0.540134
O O2 0.772053 0.933743 0.434026
O O3 0.000000 0.000000 0.500000
O O4 0.147471 0.952588 0.993336
O O5 0.853584 0.352261 0.104805
O O6 0.679285 0.437820 0.511726
O O7 0.777608 0.468681 0.895170
O O8 0.000000 0.500000 0.000000
O O9 0.363979 0.791627 0.575456
O O10 0.111797 0.741194 0.525948
O O11 0.061330 0.775210 0.066769
O O12 0.659814 0.767484 0.386522
O O13 0.643890 0.905607 0.127815
O O14 0.559185 0.781329 0.980953
O O15 0.797830 0.704804 0.653983
O O16 0.473817 0.645649 0.892717
O O17 0.500000 0.000000 0.500000
O O18 0.500000 0.500000 0.000000
#
# Coordination Sequence:
#
# PCOD8036129 Si02
#       8
#     2   2   2   2   2   2   2   2
#     4  11  26  47  68 102 147 183 241 308 354 436
#     4  12  27  48  71 105 147 183 233 293 351 419
#     4  12  26  46  72 103 140 184 239 292 352 426
#     4  12  24  47  71  99 139 186 235 294 347 417
#     4  12  24  46  71 100 141 184 232 289 347 416
#     4  12  27  44  73 102 140 187 236 292 362 414
#     4  11  26  45  71 102 140 193 238 293 371 429
#     4  12  26  47  73 106 143 188 233 285 352 429
#
# _framework density 23.280836999999998
#
# number of rings (size 3 to 8) (size 9 to 14) (size 15 to 20)
#    0.000    0.250    3.750    4.500    8.750    0.500 
#    0.000    0.000    0.000    0.000    0.000    0.000 
#    0.000    0.000    0.000    0.000    0.000    0.000 
#
# Total GULP energy -198297.439139 kJ/mol
# GULP energy per Si atom -12393.589946 kJ/mol
# Density = 2.322785 g / cm^3
# Si number density = 23.280837 Si / 1000 Ang^3
#
#
#
# Elastic Constant Matrix: (Units=GPa)
#
#
# Indices 1 2 3 4 5 6 
#
# 1 136.6495 38.5130 14.1484 1.0695 -12.5819 1.1009
# 2 38.5130 77.9457 6.1956 6.0020 -8.2772 4.4364
# 3 14.1484 6.1956 52.0462 5.0811 -0.8070 -2.6532
# 4 1.0695 6.0020 5.0811 36.2278 6.2945 -2.6957
# 5 -12.5819 -8.2772 -0.8070 6.2945 47.4599 0.6479
# 6 1.1009 4.4364 -2.6532 -2.6957 0.6479 39.7277
#
#
#
# Elastic Compliance Matrix: (Units=1/GPa)
#
#
# Indices 1 2 3 4 5 6 
#
# 1 0.008801 -0.004071 -0.001921 0.000424 0.001533 0.000086
# 2 -0.004071 0.015421 -0.000515 -0.002850 0.002005 -0.001870
# 3 -0.001921 -0.000515 0.020117 -0.002597 0.000070 0.001277
# 4 0.000424 -0.002850 -0.002597 0.029346 -0.004351 0.002195
# 5 0.001533 0.002005 0.000070 -0.004351 0.022417 -0.000923
# 6 0.000086 -0.001870 0.001277 0.002195 -0.000923 0.025627
#
#
# Mechanical properties :
#
#
# Convention : Reuss Voigt Hill
#
# Bulk Modulus (GPa) = 31.92371 42.70617 37.31494
# Shear Modulus (GPa) = 34.43877 38.53537 36.48707
#
# Velocity S-wave (km/s) = 3.85031 4.07288 3.96316
# Velocity P-wave (km/s) = 5.78867 6.36408 6.08318
#
# Compressibility (1/GPa) = 0.03132468
#
# Stress axis : x y z
#
# Youngs Moduli (GPa) = 113.61860 64.84863 49.70933
#
# Poissons Ratio (x) = 0.26399 0.09550
# Poissons Ratio (y) = 0.46252 0.02560
# Poissons Ratio (z) = 0.21829 0.03340
#
# Static dielectric constant tensor:
#      x y z
#    x 3.843810 -0.052450 0.345440 
#    y -0.052450 4.067880 0.014380 
#    z 0.345440 0.014380 4.284680 
# 
# 
# High freq. dielectric constant tensor:
#      x y z
#    x 1.937580 0.015160 -0.008120 
#    y 0.015160 1.922760 -0.000260 
#    z -0.008120 -0.000260 1.926350 
# 
# From -- ./inp_files/47309.got.cif
#   From: 2010.06.25/outbox.cif.g09.slc.cpg/sg2_24_cif.got.tgz:47309.got - 2010.06.27 13:26:56.
