data_PCOD8036607
_publ_section_title
;
Structure prediction by ZEFSAII (Michael W. Deem and Ramdas Pophale) SiO2 
 PCOD8036607
Probable space group: P -1
;
_chemical_formula_sum "Si O2"
_cell_formula_units_Z 14
_cell_length_a 14.139134
_cell_length_b 12.213938
_cell_length_c 8.904942
_cell_angle_alpha 46.327268
_cell_angle_beta 121.696772
_cell_angle_gamma 148.845393
_cell_volume 566.562135
_symmetry_space_group_name_H-M "P -1"
_symmetry_group_IT_number 2
_symmetry_cell_setting 'triclinic'
loop_
_space_group_symop_operation_xyz
x,y,z
-x,-y,-z
loop_
_atom_site_type_symbol
_atom_site_label
_atom_site_fract_x
_atom_site_fract_y
_atom_site_fract_z
Si Si1 0.342937 0.134523 0.850943
Si Si2 0.364885 0.045545 0.639353
Si Si3 0.322501 0.300390 0.939105
Si Si4 0.283417 0.590466 0.623804
Si Si5 0.072354 0.878834 0.343487
Si Si6 0.652307 0.299078 0.089808
Si Si7 0.970047 0.873322 0.746728
O O1 0.428854 0.208802 0.685811
O O2 0.388858 0.341202 0.783232
O O3 0.434221 0.102080 0.062502
O O4 0.118794 0.897986 0.869865
O O5 0.537913 0.204982 0.524257
O O6 0.200517 0.957321 0.508981
O O7 0.296705 0.801395 0.858696
O O8 0.224283 0.352734 0.829599
O O9 0.500000 0.500000 0.000000
O O10 0.189656 0.020591 0.152633
O O11 0.318878 0.707166 0.703003
O O12 0.092216 0.426069 0.532624
O O13 0.008064 0.979403 0.241953
O O14 0.771860 0.571261 0.870165
O O15 0.000000 0.000000 0.500000
#
# Coordination Sequence:
#
# PCOD8036607 Si02
#       7
#     2   2   2   2   2   2   2
#     4  12  26  44  74 104 143 184 237 290 361 410
#     4  12  29  46  69 107 149 191 229 289 357 431
#     4  12  21  43  73 107 138 183 238 303 344 410
#     4  12  25  44  76 103 145 186 242 290 350 420
#     4  12  24  46  73 108 139 183 246 293 353 410
#     4  12  28  49  71 103 148 191 236 283 358 431
#     4  12  26  45  75 107 137 182 237 303 349 411
#
# _framework density 24.710442
#
# number of rings (size 3 to 8) (size 9 to 14) (size 15 to 20)
#    0.000    0.000    7.143    2.143    2.000    3.429 
#    0.000    0.000    0.000    0.000    0.000    0.000 
#    0.000    0.000    0.000    0.000    0.000    0.000 
#
# Total GULP energy -173437.913632 kJ/mol
# GULP energy per Si atom -12388.422402 kJ/mol
# Density = 2.465420 g / cm^3
# Si number density = 24.710442 Si / 1000 Ang^3
#
#
#
# Elastic Constant Matrix: (Units=GPa)
#
#
# Indices 1 2 3 4 5 6 
#
# 1 103.4541 40.3287 30.7029 2.9587 -12.1356 -11.7974
# 2 40.3287 134.0724 38.1567 20.5797 -19.3504 2.0963
# 3 30.7029 38.1567 61.8982 2.9420 -14.7853 -8.3792
# 4 2.9587 20.5797 2.9420 30.7651 -5.3215 -10.3088
# 5 -12.1356 -19.3504 -14.7853 -5.3215 38.4872 8.6206
# 6 -11.7974 2.0963 -8.3792 -10.3088 8.6206 35.2753
#
#
#
# Elastic Compliance Matrix: (Units=1/GPa)
#
#
# Indices 1 2 3 4 5 6 
#
# 1 0.012420 -0.003099 -0.003728 0.002689 0.000368 0.004148
# 2 -0.003099 0.011819 -0.005455 -0.008671 0.003087 -0.006323
# 3 -0.003728 -0.005455 0.022848 0.004137 0.004392 0.004640
# 4 0.002689 -0.008671 0.004137 0.042697 0.000687 0.014707
# 5 0.000368 0.003087 0.004392 0.000687 0.030857 -0.006357
# 6 0.004148 -0.006323 0.004640 0.014707 -0.006357 0.037065
#
#
# Mechanical properties :
#
#
# Convention : Reuss Voigt Hill
#
# Bulk Modulus (GPa) = 44.40102 57.53347 50.96725
# Shear Modulus (GPa) = 26.34652 33.58794 29.96723
#
# Velocity S-wave (km/s) = 3.26883 3.69082 3.48621
# Velocity P-wave (km/s) = 5.67931 6.44177 6.07252
#
# Compressibility (1/GPa) = 0.02252201
#
# Stress axis : x y z
#
# Youngs Moduli (GPa) = 80.51437 84.61215 43.76741
#
# Poissons Ratio (x) = 0.26224 0.16318
# Poissons Ratio (y) = 0.24954 0.23874
# Poissons Ratio (z) = 0.30019 0.46153
#
# Static dielectric constant tensor:
#      x y z
#    x 4.661410 -0.068060 0.009480 
#    y -0.068060 4.402330 0.027730 
#    z 0.009480 0.027730 4.102010 
# 
# 
# High freq. dielectric constant tensor:
#      x y z
#    x 1.990110 0.003810 -0.001840 
#    y 0.003810 2.002590 0.028120 
#    z -0.001840 0.028120 1.955610 
# 
# From -- ./inp_files/306563.got.cif
#   From: 2010.06.25/outbox.cif.g09.slc.cpg/sg2_154_cif.got.tgz:306563.got - 2010.06.27 13:26:56.
