data_PCOD8036163
_publ_section_title
;
Structure prediction by ZEFSAII (Michael W. Deem and Ramdas Pophale) SiO2 
 PCOD8036163
Probable space group: P -1
;
_chemical_formula_sum "Si O2"
_cell_formula_units_Z 16
_cell_length_a 13.902588
_cell_length_b 9.567745
_cell_length_c 8.950243
_cell_angle_alpha 112.669632
_cell_angle_beta 104.325505
_cell_angle_gamma 127.907410
_cell_volume 647.257778
_symmetry_space_group_name_H-M "P -1"
_symmetry_group_IT_number 2
_symmetry_cell_setting 'triclinic'
loop_
_space_group_symop_operation_xyz
x,y,z
-x,-y,-z
loop_
_atom_site_type_symbol
_atom_site_label
_atom_site_fract_x
_atom_site_fract_y
_atom_site_fract_z
Si Si1 0.681746 0.358301 0.961969
Si Si2 0.896855 0.539266 0.637027
Si Si3 0.523317 0.177404 0.381286
Si Si4 0.897443 0.009615 0.904132
Si Si5 0.457899 0.633708 0.833096
Si Si6 0.130338 0.079247 0.476513
Si Si7 0.378360 0.465791 0.217991
Si Si8 0.998615 0.672304 0.410124
O O1 0.722387 0.541258 0.932262
O O2 0.596034 0.108794 0.748303
O O3 0.541950 0.257527 0.977380
O O4 0.847099 0.504510 0.166603
O O5 0.713726 0.361152 0.540510
O O6 0.936654 0.661318 0.541512
O O7 0.921142 0.392087 0.569285
O O8 0.031954 0.752200 0.897767
O O9 0.473079 0.184857 0.203731
O O10 0.492549 0.271726 0.532860
O O11 0.925918 0.053135 0.758094
O O12 0.716602 0.745401 0.778871
O O13 0.000000 0.000000 0.000000
O O14 0.542967 0.573169 0.867433
O O15 0.271318 0.367782 0.621196
O O16 0.157542 0.959158 0.533543
O O17 0.000000 0.000000 0.500000
#
# Coordination Sequence:
#
# PCOD8036163 Si02
#       8
#     2   2   2   2   2   2   2   2
#     4  12  27  47  73 107 149 194 243 299 361 440
#     4  11  26  45  74 107 142 193 239 302 367 430
#     4  12  25  49  71 105 151 192 242 298 367 431
#     4  12  24  45  74 101 144 189 244 301 361 427
#     4  12  26  46  76 108 145 196 244 298 364 429
#     4  12  24  45  75 103 142 187 247 302 356 431
#     4  12  28  47  72 113 146 194 243 301 365 431
#     4  11  26  46  72 106 144 189 245 298 365 433
#
# _framework density 24.719674999999999
#
# number of rings (size 3 to 8) (size 9 to 14) (size 15 to 20)
#    0.000    0.250    5.000    3.000    5.250    1.500 
#    0.000    0.000    0.000    0.000    0.000    0.000 
#    0.000    0.000    0.000    0.000    0.000    0.000 
#
# Total GULP energy -198232.953707 kJ/mol
# GULP energy per Si atom -12389.559607 kJ/mol
# Density = 2.466341 g / cm^3
# Si number density = 24.719675 Si / 1000 Ang^3
#
#
#
# Elastic Constant Matrix: (Units=GPa)
#
#
# Indices 1 2 3 4 5 6 
#
# 1 78.1090 9.0313 6.0659 -0.2259 -8.8666 -8.7320
# 2 9.0313 99.3641 11.5829 -7.6758 1.4730 -8.1631
# 3 6.0659 11.5829 90.3274 1.2408 -17.8714 -0.3121
# 4 -0.2259 -7.6758 1.2408 43.6556 -2.3372 -4.2669
# 5 -8.8666 1.4730 -17.8714 -2.3372 32.5971 -2.4618
# 6 -8.7320 -8.1631 -0.3121 -4.2669 -2.4618 26.1484
#
#
#
# Elastic Compliance Matrix: (Units=1/GPa)
#
#
# Indices 1 2 3 4 5 6 
#
# 1 0.013933 -0.000884 0.000029 0.000621 0.004259 0.004879
# 2 -0.000884 0.010787 -0.001577 0.002196 -0.001186 0.003300
# 3 0.000029 -0.001577 0.012666 -0.000232 0.007029 0.000292
# 4 0.000621 0.002196 -0.000232 0.023898 0.002032 0.004981
# 5 0.004259 -0.001186 0.007029 0.002032 0.036257 0.004881
# 6 0.004879 0.003300 0.000292 0.004981 0.004881 0.042179
#
#
# Mechanical properties :
#
#
# Convention : Reuss Voigt Hill
#
# Bulk Modulus (GPa) = 30.74991 35.68453 33.21722
# Shear Modulus (GPa) = 32.16977 36.55492 34.36235
#
# Velocity S-wave (km/s) = 3.61138 3.84966 3.73242
# Velocity P-wave (km/s) = 5.46406 5.85037 5.66051
#
# Compressibility (1/GPa) = 0.03252042
#
# Stress axis : x y z
#
# Youngs Moduli (GPa) = 71.77041 92.70832 78.95162
#
# Poissons Ratio (x) = 0.08196 -0.00226
# Poissons Ratio (y) = 0.06345 0.12452
# Poissons Ratio (z) = -0.00205 0.14622
#
# Static dielectric constant tensor:
#      x y z
#    x 4.453680 0.072620 -0.408390 
#    y 0.072620 7.656380 0.193830 
#    z -0.408390 0.193830 4.285590 
# 
# 
# High freq. dielectric constant tensor:
#      x y z
#    x 1.984940 -0.011800 -0.021500 
#    y -0.011800 1.999130 -0.005000 
#    z -0.021500 -0.005000 1.976910 
# 
# From -- ./inp_files/299273.got.cif
#   From: 2010.06.25/outbox.cif.g09.slc.cpg/sg2_150_cif.got.tgz:299273.got - 2010.06.27 13:26:56.
