data_PCOD8036903
_publ_section_title
;
Structure prediction by ZEFSAII (Michael W. Deem and Ramdas Pophale) SiO2 
 PCOD8036903
Probable space group: P -1
;
_chemical_formula_sum "Si O2"
_cell_formula_units_Z 16
_cell_length_a 17.222895
_cell_length_b 20.313401
_cell_length_c 8.593302
_cell_angle_alpha 39.968001
_cell_angle_beta 143.818131
_cell_angle_gamma 157.449574
_cell_volume 677.718179
_symmetry_space_group_name_H-M "P -1"
_symmetry_group_IT_number 2
_symmetry_cell_setting 'triclinic'
loop_
_space_group_symop_operation_xyz
x,y,z
-x,-y,-z
loop_
_atom_site_type_symbol
_atom_site_label
_atom_site_fract_x
_atom_site_fract_y
_atom_site_fract_z
Si Si1 0.909715 0.226799 0.376002
Si Si2 0.847858 0.147884 0.067374
Si Si3 0.768492 0.303652 0.495336
Si Si4 0.788014 0.690116 0.854421
Si Si5 0.109319 0.986032 0.094327
Si Si6 0.547377 0.338762 0.218245
Si Si7 0.380865 0.774311 0.947687
Si Si8 0.603176 0.417909 0.504035
O O1 0.810758 0.061149 0.588111
O O2 0.782269 0.241483 0.221114
O O3 0.172935 0.386183 0.547081
O O4 0.881567 0.217972 0.162338
O O5 0.784060 0.194027 0.755228
O O6 0.637180 0.941978 0.108445
O O7 0.073940 0.233115 0.222731
O O8 0.663289 0.300485 0.473158
O O9 0.629901 0.232344 0.243121
O O10 0.000000 0.500000 0.500000
O O11 0.564085 0.616254 0.603916
O O12 0.711022 0.529356 0.075172
O O13 0.956606 0.852102 0.950187
O O14 0.329993 0.186259 0.033505
O O15 0.000000 0.000000 0.000000
O O16 0.474854 0.311564 0.329026
O O17 0.308135 0.620258 0.179949
#
# Coordination Sequence:
#
# PCOD8036903 Si02
#       8
#     2   2   2   2   2   2   2   2
#     4  12  25  47  73 105 142 185 241 295 347 419
#     4  12  26  46  71 105 146 182 235 297 354 420
#     4  12  23  44  71 102 134 181 235 289 357 411
#     4  12  26  48  69 108 148 186 235 288 355 428
#     4  12  24  45  75 105 138 187 237 284 352 422
#     4  12  23  45  74 104 142 186 238 291 350 419
#     4  12  26  47  72 103 141 186 241 294 352 417
#     4  12  25  45  71 103 143 189 234 290 350 420
#
# _framework density 23.608633000000001
#
# number of rings (size 3 to 8) (size 9 to 14) (size 15 to 20)
#    0.000    0.000    3.750    7.500    0.000    1.000 
#    2.250    0.000    0.000    0.000    0.000    0.000 
#    0.000    0.000    0.000    0.000    0.000    0.000 
#
# Total GULP energy -198351.476864 kJ/mol
# GULP energy per Si atom -12396.967304 kJ/mol
# Density = 2.355490 g / cm^3
# Si number density = 23.608633 Si / 1000 Ang^3
#
#
#
# Elastic Constant Matrix: (Units=GPa)
#
#
# Indices 1 2 3 4 5 6 
#
# 1 106.2721 7.4480 19.0073 7.6198 18.3083 0.9116
# 2 7.4480 117.9615 -4.5056 12.8054 1.4996 -4.5629
# 3 19.0073 -4.5056 70.4174 4.0728 4.8032 -12.2077
# 4 7.6198 12.8054 4.0728 26.0035 4.0303 8.6554
# 5 18.3083 1.4996 4.8032 4.0303 43.2497 7.7166
# 6 0.9116 -4.5629 -12.2077 8.6554 7.7166 35.7148
#
#
#
# Elastic Compliance Matrix: (Units=1/GPa)
#
#
# Indices 1 2 3 4 5 6 
#
# 1 0.010737 -0.000508 -0.002514 -0.001918 -0.004097 0.000152
# 2 -0.000508 0.009322 0.001646 -0.005722 -0.000333 0.003225
# 3 -0.002514 0.001646 0.016698 -0.004934 -0.001735 0.007553
# 4 -0.001918 -0.005722 -0.004934 0.047241 -0.000394 -0.013732
# 5 -0.004097 -0.000333 -0.001735 -0.000394 0.026184 -0.006093
# 6 0.000152 0.003225 0.007553 -0.013732 -0.006093 0.035634
#
#
# Mechanical properties :
#
#
# Convention : Reuss Voigt Hill
#
# Bulk Modulus (GPa) = 29.40594 37.61671 33.51132
# Shear Modulus (GPa) = 31.26907 39.17368 35.22137
#
# Velocity S-wave (km/s) = 3.64328 4.07786 3.86668
# Velocity P-wave (km/s) = 5.49369 6.17576 5.84468
#
# Compressibility (1/GPa) = 0.03400674
#
# Stress axis : x y z
#
# Youngs Moduli (GPa) = 93.13563 107.26817 59.88716
#
# Poissons Ratio (x) = 0.05447 0.15056
# Poissons Ratio (y) = 0.04729 -0.09860
# Poissons Ratio (z) = 0.23414 -0.17661
#
# Static dielectric constant tensor:
#      x y z
#    x 4.220660 -0.111280 0.198170 
#    y -0.111280 5.222120 -0.204230 
#    z 0.198170 -0.204230 3.926190 
# 
# 
# High freq. dielectric constant tensor:
#      x y z
#    x 1.948860 0.002930 0.012700 
#    y 0.002930 1.958570 0.001000 
#    z 0.012700 0.001000 1.917530 
# 
# From -- ./inp_files/338106.got.cif
#   From: 2010.06.25/outbox.cif.g09.slc.cpg/sg2_170_cif.got.tgz:338106.got - 2010.06.27 13:26:56.
