data_PCOD8036012
_publ_section_title
;
Structure prediction by ZEFSAII (Michael W. Deem and Ramdas Pophale) SiO2 
 PCOD8036012
Probable space group: P -1
;
_chemical_formula_sum "Si O2"
_cell_formula_units_Z 14
_cell_length_a 11.630206
_cell_length_b 5.752460
_cell_length_c 11.121182
_cell_angle_alpha 115.671004
_cell_angle_beta 115.961126
_cell_angle_gamma 91.717218
_cell_volume 580.362854
_symmetry_space_group_name_H-M "P -1"
_symmetry_group_IT_number 2
_symmetry_cell_setting 'triclinic'
loop_
_space_group_symop_operation_xyz
x,y,z
-x,-y,-z
loop_
_atom_site_type_symbol
_atom_site_label
_atom_site_fract_x
_atom_site_fract_y
_atom_site_fract_z
Si Si1 0.896843 0.297421 0.988997
Si Si2 0.033706 0.127907 0.224043
Si Si3 0.624665 0.495538 0.190841
Si Si4 0.394558 0.762771 0.112974
Si Si5 0.765567 0.399780 0.456803
Si Si6 0.472603 0.795039 0.556003
Si Si7 0.884185 0.955525 0.340361
O O1 0.755689 0.363636 0.937358
O O2 0.885059 0.004930 0.861148
O O3 0.000000 0.500000 0.000000
O O4 0.949977 0.297501 0.150235
O O5 0.139286 0.316576 0.401783
O O6 0.936739 0.911927 0.220552
O O7 0.489528 0.583780 0.158259
O O8 0.648312 0.427503 0.321940
O O9 0.753122 0.721601 0.253788
O O10 0.604140 0.241072 0.033678
O O11 0.445237 0.058188 0.257922
O O12 0.685811 0.250925 0.503767
O O13 0.848762 0.236250 0.386405
O O14 0.500000 0.500000 0.500000
O O15 0.500000 0.000000 0.500000
O O16 0.000000 0.000000 0.500000
#
# Coordination Sequence:
#
# PCOD8036012 Si02
#       7
#     2   2   2   2   2   2   2
#     4  11  26  47  73 105 149 201 249 312 387 457
#     4  11  26  45  72 111 145 197 256 313 377 464
#     4  11  25  49  75 115 149 202 255 320 395 454
#     4  11  25  49  75 109 154 198 256 321 383 469
#     4  12  26  47  75 108 149 195 258 317 388 458
#     4  12  28  50  78 111 154 208 257 316 389 468
#     4  12  25  44  77 109 149 195 256 316 383 460
#
# _framework density 24.122838000000002
#
# number of rings (size 3 to 8) (size 9 to 14) (size 15 to 20)
#    0.000    0.571    2.857    3.857    6.000    0.571 
#   15.429    0.000    0.000    0.000    0.000    0.000 
#    0.000    0.000    0.000    0.000    0.000    0.000 
#
# Total GULP energy -173529.155386 kJ/mol
# GULP energy per Si atom -12394.939670 kJ/mol
# Density = 2.406793 g / cm^3
# Si number density = 24.122838 Si / 1000 Ang^3
#
#
#
# Elastic Constant Matrix: (Units=GPa)
#
#
# Indices 1 2 3 4 5 6 
#
# 1 166.7736 47.0275 41.3687 -15.2507 12.3326 -5.1726
# 2 47.0275 97.5757 49.1036 -11.6044 -1.0135 3.5662
# 3 41.3687 49.1036 148.3430 1.4330 -3.7024 -14.8699
# 4 -15.2507 -11.6044 1.4330 40.6588 -3.9141 -3.7616
# 5 12.3326 -1.0135 -3.7024 -3.9141 38.1383 -3.1228
# 6 -5.1726 3.5662 -14.8699 -3.7616 -3.1228 42.5345
#
#
#
# Elastic Compliance Matrix: (Units=1/GPa)
#
#
# Indices 1 2 3 4 5 6 
#
# 1 0.007448 -0.002847 -0.001137 0.001864 -0.002342 0.000740
# 2 -0.002847 0.014181 -0.004171 0.002975 0.000980 -0.002658
# 3 -0.001137 -0.004171 0.008809 -0.001509 0.001223 0.003247
# 4 0.001864 0.002975 -0.001509 0.026592 0.002220 0.001964
# 5 -0.002342 0.000980 0.001223 0.002220 0.027537 0.002279
# 6 0.000740 -0.002658 0.003247 0.001964 0.002279 0.025299
#
#
# Mechanical properties :
#
#
# Convention : Reuss Voigt Hill
#
# Bulk Modulus (GPa) = 70.77972 76.41021 73.59496
# Shear Modulus (GPa) = 38.20167 42.61249 40.40708
#
# Velocity S-wave (km/s) = 3.98380 4.20751 4.09718
# Velocity P-wave (km/s) = 7.11098 7.43965 7.27717
#
# Compressibility (1/GPa) = 0.01412834
#
# Stress axis : x y z
#
# Youngs Moduli (GPa) = 134.27185 70.51898 113.51557
#
# Poissons Ratio (x) = 0.20077 0.12905
# Poissons Ratio (y) = 0.38228 0.47344
# Poissons Ratio (z) = 0.15264 0.29412
#
# Static dielectric constant tensor:
#      x y z
#    x 4.685130 -0.098310 -0.202900 
#    y -0.098310 4.131210 0.055300 
#    z -0.202900 0.055300 4.772390 
# 
# 
# High freq. dielectric constant tensor:
#      x y z
#    x 1.979150 -0.003560 -0.004300 
#    y -0.003560 1.941250 0.005700 
#    z -0.004300 0.005700 1.975710 
# 
# From -- ./inp_files/411348.got.cif
#   From: 2010.06.25/outbox.cif.g09.slc.cpg/sg2_206_cif.got.tgz:411348.got - 2010.06.27 13:26:56.
