data_PCOD8036239
_publ_section_title
;
Structure prediction by ZEFSAII (Michael W. Deem and Ramdas Pophale) SiO2 
 PCOD8036239
Probable space group: P -1
;
_chemical_formula_sum "Si O2"
_cell_formula_units_Z 14
_cell_length_a 11.063419
_cell_length_b 11.277549
_cell_length_c 10.831635
_cell_angle_alpha 46.021965
_cell_angle_beta 97.350127
_cell_angle_gamma 132.585334
_cell_volume 546.935776
_symmetry_space_group_name_H-M "P -1"
_symmetry_group_IT_number 2
_symmetry_cell_setting 'triclinic'
loop_
_space_group_symop_operation_xyz
x,y,z
-x,-y,-z
loop_
_atom_site_type_symbol
_atom_site_label
_atom_site_fract_x
_atom_site_fract_y
_atom_site_fract_z
Si Si1 0.855341 0.861881 0.200736
Si Si2 0.416703 0.751023 0.399362
Si Si3 0.700278 0.517988 0.841621
Si Si4 0.341649 0.021203 0.970353
Si Si5 0.215924 0.683388 0.831691
Si Si6 0.899161 0.385131 0.406276
Si Si7 0.082299 0.957141 0.388149
O O1 0.650096 0.513456 0.420281
O O2 0.771869 0.954402 0.134417
O O3 0.991880 0.976975 0.257465
O O4 0.000000 0.000000 0.000000
O O5 0.510362 0.909759 0.161640
O O6 0.209964 0.635330 0.482217
O O7 0.600027 0.976236 0.363641
O O8 0.475396 0.245705 0.938936
O O9 0.898400 0.698566 0.647046
O O10 0.725163 0.732596 0.740812
O O11 0.703054 0.398801 0.043939
O O12 0.155919 0.691869 0.230855
O O13 0.187544 0.633883 0.718289
O O14 0.000000 0.500000 0.000000
O O15 0.832483 0.118938 0.603059
#
# Coordination Sequence:
#
# PCOD8036239 Si02
#       7
#     2   2   2   2   2   2   2
#     4  12  27  49  77 115 156 205 257 321 386 459
#     4  12  27  46  83 111 153 206 261 313 395 446
#     4  11  26  46  79 116 152 206 258 312 395 458
#     4  12  26  50  82 113 155 203 261 319 383 465
#     4  12  25  48  79 114 156 202 254 322 386 462
#     4  12  27  51  81 114 158 202 260 319 384 469
#     4  11  26  47  77 114 157 202 258 317 388 459
#
# _framework density 25.597155999999998
#
# number of rings (size 3 to 8) (size 9 to 14) (size 15 to 20)
#    0.000    0.286    5.714    1.714    4.000    2.857 
#    0.000    1.429    0.000    0.000    0.000    0.000 
#    0.000    0.000    0.000    0.000    0.000    0.000 
#
# Total GULP energy -173726.771604 kJ/mol
# GULP energy per Si atom -12409.055115 kJ/mol
# Density = 2.553890 g / cm^3
# Si number density = 25.597156 Si / 1000 Ang^3
#
#
#
# Elastic Constant Matrix: (Units=GPa)
#
#
# Indices 1 2 3 4 5 6 
#
# 1 123.7856 29.5365 29.2306 -3.0794 -4.2707 -11.1595
# 2 29.5365 167.7563 65.4167 -7.8381 3.4693 -6.6652
# 3 29.2306 65.4167 81.3203 -5.8347 -11.3743 -3.2181
# 4 -3.0794 -7.8381 -5.8347 63.5328 4.3720 9.3906
# 5 -4.2707 3.4693 -11.3743 4.3720 45.1295 -0.4484
# 6 -11.1595 -6.6652 -3.2181 9.3906 -0.4484 34.8203
#
#
#
# Elastic Compliance Matrix: (Units=1/GPa)
#
#
# Indices 1 2 3 4 5 6 
#
# 1 0.009082 -0.000415 -0.002813 -0.000277 0.000235 0.002649
# 2 -0.000415 0.009037 -0.007426 0.000485 -0.002645 0.000746
# 3 -0.002813 -0.007426 0.020038 0.000503 0.005301 -0.000538
# 4 -0.000277 0.000485 0.000503 0.016599 -0.001589 -0.004447
# 5 0.000235 -0.002645 0.005301 -0.001589 0.023882 0.000795
# 6 0.002649 0.000746 -0.000538 -0.004447 0.000795 0.030870
#
#
# Mechanical properties :
#
#
# Convention : Reuss Voigt Hill
#
# Bulk Modulus (GPa) = 59.34999 69.02553 64.18776
# Shear Modulus (GPa) = 36.64826 45.27508 40.96167
#
# Velocity S-wave (km/s) = 3.78793 4.21022 4.00464
# Velocity P-wave (km/s) = 6.50905 7.11753 6.82008
#
# Compressibility (1/GPa) = 0.01684920
#
# Stress axis : x y z
#
# Youngs Moduli (GPa) = 110.11133 110.65797 49.90456
#
# Poissons Ratio (x) = 0.04588 0.14038
# Poissons Ratio (y) = 0.04566 0.37060
# Poissons Ratio (z) = 0.30974 0.82177
#
# Static dielectric constant tensor:
#      x y z
#    x 4.505980 -0.019760 0.095890 
#    y -0.019760 4.906980 0.010840 
#    z 0.095890 0.010840 4.939300 
# 
# 
# High freq. dielectric constant tensor:
#      x y z
#    x 2.015250 -0.005530 0.004990 
#    y -0.005530 2.040160 -0.001420 
#    z 0.004990 -0.001420 2.036810 
# 
# From -- ./inp_files/244372.got.cif
#   From: 2010.06.25/outbox.cif.g09.slc.cpg/sg2_123_cif.got.tgz:244372.got - 2010.06.27 13:26:56.
