data_PCOD8036322
_publ_section_title
;
Structure prediction by ZEFSAII (Michael W. Deem and Ramdas Pophale) SiO2 
 PCOD8036322
Probable space group: P -1
;
_chemical_formula_sum "Si O2"
_cell_formula_units_Z 16
_cell_length_a 9.317506
_cell_length_b 15.618821
_cell_length_c 9.252404
_cell_angle_alpha 134.656065
_cell_angle_beta 109.729542
_cell_angle_gamma 100.721165
_cell_volume 698.562761
_symmetry_space_group_name_H-M "P -1"
_symmetry_group_IT_number 2
_symmetry_cell_setting 'triclinic'
loop_
_space_group_symop_operation_xyz
x,y,z
-x,-y,-z
loop_
_atom_site_type_symbol
_atom_site_label
_atom_site_fract_x
_atom_site_fract_y
_atom_site_fract_z
Si Si1 0.791742 0.850824 0.803437
Si Si2 0.955504 0.369283 0.029446
Si Si3 0.225019 0.143277 0.702061
Si Si4 0.952674 0.323323 0.649809
Si Si5 0.282749 0.349236 0.202351
Si Si6 0.705501 0.658078 0.284795
Si Si7 0.576897 0.135595 0.797339
Si Si8 0.674972 0.053027 0.023427
O O1 0.796897 0.801447 0.907766
O O2 0.718810 0.700539 0.507519
O O3 0.654242 0.899894 0.806586
O O4 0.000000 0.000000 0.000000
O O5 0.887304 0.277567 0.742332
O O6 0.760330 0.295120 0.971738
O O7 0.072393 0.551616 0.259261
O O8 0.115578 0.368917 0.169138
O O9 0.236300 0.186891 0.590180
O O10 0.388096 0.121777 0.761253
O O11 0.298069 0.300946 0.991776
O O12 0.000000 0.000000 0.500000
O O13 0.859003 0.181943 0.337453
O O14 0.175861 0.396778 0.798395
O O15 0.500000 0.500000 0.500000
O O16 0.500000 0.500000 0.000000
O O17 0.500000 0.000000 0.500000
O O18 0.670277 0.121403 0.953056
O O19 0.500000 0.000000 0.000000
#
# Coordination Sequence:
#
# PCOD8036322 Si02
#       8
#     2   2   2   2   2   2   2   2
#     4  12  25  46  72 106 148 187 246 305 362 438
#     4  11  26  48  75 102 152 195 246 309 367 450
#     4  12  26  47  75 104 146 190 242 301 369 442
#     4  11  26  48  72 105 146 197 245 302 377 436
#     4  12  27  46  72 112 146 192 245 306 372 433
#     4  12  25  46  74 107 144 195 244 299 372 442
#     4  12  26  47  74 111 145 194 247 302 372 446
#     4  12  27  45  75 107 146 192 243 302 368 441
#
# _framework density 22.904170000000001
#
# number of rings (size 3 to 8) (size 9 to 14) (size 15 to 20)
#    0.000    0.250    2.500    6.000    5.250    1.500 
#    0.000    0.000    0.000    0.000    0.000    0.000 
#    0.000    0.000    0.000    0.000    0.000    0.000 
#
# Total GULP energy -198318.835143 kJ/mol
# GULP energy per Si atom -12394.927196 kJ/mol
# Density = 2.285204 g / cm^3
# Si number density = 22.904170 Si / 1000 Ang^3
#
#
#
# Elastic Constant Matrix: (Units=GPa)
#
#
# Indices 1 2 3 4 5 6 
#
# 1 156.6719 49.1099 29.6111 5.9491 12.1358 -5.3367
# 2 49.1099 120.3052 19.8070 -5.0616 13.4640 -4.3687
# 3 29.6111 19.8070 108.2107 2.4709 6.0405 8.8083
# 4 5.9491 -5.0616 2.4709 34.3721 3.5354 1.2874
# 5 12.1358 13.4640 6.0405 3.5354 44.1806 2.9428
# 6 -5.3367 -4.3687 8.8083 1.2874 2.9428 43.7512
#
#
#
# Elastic Compliance Matrix: (Units=1/GPa)
#
#
# Indices 1 2 3 4 5 6 
#
# 1 0.007741 -0.002811 -0.001602 -0.001577 -0.000998 0.001100
# 2 -0.002811 0.010031 -0.001064 0.002249 -0.002384 0.000967
# 3 -0.001602 -0.001064 0.010095 -0.000476 -0.000425 -0.002291
# 4 -0.001577 0.002249 -0.000476 0.030016 -0.002550 -0.000584
# 5 -0.000998 -0.002384 -0.000425 -0.002550 0.024018 -0.001815
# 6 0.001100 0.000967 -0.002291 -0.000584 -0.001815 0.023688
#
#
# Mechanical properties :
#
#
# Convention : Reuss Voigt Hill
#
# Bulk Modulus (GPa) = 59.11995 64.69376 61.90686
# Shear Modulus (GPa) = 40.92280 43.57144 42.24712
#
# Velocity S-wave (km/s) = 4.23152 4.36631 4.29944
# Velocity P-wave (km/s) = 7.05282 7.32982 7.19265
#
# Compressibility (1/GPa) = 0.01691476
#
# Stress axis : x y z
#
# Youngs Moduli (GPa) = 129.17767 99.68662 99.05537
#
# Poissons Ratio (x) = 0.28023 0.15865
# Poissons Ratio (y) = 0.36314 0.10539
# Poissons Ratio (z) = 0.20689 0.10606
#
# Static dielectric constant tensor:
#      x y z
#    x 4.396670 0.057450 0.068180 
#    y 0.057450 4.167340 -0.118560 
#    z 0.068180 -0.118560 3.726520 
# 
# 
# High freq. dielectric constant tensor:
#      x y z
#    x 1.922720 0.004470 -0.001880 
#    y 0.004470 1.916500 -0.006710 
#    z -0.001880 -0.006710 1.909060 
# 
# From -- ./inp_files/209143.got.cif
#   From: 2010.06.25/outbox.cif.g09.slc.cpg/sg2_105_cif.got.tgz:209143.got - 2010.06.27 13:26:56.
