data_PCOD8036130
_publ_section_title
;
Structure prediction by ZEFSAII (Michael W. Deem and Ramdas Pophale) SiO2 
 PCOD8036130
Probable space group: P -1
;
_chemical_formula_sum "Si O2"
_cell_formula_units_Z 16
_cell_length_a 11.442282
_cell_length_b 17.850254
_cell_length_c 8.781349
_cell_angle_alpha 146.689163
_cell_angle_beta 122.207161
_cell_angle_gamma 47.526461
_cell_volume 724.345339
_symmetry_space_group_name_H-M "P -1"
_symmetry_group_IT_number 2
_symmetry_cell_setting 'triclinic'
loop_
_space_group_symop_operation_xyz
x,y,z
-x,-y,-z
loop_
_atom_site_type_symbol
_atom_site_label
_atom_site_fract_x
_atom_site_fract_y
_atom_site_fract_z
Si Si1 0.560553 0.336869 0.842552
Si Si2 0.020334 0.419386 0.715346
Si Si3 0.935846 0.164684 0.811145
Si Si4 0.931995 0.165928 0.156945
Si Si5 0.329378 0.222358 0.418851
Si Si6 0.167862 0.274440 0.068571
Si Si7 0.560240 0.334340 0.184036
Si Si8 0.475984 0.080721 0.783967
O O1 0.748326 0.249155 0.807445
O O2 0.482601 0.245413 0.549409
O O3 0.500000 0.500000 0.000000
O O4 0.501193 0.359398 0.012748
O O5 0.200023 0.349040 0.660163
O O6 0.985061 0.276420 0.468808
O O7 0.892488 0.547854 0.727950
O O8 0.000000 0.500000 0.000000
O O9 0.993860 0.145151 0.992173
O O10 0.000000 0.000000 0.500000
O O11 0.010601 0.257778 0.934941
O O12 0.746558 0.241032 0.161319
O O13 0.000000 0.000000 0.000000
O O14 0.250472 0.246845 0.241801
O O15 0.394499 0.045086 0.223287
O O16 0.295080 0.143281 0.819316
O O17 0.500000 0.500000 0.500000
O O18 0.496025 0.233531 0.055878
O O19 0.500000 0.000000 0.500000
#
# Coordination Sequence:
#
# PCOD8036130 Si02
#       8
#     2   2   2   2   2   2   2   2
#     4  11  26  45  72 102 145 188 237 294 362 429
#     4  12  27  46  76 106 146 194 243 299 362 430
#     4  11  26  47  71 104 145 189 236 297 364 427
#     4  11  26  47  71 105 145 188 240 296 358 431
#     4  12  25  47  74 107 144 193 243 298 357 431
#     4  12  27  47  76 106 146 188 247 301 358 429
#     4  11  26  45  71 103 144 187 238 296 359 427
#     4  12  25  47  73 105 145 189 244 294 359 431
#
# _framework density 22.088909999999998
#
# number of rings (size 3 to 8) (size 9 to 14) (size 15 to 20)
#    0.000    0.500    2.500    4.500   10.500    1.000 
#    0.000    0.000    0.000    0.000    0.000    0.000 
#    0.000    0.000    0.000    0.000    0.000    0.000 
#
# Total GULP energy -198476.312054 kJ/mol
# GULP energy per Si atom -12404.769503 kJ/mol
# Density = 2.203863 g / cm^3
# Si number density = 22.088910 Si / 1000 Ang^3
#
#
#
# Elastic Constant Matrix: (Units=GPa)
#
#
# Indices 1 2 3 4 5 6 
#
# 1 127.9095 51.0644 53.1239 -0.7901 0.2453 4.7803
# 2 51.0644 151.5125 60.4748 25.2657 10.7502 11.8784
# 3 53.1239 60.4748 144.0623 13.7597 12.6868 11.4559
# 4 -0.7901 25.2657 13.7597 39.9591 -4.8559 9.0973
# 5 0.2453 10.7502 12.6868 -4.8559 44.5649 6.4739
# 6 4.7803 11.8784 11.4559 9.0973 6.4739 28.4845
#
#
#
# Elastic Compliance Matrix: (Units=1/GPa)
#
#
# Indices 1 2 3 4 5 6 
#
# 1 0.010289 -0.002931 -0.003010 0.003540 0.002021 -0.000884
# 2 -0.002931 0.009569 -0.002183 -0.005549 -0.002226 -0.000343
# 3 -0.003010 -0.002183 0.009442 -0.001902 -0.002166 -0.001282
# 4 0.003540 -0.005549 -0.001902 0.032200 0.006724 -0.009327
# 5 0.002021 -0.002226 -0.002166 0.006724 0.025248 -0.006426
# 6 -0.000884 -0.000343 -0.001282 -0.009327 -0.006426 0.040353
#
#
# Mechanical properties :
#
#
# Convention : Reuss Voigt Hill
#
# Bulk Modulus (GPa) = 76.60816 83.64558 80.12687
# Shear Modulus (GPa) = 33.85260 39.85647 36.85453
#
# Velocity S-wave (km/s) = 3.91904 4.25239 4.08911
# Velocity P-wave (km/s) = 7.43206 7.87784 7.65819
#
# Compressibility (1/GPa) = 0.01305344
#
# Stress axis : x y z
#
# Youngs Moduli (GPa) = 97.19011 104.49978 105.90983
#
# Poissons Ratio (x) = 0.30628 0.31875
# Poissons Ratio (y) = 0.28485 0.23120
# Poissons Ratio (z) = 0.29251 0.22812
#
# Static dielectric constant tensor:
#      x y z
#    x 4.386540 0.117580 -0.005490 
#    y 0.117580 4.130670 0.080250 
#    z -0.005490 0.080250 4.027130 
# 
# 
# High freq. dielectric constant tensor:
#      x y z
#    x 1.888280 -0.002140 0.000380 
#    y -0.002140 1.883090 0.008370 
#    z 0.000380 0.008370 1.874930 
# 
# From -- ./inp_files/280267.got.cif
#   From: 2010.06.25/outbox.cif.g09.slc.cpg/sg2_141_cif.got.tgz:280267.got - 2010.06.27 13:26:56.
