data_PCOD8036158
_publ_section_title
;
Structure prediction by ZEFSAII (Michael W. Deem and Ramdas Pophale) SiO2 
 PCOD8036158
Probable space group: P -1
;
_chemical_formula_sum "Si O2"
_cell_formula_units_Z 16
_cell_length_a 5.688890
_cell_length_b 16.210668
_cell_length_c 9.227592
_cell_angle_alpha 88.190175
_cell_angle_beta 100.894275
_cell_angle_gamma 127.125982
_cell_volume 662.554804
_symmetry_space_group_name_H-M "P -1"
_symmetry_group_IT_number 2
_symmetry_cell_setting 'triclinic'
loop_
_space_group_symop_operation_xyz
x,y,z
-x,-y,-z
loop_
_atom_site_type_symbol
_atom_site_label
_atom_site_fract_x
_atom_site_fract_y
_atom_site_fract_z
Si Si1 0.763539 0.761370 0.354205
Si Si2 0.261342 0.938093 0.602262
Si Si3 0.809383 0.623234 0.182361
Si Si4 0.257693 0.396430 0.151062
Si Si5 0.758435 0.921720 0.189441
Si Si6 0.394295 0.092112 0.137459
Si Si7 0.636337 0.305892 0.251437
Si Si8 0.196562 0.609973 0.441211
O O1 0.917589 0.731787 0.261566
O O2 0.629663 0.807899 0.238851
O O3 0.517239 0.650900 0.409820
O O4 0.963120 0.842195 0.498728
O O5 0.333400 0.889198 0.741375
O O6 0.500000 0.000000 0.500000
O O7 0.220367 0.016249 0.671827
O O8 0.462627 0.521963 0.171290
O O9 0.019438 0.600097 0.280243
O O10 0.876733 0.647609 0.020537
O O11 0.470501 0.361434 0.219851
O O12 0.961357 0.358644 0.210158
O O13 0.554729 0.909995 0.030286
O O14 0.093976 0.981897 0.159899
O O15 0.390713 0.188986 0.169727
O O16 0.721654 0.305605 0.429798
O O17 0.000000 0.500000 0.500000
#
# Coordination Sequence:
#
# PCOD8036158 Si02
#       8
#     2   2   2   2   2   2   2   2
#     4  12  27  45  77 104 147 195 252 304 384 449
#     4  12  26  45  70 107 147 193 244 309 374 446
#     4  11  27  47  77 106 147 197 251 312 379 447
#     4  11  28  49  77 110 155 197 253 314 375 457
#     4  11  26  48  70 104 144 191 249 308 375 443
#     4  11  26  45  74 104 146 191 248 308 370 448
#     4  12  27  48  75 113 151 201 251 309 383 444
#     4  12  27  46  73 107 150 196 250 311 374 451
#
# _framework density 24.148945000000001
#
# number of rings (size 3 to 8) (size 9 to 14) (size 15 to 20)
#    0.000    0.500    2.500    3.750   12.250    2.000 
#    0.000    0.000    0.000    0.000    0.000    0.000 
#    0.000    0.000    0.000    0.000    0.000    0.000 
#
# Total GULP energy -198226.614878 kJ/mol
# GULP energy per Si atom -12389.163430 kJ/mol
# Density = 2.409398 g / cm^3
# Si number density = 24.148945 Si / 1000 Ang^3
#
#
#
# Elastic Constant Matrix: (Units=GPa)
#
#
# Indices 1 2 3 4 5 6 
#
# 1 93.4475 10.1269 22.2286 -7.9876 2.9929 3.7038
# 2 10.1269 79.2454 12.5928 2.1254 -1.6870 3.2029
# 3 22.2286 12.5928 127.0134 17.5781 14.3229 17.0614
# 4 -7.9876 2.1254 17.5781 36.7814 -8.5092 -9.2013
# 5 2.9929 -1.6870 14.3229 -8.5092 36.3687 -1.3502
# 6 3.7038 3.2029 17.0614 -9.2013 -1.3502 34.6460
#
#
#
# Elastic Compliance Matrix: (Units=1/GPa)
#
#
# Indices 1 2 3 4 5 6 
#
# 1 0.011843 -0.001205 -0.002985 0.004784 0.001325 0.001637
# 2 -0.001205 0.012997 -0.001040 -0.000449 0.000983 -0.000641
# 3 -0.002985 -0.001040 0.011787 -0.009936 -0.007078 -0.008304
# 4 0.004784 -0.000449 -0.009936 0.040005 0.013437 0.015571
# 5 0.001325 0.000983 -0.007078 0.013437 0.033666 0.008134
# 6 0.001637 -0.000641 -0.008304 0.015571 0.008134 0.037289
#
#
# Mechanical properties :
#
#
# Convention : Reuss Voigt Hill
#
# Bulk Modulus (GPa) = 38.21566 43.28920 40.75243
# Shear Modulus (GPa) = 29.98114 38.54307 34.26211
#
# Velocity S-wave (km/s) = 3.52733 3.99940 3.77076
# Velocity P-wave (km/s) = 5.69638 6.26832 5.98918
#
# Compressibility (1/GPa) = 0.02616728
#
# Stress axis : x y z
#
# Youngs Moduli (GPa) = 84.43515 76.93922 84.83629
#
# Poissons Ratio (x) = 0.09275 0.25321
# Poissons Ratio (y) = 0.10178 0.08825
# Poissons Ratio (z) = 0.25201 0.08004
#
# Static dielectric constant tensor:
#      x y z
#    x 4.033690 -0.401320 -0.455940 
#    y -0.401320 4.324360 -0.856950 
#    z -0.455940 -0.856950 3.817370 
# 
# 
# High freq. dielectric constant tensor:
#      x y z
#    x 1.938370 0.004160 -0.003050 
#    y 0.004160 1.968670 0.007580 
#    z -0.003050 0.007580 1.990870 
# 
# From -- ./inp_files/124688.got.cif
#   From: 2010.06.25/outbox.cif.g09.slc.cpg/sg2_63_cif.got.tgz:124688.got - 2010.06.27 13:26:56.
