data_PCOD8036691
_publ_section_title
;
Structure prediction by ZEFSAII (Michael W. Deem and Ramdas Pophale) SiO2 
 PCOD8036691
Probable space group: P -1
;
_chemical_formula_sum "Si O2"
_cell_formula_units_Z 14
_cell_length_a 15.253639
_cell_length_b 9.598115
_cell_length_c 12.269198
_cell_angle_alpha 124.928603
_cell_angle_beta 46.156304
_cell_angle_gamma 150.491908
_cell_volume 635.790138
_symmetry_space_group_name_H-M "P -1"
_symmetry_group_IT_number 2
_symmetry_cell_setting 'triclinic'
loop_
_space_group_symop_operation_xyz
x,y,z
-x,-y,-z
loop_
_atom_site_type_symbol
_atom_site_label
_atom_site_fract_x
_atom_site_fract_y
_atom_site_fract_z
Si Si1 0.515178 0.818744 0.878478
Si Si2 0.543488 0.043322 0.608270
Si Si3 0.366222 0.181528 0.453895
Si Si4 0.138526 0.760059 0.913742
Si Si5 0.687640 0.773627 0.891616
Si Si6 0.911549 0.717098 0.929839
Si Si7 0.890676 0.667860 0.670960
O O1 0.614355 0.890617 0.710125
O O2 0.641611 0.861681 0.880012
O O3 0.290797 0.494976 0.920359
O O4 0.500000 0.000000 0.000000
O O5 0.763217 0.370415 0.594967
O O6 0.500000 0.000000 0.500000
O O7 0.553023 0.855029 0.540445
O O8 0.358644 0.920491 0.780212
O O9 0.500000 0.500000 0.500000
O O10 0.126931 0.940910 0.563428
O O11 0.037565 0.692789 0.853627
O O12 0.000000 0.500000 0.000000
O O13 0.158554 0.968483 0.041343
O O14 0.796187 0.731942 0.727447
O O15 0.500000 0.500000 0.000000
O O16 0.858842 0.623490 0.808006
O O17 0.000000 0.000000 0.000000
#
# Coordination Sequence:
#
# PCOD8036691 Si02
#       7
#     2   2   2   2   2   2   2
#     4  12  26  47  72 104 145 189 238 303 361 427
#     4  12  28  49  72 101 147 196 246 293 360 442
#     4  12  29  49  72 110 150 188 241 307 377 429
#     4  12  25  42  71 110 143 180 242 308 355 421
#     4  12  23  45  75 106 140 187 248 292 358 438
#     4  12  22  42  74 105 140 189 240 291 360 436
#     4  12  26  47  77 104 146 196 244 295 366 441
#
# _framework density 22.019843999999999
#
# number of rings (size 3 to 8) (size 9 to 14) (size 15 to 20)
#    0.000    0.000    4.286    5.571    4.000    2.857 
#    0.000    0.000    0.000    0.000    0.000    0.000 
#    0.000    0.000    0.000    0.000    0.000    0.000 
#
# Total GULP energy -173576.551376 kJ/mol
# GULP energy per Si atom -12398.325098 kJ/mol
# Density = 2.196973 g / cm^3
# Si number density = 22.019844 Si / 1000 Ang^3
#
#
#
# Elastic Constant Matrix: (Units=GPa)
#
#
# Indices 1 2 3 4 5 6 
#
# 1 175.7993 54.1110 46.1906 4.3368 -2.9611 -18.4614
# 2 54.1110 139.9213 46.3278 -0.3959 1.8426 -7.4966
# 3 46.1906 46.3278 101.9311 -8.3336 -2.4767 -7.1192
# 4 4.3368 -0.3959 -8.3336 46.6191 8.1193 -7.3735
# 5 -2.9611 1.8426 -2.4767 8.1193 45.2264 1.2131
# 6 -18.4614 -7.4966 -7.1192 -7.3735 1.2131 41.2584
#
#
#
# Elastic Compliance Matrix: (Units=1/GPa)
#
#
# Indices 1 2 3 4 5 6 
#
# 1 0.007137 -0.001896 -0.002266 -0.000809 0.000504 0.002299
# 2 -0.001896 0.008970 -0.003233 -0.000181 -0.000640 0.000210
# 3 -0.002266 -0.003233 0.012593 0.002564 0.000185 0.001024
# 4 -0.000809 -0.000181 0.002564 0.023407 -0.004224 0.004355
# 5 0.000504 -0.000640 0.000185 -0.004224 0.022973 -0.001289
# 6 0.002299 0.000210 0.001024 0.004355 -0.001289 0.026297
#
#
# Mechanical properties :
#
#
# Convention : Reuss Voigt Hill
#
# Bulk Modulus (GPa) = 71.89382 78.99006 75.44194
# Shear Modulus (GPa) = 41.38971 44.68893 43.03932
#
# Velocity S-wave (km/s) = 4.34020 4.50987 4.42585
# Velocity P-wave (km/s) = 7.60506 7.94158 7.77514
#
# Compressibility (1/GPa) = 0.01390940
#
# Stress axis : x y z
#
# Youngs Moduli (GPa) = 140.11532 111.48672 79.41138
#
# Poissons Ratio (x) = 0.21133 0.17995
# Poissons Ratio (y) = 0.26559 0.25677
# Poissons Ratio (z) = 0.31750 0.36048
#
# Static dielectric constant tensor:
#      x y z
#    x 4.235620 0.004820 -0.164540 
#    y 0.004820 4.039150 0.018430 
#    z -0.164540 0.018430 4.009540 
# 
# 
# High freq. dielectric constant tensor:
#      x y z
#    x 1.890370 -0.002870 -0.004660 
#    y -0.002870 1.884780 -0.002350 
#    z -0.004660 -0.002350 1.863620 
# 
# From -- ./inp_files/155933.got.cif
#   From: 2010.06.25/outbox.cif.g09.slc.cpg/sg2_78_cif.got.tgz:155933.got - 2010.06.27 13:26:56.
