data_PCOD8036866
_publ_section_title
;
Structure prediction by ZEFSAII (Michael W. Deem and Ramdas Pophale) SiO2 
 PCOD8036866
Probable space group: P -1
;
_chemical_formula_sum "Si O2"
_cell_formula_units_Z 16
_cell_length_a 11.991014
_cell_length_b 14.873490
_cell_length_c 15.032128
_cell_angle_alpha 151.209068
_cell_angle_beta 40.074333
_cell_angle_gamma 121.254027
_cell_volume 724.827724
_symmetry_space_group_name_H-M "P -1"
_symmetry_group_IT_number 2
_symmetry_cell_setting 'triclinic'
loop_
_space_group_symop_operation_xyz
x,y,z
-x,-y,-z
loop_
_atom_site_type_symbol
_atom_site_label
_atom_site_fract_x
_atom_site_fract_y
_atom_site_fract_z
Si Si1 0.998142 0.189207 0.397124
Si Si2 0.782798 0.553031 0.149151
Si Si3 0.523068 0.476056 0.570164
Si Si4 0.874936 0.607968 0.758909
Si Si5 0.940628 0.131758 0.060053
Si Si6 0.421326 0.133668 0.076168
Si Si7 0.556537 0.033182 0.718659
Si Si8 0.875281 0.166255 0.642996
O O1 0.199861 0.181590 0.235402
O O2 0.835533 0.435627 0.687548
O O3 0.009274 0.125971 0.438665
O O4 0.954721 0.028667 0.225441
O O5 0.682001 0.496675 0.243511
O O6 0.651429 0.799749 0.412968
O O7 0.797584 0.408650 0.931012
O O8 0.000000 0.500000 0.000000
O O9 0.500000 0.500000 0.500000
O O10 0.703384 0.244202 0.286258
O O11 0.569863 0.649016 0.735409
O O12 0.000000 0.500000 0.500000
O O13 0.991764 0.689158 0.822514
O O14 0.665969 0.813761 0.043963
O O15 0.000000 0.000000 0.000000
O O16 0.561347 0.997196 0.790885
O O17 0.500000 0.000000 0.000000
O O18 0.688438 0.141614 0.706565
O O19 0.000000 0.000000 0.500000
#
# Coordination Sequence:
#
# PCOD8036866 Si02
#       8
#     2   2   2   2   2   2   2   2
#     4  12  27  45  75 109 145 200 248 301 373 440
#     4  12  27  45  72 104 150 198 241 302 379 437
#     4  12  26  42  73 112 143 190 256 312 371 442
#     4  12  24  47  76 109 148 192 245 313 369 433
#     4  12  24  45  76 111 151 190 250 313 373 441
#     4  12  23  43  71 106 147 183 250 318 369 430
#     4  12  25  48  74 105 145 197 247 301 372 438
#     4  12  28  50  73 106 157 199 243 304 372 450
#
# _framework density 22.074210000000001
#
# number of rings (size 3 to 8) (size 9 to 14) (size 15 to 20)
#    0.000    0.000    6.250    3.750    3.500    2.500 
#    0.000    1.250    0.000    0.000    0.000    0.000 
#    0.000    0.000    0.000    0.000    0.000    0.000 
#
# Total GULP energy -198475.567332 kJ/mol
# GULP energy per Si atom -12404.722958 kJ/mol
# Density = 2.202397 g / cm^3
# Si number density = 22.074210 Si / 1000 Ang^3
#
#
#
# Elastic Constant Matrix: (Units=GPa)
#
#
# Indices 1 2 3 4 5 6 
#
# 1 108.6945 49.3820 61.5130 7.0640 13.2266 1.7106
# 2 49.3820 114.0728 53.0014 -0.3157 12.6095 3.3564
# 3 61.5130 53.0014 146.3307 21.3794 11.0538 5.1071
# 4 7.0640 -0.3157 21.3794 41.1558 3.0447 -2.7278
# 5 13.2266 12.6095 11.0538 3.0447 54.4591 7.1338
# 6 1.7106 3.3564 5.1071 -2.7278 7.1338 49.5706
#
#
#
# Elastic Compliance Matrix: (Units=1/GPa)
#
#
# Indices 1 2 3 4 5 6 
#
# 1 0.013453 -0.003704 -0.004207 -0.000003 -0.001615 0.000452
# 2 -0.003704 0.011927 -0.003006 0.002388 -0.001380 -0.000040
# 3 -0.004207 -0.003006 0.010424 -0.004782 -0.000001 -0.000988
# 4 -0.000003 0.002388 -0.004782 0.027034 -0.001357 0.002014
# 5 -0.001615 -0.001380 -0.000001 -0.001357 0.019508 -0.002733
# 6 0.000452 -0.000040 -0.000988 0.002014 -0.002733 0.020766
#
#
# Mechanical properties :
#
#
# Convention : Reuss Voigt Hill
#
# Bulk Modulus (GPa) = 71.58222 77.43233 74.50728
# Shear Modulus (GPa) = 38.57863 42.71720 40.64791
#
# Velocity S-wave (km/s) = 4.18506 4.40382 4.29583
# Velocity P-wave (km/s) = 7.47338 7.81105 7.64408
#
# Compressibility (1/GPa) = 0.01396995
#
# Stress axis : x y z
#
# Youngs Moduli (GPa) = 74.33037 83.84420 95.92798
#
# Poissons Ratio (x) = 0.31056 0.40359
# Poissons Ratio (y) = 0.27532 0.28838
# Poissons Ratio (z) = 0.31273 0.25205
#
# Static dielectric constant tensor:
#      x y z
#    x 4.084750 0.231980 0.065540 
#    y 0.231980 4.298580 0.206160 
#    z 0.065540 0.206160 4.380330 
# 
# 
# High freq. dielectric constant tensor:
#      x y z
#    x 1.870720 0.012710 0.005160 
#    y 0.012710 1.870490 0.016360 
#    z 0.005160 0.016360 1.879570 
# 
# From -- ./inp_files/455805.got.cif
#   From: 2010.06.25/outbox.cif.g09.slc.cpg/sg2_228_cif.got.tgz:455805.got - 2010.06.27 13:26:56.
