data_PCOD8036358
_publ_section_title
;
Structure prediction by ZEFSAII (Michael W. Deem and Ramdas Pophale) SiO2 
 PCOD8036358
Probable space group: P -1
;
_chemical_formula_sum "Si O2"
_cell_formula_units_Z 16
_cell_length_a 11.692026
_cell_length_b 11.680276
_cell_length_c 12.125507
_cell_angle_alpha 76.250352
_cell_angle_beta 140.296415
_cell_angle_gamma 73.376519
_cell_volume 672.898675
_symmetry_space_group_name_H-M "P -1"
_symmetry_group_IT_number 2
_symmetry_cell_setting 'triclinic'
loop_
_space_group_symop_operation_xyz
x,y,z
-x,-y,-z
loop_
_atom_site_type_symbol
_atom_site_label
_atom_site_fract_x
_atom_site_fract_y
_atom_site_fract_z
Si Si1 0.724068 0.602136 0.834289
Si Si2 0.168715 0.081091 0.966574
Si Si3 0.307560 0.985191 0.341201
Si Si4 0.567024 0.472431 0.429398
Si Si5 0.469768 0.933358 0.887460
Si Si6 0.220657 0.805795 0.974262
Si Si7 0.857263 0.257983 0.304659
Si Si8 0.352799 0.393225 0.978748
O O1 0.470905 0.788175 0.541980
O O2 0.657871 0.497705 0.803922
O O3 0.741241 0.621458 0.972763
O O4 0.000000 0.500000 0.000000
O O5 0.879812 0.286274 0.681850
O O6 0.404116 0.058978 0.123774
O O7 0.203558 0.020885 0.131182
O O8 0.191384 0.961038 0.926236
O O9 0.500000 0.000000 0.500000
O O10 0.043225 0.129685 0.187598
O O11 0.500000 0.500000 0.500000
O O12 0.495401 0.634874 0.285862
O O13 0.619522 0.731383 0.056891
O O14 0.154709 0.063447 0.599514
O O15 0.500000 0.000000 0.000000
O O16 0.251229 0.750103 0.884563
O O17 0.860815 0.400148 0.268135
O O18 0.643286 0.318562 0.224944
#
# Coordination Sequence:
#
# PCOD8036358 Si02
#       8
#     2   2   2   2   2   2   2   2
#     4  12  26  43  73 107 145 187 239 301 356 429
#     4  12  27  44  68 108 147 193 241 303 366 442
#     4  12  24  43  68 102 149 193 248 295 360 438
#     4  12  25  43  69 105 145 190 238 293 367 422
#     4  12  29  47  74 106 147 188 242 306 368 431
#     4  12  23  45  72 102 143 193 242 299 364 434
#     4  11  26  48  79 103 139 194 244 297 371 432
#     4  11  26  49  75 108 139 187 252 298 356 440
#
# _framework density 23.777723999999999
#
# number of rings (size 3 to 8) (size 9 to 14) (size 15 to 20)
#    0.000    0.250    3.750    5.250    5.250    1.500 
#    0.000    0.000    0.000    0.000    0.000    0.000 
#    0.000    0.000    0.000    0.000    0.000    0.000 
#
# Total GULP energy -198435.264914 kJ/mol
# GULP energy per Si atom -12402.204057 kJ/mol
# Density = 2.372360 g / cm^3
# Si number density = 23.777724 Si / 1000 Ang^3
#
#
#
# Elastic Constant Matrix: (Units=GPa)
#
#
# Indices 1 2 3 4 5 6 
#
# 1 105.0820 16.6254 20.1730 -8.6253 8.1777 -2.8149
# 2 16.6254 135.2973 27.7844 -14.5694 -5.7440 -2.7202
# 3 20.1730 27.7844 95.7005 -20.3029 -5.0722 -8.1471
# 4 -8.6253 -14.5694 -20.3029 42.0808 2.9820 -0.3817
# 5 8.1777 -5.7440 -5.0722 2.9820 34.7275 3.1529
# 6 -2.8149 -2.7202 -8.1471 -0.3817 3.1529 32.0080
#
#
#
# Elastic Compliance Matrix: (Units=1/GPa)
#
#
# Indices 1 2 3 4 5 6 
#
# 1 0.010347 -0.000895 -0.001772 0.001175 -0.003007 0.000693
# 2 -0.000895 0.008090 -0.001732 0.001702 0.001143 0.000076
# 3 -0.001772 -0.001732 0.012722 0.005110 0.001290 0.002869
# 4 0.001175 0.001702 0.005110 0.027203 -0.001771 0.002047
# 5 -0.003007 0.001143 0.001290 -0.001771 0.030291 -0.002844
# 6 0.000693 0.000076 0.002869 0.002047 -0.002844 0.032344
#
#
# Mechanical properties :
#
#
# Convention : Reuss Voigt Hill
#
# Bulk Modulus (GPa) = 44.72022 51.69393 48.20707
# Shear Modulus (GPa) = 36.42956 39.86306 38.14631
#
# Velocity S-wave (km/s) = 3.91844 4.09894 4.00970
# Velocity P-wave (km/s) = 6.27062 6.64751 6.46181
#
# Compressibility (1/GPa) = 0.02236125
#
# Stress axis : x y z
#
# Youngs Moduli (GPa) = 96.64399 123.60862 78.60132
#
# Poissons Ratio (x) = 0.11059 0.13931
# Poissons Ratio (y) = 0.08646 0.13615
# Poissons Ratio (z) = 0.17129 0.21411
#
# Static dielectric constant tensor:
#      x y z
#    x 4.562490 0.086680 0.211650 
#    y 0.086680 4.575390 -0.518600 
#    z 0.211650 -0.518600 5.066680 
# 
# 
# High freq. dielectric constant tensor:
#      x y z
#    x 1.954280 0.000610 0.002080 
#    y 0.000610 1.957970 -0.016480 
#    z 0.002080 -0.016480 1.932040 
# 
# From -- ./inp_files/428245.got.cif
#   From: 2010.06.25/outbox.cif.g09.slc.cpg/sg2_215_cif.got.tgz:428245.got - 2010.06.27 13:26:56.
