data_PCOD8036184
_publ_section_title
;
Structure prediction by ZEFSAII (Michael W. Deem and Ramdas Pophale) SiO2 
 PCOD8036184
Probable space group: P -1
;
_chemical_formula_sum "Si O2"
_cell_formula_units_Z 10
_cell_length_a 4.926860
_cell_length_b 5.159076
_cell_length_c 19.714208
_cell_angle_alpha 85.341827
_cell_angle_beta 119.163238
_cell_angle_gamma 85.199486
_cell_volume 431.733899
_symmetry_space_group_name_H-M "P -1"
_symmetry_group_IT_number 2
_symmetry_cell_setting 'triclinic'
loop_
_space_group_symop_operation_xyz
x,y,z
-x,-y,-z
loop_
_atom_site_type_symbol
_atom_site_label
_atom_site_fract_x
_atom_site_fract_y
_atom_site_fract_z
Si Si1 0.862170 0.659856 0.158372
Si Si2 0.313578 0.760634 0.499851
Si Si3 0.850659 0.278126 0.947812
Si Si4 0.981166 0.892041 0.739643
Si Si5 0.729473 0.060327 0.366096
O O1 0.519125 0.671546 0.083967
O O2 0.985621 0.373432 0.208003
O O3 0.099332 0.712709 0.126798
O O4 0.850131 0.885162 0.208838
O O5 0.500000 0.500000 0.500000
O O6 0.276827 0.731762 0.577216
O O7 0.382803 0.985719 0.314933
O O8 0.969414 0.802308 0.422403
O O9 0.000000 0.500000 0.000000
O O10 0.000000 0.000000 0.000000
O O11 0.145662 0.817012 0.689274
O O12 0.500000 0.000000 0.500000
#
# Coordination Sequence:
#
# PCOD8036184 Si02
#       5
#     2   2   2   2   2
#     4  12  26  45  68 107 138 181 228 279 340 425
#     4  11  26  46  71 101 137 178 254 290 345 411
#     4  12  24  45  74 101 138 179 228 279 338 401
#     4  12  26  44  70  98 148 181 230 281 358 410
#     4  11  26  47  70 103 136 194 232 298 348 411
#
# _framework density 23.162413999999998
#
# number of rings (size 3 to 8) (size 9 to 14) (size 15 to 20)
#    0.000    0.400    2.000    6.000    2.800    6.400 
#    0.000    0.000    0.000    0.000    0.000    0.000 
#    0.000    0.000    0.000    0.000    0.000    0.000 
#
# Total GULP energy -124062.704393 kJ/mol
# GULP energy per Si atom -12406.270439 kJ/mol
# Density = 2.310969 g / cm^3
# Si number density = 23.162414 Si / 1000 Ang^3
#
#
#
# Elastic Constant Matrix: (Units=GPa)
#
#
# Indices 1 2 3 4 5 6 
#
# 1 130.5753 43.1111 46.9906 -0.3110 0.8337 -8.1205
# 2 43.1111 176.3950 60.8934 -4.9418 9.6414 -16.7240
# 3 46.9906 60.8934 123.2833 6.7496 5.4931 -4.5600
# 4 -0.3110 -4.9418 6.7496 10.0962 -6.7963 -2.7670
# 5 0.8337 9.6414 5.4931 -6.7963 39.4865 3.0563
# 6 -8.1205 -16.7240 -4.5600 -2.7670 3.0563 40.4483
#
#
#
# Elastic Compliance Matrix: (Units=1/GPa)
#
#
# Indices 1 2 3 4 5 6 
#
# 1 0.009205 -0.001016 -0.003157 0.002821 0.000886 0.001198
# 2 -0.001016 0.007674 -0.003638 0.006705 -0.000428 0.003050
# 3 -0.003157 -0.003638 0.011831 -0.011953 -0.002638 -0.001423
# 4 0.002821 0.006705 -0.011953 0.127131 0.021144 0.009090
# 5 0.000886 -0.000428 -0.002638 0.021144 0.029501 -0.001079
# 6 0.001198 0.003050 -0.001423 0.009090 -0.001079 0.026767
#
#
# Mechanical properties :
#
#
# Convention : Reuss Voigt Hill
#
# Bulk Modulus (GPa) = 76.40202 81.36043 78.88123
# Shear Modulus (GPa) = 21.54308 36.62344 29.08326
#
# Velocity S-wave (km/s) = 3.05304 3.98069 3.54732
# Velocity P-wave (km/s) = 6.74426 7.50534 7.13496
#
# Compressibility (1/GPa) = 0.01308866
#
# Stress axis : x y z
#
# Youngs Moduli (GPa) = 108.63237 130.31474 84.52427
#
# Poissons Ratio (x) = 0.13239 0.26680
# Poissons Ratio (y) = 0.11036 0.30752
# Poissons Ratio (z) = 0.34290 0.47412
#
# Static dielectric constant tensor:
#      x y z
#    x 4.554620 -0.083250 -0.020350 
#    y -0.083250 3.870020 0.097080 
#    z -0.020350 0.097080 4.513080 
# 
# 
# High freq. dielectric constant tensor:
#      x y z
#    x 1.940220 -0.006280 -0.000140 
#    y -0.006280 1.906390 0.002190 
#    z -0.000140 0.002190 1.934200 
# 
# From -- ./inp_files/2506.got.cif
#   From: 2010.06.25/outbox.cif.g09.slc.cpg/sg2_2_cif.got.tgz:2506.got - 2010.06.27 13:26:56.
