data_PCOD8036021
_publ_section_title
;
Structure prediction by ZEFSAII (Michael W. Deem and Ramdas Pophale) SiO2 
 PCOD8036021
Probable space group: P -1
;
_chemical_formula_sum "Si O2"
_cell_formula_units_Z 10
_cell_length_a 11.912793
_cell_length_b 8.695258
_cell_length_c 5.250475
_cell_angle_alpha 119.437484
_cell_angle_beta 63.668380
_cell_angle_gamma 92.747964
_cell_volume 414.308446
_symmetry_space_group_name_H-M "P -1"
_symmetry_group_IT_number 2
_symmetry_cell_setting 'triclinic'
loop_
_space_group_symop_operation_xyz
x,y,z
-x,-y,-z
loop_
_atom_site_type_symbol
_atom_site_label
_atom_site_fract_x
_atom_site_fract_y
_atom_site_fract_z
Si Si1 0.439057 0.153294 0.381369
Si Si2 0.200972 0.417765 0.713965
Si Si3 0.688498 0.089009 0.351131
Si Si4 0.081339 0.120090 0.370678
Si Si5 0.149647 0.652551 0.456029
O O1 0.353755 0.328683 0.471911
O O2 0.556296 0.205896 0.459955
O O3 0.341194 0.080296 0.604944
O O4 0.500000 0.000000 0.000000
O O5 0.117290 0.266565 0.646014
O O6 0.167319 0.563150 0.642327
O O7 0.168726 0.507168 0.093757
O O8 0.746617 0.222299 0.582658
O O9 0.789936 0.009079 0.965899
O O10 0.994144 0.224151 0.313462
O O11 0.000000 0.000000 0.500000
#
# Coordination Sequence:
#
# PCOD8036021 Si02
#       5
#     2   2   2   2   2
#     4  11  25  49  78 100 146 198 256 298 352 450
#     4  12  27  48  74 110 151 193 241 312 375 425
#     4  11  26  48  76 108 143 199 253 295 364 441
#     4  12  25  50  79 107 148 198 247 297 363 455
#     4  12  28  46  74 115 153 187 240 313 377 433
#
# _framework density 24.136606
#
# number of rings (size 3 to 8) (size 9 to 14) (size 15 to 20)
#    0.000    0.400    2.000    5.400    5.600    4.800 
#    0.000    0.000    0.000    0.000    0.000    0.000 
#    0.000    0.000    0.000    0.000    0.000    0.000 
#
# Total GULP energy -124046.594048 kJ/mol
# GULP energy per Si atom -12404.659405 kJ/mol
# Density = 2.408167 g / cm^3
# Si number density = 24.136606 Si / 1000 Ang^3
#
#
#
# Elastic Constant Matrix: (Units=GPa)
#
#
# Indices 1 2 3 4 5 6 
#
# 1 172.1680 55.4677 18.5718 18.4798 -6.2600 14.9584
# 2 55.4677 78.8104 47.7023 5.7542 -12.6021 7.7312
# 3 18.5718 47.7023 66.0011 -2.2528 1.0287 24.9287
# 4 18.4798 5.7542 -2.2528 36.3605 3.6554 -1.1160
# 5 -6.2600 -12.6021 1.0287 3.6554 50.0691 10.4288
# 6 14.9584 7.7312 24.9287 -1.1160 10.4288 53.9184
#
#
#
# Elastic Compliance Matrix: (Units=1/GPa)
#
#
# Indices 1 2 3 4 5 6 
#
# 1 0.008635 -0.008612 0.005021 -0.002796 -0.000260 -0.003490
# 2 -0.008612 0.035219 -0.026312 -0.003270 0.006879 0.008106
# 3 0.005021 -0.026312 0.038441 0.003955 -0.004047 -0.014528
# 4 -0.002796 -0.003270 0.003955 0.030070 -0.003602 0.000735
# 5 -0.000260 0.006879 -0.004047 -0.003602 0.022750 -0.003518
# 6 -0.003490 0.008106 -0.014528 0.000735 -0.003518 0.025765
#
#
# Mechanical properties :
#
#
# Convention : Reuss Voigt Hill
#
# Bulk Modulus (GPa) = 44.46468 62.27367 53.36918
# Shear Modulus (GPa) = 21.91236 41.08545 31.49890
#
# Velocity S-wave (km/s) = 3.01632 4.13025 3.61643
# Velocity P-wave (km/s) = 5.53109 6.97150 6.29265
#
# Compressibility (1/GPa) = 0.02248976
#
# Stress axis : x y z
#
# Youngs Moduli (GPa) = 115.80935 28.39369 26.01406
#
# Poissons Ratio (x) = 0.24451 -0.13062
# Poissons Ratio (y) = 0.99730 0.68448
# Poissons Ratio (z) = -0.58147 0.74709
#
# Static dielectric constant tensor:
#      x y z
#    x 5.202350 0.029460 -0.115620 
#    y 0.029460 4.180690 0.365560 
#    z -0.115620 0.365560 4.111840 
# 
# 
# High freq. dielectric constant tensor:
#      x y z
#    x 1.993390 -0.003580 -0.002610 
#    y -0.003580 1.952280 0.004630 
#    z -0.002610 0.004630 1.955170 
# 
# From -- ./inp_files/5551.got.cif
#   From: 2010.06.25/outbox.cif.g09.slc.cpg/sg2_3_cif.got.tgz:5551.got - 2010.06.27 13:26:56.
