data_PCOD8036143
_publ_section_title
;
Structure prediction by ZEFSAII (Michael W. Deem and Ramdas Pophale) SiO2 
 PCOD8036143
Probable space group: P -1
;
_chemical_formula_sum "Si O2"
_cell_formula_units_Z 10
_cell_length_a 15.372712
_cell_length_b 5.353058
_cell_length_c 9.391745
_cell_angle_alpha 104.161738
_cell_angle_beta 37.040864
_cell_angle_gamma 110.818271
_cell_volume 434.114981
_symmetry_space_group_name_H-M "P -1"
_symmetry_group_IT_number 2
_symmetry_cell_setting 'triclinic'
loop_
_space_group_symop_operation_xyz
x,y,z
-x,-y,-z
loop_
_atom_site_type_symbol
_atom_site_label
_atom_site_fract_x
_atom_site_fract_y
_atom_site_fract_z
Si Si1 0.677151 0.393125 0.621659
Si Si2 0.891624 0.245516 0.532389
Si Si3 0.350794 0.173265 0.066205
Si Si4 0.836547 0.425961 0.136152
Si Si5 0.166040 0.146974 0.044838
O O1 0.816673 0.313091 0.496362
O O2 0.653754 0.657131 0.762376
O O3 0.712809 0.449437 0.417235
O O4 0.520452 0.159128 0.813646
O O5 0.712621 0.709393 0.973481
O O6 0.000000 0.500000 0.500000
O O7 0.762356 0.117764 0.797380
O O8 0.002603 0.942308 0.679379
O O9 0.825977 0.633235 0.056114
O O10 0.000000 0.500000 0.000000
O O11 0.794360 0.119153 0.096492
#
# Coordination Sequence:
#
# PCOD8036143 Si02
#       5
#     2   2   2   2   2
#     4  11  26  45  72 103 146 185 239 293 360 415
#     4  12  23  44  75 106 136 189 242 299 342 427
#     4  11  26  46  70 106 141 191 235 297 352 428
#     4  12  26  46  71 109 140 189 235 300 352 429
#     4  12  26  45  75 102 145 184 244 287 360 420
#
# _framework density 23.035371999999999
#
# number of rings (size 3 to 8) (size 9 to 14) (size 15 to 20)
#    0.000    0.400    4.000    4.200    2.800    1.600 
#    0.000    0.000    0.000    0.000    0.000    0.000 
#    0.000    0.000    0.000    0.000    0.000    0.000 
#
# Total GULP energy -124017.716948 kJ/mol
# GULP energy per Si atom -12401.771695 kJ/mol
# Density = 2.298294 g / cm^3
# Si number density = 23.035372 Si / 1000 Ang^3
#
#
#
# Elastic Constant Matrix: (Units=GPa)
#
#
# Indices 1 2 3 4 5 6 
#
# 1 109.7846 37.4729 57.0070 -13.2790 6.5256 0.7504
# 2 37.4729 107.2652 55.8902 -11.3484 10.7944 -1.5010
# 3 57.0070 55.8902 166.2161 -5.9940 2.3006 23.1451
# 4 -13.2790 -11.3484 -5.9940 37.9771 1.2534 0.3258
# 5 6.5256 10.7944 2.3006 1.2534 45.2322 -6.2387
# 6 0.7504 -1.5010 23.1451 0.3258 -6.2387 25.4838
#
#
#
# Elastic Compliance Matrix: (Units=1/GPa)
#
#
# Indices 1 2 3 4 5 6 
#
# 1 0.012104 -0.001794 -0.003808 0.003099 -0.000830 0.002754
# 2 -0.001794 0.012588 -0.004044 0.002530 -0.002068 0.003929
# 3 -0.003808 -0.004044 0.009934 -0.000886 -0.000234 -0.009194
# 4 0.003099 0.002530 -0.000886 0.028090 -0.001775 0.000069
# 5 -0.000830 -0.002068 -0.000234 -0.001775 0.023598 0.005915
# 6 0.002754 0.003929 -0.009194 0.000069 0.005915 0.049189
#
#
# Mechanical properties :
#
#
# Convention : Reuss Voigt Hill
#
# Bulk Modulus (GPa) = 65.22452 76.00067 70.61260
# Shear Modulus (GPa) = 31.26829 37.26499 34.26664
#
# Velocity S-wave (km/s) = 3.68829 4.02646 3.86108
# Velocity P-wave (km/s) = 6.82015 7.39467 7.11321
#
# Compressibility (1/GPa) = 0.01533166
#
# Stress axis : x y z
#
# Youngs Moduli (GPa) = 82.61739 79.44319 100.66578
#
# Poissons Ratio (x) = 0.14255 0.38335
# Poissons Ratio (y) = 0.14824 0.40713
# Poissons Ratio (z) = 0.31462 0.32130
#
# Static dielectric constant tensor:
#      x y z
#    x 4.384210 0.134440 -0.003020 
#    y 0.134440 3.957530 0.122310 
#    z -0.003020 0.122310 4.701690 
# 
# 
# High freq. dielectric constant tensor:
#      x y z
#    x 1.923300 0.005640 0.002130 
#    y 0.005640 1.895470 0.001200 
#    z 0.002130 0.001200 1.922320 
# 
# From -- ./inp_files/286347.got.cif
#   From: 2010.06.25/outbox.cif.g09.slc.cpg/sg2_144_cif.got.tgz:286347.got - 2010.06.27 13:26:56.
