data_PCOD8036534
_publ_section_title
;
Structure prediction by ZEFSAII (Michael W. Deem and Ramdas Pophale) SiO2 
 PCOD8036534
Probable space group: P -1
;
_chemical_formula_sum "Si O2"
_cell_formula_units_Z 16
_cell_length_a 9.479785
_cell_length_b 15.187962
_cell_length_c 16.606832
_cell_angle_alpha 43.993797
_cell_angle_beta 149.502953
_cell_angle_gamma 140.671349
_cell_volume 758.559638
_symmetry_space_group_name_H-M "P -1"
_symmetry_group_IT_number 2
_symmetry_cell_setting 'triclinic'
loop_
_space_group_symop_operation_xyz
x,y,z
-x,-y,-z
loop_
_atom_site_type_symbol
_atom_site_label
_atom_site_fract_x
_atom_site_fract_y
_atom_site_fract_z
Si Si1 0.617268 0.446599 0.669444
Si Si2 0.508582 0.852863 0.725484
Si Si3 0.184100 0.149275 0.284297
Si Si4 0.249948 0.558130 0.833806
Si Si5 0.908234 0.839914 0.355071
Si Si6 0.238392 0.433868 0.170454
Si Si7 0.863806 0.541845 0.327017
Si Si8 0.213826 0.838858 0.343673
O O1 0.500000 0.500000 0.500000
O O2 0.414016 0.280341 0.692784
O O3 0.610255 0.535026 0.686362
O O4 0.970987 0.473231 0.812904
O O5 0.717756 0.830344 0.774207
O O6 0.417233 0.725162 0.828403
O O7 0.190400 0.843759 0.542175
O O8 0.695917 0.008883 0.754208
O O9 0.072747 0.265462 0.183086
O O10 0.482976 0.168191 0.469016
O O11 0.906485 0.992994 0.263509
O O12 0.115151 0.542981 0.685675
O O13 0.500000 0.500000 0.000000
O O14 0.963416 0.813792 0.306949
O O15 0.506924 0.504990 0.190143
O O16 0.000000 0.500000 0.000000
O O17 0.000000 0.500000 0.500000
O O18 0.050487 0.708324 0.288371
#
# Coordination Sequence:
#
# PCOD8036534 Si02
#       8
#     2   2   2   2   2   2   2   2
#     4  12  24  39  60  91 127 155 200 249 301 353
#     4   9  17  35  60  89 118 154 200 247 301 345
#     4   9  18  34  63  87 119 152 205 250 292 344
#     4  12  25  40  58  89 130 164 187 242 319 365
#     4   9  17  36  59  93 115 152 201 258 292 337
#     4  12  24  39  59  92 126 156 198 251 302 349
#     4  12  20  39  67  90 110 156 227 243 267 358
#     4   9  17  32  64  93 109 147 215 261 270 338
#
# _framework density 21.092606
#
# number of rings (size 3 to 8) (size 9 to 14) (size 15 to 20)
#    0.000    1.500    5.000    3.750    0.000    0.000 
#    0.000    4.375    0.000    0.000    0.000    0.000 
#    0.000    0.000    0.000    0.000    0.000    0.000 
#
# Total GULP energy -198324.726773 kJ/mol
# GULP energy per Si atom -12395.295423 kJ/mol
# Density = 2.104460 g / cm^3
# Si number density = 21.092606 Si / 1000 Ang^3
#
#
#
# Elastic Constant Matrix: (Units=GPa)
#
#
# Indices 1 2 3 4 5 6 
#
# 1 59.8558 42.8469 4.5061 -4.5206 12.8633 9.6652
# 2 42.8469 203.2824 35.4974 -32.5208 16.0487 19.1173
# 3 4.5061 35.4974 50.8170 -18.1071 14.0923 3.5605
# 4 -4.5206 -32.5208 -18.1071 28.5555 -4.6207 5.9042
# 5 12.8633 16.0487 14.0923 -4.6207 27.0608 3.9744
# 6 9.6652 19.1173 3.5605 5.9042 3.9744 39.6763
#
#
#
# Elastic Compliance Matrix: (Units=1/GPa)
#
#
# Indices 1 2 3 4 5 6 
#
# 1 0.021976 -0.004297 0.003912 0.000081 -0.009526 -0.002692
# 2 -0.004297 0.007724 -0.002186 0.007553 0.000425 -0.003645
# 3 0.003912 -0.002186 0.030509 0.016116 -0.013153 -0.003718
# 4 0.000081 0.007553 0.016116 0.056405 -0.001316 -0.013367
# 5 -0.009526 0.000425 -0.013153 -0.001316 0.048049 -0.001321
# 6 -0.002692 -0.003645 -0.003718 -0.013367 -0.001321 0.030071
#
#
# Mechanical properties :
#
#
# Convention : Reuss Voigt Hill
#
# Bulk Modulus (GPa) = 18.15923 53.29511 35.72717
# Shear Modulus (GPa) = 22.91141 34.46550 28.68845
#
# Velocity S-wave (km/s) = 3.29938 4.04667 3.69198
# Velocity P-wave (km/s) = 4.81066 6.86703 5.92868
#
# Compressibility (1/GPa) = 0.05506842
#
# Stress axis : x y z
#
# Youngs Moduli (GPa) = 45.50363 129.46224 32.77720
#
# Poissons Ratio (x) = 0.55630 -0.12823
# Poissons Ratio (y) = 0.19553 0.07164
# Poissons Ratio (z) = -0.17802 0.28297
#
# Static dielectric constant tensor:
#      x y z
#    x 2.381710 -8.539060 0.823020 
#    y -8.539060 -47.302170 4.457800 
#    z 0.823020 4.457800 3.012160 
# 
# 
# High freq. dielectric constant tensor:
#      x y z
#    x 1.797240 0.002080 0.011500 
#    y 0.002080 1.850160 -0.008890 
#    z 0.011500 -0.008890 1.797180 
# 
# From -- ./inp_files/262037.got.cif
#   From: 2010.06.25/outbox.cif.g09.slc.cpg/sg2_132_cif.got.tgz:262037.got - 2010.06.27 13:26:56.
