data_PCOD8036556
_publ_section_title
;
Structure prediction by ZEFSAII (Michael W. Deem and Ramdas Pophale) SiO2 
 PCOD8036556
Probable space group: P -1
;
_chemical_formula_sum "Si O2"
_cell_formula_units_Z 14
_cell_length_a 12.623225
_cell_length_b 15.995449
_cell_length_c 15.195350
_cell_angle_alpha 161.256940
_cell_angle_beta 136.981697
_cell_angle_gamma 40.805228
_cell_volume 642.754488
_symmetry_space_group_name_H-M "P -1"
_symmetry_group_IT_number 2
_symmetry_cell_setting 'triclinic'
loop_
_space_group_symop_operation_xyz
x,y,z
-x,-y,-z
loop_
_atom_site_type_symbol
_atom_site_label
_atom_site_fract_x
_atom_site_fract_y
_atom_site_fract_z
Si Si1 0.623354 0.434647 0.685614
Si Si2 0.846553 0.307238 0.946978
Si Si3 0.304735 0.594367 0.486369
Si Si4 0.552579 0.981431 0.782118
Si Si5 0.826345 0.844116 0.931935
Si Si6 0.943556 0.276745 0.793541
Si Si7 0.619915 0.919537 0.411839
O O1 0.746990 0.374663 0.617082
O O2 0.746851 0.373672 0.781425
O O3 0.511940 0.238191 0.425310
O O4 0.512528 0.741792 0.927217
O O5 0.983490 0.258729 0.903273
O O6 0.749178 0.086866 0.661404
O O7 0.718945 0.604425 0.167286
O O8 0.974770 0.251323 0.051210
O O9 0.500000 0.500000 0.500000
O O10 0.235397 0.874883 0.773566
O O11 0.236649 0.376129 0.274695
O O12 0.496598 0.016496 0.681607
O O13 0.747342 0.884733 0.824630
O O14 0.000000 0.000000 0.500000
O O15 0.000000 0.500000 0.000000
O O16 0.500000 0.000000 0.500000
#
# Coordination Sequence:
#
# PCOD8036556 Si02
#       7
#     2   2   2   2   2   2   2
#     4  12  22  36  61  87 130 173 222 254 300 377
#     4  12  25  46  67 100 134 168 221 280 332 394
#     4  12  21  37  58  95 136 185 221 250 305 396
#     4  12  22  42  64  92 122 167 216 268 317 388
#     4  12  24  40  64  94 137 174 213 271 325 374
#     4  12  22  37  58  91 135 173 208 253 315 384
#     4  12  26  49  74  95 124 172 224 286 349 393
#
# _framework density 21.781257
#
# number of rings (size 3 to 8) (size 9 to 14) (size 15 to 20)
#    0.000    0.000    5.714    6.000    0.000    0.000 
#    0.000    1.429    0.000    0.000    0.000    0.000 
#    0.000    0.000    0.000    0.000    0.000    0.000 
#
# Total GULP energy -173454.671575 kJ/mol
# GULP energy per Si atom -12389.619398 kJ/mol
# Density = 2.173168 g / cm^3
# Si number density = 21.781257 Si / 1000 Ang^3
#
#
#
# Elastic Constant Matrix: (Units=GPa)
#
#
# Indices 1 2 3 4 5 6 
#
# 1 74.8031 31.9314 29.0771 -5.9333 -12.8788 1.1668
# 2 31.9314 158.4441 37.3832 -17.8249 -7.1833 -12.0775
# 3 29.0771 37.3832 156.6350 11.0379 -2.2405 -2.6848
# 4 -5.9333 -17.8249 11.0379 40.6717 -5.1893 2.2422
# 5 -12.8788 -7.1833 -2.2405 -5.1893 23.8252 0.2133
# 6 1.1668 -12.0775 -2.6848 2.2422 0.2133 24.3818
#
#
#
# Elastic Compliance Matrix: (Units=1/GPa)
#
#
# Indices 1 2 3 4 5 6 
#
# 1 0.017347 -0.002186 -0.002871 0.003681 0.009274 -0.002649
# 2 -0.002186 0.007896 -0.001649 0.003627 0.001803 0.003485
# 3 -0.002871 -0.001649 0.007534 -0.003481 -0.002103 0.000489
# 4 0.003681 0.003627 -0.003481 0.028898 0.009063 -0.001500
# 5 0.009274 0.001803 -0.002103 0.009063 0.049314 -0.001047
# 6 -0.002649 0.003485 0.000489 -0.001500 -0.001047 0.043068
#
#
# Mechanical properties :
#
#
# Convention : Reuss Voigt Hill
#
# Bulk Modulus (GPa) = 51.63464 65.18506 58.40985
# Shear Modulus (GPa) = 28.74798 37.20845 32.97822
#
# Velocity S-wave (km/s) = 3.63691 4.13762 3.89532
# Velocity P-wave (km/s) = 6.43379 7.26764 6.86339
#
# Compressibility (1/GPa) = 0.01936684
#
# Stress axis : x y z
#
# Youngs Moduli (GPa) = 57.64555 126.63966 132.72588
#
# Poissons Ratio (x) = 0.27685 0.38102
# Poissons Ratio (y) = 0.12602 0.21885
# Poissons Ratio (z) = 0.16548 0.20881
#
# Static dielectric constant tensor:
#      x y z
#    x 3.712290 0.107200 0.085150 
#    y 0.107200 5.003940 -0.272880 
#    z 0.085150 -0.272880 4.401400 
# 
# 
# High freq. dielectric constant tensor:
#      x y z
#    x 1.806100 -0.007370 0.008480 
#    y -0.007370 1.896270 -0.003900 
#    z 0.008480 -0.003900 1.880610 
# 
# From -- ./inp_files/522059.got.cif
#   From: 2010.06.25/outbox.cif.g09.slc.cpg/sg2_262_cif.got.tgz:522059.got - 2010.06.27 13:26:56.
