data_PCOD8036814
_publ_section_title
;
Structure prediction by ZEFSAII (Michael W. Deem and Ramdas Pophale) SiO2 
 PCOD8036814
Probable space group: P -1
;
_chemical_formula_sum "Si O2"
_cell_formula_units_Z 14
_cell_length_a 7.335026
_cell_length_b 20.064615
_cell_length_c 7.849069
_cell_angle_alpha 58.663407
_cell_angle_beta 38.333893
_cell_angle_gamma 53.106968
_cell_volume 570.200059
_symmetry_space_group_name_H-M "P -1"
_symmetry_group_IT_number 2
_symmetry_cell_setting 'triclinic'
loop_
_space_group_symop_operation_xyz
x,y,z
-x,-y,-z
loop_
_atom_site_type_symbol
_atom_site_label
_atom_site_fract_x
_atom_site_fract_y
_atom_site_fract_z
Si Si1 0.681930 0.058772 0.737690
Si Si2 0.252542 0.843249 0.106533
Si Si3 0.276979 0.620210 0.832964
Si Si4 0.544262 0.560846 0.181777
Si Si5 0.182418 0.364128 0.376879
Si Si6 0.601196 0.832778 0.525752
Si Si7 0.578512 0.674729 0.268698
O O1 0.717070 0.101220 0.832330
O O2 0.513755 0.127734 0.626880
O O3 0.000000 0.000000 0.500000
O O4 0.500000 0.000000 0.000000
O O5 0.468435 0.746969 0.112721
O O6 0.890598 0.856525 0.342263
O O7 0.350278 0.867943 0.816990
O O8 0.288075 0.536799 0.840177
O O9 0.569752 0.595502 0.780757
O O10 0.326970 0.692952 0.582306
O O11 0.922903 0.662077 0.113069
O O12 0.557213 0.586668 0.334529
O O13 0.175278 0.594989 0.344291
O O14 0.774787 0.609402 0.881232
O O15 0.303694 0.265368 0.440841
#
# Coordination Sequence:
#
# PCOD8036814 Si02
#       7
#     2   2   2   2   2   2   2
#     4  12  29  50  77 116 146 178 235 292 360 450
#     4  12  26  48  78 105 148 194 236 294 359 432
#     4  12  25  38  65  97 137 188 234 308 356 395
#     4  12  23  42  63  95 139 182 239 298 352 415
#     4  12  23  43  65  96 136 182 245 286 352 428
#     4  12  25  48  76 106 146 195 235 294 360 430
#     4  12  23  43  64  97 136 181 245 283 355 426
#
# _framework density 24.552786000000001
#
# number of rings (size 3 to 8) (size 9 to 14) (size 15 to 20)
#    0.000    0.000    2.857    7.714    0.000    5.714 
#    0.000    0.000    0.000    0.000    0.000    0.000 
#    0.000    0.000    0.000    0.000    0.000    0.000 
#
# Total GULP energy -173489.929950 kJ/mol
# GULP energy per Si atom -12392.137854 kJ/mol
# Density = 2.449690 g / cm^3
# Si number density = 24.552786 Si / 1000 Ang^3
#
#
#
# Elastic Constant Matrix: (Units=GPa)
#
#
# Indices 1 2 3 4 5 6 
#
# 1 71.8312 19.9720 11.0008 -11.5820 -17.0221 8.3794
# 2 19.9720 80.8997 56.0529 -7.0978 1.8989 7.1855
# 3 11.0008 56.0529 143.1787 -15.6804 -17.9430 -2.2150
# 4 -11.5820 -7.0978 -15.6804 32.0708 -5.2390 2.2686
# 5 -17.0221 1.8989 -17.9430 -5.2390 47.5376 0.5094
# 6 8.3794 7.1855 -2.2150 2.2686 0.5094 43.9676
#
#
#
# Elastic Compliance Matrix: (Units=1/GPa)
#
#
# Indices 1 2 3 4 5 6 
#
# 1 0.019040 -0.005880 0.002889 0.008697 0.009134 -0.003077
# 2 -0.005880 0.019757 -0.008414 -0.002738 -0.006347 -0.002317
# 3 0.002889 -0.008414 0.011497 0.005764 0.006334 0.001033
# 4 0.008697 -0.002738 0.005764 0.038324 0.009655 -0.003009
# 5 0.009134 -0.006347 0.006334 0.009655 0.028028 -0.001207
# 6 -0.003077 -0.002317 0.001033 -0.003009 -0.001207 0.023930
#
#
# Mechanical properties :
#
#
# Convention : Reuss Voigt Hill
#
# Bulk Modulus (GPa) = 36.38551 52.21786 44.30169
# Shear Modulus (GPa) = 28.97732 38.64079 33.80905
#
# Velocity S-wave (km/s) = 3.43914 3.97140 3.71481
# Velocity P-wave (km/s) = 5.53369 6.50716 6.04007
#
# Compressibility (1/GPa) = 0.02748347
#
# Stress axis : x y z
#
# Youngs Moduli (GPa) = 52.52168 50.61497 86.97622
#
# Poissons Ratio (x) = 0.29761 -0.25124
# Poissons Ratio (y) = 0.30882 0.73182
# Poissons Ratio (z) = -0.15171 0.42587
#
# Static dielectric constant tensor:
#      x y z
#    x 4.657770 0.080870 0.088530 
#    y 0.080870 4.223060 -0.048700 
#    z 0.088530 -0.048700 4.886730 
# 
# 
# High freq. dielectric constant tensor:
#      x y z
#    x 1.991750 0.004890 0.000860 
#    y 0.004890 1.957760 -0.003750 
#    z 0.000860 -0.003750 2.009530 
# 
# From -- ./inp_files/223116.got.cif
#   From: 2010.06.25/outbox.cif.g09.slc.cpg/sg2_112_cif.got.tgz:223116.got - 2010.06.27 13:26:56.
