data_PCOD8036649
_publ_section_title
;
Structure prediction by ZEFSAII (Michael W. Deem and Ramdas Pophale) SiO2 
 PCOD8036649
Probable space group: P -1
;
_chemical_formula_sum "Si O2"
_cell_formula_units_Z 16
_cell_length_a 13.076278
_cell_length_b 6.484138
_cell_length_c 20.881173
_cell_angle_alpha 98.991079
_cell_angle_beta 157.059907
_cell_angle_gamma 78.567867
_cell_volume 674.787994
_symmetry_space_group_name_H-M "P -1"
_symmetry_group_IT_number 2
_symmetry_cell_setting 'triclinic'
loop_
_space_group_symop_operation_xyz
x,y,z
-x,-y,-z
loop_
_atom_site_type_symbol
_atom_site_label
_atom_site_fract_x
_atom_site_fract_y
_atom_site_fract_z
Si Si1 0.962572 0.654873 0.612439
Si Si2 0.517893 0.707159 0.892686
Si Si3 0.125491 0.650373 0.124839
Si Si4 0.740323 0.040222 0.957949
Si Si5 0.163997 0.334221 0.240826
Si Si6 0.348319 0.961423 0.476447
Si Si7 0.569595 0.624355 0.283879
Si Si8 0.991906 0.614786 0.256237
O O1 0.868198 0.589944 0.483517
O O2 0.231246 0.754647 0.762054
O O3 0.031567 0.441983 0.684924
O O4 0.745683 0.826475 0.529327
O O5 0.605801 0.927992 0.932396
O O6 0.503736 0.559599 0.814185
O O7 0.718702 0.610203 0.059301
O O8 0.122188 0.554785 0.188977
O O9 0.415736 0.648733 0.264175
O O10 0.000000 0.500000 0.000000
O O11 0.950576 0.878486 0.031978
O O12 0.499636 0.150790 0.780630
O O13 0.903346 0.220593 0.085392
O O14 0.424856 0.184826 0.358889
O O15 0.196814 0.417935 0.336214
O O16 0.097907 0.837035 0.316755
O O17 0.500000 0.000000 0.500000
#
# Coordination Sequence:
#
# PCOD8036649 Si02
#       8
#     2   2   2   2   2   2   2   2
#     4  12  30  47  73 107 147 194 242 296 360 428
#     4  12  27  50  74 103 144 198 248 292 351 428
#     4  12  22  39  67 109 140 181 236 293 359 421
#     4  12  23  42  73 103 148 186 241 290 357 424
#     4  12  24  43  73 107 143 185 231 299 366 420
#     4  12  27  44  72 109 146 181 232 298 369 425
#     4  12  26  46  72 107 147 190 239 302 358 426
#     4  12  25  50  76 104 144 190 238 302 357 431
#
# _framework density 23.71115
#
# number of rings (size 3 to 8) (size 9 to 14) (size 15 to 20)
#    0.000    0.000    6.250    3.750    3.500    3.000 
#    0.000    0.000    0.000    0.000    0.000    0.000 
#    0.000    0.000    0.000    0.000    0.000    0.000 
#
# Total GULP energy -198298.469846 kJ/mol
# GULP energy per Si atom -12393.654365 kJ/mol
# Density = 2.365718 g / cm^3
# Si number density = 23.711150 Si / 1000 Ang^3
#
#
#
# Elastic Constant Matrix: (Units=GPa)
#
#
# Indices 1 2 3 4 5 6 
#
# 1 88.2083 39.4943 35.0266 -4.7452 -2.8288 11.4207
# 2 39.4943 96.2610 29.8671 -2.4019 -16.0598 17.8681
# 3 35.0266 29.8671 127.9755 0.4184 -20.3901 12.1429
# 4 -4.7452 -2.4019 0.4184 31.1691 4.1459 -4.0942
# 5 -2.8288 -16.0598 -20.3901 4.1459 40.1629 3.4887
# 6 11.4207 17.8681 12.1429 -4.0942 3.4887 33.3472
#
#
#
# Elastic Compliance Matrix: (Units=1/GPa)
#
#
# Indices 1 2 3 4 5 6 
#
# 1 0.015240 -0.005598 -0.003319 0.002285 -0.003050 -0.000411
# 2 -0.005598 0.015061 -0.000341 -0.001411 0.006196 -0.006850
# 3 -0.003319 -0.000341 0.009909 -0.001742 0.005104 -0.003037
# 4 0.002285 -0.001411 -0.001742 0.033737 -0.005231 0.005297
# 5 -0.003050 0.006196 0.005104 -0.005231 0.030989 -0.008018
# 6 -0.000411 -0.006850 -0.003037 0.005297 -0.008018 0.036394
#
#
# Mechanical properties :
#
#
# Convention : Reuss Voigt Hill
#
# Bulk Modulus (GPa) = 46.09743 57.91343 52.00543
# Shear Modulus (GPa) = 29.92628 34.80629 32.36629
#
# Velocity S-wave (km/s) = 3.55648 3.83551 3.69863
# Velocity P-wave (km/s) = 6.02895 6.64022 6.34195
#
# Compressibility (1/GPa) = 0.02169319
#
# Stress axis : x y z
#
# Youngs Moduli (GPa) = 65.61818 66.39628 100.91782
#
# Poissons Ratio (x) = 0.37171 0.33494
# Poissons Ratio (y) = 0.36735 0.03441
# Poissons Ratio (z) = 0.21778 0.02264
#
# Static dielectric constant tensor:
#      x y z
#    x 3.927910 0.007720 -0.026960 
#    y 0.007720 4.131050 -0.129420 
#    z -0.026960 -0.129420 4.448320 
# 
# 
# High freq. dielectric constant tensor:
#      x y z
#    x 1.933780 0.006830 -0.002760 
#    y 0.006830 1.942570 0.000350 
#    z -0.002760 0.000350 1.949420 
# 
# From -- ./inp_files/101108.got.cif
#   From: 2010.06.25/outbox.cif.g09.slc.cpg/sg2_51_cif.got.tgz:101108.got - 2010.06.27 13:26:56.
