data_PCOD8036701
_publ_section_title
;
Structure prediction by ZEFSAII (Michael W. Deem and Ramdas Pophale) SiO2 
 PCOD8036701
Probable space group: P -1
;
_chemical_formula_sum "Si O2"
_cell_formula_units_Z 14
_cell_length_a 6.902367
_cell_length_b 8.674301
_cell_length_c 16.344721
_cell_angle_alpha 138.911122
_cell_angle_beta 82.853629
_cell_angle_gamma 95.750930
_cell_volume 638.143855
_symmetry_space_group_name_H-M "P -1"
_symmetry_group_IT_number 2
_symmetry_cell_setting 'triclinic'
loop_
_space_group_symop_operation_xyz
x,y,z
-x,-y,-z
loop_
_atom_site_type_symbol
_atom_site_label
_atom_site_fract_x
_atom_site_fract_y
_atom_site_fract_z
Si Si1 0.089850 0.260723 0.927318
Si Si2 0.477427 0.315917 0.856142
Si Si3 0.813578 0.958753 0.726718
Si Si4 0.945688 0.730818 0.887634
Si Si5 0.890620 0.052894 0.443801
Si Si6 0.669250 0.577966 0.260141
Si Si7 0.697256 0.547215 0.677190
O O1 0.272754 0.181349 0.831120
O O2 0.924773 0.060552 0.842100
O O3 0.000000 0.500000 0.000000
O O4 0.157517 0.315491 0.038381
O O5 0.459840 0.459508 0.829807
O O6 0.648649 0.130015 0.770364
O O7 0.500000 0.500000 0.000000
O O8 0.717220 0.713570 0.662914
O O9 0.961169 0.933218 0.633899
O O10 0.140072 0.578982 0.808358
O O11 0.798512 0.670171 0.798868
O O12 0.000000 0.000000 0.000000
O O13 0.792356 0.302967 0.553339
O O14 0.725118 0.852863 0.365083
O O15 0.000000 0.000000 0.500000
O O16 0.531948 0.500928 0.312306
#
# Coordination Sequence:
#
# PCOD8036701 Si02
#       7
#     2   2   2   2   2   2   2
#     4  12  22  43  68 102 142 186 235 283 345 422
#     4  12  24  41  74 104 144 183 239 284 349 430
#     4  12  26  46  69 107 142 185 230 296 355 414
#     4  12  25  44  71 105 151 185 228 296 364 416
#     4  12  25  52  77  97 141 191 246 292 347 422
#     4  12  26  47  73 107 137 190 242 290 351 423
#     4  12  28  46  72 107 145 184 239 296 359 416
#
# _framework density 21.938625999999999
#
# number of rings (size 3 to 8) (size 9 to 14) (size 15 to 20)
#    0.000    0.000    7.143    2.571    2.000    0.571 
#    0.000    1.429    0.000    0.000    0.000    0.000 
#    0.000    0.000    0.000    0.000    0.000    0.000 
#
# Total GULP energy -173580.900736 kJ/mol
# GULP energy per Si atom -12398.635767 kJ/mol
# Density = 2.188869 g / cm^3
# Si number density = 21.938626 Si / 1000 Ang^3
#
#
#
# Elastic Constant Matrix: (Units=GPa)
#
#
# Indices 1 2 3 4 5 6 
#
# 1 70.7217 17.9681 10.3447 -9.3220 -9.0683 22.4917
# 2 17.9681 122.4660 29.3417 -5.0842 2.0692 28.5379
# 3 10.3447 29.3417 92.0238 3.9724 -4.2269 16.5643
# 4 -9.3220 -5.0842 3.9724 41.0565 -0.0419 0.7354
# 5 -9.0683 2.0692 -4.2269 -0.0419 34.3508 -5.6518
# 6 22.4917 28.5379 16.5643 0.7354 -5.6518 39.7798
#
#
#
# Elastic Compliance Matrix: (Units=1/GPa)
#
#
# Indices 1 2 3 4 5 6 
#
# 1 0.018306 -0.000237 -0.000278 0.004331 0.003224 -0.009687
# 2 -0.000237 0.010404 -0.002244 0.001570 -0.002069 -0.006718
# 3 -0.000278 -0.002244 0.012297 -0.001473 0.001051 -0.003177
# 4 0.004331 0.001570 -0.001473 0.025738 0.000341 -0.003389
# 5 0.003224 -0.002069 0.001051 0.000341 0.030808 0.003595
# 6 -0.009687 -0.006718 -0.003177 -0.003389 0.003595 0.037331
#
#
# Mechanical properties :
#
#
# Convention : Reuss Voigt Hill
#
# Bulk Modulus (GPa) = 28.17723 44.50229 36.33976
# Shear Modulus (GPa) = 32.84493 38.20786 35.52640
#
# Velocity S-wave (km/s) = 3.87347 4.17775 4.02849
# Velocity P-wave (km/s) = 5.73381 6.60306 6.18373
#
# Compressibility (1/GPa) = 0.03548965
#
# Stress axis : x y z
#
# Youngs Moduli (GPa) = 54.62811 96.12092 81.31918
#
# Poissons Ratio (x) = 0.02275 0.02257
# Poissons Ratio (y) = 0.01293 0.18249
# Poissons Ratio (z) = 0.01516 0.21570
#
# Static dielectric constant tensor:
#      x y z
#    x 5.452490 0.739430 0.140670 
#    y 0.739430 4.155390 0.081940 
#    z 0.140670 0.081940 3.944850 
# 
# 
# High freq. dielectric constant tensor:
#      x y z
#    x 1.871400 0.006680 -0.000280 
#    y 0.006680 1.875430 -0.003760 
#    z -0.000280 -0.003760 1.868980 
# 
# From -- ./inp_files/69525.got.cif
#   From: 2010.06.25/outbox.cif.g09.slc.cpg/sg2_35_cif.got.tgz:69525.got - 2010.06.27 13:26:56.
