data_PCOD8036359
_publ_section_title
;
Structure prediction by ZEFSAII (Michael W. Deem and Ramdas Pophale) SiO2 
 PCOD8036359
Probable space group: P -1
;
_chemical_formula_sum "Si O2"
_cell_formula_units_Z 12
_cell_length_a 4.992928
_cell_length_b 13.872703
_cell_length_c 13.854959
_cell_angle_alpha 151.507824
_cell_angle_beta 95.884836
_cell_angle_gamma 78.616827
_cell_volume 443.601291
_symmetry_space_group_name_H-M "P -1"
_symmetry_group_IT_number 2
_symmetry_cell_setting 'triclinic'
loop_
_space_group_symop_operation_xyz
x,y,z
-x,-y,-z
loop_
_atom_site_type_symbol
_atom_site_label
_atom_site_fract_x
_atom_site_fract_y
_atom_site_fract_z
Si Si1 0.779091 0.911188 0.822225
Si Si2 0.224000 0.357302 0.022758
Si Si3 0.377265 0.413685 0.826448
Si Si4 0.757573 0.028152 0.438879
Si Si5 0.284620 0.775686 0.591387
Si Si6 0.333381 0.290639 0.172123
O O1 0.580257 0.829127 0.667320
O O2 0.831499 0.774228 0.800981
O O3 0.071895 0.896303 0.769426
O O4 0.646149 0.149392 0.057592
O O5 0.479312 0.470374 0.148829
O O6 0.189060 0.247351 0.026505
O O7 0.950925 0.529924 0.138952
O O8 0.286414 0.196593 0.793724
O O9 0.475755 0.164500 0.597183
O O10 0.500000 0.500000 0.000000
O O11 0.829189 0.149202 0.453088
O O12 0.000000 0.000000 0.500000
O O13 0.323956 0.531840 0.393247
#
# Coordination Sequence:
#
# PCOD8036359 Si02
#       6
#     2   2   2   2   2   2
#     4  11  28  48  75 113 143 193 246 303 364 437
#     4  12  28  47  74 108 148 192 241 304 365 433
#     4  12  28  49  75 105 146 196 247 302 365 427
#     4  12  28  49  76 110 148 196 246 303 361 437
#     4  12  27  48  74 108 150 192 243 303 367 430
#     4  11  26  48  79 106 151 191 244 302 368 434
#
# _framework density 27.051317000000001
#
# number of rings (size 3 to 8) (size 9 to 14) (size 15 to 20)
#    0.000    0.333    5.000    1.500    4.667    7.333 
#    0.000    0.000    0.000    0.000    0.000    0.000 
#    0.000    0.000    0.000    0.000    0.000    0.000 
#
# Total GULP energy -148828.409086 kJ/mol
# GULP energy per Si atom -12402.367424 kJ/mol
# Density = 2.698975 g / cm^3
# Si number density = 27.051317 Si / 1000 Ang^3
#
#
#
# Elastic Constant Matrix: (Units=GPa)
#
#
# Indices 1 2 3 4 5 6 
#
# 1 69.9926 10.3055 33.4316 3.1475 -9.4733 -7.1287
# 2 10.3055 133.1205 31.1734 -6.6858 -1.6756 -23.5400
# 3 33.4316 31.1734 155.8284 17.6433 -26.8558 -7.0133
# 4 3.1475 -6.6858 17.6433 58.0218 -1.7763 3.2846
# 5 -9.4733 -1.6756 -26.8558 -1.7763 38.6958 -10.2727
# 6 -7.1287 -23.5400 -7.0133 3.2846 -10.2727 24.2728
#
#
#
# Elastic Compliance Matrix: (Units=1/GPa)
#
#
# Indices 1 2 3 4 5 6 
#
# 1 0.016679 0.000484 -0.002693 -0.000266 0.003888 0.006271
# 2 0.000484 0.009614 -0.001290 0.000982 0.002324 0.009943
# 3 -0.002693 -0.001290 0.008777 -0.002679 0.006174 0.003469
# 4 -0.000266 0.000982 -0.002679 0.018299 -0.001884 -0.003173
# 5 0.003888 0.002324 0.006174 -0.001884 0.036655 0.020948
# 6 0.006271 0.009943 0.003469 -0.003173 0.020948 0.062981
#
#
# Mechanical properties :
#
#
# Convention : Reuss Voigt Hill
#
# Bulk Modulus (GPa) = 35.62344 56.52917 46.07630
# Shear Modulus (GPa) = 29.52314 43.13348 36.32831
#
# Velocity S-wave (km/s) = 3.30718 3.99746 3.66859
# Velocity P-wave (km/s) = 5.27074 6.49989 5.91732
#
# Compressibility (1/GPa) = 0.02807140
#
# Stress axis : x y z
#
# Youngs Moduli (GPa) = 59.95539 104.02008 113.93928
#
# Poissons Ratio (x) = -0.05033 0.30680
# Poissons Ratio (y) = -0.02901 0.14699
# Poissons Ratio (z) = 0.16144 0.13420
#
# Static dielectric constant tensor:
#      x y z
#    x 5.323490 0.613220 -0.039240 
#    y 0.613220 5.737000 -0.022320 
#    z -0.039240 -0.022320 5.294830 
# 
# 
# High freq. dielectric constant tensor:
#      x y z
#    x 2.065170 0.013130 -0.004050 
#    y 0.013130 2.124260 -0.000180 
#    z -0.004050 -0.000180 2.115040 
# 
# From -- ./inp_files/484621.got.cif
#   From: 2010.06.25/outbox.cif.g09.slc.cpg/sg2_243_cif.got.tgz:484621.got - 2010.06.27 13:26:56.
