data_PCOD8036861
_publ_section_title
;
Structure prediction by ZEFSAII (Michael W. Deem and Ramdas Pophale) SiO2 
 PCOD8036861
Probable space group: P -1
;
_chemical_formula_sum "Si O2"
_cell_formula_units_Z 14
_cell_length_a 16.603617
_cell_length_b 9.224298
_cell_length_c 9.370287
_cell_angle_alpha 31.888215
_cell_angle_beta 119.704257
_cell_angle_gamma 109.498822
_cell_volume 646.570070
_symmetry_space_group_name_H-M "P -1"
_symmetry_group_IT_number 2
_symmetry_cell_setting 'triclinic'
loop_
_space_group_symop_operation_xyz
x,y,z
-x,-y,-z
loop_
_atom_site_type_symbol
_atom_site_label
_atom_site_fract_x
_atom_site_fract_y
_atom_site_fract_z
Si Si1 0.564563 0.203213 0.328542
Si Si2 0.830012 0.466768 0.026907
Si Si3 0.397862 0.134533 0.851808
Si Si4 0.708786 0.031615 0.360935
Si Si5 0.335281 0.762373 0.333469
Si Si6 0.875241 0.206763 0.976947
Si Si7 0.987440 0.585103 0.581589
O O1 0.612345 0.089711 0.317336
O O2 0.649308 0.220457 0.498352
O O3 0.500000 0.000000 0.500000
O O4 0.500000 0.500000 0.000000
O O5 0.749309 0.314063 0.145745
O O6 0.911058 0.447085 0.230567
O O7 0.870127 0.331960 0.026188
O O8 0.786865 0.792656 0.699000
O O9 0.391254 0.465706 0.573932
O O10 0.315727 0.067399 0.733816
O O11 0.500000 0.000000 0.000000
O O12 0.379821 0.008391 0.095074
O O13 0.225557 0.800076 0.173747
O O14 0.926319 0.388271 0.767237
O O15 0.934673 0.898921 0.292825
O O16 0.000000 0.500000 0.500000
#
# Coordination Sequence:
#
# PCOD8036861 Si02
#       7
#     2   2   2   2   2   2   2
#     4  12  27  46  66 100 141 185 224 277 342 395
#     4  12  25  46  69 103 135 178 223 278 341 396
#     4  12  23  43  69 100 134 175 229 278 324 394
#     4  12  24  44  69 100 137 179 227 277 334 402
#     4  12  25  43  71  99 135 179 224 275 336 396
#     4  12  24  48  70 101 137 175 225 274 342 396
#     4  12  28  44  74 102 136 176 221 277 335 411
#
# _framework density 21.652716999999999
#
# number of rings (size 3 to 8) (size 9 to 14) (size 15 to 20)
#    0.000    0.000    2.857    7.714    4.000    0.000 
#    0.000    0.000    0.000    0.000    0.000    0.000 
#    0.000    0.000    0.000    0.000    0.000    0.000 
#
# Total GULP energy -173727.107010 kJ/mol
# GULP energy per Si atom -12409.079072 kJ/mol
# Density = 2.160343 g / cm^3
# Si number density = 21.652717 Si / 1000 Ang^3
#
#
#
# Elastic Constant Matrix: (Units=GPa)
#
#
# Indices 1 2 3 4 5 6 
#
# 1 108.7787 17.9794 35.3539 -1.5164 -19.7015 -6.8188
# 2 17.9794 82.9579 25.5419 27.5583 1.2495 -1.0667
# 3 35.3539 25.5419 138.1296 -3.5736 1.9419 -4.6550
# 4 -1.5164 27.5583 -3.5736 42.8917 0.9917 2.6056
# 5 -19.7015 1.2495 1.9419 0.9917 49.8351 -3.0549
# 6 -6.8188 -1.0667 -4.6550 2.6056 -3.0549 40.4695
#
#
#
# Elastic Compliance Matrix: (Units=1/GPa)
#
#
# Indices 1 2 3 4 5 6 
#
# 1 0.011350 -0.002213 -0.002464 0.001397 0.004723 0.001837
# 2 -0.002213 0.017226 -0.002886 -0.011390 -0.000942 0.000411
# 3 -0.002464 -0.002886 0.008494 0.002491 -0.001268 0.000230
# 4 0.001397 -0.011390 0.002491 0.030997 0.000015 -0.001773
# 5 0.004723 -0.000942 -0.001268 0.000015 0.022147 0.002296
# 6 0.001837 0.000411 0.000230 -0.001773 0.002296 0.025344
#
#
# Mechanical properties :
#
#
# Convention : Reuss Voigt Hill
#
# Bulk Modulus (GPa) = 45.57306 54.17963 49.87635
# Shear Modulus (GPa) = 36.23250 43.37201 39.80225
#
# Velocity S-wave (km/s) = 4.09509 4.48043 4.29209
# Velocity P-wave (km/s) = 6.59187 7.20014 6.90271
#
# Compressibility (1/GPa) = 0.02194279
#
# Stress axis : x y z
#
# Youngs Moduli (GPa) = 88.10859 58.05313 117.73002
#
# Poissons Ratio (x) = 0.12845 0.29010
# Poissons Ratio (y) = 0.19495 0.33982
# Poissons Ratio (z) = 0.21711 0.16757
#
# Static dielectric constant tensor:
#      x y z
#    x 4.056060 0.086110 0.037280 
#    y 0.086110 4.206220 0.144470 
#    z 0.037280 0.144470 4.336850 
# 
# 
# High freq. dielectric constant tensor:
#      x y z
#    x 1.859660 0.005510 -0.001080 
#    y 0.005510 1.862610 0.003520 
#    z -0.001080 0.003520 1.877300 
# 
# From -- ./inp_files/49431.got.cif
#   From: 2010.06.25/outbox.cif.g09.slc.cpg/sg2_25_cif.got.tgz:49431.got - 2010.06.27 13:26:56.
