data_PCOD8036273
_publ_section_title
;
Structure prediction by ZEFSAII (Michael W. Deem and Ramdas Pophale) SiO2 
 PCOD8036273
Probable space group: P -1
;
_chemical_formula_sum "Si O2"
_cell_formula_units_Z 12
_cell_length_a 24.934522
_cell_length_b 15.566639
_cell_length_c 9.823014
_cell_angle_alpha 28.819477
_cell_angle_beta 152.047436
_cell_angle_gamma 163.771678
_cell_volume 487.915857
_symmetry_space_group_name_H-M "P -1"
_symmetry_group_IT_number 2
_symmetry_cell_setting 'triclinic'
loop_
_space_group_symop_operation_xyz
x,y,z
-x,-y,-z
loop_
_atom_site_type_symbol
_atom_site_label
_atom_site_fract_x
_atom_site_fract_y
_atom_site_fract_z
Si Si1 0.723760 0.267866 0.253567
Si Si2 0.810487 0.133362 0.094134
Si Si3 0.924812 0.845683 0.398991
Si Si4 0.519672 0.737604 0.738839
Si Si5 0.366773 0.049814 0.761637
Si Si6 0.915135 0.046977 0.837009
O O1 0.939069 0.592646 0.351534
O O2 0.609362 0.960536 0.502011
O O3 0.751391 0.242655 0.194196
O O4 0.602679 0.301537 0.933527
O O5 0.904216 0.056671 0.421771
O O6 0.690597 0.041330 0.084371
O O7 0.000000 0.500000 0.000000
O O8 0.663263 0.963296 0.873120
O O9 0.703867 0.471295 0.439921
O O10 0.000000 0.000000 0.500000
O O11 0.899402 0.979483 0.054437
O O12 0.500000 0.500000 0.000000
O O13 0.307941 0.175032 0.405206
O O14 0.000000 0.000000 0.000000
#
# Coordination Sequence:
#
# PCOD8036273 Si02
#       6
#     2   2   2   2   2   2
#     4  11  28  49  78 108 156 203 256 315 385 456
#     4  12  27  46  77 113 154 198 254 320 384 455
#     4  12  28  48  77 112 154 200 256 314 388 455
#     4  12  27  50  80 114 151 204 261 314 384 460
#     4  11  26  47  74 109 152 197 256 309 386 447
#     4  12  27  49  76 114 153 201 256 317 385 461
#
# _framework density 24.594404999999998
#
# number of rings (size 3 to 8) (size 9 to 14) (size 15 to 20)
#    0.000    0.333    3.333    3.500    9.333    3.333 
#    0.000    0.000    0.000    0.000    0.000    0.000 
#    0.000    0.000    0.000    0.000    0.000    0.000 
#
# Total GULP energy -148764.011880 kJ/mol
# GULP energy per Si atom -12397.000990 kJ/mol
# Density = 2.453843 g / cm^3
# Si number density = 24.594405 Si / 1000 Ang^3
#
#
#
# Elastic Constant Matrix: (Units=GPa)
#
#
# Indices 1 2 3 4 5 6 
#
# 1 148.8679 28.4333 39.1220 12.4323 -4.0610 -13.9470
# 2 28.4333 114.9251 29.5881 10.0076 -17.3875 -12.0653
# 3 39.1220 29.5881 129.4075 18.9067 -8.5457 -2.5772
# 4 12.4323 10.0076 18.9067 46.6128 4.7378 0.8034
# 5 -4.0610 -17.3875 -8.5457 4.7378 47.0575 11.7729
# 6 -13.9470 -12.0653 -2.5772 0.8034 11.7729 32.4589
#
#
#
# Elastic Compliance Matrix: (Units=1/GPa)
#
#
# Indices 1 2 3 4 5 6 
#
# 1 0.007796 -0.001133 -0.001937 -0.001026 -0.000764 0.003077
# 2 -0.001133 0.010192 -0.001509 -0.001618 0.003025 0.002124
# 3 -0.001937 -0.001509 0.009177 -0.003018 0.001532 -0.001146
# 4 -0.001026 -0.001618 -0.003018 0.023661 -0.003464 -0.000611
# 5 -0.000764 0.003025 0.001532 -0.003464 0.024942 -0.008043
# 6 0.003077 0.002124 -0.001146 -0.000611 -0.008043 0.035761
#
#
# Mechanical properties :
#
#
# Convention : Reuss Voigt Hill
#
# Bulk Modulus (GPa) = 55.53662 65.27636 60.40649
# Shear Modulus (GPa) = 39.46620 44.96298 42.21459
#
# Velocity S-wave (km/s) = 4.01019 4.28036 4.14748
# Velocity P-wave (km/s) = 6.63869 7.14335 6.89564
#
# Compressibility (1/GPa) = 0.01800614
#
# Stress axis : x y z
#
# Youngs Moduli (GPa) = 128.27104 98.11714 108.96220
#
# Poissons Ratio (x) = 0.11120 0.21107
# Poissons Ratio (y) = 0.14537 0.16445
# Poissons Ratio (z) = 0.24847 0.14808
#
# Static dielectric constant tensor:
#      x y z
#    x 4.300010 -0.054710 0.039290 
#    y -0.054710 4.408570 0.195590 
#    z 0.039290 0.195590 4.559910 
# 
# 
# High freq. dielectric constant tensor:
#      x y z
#    x 1.999230 0.000940 0.006800 
#    y 0.000940 1.971900 0.024890 
#    z 0.006800 0.024890 1.989190 
# 
# From -- ./inp_files/354495.got.cif
#   From: 2010.06.25/outbox.cif.g09.slc.cpg/sg2_178_cif.got.tgz:354495.got - 2010.06.27 13:26:56.
