data_PCOD8036298
_publ_section_title
;
Structure prediction by ZEFSAII (Michael W. Deem and Ramdas Pophale) SiO2 
 PCOD8036298
Probable space group: P -1
;
_chemical_formula_sum "Si O2"
_cell_formula_units_Z 8
_cell_length_a 4.920918
_cell_length_b 11.797016
_cell_length_c 10.322814
_cell_angle_alpha 35.750765
_cell_angle_beta 118.591094
_cell_angle_gamma 116.425519
_cell_volume 305.549259
_symmetry_space_group_name_H-M "P -1"
_symmetry_group_IT_number 2
_symmetry_cell_setting 'triclinic'
loop_
_space_group_symop_operation_xyz
x,y,z
-x,-y,-z
loop_
_atom_site_type_symbol
_atom_site_label
_atom_site_fract_x
_atom_site_fract_y
_atom_site_fract_z
Si Si1 0.261578 0.811444 0.523654
Si Si2 0.063382 0.278913 0.209768
Si Si3 0.688693 0.709228 0.341504
Si Si4 0.467390 0.932944 0.858131
O O1 0.564864 0.711532 0.726069
O O2 0.633168 0.977982 0.714338
O O3 0.057280 0.843611 0.575252
O O4 0.043387 0.683378 0.488601
O O5 0.876874 0.182098 0.133425
O O6 0.000000 0.500000 0.000000
O O7 0.500000 0.500000 0.500000
O O8 0.550760 0.860749 0.266805
O O9 0.678720 0.796771 0.113415
#
# Coordination Sequence:
#
# PCOD8036298 Si02
#       4
#     2   2   2   2
#     4  12  25  50  75 107 150 192 243 307 363 433
#     4  12  27  48  77 113 145 192 247 304 367 434
#     4  11  26  50  75 109 151 195 246 298 365 438
#     4  11  26  47  77 110 148 195 242 304 365 434
#
# _framework density 26.182355999999999
#
# number of rings (size 3 to 8) (size 9 to 14) (size 15 to 20)
#    0.000    0.500    2.500    4.500    3.500    1.000 
#    4.500    0.000    0.000    0.000    0.000    0.000 
#    0.000    0.000    0.000    0.000    0.000    0.000 
#
# Total GULP energy -99198.436202 kJ/mol
# GULP energy per Si atom -12399.804525 kJ/mol
# Density = 2.612276 g / cm^3
# Si number density = 26.182356 Si / 1000 Ang^3
#
#
#
# Elastic Constant Matrix: (Units=GPa)
#
#
# Indices 1 2 3 4 5 6 
#
# 1 96.9547 28.2782 28.5294 6.5716 14.8036 20.2687
# 2 28.2782 185.7437 75.8195 0.6707 30.0099 48.1030
# 3 28.5294 75.8195 101.6801 8.9533 -0.7106 2.1404
# 4 6.5716 0.6707 8.9533 52.1778 14.0073 9.8355
# 5 14.8036 30.0099 -0.7106 14.0073 35.8982 11.8431
# 6 20.2687 48.1030 2.1404 9.8355 11.8431 46.1961
#
#
#
# Elastic Compliance Matrix: (Units=1/GPa)
#
#
# Indices 1 2 3 4 5 6 
#
# 1 0.014171 0.004704 -0.007645 0.003430 -0.008165 -0.009398
# 2 0.004704 0.017995 -0.015271 0.009227 -0.014866 -0.018248
# 3 -0.007645 -0.015271 0.024010 -0.010061 0.014886 0.016468
# 4 0.003430 0.009227 -0.010061 0.026895 -0.015752 -0.012335
# 5 -0.008165 -0.014866 0.014886 -0.015752 0.046891 0.009705
# 6 -0.009398 -0.018248 0.016468 -0.012335 0.009705 0.044147
#
#
# Mechanical properties :
#
#
# Convention : Reuss Voigt Hill
#
# Bulk Modulus (GPa) = 50.62562 72.18142 61.40352
# Shear Modulus (GPa) = 23.02931 43.63785 33.33358
#
# Velocity S-wave (km/s) = 2.96898 4.08694 3.57197
# Velocity P-wave (km/s) = 5.57950 7.06395 6.36515
#
# Compressibility (1/GPa) = 0.01975284
#
# Stress axis : x y z
#
# Youngs Moduli (GPa) = 70.56842 55.57051 41.64966
#
# Poissons Ratio (x) = -0.26141 0.31841
# Poissons Ratio (y) = -0.33196 0.63601
# Poissons Ratio (z) = 0.53949 0.84859
#
# Static dielectric constant tensor:
#      x y z
#    x 4.663130 0.310530 -0.143040 
#    y 0.310530 5.036930 0.527390 
#    z -0.143040 0.527390 5.069730 
# 
# 
# High freq. dielectric constant tensor:
#      x y z
#    x 2.039270 0.019130 -0.001550 
#    y 0.019130 2.065520 0.020890 
#    z -0.001550 0.020890 2.060790 
# 
# From -- ./inp_files/16699.got.cif
#   From: 2010.06.25/outbox.cif.g09.slc.cpg/sg2_9_cif.got.tgz:16699.got - 2010.06.27 13:26:56.
