data_PCOD8036645
_publ_section_title
;
Structure prediction by ZEFSAII (Michael W. Deem and Ramdas Pophale) SiO2 
 PCOD8036645
Probable space group: P -1
;
_chemical_formula_sum "Si O2"
_cell_formula_units_Z 16
_cell_length_a 19.290480
_cell_length_b 10.491053
_cell_length_c 10.734147
_cell_angle_alpha 35.780894
_cell_angle_beta 135.702209
_cell_angle_gamma 146.989875
_cell_volume 687.667579
_symmetry_space_group_name_H-M "P -1"
_symmetry_group_IT_number 2
_symmetry_cell_setting 'triclinic'
loop_
_space_group_symop_operation_xyz
x,y,z
-x,-y,-z
loop_
_atom_site_type_symbol
_atom_site_label
_atom_site_fract_x
_atom_site_fract_y
_atom_site_fract_z
Si Si1 0.096226 0.606370 0.651380
Si Si2 0.669365 0.631173 0.373219
Si Si3 0.117821 0.815020 0.938681
Si Si4 0.741128 0.776202 0.623962
Si Si5 0.276263 0.741586 0.388876
Si Si6 0.389676 0.304588 0.221649
Si Si7 0.978384 0.853004 0.919798
Si Si8 0.211328 0.428752 0.798910
O O1 0.222909 0.642329 0.742682
O O2 0.000000 0.500000 0.500000
O O3 0.149251 0.905407 0.532559
O O4 0.015130 0.384029 0.832704
O O5 0.659459 0.605207 0.532210
O O6 0.664755 0.373243 0.526210
O O7 0.540375 0.567091 0.207575
O O8 0.788033 0.951167 0.230752
O O9 0.053749 0.942134 0.814838
O O10 0.196421 0.784014 0.163000
O O11 0.000000 0.500000 0.000000
O O12 0.659226 0.752830 0.652746
O O13 0.827378 0.693577 0.845548
O O14 0.198977 0.507305 0.582222
O O15 0.373154 0.041253 0.348308
O O16 0.320933 0.396903 0.977019
O O17 0.069981 0.141593 0.888058
#
# Coordination Sequence:
#
# PCOD8036645 Si02
#       8
#     2   2   2   2   2   2   2   2
#     4  12  22  38  70 107 142 182 233 297 367 417
#     4  12  29  49  72 105 151 199 238 298 361 436
#     4  12  27  46  72 108 150 190 239 297 370 436
#     4  12  26  45  73 107 146 191 238 304 365 428
#     4  12  25  48  76 107 138 198 245 300 358 430
#     4  12  26  50  74 106 146 191 253 296 354 434
#     4  12  23  40  69 107 143 179 238 300 358 422
#     4  12  23  42  73 105 141 184 242 307 348 420
#
# _framework density 23.267054999999999
#
# number of rings (size 3 to 8) (size 9 to 14) (size 15 to 20)
#    0.000    0.000    6.250    4.125    1.750    4.000 
#    0.000    0.625    0.000    0.000    0.000    0.000 
#    0.000    0.000    0.000    0.000    0.000    0.000 
#
# Total GULP energy -198209.240860 kJ/mol
# GULP energy per Si atom -12388.077554 kJ/mol
# Density = 2.321410 g / cm^3
# Si number density = 23.267055 Si / 1000 Ang^3
#
#
#
# Elastic Constant Matrix: (Units=GPa)
#
#
# Indices 1 2 3 4 5 6 
#
# 1 95.2738 41.0670 30.1542 1.7197 3.3574 -12.3380
# 2 41.0670 114.2321 35.2475 6.8727 0.9111 6.3651
# 3 30.1542 35.2475 82.8471 -4.8681 2.9935 -15.5480
# 4 1.7197 6.8727 -4.8681 29.5554 3.2773 -4.0549
# 5 3.3574 0.9111 2.9935 3.2773 34.7397 6.5330
# 6 -12.3380 6.3651 -15.5480 -4.0549 6.5330 27.7091
#
#
#
# Elastic Compliance Matrix: (Units=1/GPa)
#
#
# Indices 1 2 3 4 5 6 
#
# 1 0.014213 -0.005186 -0.001352 0.001500 -0.002695 0.007616
# 2 -0.005186 0.013444 -0.006246 -0.005645 0.003190 -0.010480
# 3 -0.001352 -0.006246 0.018237 0.006818 -0.004383 0.013097
# 4 0.001500 -0.005645 0.006818 0.038713 -0.006687 0.013032
# 5 -0.002695 0.003190 -0.004383 -0.006687 0.032418 -0.013014
# 6 0.007616 -0.010480 0.013097 0.013032 -0.013014 0.054212
#
#
# Mechanical properties :
#
#
# Convention : Reuss Voigt Hill
#
# Bulk Modulus (GPa) = 49.19755 56.14338 52.67047
# Shear Modulus (GPa) = 24.56033 30.79312 27.67673
#
# Velocity S-wave (km/s) = 3.25250 3.64189 3.45269
# Velocity P-wave (km/s) = 5.94101 6.47046 6.21138
#
# Compressibility (1/GPa) = 0.02032622
#
# Stress axis : x y z
#
# Youngs Moduli (GPa) = 70.35570 74.38368 54.83400
#
# Poissons Ratio (x) = 0.38573 0.07415
# Poissons Ratio (y) = 0.36484 0.34249
# Poissons Ratio (z) = 0.09514 0.46460
#
# Static dielectric constant tensor:
#      x y z
#    x 4.459890 -0.305400 0.158760 
#    y -0.305400 4.462980 -0.298210 
#    z 0.158760 -0.298210 4.313080 
# 
# 
# High freq. dielectric constant tensor:
#      x y z
#    x 1.934060 -0.009000 0.003140 
#    y -0.009000 1.901070 -0.004520 
#    z 0.003140 -0.004520 1.932480 
# 
# From -- ./inp_files/471120.got.cif
#   From: 2010.06.25/outbox.cif.g09.slc.cpg/sg2_236_cif.got.tgz:471120.got - 2010.06.27 13:26:56.
