data_PCOD8036626
_publ_section_title
;
Structure prediction by ZEFSAII (Michael W. Deem and Ramdas Pophale) SiO2 
 PCOD8036626
Probable space group: P -1
;
_chemical_formula_sum "Si O2"
_cell_formula_units_Z 16
_cell_length_a 8.781641
_cell_length_b 9.607210
_cell_length_c 16.618038
_cell_angle_alpha 42.879999
_cell_angle_beta 72.589554
_cell_angle_gamma 99.091157
_cell_volume 740.881449
_symmetry_space_group_name_H-M "P -1"
_symmetry_group_IT_number 2
_symmetry_cell_setting 'triclinic'
loop_
_space_group_symop_operation_xyz
x,y,z
-x,-y,-z
loop_
_atom_site_type_symbol
_atom_site_label
_atom_site_fract_x
_atom_site_fract_y
_atom_site_fract_z
Si Si1 0.813824 0.974017 0.570285
Si Si2 0.768985 0.871707 0.103584
Si Si3 0.784644 0.402566 0.099472
Si Si4 0.576787 0.423658 0.448372
Si Si5 0.806301 0.284457 0.576648
Si Si6 0.436928 0.901032 0.885931
Si Si7 0.548449 0.592632 0.099817
Si Si8 0.682980 0.059696 0.401483
O O1 0.619600 0.689636 0.725934
O O2 0.820922 0.124086 0.427593
O O3 0.843278 0.101561 0.598876
O O4 0.000000 0.000000 0.500000
O O5 0.691191 0.643730 0.272808
O O6 0.648589 0.776347 0.080893
O O7 0.717951 0.061740 0.063176
O O8 0.000000 0.000000 0.000000
O O9 0.633561 0.177732 0.160773
O O10 0.725219 0.599298 0.024096
O O11 0.769575 0.310649 0.231081
O O12 0.000000 0.500000 0.000000
O O13 0.500000 0.500000 0.500000
O O14 0.733055 0.381930 0.477569
O O15 0.381710 0.177934 0.544293
O O16 0.000000 0.500000 0.500000
O O17 0.654261 0.152720 0.731311
O O18 0.449994 0.693220 0.017274
O O19 0.500000 0.000000 0.500000
#
# Coordination Sequence:
#
# PCOD8036626 Si02
#       8
#     2   2   2   2   2   2   2   2
#     4  12  28  45  74 108 139 189 241 294 362 426
#     4  12  27  46  71 108 142 193 242 291 358 421
#     4  12  25  45  74 106 137 188 239 293 357 424
#     4  12  23  45  75  97 140 190 240 295 349 414
#     4  12  28  47  72 107 143 187 238 296 363 429
#     4  12  26  49  67 104 151 187 234 295 360 426
#     4  12  26  47  71 103 149 188 235 298 356 427
#     4  12  21  47  72  99 138 182 242 298 344 415
#
# _framework density 21.595897000000001
#
# number of rings (size 3 to 8) (size 9 to 14) (size 15 to 20)
#    0.000    0.000    7.500    1.500    7.000    1.000 
#    0.000    0.000    0.000    0.000    0.000    0.000 
#    0.000    0.000    0.000    0.000    0.000    0.000 
#
# Total GULP energy -198236.035222 kJ/mol
# GULP energy per Si atom -12389.752201 kJ/mol
# Density = 2.154674 g / cm^3
# Si number density = 21.595897 Si / 1000 Ang^3
#
#
#
# Elastic Constant Matrix: (Units=GPa)
#
#
# Indices 1 2 3 4 5 6 
#
# 1 128.1959 28.6866 48.1556 12.1480 -2.2244 -18.8502
# 2 28.6866 109.7767 13.8329 14.0739 -1.1471 -5.3334
# 3 48.1556 13.8329 96.6024 12.5861 1.5570 -6.3914
# 4 12.1480 14.0739 12.5861 30.8923 -5.4827 -4.2346
# 5 -2.2244 -1.1471 1.5570 -5.4827 37.4220 5.1806
# 6 -18.8502 -5.3334 -6.3914 -4.2346 5.1806 52.8109
#
#
#
# Elastic Compliance Matrix: (Units=1/GPa)
#
#
# Indices 1 2 3 4 5 6 
#
# 1 0.010488 -0.001893 -0.004648 -0.000932 0.000222 0.002893
# 2 -0.001893 0.010104 0.000019 -0.003926 -0.000389 0.000071
# 3 -0.004648 0.000019 0.013169 -0.003819 -0.001350 -0.000237
# 4 -0.000932 -0.003926 -0.003819 0.037189 0.005255 0.001275
# 5 0.000222 -0.000389 -0.001350 0.005255 0.027887 -0.002438
# 6 0.002893 0.000071 -0.000237 0.001275 -0.002438 0.020288
#
#
# Mechanical properties :
#
#
# Convention : Reuss Voigt Hill
#
# Bulk Modulus (GPa) = 48.26508 57.32501 52.79504
# Shear Modulus (GPa) = 35.95209 40.48503 38.21856
#
# Velocity S-wave (km/s) = 4.08458 4.33444 4.21136
# Velocity P-wave (km/s) = 6.68152 7.18692 6.93882
#
# Compressibility (1/GPa) = 0.02071891
#
# Stress axis : x y z
#
# Youngs Moduli (GPa) = 95.35144 98.96806 75.93363
#
# Poissons Ratio (x) = 0.18730 0.35291
# Poissons Ratio (y) = 0.18045 -0.00144
# Poissons Ratio (z) = 0.44316 -0.00188
#
# Static dielectric constant tensor:
#      x y z
#    x 3.966540 -0.150100 0.003270 
#    y -0.150100 4.237730 0.157580 
#    z 0.003270 0.157580 3.839860 
# 
# 
# High freq. dielectric constant tensor:
#      x y z
#    x 1.865910 -0.003390 0.004110 
#    y -0.003390 1.863610 0.014140 
#    z 0.004110 0.014140 1.847720 
# 
# From -- ./inp_files/205643.got.cif
#   From: 2010.06.25/outbox.cif.g09.slc.cpg/sg2_103_cif.got.tgz:205643.got - 2010.06.27 13:26:56.
