data_PCOD8036835
_publ_section_title
;
Structure prediction by ZEFSAII (Michael W. Deem and Ramdas Pophale) SiO2 
 PCOD8036835
Probable space group: P -1
;
_chemical_formula_sum "Si O2"
_cell_formula_units_Z 14
_cell_length_a 9.241162
_cell_length_b 16.824395
_cell_length_c 9.381739
_cell_angle_alpha 124.102400
_cell_angle_beta 149.535964
_cell_angle_gamma 62.415669
_cell_volume 611.646646
_symmetry_space_group_name_H-M "P -1"
_symmetry_group_IT_number 2
_symmetry_cell_setting 'triclinic'
loop_
_space_group_symop_operation_xyz
x,y,z
-x,-y,-z
loop_
_atom_site_type_symbol
_atom_site_label
_atom_site_fract_x
_atom_site_fract_y
_atom_site_fract_z
Si Si1 0.971425 0.094274 0.663535
Si Si2 0.210831 0.941741 0.213153
Si Si3 0.486162 0.745783 0.197041
Si Si4 0.927720 0.506434 0.611262
Si Si5 0.413728 0.626219 0.287235
Si Si6 0.457330 0.781003 0.714424
Si Si7 0.907896 0.297384 0.419886
O O1 0.940037 0.062530 0.766927
O O2 0.675770 0.137522 0.411475
O O3 0.000000 0.000000 0.500000
O O4 0.221115 0.178033 0.937921
O O5 0.288660 0.836985 0.121973
O O6 0.500000 0.000000 0.500000
O O7 0.000000 0.000000 0.000000
O O8 0.539030 0.701550 0.352170
O O9 0.807434 0.762198 0.423661
O O10 0.288623 0.678234 0.859490
O O11 0.599306 0.533249 0.366859
O O12 0.988936 0.407057 0.646625
O O13 0.000000 0.500000 0.500000
O O14 0.102131 0.590287 0.931481
O O15 0.427445 0.680212 0.504294
O O16 0.285835 0.765998 0.700165
#
# Coordination Sequence:
#
# PCOD8036835 Si02
#       7
#     2   2   2   2   2   2   2
#     4  12  28  50  73 101 145 187 230 296 362 421
#     4  12  28  46  75 109 137 178 241 295 349 418
#     4  12  24  45  71 103 141 190 230 294 353 416
#     4  12  23  42  71 110 140 183 240 297 347 404
#     4  12  24  44  74  98 144 191 232 290 356 419
#     4  12  28  49  69 104 144 193 233 283 364 428
#     4  12  27  43  73 105 145 186 241 288 348 423
#
# _framework density 22.889030999999999
#
# number of rings (size 3 to 8) (size 9 to 14) (size 15 to 20)
#    0.000    0.000    4.286    5.143    8.000    1.143 
#    0.000    0.000    0.000    0.000    0.000    0.000 
#    0.000    0.000    0.000    0.000    0.000    0.000 
#
# Total GULP energy -173555.967383 kJ/mol
# GULP energy per Si atom -12396.854813 kJ/mol
# Density = 2.283693 g / cm^3
# Si number density = 22.889031 Si / 1000 Ang^3
#
#
#
# Elastic Constant Matrix: (Units=GPa)
#
#
# Indices 1 2 3 4 5 6 
#
# 1 113.6795 48.4719 29.8166 1.5290 12.4282 -4.4010
# 2 48.4719 116.0223 15.8252 -15.7455 0.5288 -6.1923
# 3 29.8166 15.8252 114.2189 2.9840 9.0458 -6.7677
# 4 1.5290 -15.7455 2.9840 47.6972 -3.2364 7.0582
# 5 12.4282 0.5288 9.0458 -3.2364 34.1440 6.1894
# 6 -4.4010 -6.1923 -6.7677 7.0582 6.1894 38.2375
#
#
#
# Elastic Compliance Matrix: (Units=1/GPa)
#
#
# Indices 1 2 3 4 5 6 
#
# 1 0.011977 -0.004969 -0.001960 -0.002389 -0.004235 0.001353
# 2 -0.004969 0.011314 -0.000543 0.004065 0.002151 0.000066
# 3 -0.001960 -0.000543 0.009674 -0.001173 -0.002313 0.001990
# 4 -0.002389 0.004065 -0.001173 0.023459 0.004218 -0.004838
# 5 -0.004235 0.002151 -0.002313 0.004218 0.033018 -0.006672
# 6 0.001353 0.000066 0.001990 -0.004838 -0.006672 0.028644
#
#
# Mechanical properties :
#
#
# Convention : Reuss Voigt Hill
#
# Bulk Modulus (GPa) = 55.49186 59.12757 57.30971
# Shear Modulus (GPa) = 35.96139 40.66953 38.31546
#
# Velocity S-wave (km/s) = 3.96803 4.21980 4.09585
# Velocity P-wave (km/s) = 6.72980 7.04490 6.88915
#
# Compressibility (1/GPa) = 0.01802066
#
# Stress axis : x y z
#
# Youngs Moduli (GPa) = 83.49244 88.38256 103.37271
#
# Poissons Ratio (x) = 0.43919 0.20262
# Poissons Ratio (y) = 0.41489 0.05614
# Poissons Ratio (z) = 0.16365 0.04800
#
# Static dielectric constant tensor:
#      x y z
#    x 4.734730 -0.850110 -0.031010 
#    y -0.850110 5.100060 0.105640 
#    z -0.031010 0.105640 4.247650 
# 
# 
# High freq. dielectric constant tensor:
#      x y z
#    x 1.900340 -0.007380 0.003930 
#    y -0.007380 1.916610 -0.003170 
#    z 0.003930 -0.003170 1.918240 
# 
# From -- ./inp_files/202365.got.cif
#   From: 2010.06.25/outbox.cif.g09.slc.cpg/sg2_102_cif.got.tgz:202365.got - 2010.06.27 13:26:56.
