data_PCOD8036464
_publ_section_title
;
Structure prediction by ZEFSAII (Michael W. Deem and Ramdas Pophale) SiO2 
 PCOD8036464
Probable space group: P -1
;
_chemical_formula_sum "Si O2"
_cell_formula_units_Z 10
_cell_length_a 5.167174
_cell_length_b 12.033757
_cell_length_c 9.607001
_cell_angle_alpha 141.301199
_cell_angle_beta 94.932334
_cell_angle_gamma 89.321590
_cell_volume 370.640109
_symmetry_space_group_name_H-M "P -1"
_symmetry_group_IT_number 2
_symmetry_cell_setting 'triclinic'
loop_
_space_group_symop_operation_xyz
x,y,z
-x,-y,-z
loop_
_atom_site_type_symbol
_atom_site_label
_atom_site_fract_x
_atom_site_fract_y
_atom_site_fract_z
Si Si1 0.730594 0.883652 0.873745
Si Si2 0.354072 0.152105 0.476761
Si Si3 0.900424 0.517056 0.198761
Si Si4 0.162610 0.833368 0.306843
Si Si5 0.602941 0.557091 0.710060
O O1 0.673083 0.786744 0.625982
O O2 0.733028 0.757332 0.884956
O O3 0.500000 0.000000 0.000000
O O4 0.000000 0.000000 0.000000
O O5 0.146535 0.281710 0.670451
O O6 0.638829 0.214516 0.609465
O O7 0.313022 0.937594 0.284428
O O8 0.627893 0.451340 0.196449
O O9 0.153357 0.551941 0.342311
O O10 0.962461 0.362722 0.940555
O O11 0.000000 0.000000 0.500000
O O12 0.500000 0.500000 0.500000
#
# Coordination Sequence:
#
# PCOD8036464 Si02
#       5
#     2   2   2   2   2
#     4  12  27  45  77 112 152 193 245 309 381 446
#     4  11  27  48  75 107 149 200 251 308 376 443
#     4  12  28  49  80 109 154 197 251 312 377 445
#     4  11  28  49  74 108 147 200 260 311 366 446
#     4  12  26  48  76 115 150 192 248 307 376 459
#
# _framework density 26.980350999999999
#
# number of rings (size 3 to 8) (size 9 to 14) (size 15 to 20)
#    0.000    0.400    2.000    4.800   16.800    0.800 
#    0.000    0.000    0.000    0.000    0.000    0.000 
#    0.000    0.000    0.000    0.000    0.000    0.000 
#
# Total GULP energy -123911.927560 kJ/mol
# GULP energy per Si atom -12391.192756 kJ/mol
# Density = 2.691894 g / cm^3
# Si number density = 26.980351 Si / 1000 Ang^3
#
#
#
# Elastic Constant Matrix: (Units=GPa)
#
#
# Indices 1 2 3 4 5 6 
#
# 1 184.0894 59.6572 46.8749 7.7181 -2.8259 -41.8742
# 2 59.6572 189.7597 54.8417 44.4830 7.4317 -6.7167
# 3 46.8749 54.8417 136.1733 13.0653 -5.1928 -18.7791
# 4 7.7181 44.4830 13.0653 49.2132 -3.3836 10.0587
# 5 -2.8259 7.4317 -5.1928 -3.3836 48.9699 -1.5559
# 6 -41.8742 -6.7167 -18.7791 10.0587 -1.5559 59.7969
#
#
#
# Elastic Compliance Matrix: (Units=1/GPa)
#
#
# Indices 1 2 3 4 5 6 
#
# 1 0.007387 -0.001838 -0.001124 -0.000099 0.000727 0.004649
# 2 -0.001838 0.008070 -0.002055 -0.006604 -0.002004 0.000032
# 3 -0.001124 -0.002055 0.008933 -0.000648 0.001211 0.001928
# 4 -0.000099 -0.006604 -0.000648 0.027810 0.002671 -0.005623
# 5 0.000727 -0.002004 0.001211 0.002671 0.021104 0.000764
# 6 0.004649 0.000032 0.001928 -0.005623 0.000764 0.021553
#
#
# Mechanical properties :
#
#
# Convention : Reuss Voigt Hill
#
# Bulk Modulus (GPa) = 69.66994 92.52998 81.09996
# Shear Modulus (GPa) = 45.58877 54.83925 50.21401
#
# Velocity S-wave (km/s) = 4.11506 4.51329 4.31876
# Velocity P-wave (km/s) = 6.96109 7.84407 7.41573
#
# Compressibility (1/GPa) = 0.01435339
#
# Stress axis : x y z
#
# Youngs Moduli (GPa) = 135.37600 123.92249 111.95043
#
# Poissons Ratio (x) = 0.22779 0.12585
# Poissons Ratio (y) = 0.24885 0.23010
# Poissons Ratio (z) = 0.15219 0.25471
#
# Static dielectric constant tensor:
#      x y z
#    x 4.631620 0.020950 0.579740 
#    y 0.020950 6.163730 1.192690 
#    z 0.579740 1.192690 4.555270 
# 
# 
# High freq. dielectric constant tensor:
#      x y z
#    x 2.108440 0.018560 -0.005950 
#    y 0.018560 2.131730 0.017760 
#    z -0.005950 0.017760 2.085790 
# 
# From -- ./inp_files/16868.got.cif
#   From: 2010.06.25/outbox.cif.g09.slc.cpg/sg2_9_cif.got.tgz:16868.got - 2010.06.27 13:26:56.
