data_PCOD8036392
_publ_section_title
;
Structure prediction by ZEFSAII (Michael W. Deem and Ramdas Pophale) SiO2 
 PCOD8036392
Probable space group: P -1
;
_chemical_formula_sum "Si O2"
_cell_formula_units_Z 10
_cell_length_a 12.804476
_cell_length_b 8.438732
_cell_length_c 10.460544
_cell_angle_alpha 81.891301
_cell_angle_beta 139.669015
_cell_angle_gamma 130.321249
_cell_volume 390.610459
_symmetry_space_group_name_H-M "P -1"
_symmetry_group_IT_number 2
_symmetry_cell_setting 'triclinic'
loop_
_space_group_symop_operation_xyz
x,y,z
-x,-y,-z
loop_
_atom_site_type_symbol
_atom_site_label
_atom_site_fract_x
_atom_site_fract_y
_atom_site_fract_z
Si Si1 0.485586 0.810046 0.455952
Si Si2 0.713063 0.593593 0.484129
Si Si3 0.927791 0.825852 0.134872
Si Si4 0.366221 0.727169 0.059212
Si Si5 0.919455 0.273172 0.377583
O O1 0.263873 0.520428 0.370101
O O2 0.353337 0.703108 0.202420
O O3 0.500000 0.000000 0.500000
O O4 0.813933 0.002679 0.745419
O O5 0.792557 0.582837 0.421490
O O6 0.378500 0.382781 0.198460
O O7 0.957123 0.936523 0.694367
O O8 0.845307 0.591533 0.161340
O O9 0.705175 0.980783 0.296220
O O10 0.261270 0.815539 0.907361
O O11 0.000000 0.500000 0.500000
#
# Coordination Sequence:
#
# PCOD8036392 Si02
#       5
#     2   2   2   2   2
#     4  12  27  50  79 112 150 201 251 309 373 454
#     4  12  29  47  81 108 159 192 251 312 379 441
#     4  12  27  50  73 119 150 197 246 315 380 443
#     4  11  26  49  77 108 154 194 261 303 373 451
#     4  11  27  51  75 111 148 205 255 306 368 455
#
# _framework density 25.600953000000001
#
# number of rings (size 3 to 8) (size 9 to 14) (size 15 to 20)
#    0.000    0.400    2.000    4.800   11.200    3.200 
#    0.000    0.000    0.000    0.000    0.000    0.000 
#    0.000    0.000    0.000    0.000    0.000    0.000 
#
# Total GULP energy -124006.949161 kJ/mol
# GULP energy per Si atom -12400.694916 kJ/mol
# Density = 2.554268 g / cm^3
# Si number density = 25.600953 Si / 1000 Ang^3
#
#
#
# Elastic Constant Matrix: (Units=GPa)
#
#
# Indices 1 2 3 4 5 6 
#
# 1 147.4965 34.6944 5.5582 23.8347 -10.1513 -8.0527
# 2 34.6944 114.4482 1.8269 44.3477 -21.3599 -17.7824
# 3 5.5582 1.8269 73.5932 28.8870 -8.2514 -11.8660
# 4 23.8347 44.3477 28.8870 44.4741 -4.8575 1.2876
# 5 -10.1513 -21.3599 -8.2514 -4.8575 30.9154 6.4916
# 6 -8.0527 -17.7824 -11.8660 1.2876 6.4916 40.3492
#
#
#
# Elastic Compliance Matrix: (Units=1/GPa)
#
#
# Indices 1 2 3 4 5 6 
#
# 1 0.007859 0.001250 0.002920 -0.007162 0.002510 0.002803
# 2 0.001250 0.031715 0.021899 -0.045224 0.016994 0.019376
# 3 0.002920 0.021899 0.035458 -0.045450 0.014250 0.019819
# 4 -0.007162 -0.045224 -0.045450 0.099426 -0.022923 -0.034211
# 5 0.002510 0.016994 0.014250 -0.022923 0.043885 0.005852
# 6 0.002803 0.019376 0.019819 -0.034211 0.005852 0.039861
#
#
# Mechanical properties :
#
#
# Convention : Reuss Voigt Hill
#
# Bulk Modulus (GPa) = 7.86348 46.63298 27.24823
# Shear Modulus (GPa) = 20.12437 42.71163 31.41800
#
# Velocity S-wave (km/s) = 2.80675 4.08899 3.50697
# Velocity P-wave (km/s) = 3.68538 6.36773 5.20240
#
# Compressibility (1/GPa) = 0.12717009
#
# Stress axis : x y z
#
# Youngs Moduli (GPa) = 127.24562 31.53068 28.20273
#
# Poissons Ratio (x) = -0.03942 -0.08235
# Poissons Ratio (y) = -0.15907 -0.61762
# Poissons Ratio (z) = -0.37155 -0.69050
#
# Static dielectric constant tensor:
#      x y z
#    x 4.643540 -0.119520 0.193110 
#    y -0.119520 5.190900 -0.015790 
#    z 0.193110 -0.015790 4.667580 
# 
# 
# High freq. dielectric constant tensor:
#      x y z
#    x 2.017520 -0.004050 0.007380 
#    y -0.004050 2.047740 0.004830 
#    z 0.007380 0.004830 2.020440 
# 
# From -- ./inp_files/17648.got.cif
#   From: 2010.06.25/outbox.cif.g09.slc.cpg/sg2_9_cif.got.tgz:17648.got - 2010.06.27 13:26:56.
