data_PCOD8036717
_publ_section_title
;
Structure prediction by ZEFSAII (Michael W. Deem and Ramdas Pophale) SiO2 
 PCOD8036717
Probable space group: P -1
;
_chemical_formula_sum "Si O2"
_cell_formula_units_Z 14
_cell_length_a 26.892321
_cell_length_b 26.404063
_cell_length_c 15.820764
_cell_angle_alpha 18.541536
_cell_angle_beta 162.127590
_cell_angle_gamma 169.181350
_cell_volume 629.727609
_symmetry_space_group_name_H-M "P -1"
_symmetry_group_IT_number 2
_symmetry_cell_setting 'triclinic'
loop_
_space_group_symop_operation_xyz
x,y,z
-x,-y,-z
loop_
_atom_site_type_symbol
_atom_site_label
_atom_site_fract_x
_atom_site_fract_y
_atom_site_fract_z
Si Si1 0.428306 0.446843 0.566645
Si Si2 0.035223 0.889471 0.895985
Si Si3 0.111972 0.633314 0.335715
Si Si4 0.499254 0.047823 0.824971
Si Si5 0.945284 0.554197 0.005858
Si Si6 0.286345 0.983899 0.312663
Si Si7 0.682223 0.803311 0.803437
O O1 0.500000 0.500000 0.500000
O O2 0.230668 0.426128 0.314685
O O3 0.723445 0.712473 0.671469
O O4 0.260471 0.149858 0.784928
O O5 0.995436 0.673662 0.146145
O O6 0.149680 0.000375 0.000857
O O7 0.431216 0.855473 0.527028
O O8 0.930320 0.330895 0.528009
O O9 0.101973 0.681489 0.147023
O O10 0.423405 0.173982 0.483586
O O11 0.814845 0.258978 0.972647
O O12 0.500000 0.000000 0.000000
O O13 0.266807 0.763275 0.846643
O O14 0.363711 0.128046 0.297062
O O15 0.500000 0.500000 0.000000
O O16 0.000000 0.000000 0.000000
#
# Coordination Sequence:
#
# PCOD8036717 Si02
#       7
#     2   2   2   2   2   2   2
#     4  12  26  43  68 103 147 188 230 281 347 418
#     4  12  26  42  69 107 145 184 233 287 342 419
#     4  12  22  43  73  99 139 185 233 273 349 425
#     4  12  27  49  74 106 138 185 249 299 358 431
#     4  12  24  45  75  99 137 191 229 281 356 426
#     4  12  25  45  69 103 138 183 237 287 351 423
#     4  12  26  46  74 100 138 184 234 302 365 412
#
# _framework density 22.231836000000001
#
# number of rings (size 3 to 8) (size 9 to 14) (size 15 to 20)
#    0.000    0.000    4.286    6.000    2.000    3.429 
#    0.000    0.000    0.000    0.000    0.000    0.000 
#    0.000    0.000    0.000    0.000    0.000    0.000 
#
# Total GULP energy -173649.341945 kJ/mol
# GULP energy per Si atom -12403.524425 kJ/mol
# Density = 2.218123 g / cm^3
# Si number density = 22.231836 Si / 1000 Ang^3
#
#
#
# Elastic Constant Matrix: (Units=GPa)
#
#
# Indices 1 2 3 4 5 6 
#
# 1 72.4308 29.3294 54.6259 1.0354 -4.4694 10.1089
# 2 29.3294 163.4287 53.8470 -0.1217 -0.5794 15.1796
# 3 54.6259 53.8470 144.2943 13.4041 -17.2692 11.0701
# 4 1.0354 -0.1217 13.4041 54.6740 -5.3207 9.7162
# 5 -4.4694 -0.5794 -17.2692 -5.3207 29.1715 8.6993
# 6 10.1089 15.1796 11.0701 9.7162 8.6993 41.0466
#
#
#
# Elastic Compliance Matrix: (Units=1/GPa)
#
#
# Indices 1 2 3 4 5 6 
#
# 1 0.019991 -0.000941 -0.007145 0.001937 0.000101 -0.003128
# 2 -0.000941 0.007239 -0.002365 0.000880 -0.000682 -0.001871
# 3 -0.007145 -0.002365 0.011465 -0.001917 0.005654 -0.001202
# 4 0.001937 0.000880 -0.001917 0.020261 0.004687 -0.006075
# 5 0.000101 -0.000682 0.005654 0.004687 0.041847 -0.011276
# 6 -0.003128 -0.001871 -0.001202 -0.006075 -0.011276 0.029977
#
#
# Mechanical properties :
#
#
# Convention : Reuss Voigt Hill
#
# Bulk Modulus (GPa) = 56.20199 72.86206 64.53202
# Shear Modulus (GPa) = 31.72359 41.13519 36.42939
#
# Velocity S-wave (km/s) = 3.78159 4.30616 4.05237
# Velocity P-wave (km/s) = 6.66349 7.58742 7.14041
#
# Compressibility (1/GPa) = 0.01779296
#
# Stress axis : x y z
#
# Youngs Moduli (GPa) = 50.02285 138.14016 87.22531
#
# Poissons Ratio (x) = 0.13002 0.62319
# Poissons Ratio (y) = 0.04708 0.20628
# Poissons Ratio (z) = 0.35739 0.32668
#
# Static dielectric constant tensor:
#      x y z
#    x 4.082160 0.037040 -0.085930 
#    y 0.037040 4.496940 0.233350 
#    z -0.085930 0.233350 4.367380 
# 
# 
# High freq. dielectric constant tensor:
#      x y z
#    x 1.869010 0.004270 -0.005360 
#    y 0.004270 1.900800 0.005250 
#    z -0.005360 0.005250 1.888260 
# 
# From -- ./inp_files/216928.got.cif
#   From: 2010.06.25/outbox.cif.g09.slc.cpg/sg2_109_cif.got.tgz:216928.got - 2010.06.27 13:26:56.
