data_PCOD8036800
_publ_section_title
;
Structure prediction by ZEFSAII (Michael W. Deem and Ramdas Pophale) SiO2 
 PCOD8036800
Probable space group: P -1
;
_chemical_formula_sum "Si O2"
_cell_formula_units_Z 16
_cell_length_a 25.579019
_cell_length_b 25.048490
_cell_length_c 8.811954
_cell_angle_alpha 44.946531
_cell_angle_beta 133.844137
_cell_angle_gamma 168.410143
_cell_volume 801.313203
_symmetry_space_group_name_H-M "P -1"
_symmetry_group_IT_number 2
_symmetry_cell_setting 'triclinic'
loop_
_space_group_symop_operation_xyz
x,y,z
-x,-y,-z
loop_
_atom_site_type_symbol
_atom_site_label
_atom_site_fract_x
_atom_site_fract_y
_atom_site_fract_z
Si Si1 0.001754 0.655029 0.854863
Si Si2 0.968743 0.990725 0.781568
Si Si3 0.501193 0.092332 0.811399
Si Si4 0.468988 0.432261 0.736454
Si Si5 0.991474 0.178633 0.322500
Si Si6 0.000973 0.588902 0.316294
Si Si7 0.492053 0.683799 0.097724
Si Si8 0.498560 0.849522 0.644258
O O1 0.751159 0.377195 0.820187
O O2 0.003263 0.746939 0.697440
O O3 0.251682 0.877513 0.820643
O O4 0.001049 0.613622 0.095404
O O5 0.682108 0.678015 0.785285
O O6 0.998207 0.109902 0.575747
O O7 0.182228 0.160958 0.769037
O O8 0.000000 0.000000 0.000000
O O9 0.501233 0.122722 0.581502
O O10 0.500000 0.000000 0.000000
O O11 0.500000 0.500000 0.500000
O O12 0.504906 0.379713 0.890674
O O13 0.236198 0.426944 0.203270
O O14 0.735245 0.925401 0.214016
O O15 0.000000 0.500000 0.500000
O O16 0.751061 0.369020 0.337391
O O17 0.251574 0.869467 0.337375
O O18 0.498274 0.759621 0.842547
#
# Coordination Sequence:
#
# PCOD8036800 Si02
#       8
#     2   2   2   2   2   2   2   2
#     4  12  24  42  68  93 128 175 213 257 344 387
#     4  12  26  43  67 102 138 171 220 274 328 390
#     4  12  26  44  64  95 135 169 209 271 332 393
#     4  12  23  42  71  96 130 183 224 260 330 393
#     4  12  23  43  67  96 134 168 217 281 324 384
#     4  12  23  41  68  96 124 167 222 266 314 392
#     4  12  23  41  69  97 129 171 225 277 316 384
#     4  12  24  43  64  96 130 166 217 271 321 382
#
# _framework density 19.967224000000002
#
# number of rings (size 3 to 8) (size 9 to 14) (size 15 to 20)
#    0.000    0.000    5.000    6.000    0.000    2.000 
#    0.000    0.000    0.000    0.000    0.000    0.000 
#    0.000    0.000    0.000    0.000    0.000    0.000 
#
# Total GULP energy -198454.125001 kJ/mol
# GULP energy per Si atom -12403.382813 kJ/mol
# Density = 1.992178 g / cm^3
# Si number density = 19.967224 Si / 1000 Ang^3
#
#
#
# Elastic Constant Matrix: (Units=GPa)
#
#
# Indices 1 2 3 4 5 6 
#
# 1 77.7648 -145.2412 -38.5151 -41.4060 23.8683 -21.1836
# 2 -145.2412 -376.8430 -268.1739 -87.0897 13.7005 -64.8635
# 3 -38.5151 -268.1739 14.5612 -58.6934 12.5417 -44.5685
# 4 -41.4060 -87.0897 -58.6934 14.2950 -4.3060 -15.4989
# 5 23.8683 13.7005 12.5417 -4.3060 58.3017 0.3434
# 6 -21.1836 -64.8635 -44.5685 -15.4989 0.3434 49.1489
#
#
#
# Elastic Compliance Matrix: (Units=1/GPa)
#
#
# Indices 1 2 3 4 5 6 
#
# 1 0.009399 -0.001939 -0.002957 0.001846 -0.002616 -0.000589
# 2 -0.001939 0.002097 -0.002727 -0.006849 0.000398 -0.002704
# 3 -0.002957 -0.002727 0.005812 -0.001115 0.000518 0.000042
# 4 0.001846 -0.006849 -0.001115 0.030305 0.003330 0.000279
# 5 -0.002616 0.000398 0.000518 0.003330 0.018260 0.000790
# 6 -0.000589 -0.002704 0.000042 0.000279 0.000790 0.016645
#
#
# Mechanical properties :
#
#
# Convention : Reuss Voigt Hill
#
# Bulk Modulus (GPa) = 484.82811 -132.04194 176.39309
# Shear Modulus (GPa) = 50.78610 35.51001 43.14806
#
# Velocity S-wave (km/s) = 5.04876 4.22170 4.65364
# Velocity P-wave (km/s) = 16.65310 6.51991 10.83551
#
# Compressibility (1/GPa) = 0.00206259
#
# Stress axis : x y z
#
# Youngs Moduli (GPa) = 106.39288 476.79629 172.04922
#
# Poissons Ratio (x) = 0.92453 0.50868
# Poissons Ratio (y) = 0.20630 0.46926
# Poissons Ratio (z) = 0.31456 1.30044
#
# Static dielectric constant tensor:
#      x y z
#    x 3.696770 0.059650 0.253050 
#    y 0.059650 4.046630 -0.028130 
#    z 0.253050 -0.028130 3.956580 
# 
# 
# High freq. dielectric constant tensor:
#      x y z
#    x 1.794550 0.002170 0.008880 
#    y 0.002170 1.807810 0.000080 
#    z 0.008880 0.000080 1.795490 
# 
# From -- ./inp_files/217577.got.cif
#   From: 2010.06.25/outbox.cif.g09.slc.cpg/sg2_109_cif.got.tgz:217577.got - 2010.06.27 13:26:56.
