data_PCOD8036840
_publ_section_title
;
Structure prediction by ZEFSAII (Michael W. Deem and Ramdas Pophale) SiO2 
 PCOD8036840
Probable space group: P -1
;
_chemical_formula_sum "Si O2"
_cell_formula_units_Z 12
_cell_length_a 14.343588
_cell_length_b 6.858855
_cell_length_c 8.775161
_cell_angle_alpha 122.556637
_cell_angle_beta 119.119512
_cell_angle_gamma 98.355441
_cell_volume 529.634724
_symmetry_space_group_name_H-M "P -1"
_symmetry_group_IT_number 2
_symmetry_cell_setting 'triclinic'
loop_
_space_group_symop_operation_xyz
x,y,z
-x,-y,-z
loop_
_atom_site_type_symbol
_atom_site_label
_atom_site_fract_x
_atom_site_fract_y
_atom_site_fract_z
Si Si1 0.058416 0.287389 0.749170
Si Si2 0.132457 0.223613 0.114808
Si Si3 0.628530 0.677551 0.268922
Si Si4 0.378459 0.219869 0.348352
Si Si5 0.724868 0.299064 0.123229
Si Si6 0.811806 0.246750 0.481381
O O1 0.182416 0.523846 0.863813
O O2 0.957544 0.374054 0.699208
O O3 0.094111 0.257404 0.932633
O O4 0.000000 0.000000 0.500000
O O5 0.236263 0.142222 0.159017
O O6 0.213208 0.524623 0.384931
O O7 0.000000 0.000000 0.000000
O O8 0.608398 0.776380 0.457106
O O9 0.677642 0.474596 0.243497
O O10 0.724040 0.948027 0.361590
O O11 0.500000 0.500000 0.000000
O O12 0.500000 0.500000 0.500000
O O13 0.386662 0.979139 0.169579
O O14 0.790733 0.216950 0.269907
#
# Coordination Sequence:
#
# PCOD8036840 Si02
#       6
#     2   2   2   2   2   2
#     4  12  23  42  72 108 143 186 242 293 360 430
#     4  12  25  46  75 108 148 192 243 298 361 430
#     4  12  28  48  74 106 143 192 242 295 363 429
#     4  12  28  48  75 109 145 193 244 295 363 432
#     4  12  26  48  75 106 148 186 240 302 357 429
#     4  12  24  47  74 103 148 189 238 301 361 426
#
# _framework density 22.657124
#
# number of rings (size 3 to 8) (size 9 to 14) (size 15 to 20)
#    0.000    0.000    3.333    7.000    4.667    2.000 
#    0.000    0.000    0.000    0.000    0.000    0.000 
#    0.000    0.000    0.000    0.000    0.000    0.000 
#
# Total GULP energy -148801.464362 kJ/mol
# GULP energy per Si atom -12400.122030 kJ/mol
# Density = 2.260556 g / cm^3
# Si number density = 22.657124 Si / 1000 Ang^3
#
#
#
# Elastic Constant Matrix: (Units=GPa)
#
#
# Indices 1 2 3 4 5 6 
#
# 1 61.1808 33.1329 26.3528 -3.0715 5.5248 15.3792
# 2 33.1329 135.7386 63.6585 -15.8868 -8.9467 26.3458
# 3 26.3528 63.6585 151.8030 -3.0409 -16.3135 15.7521
# 4 -3.0715 -15.8868 -3.0409 65.0191 0.5626 -5.9063
# 5 5.5248 -8.9467 -16.3135 0.5626 48.1263 -1.0922
# 6 15.3792 26.3458 15.7521 -5.9063 -1.0922 40.5698
#
#
#
# Elastic Compliance Matrix: (Units=1/GPa)
#
#
# Indices 1 2 3 4 5 6 
#
# 1 0.020651 -0.003405 -0.002058 -0.000372 -0.003810 -0.004975
# 2 -0.003405 0.010897 -0.003384 0.001956 0.001152 -0.004156
# 3 -0.002058 -0.003384 0.008667 -0.000577 0.002543 -0.000403
# 4 -0.000372 0.001956 -0.000577 0.015942 0.000056 0.001417
# 5 -0.003810 0.001152 0.002543 0.000056 0.022299 0.000317
# 6 -0.004975 -0.004156 -0.000403 0.001417 0.000317 0.029605
#
#
# Mechanical properties :
#
#
# Convention : Reuss Voigt Hill
#
# Bulk Modulus (GPa) = 44.40148 66.11231 55.25690
# Shear Modulus (GPa) = 37.52013 45.78159 41.65086
#
# Velocity S-wave (km/s) = 4.07381 4.50001 4.29221
# Velocity P-wave (km/s) = 6.46278 7.49953 7.00038
#
# Compressibility (1/GPa) = 0.02252177
#
# Stress axis : x y z
#
# Youngs Moduli (GPa) = 48.42333 91.76996 115.37426
#
# Poissons Ratio (x) = 0.31245 0.23743
# Poissons Ratio (y) = 0.16487 0.39046
# Poissons Ratio (z) = 0.09965 0.31058
#
# Static dielectric constant tensor:
#      x y z
#    x 4.371750 -0.155060 -0.223630 
#    y -0.155060 4.319490 0.224790 
#    z -0.223630 0.224790 3.800150 
# 
# 
# High freq. dielectric constant tensor:
#      x y z
#    x 1.893280 0.003630 -0.010130 
#    y 0.003630 1.911360 0.001750 
#    z -0.010130 0.001750 1.918000 
# 
# From -- ./inp_files/21201.got.cif
#   From: 2010.06.25/outbox.cif.g09.slc.cpg/sg2_11_cif.got.tgz:21201.got - 2010.06.27 13:26:56.
