data_PCOD8036670
_publ_section_title
;
Structure prediction by ZEFSAII (Michael W. Deem and Ramdas Pophale) SiO2 
 PCOD8036670
Probable space group: P -1
;
_chemical_formula_sum "Si O2"
_cell_formula_units_Z 14
_cell_length_a 16.182614
_cell_length_b 11.469322
_cell_length_c 8.231670
_cell_angle_alpha 77.711947
_cell_angle_beta 40.073744
_cell_angle_gamma 48.395585
_cell_volume 580.865495
_symmetry_space_group_name_H-M "P -1"
_symmetry_group_IT_number 2
_symmetry_cell_setting 'triclinic'
loop_
_space_group_symop_operation_xyz
x,y,z
-x,-y,-z
loop_
_atom_site_type_symbol
_atom_site_label
_atom_site_fract_x
_atom_site_fract_y
_atom_site_fract_z
Si Si1 0.879224 0.824581 0.237641
Si Si2 0.464388 0.387471 0.119535
Si Si3 0.278963 0.606220 0.846839
Si Si4 0.029869 0.261241 0.207878
Si Si5 0.158588 0.908206 0.145916
Si Si6 0.495860 0.232979 0.802945
Si Si7 0.823209 0.729756 0.690626
O O1 0.839344 0.784756 0.478298
O O2 0.703217 0.061570 0.427828
O O3 0.123207 0.692558 0.906180
O O4 0.874958 0.747333 0.099420
O O5 0.219599 0.530195 0.458025
O O6 0.500000 0.500000 0.000000
O O7 0.594714 0.256955 0.123191
O O8 0.570024 0.233099 0.861927
O O9 0.500000 0.500000 0.500000
O O10 0.322249 0.451402 0.923745
O O11 0.141959 0.802355 0.095241
O O12 0.152101 0.204139 0.206568
O O13 0.075185 0.090812 0.136210
O O14 0.000000 0.000000 0.500000
O O15 0.401645 0.170217 0.989101
O O16 0.000000 0.500000 0.500000
#
# Coordination Sequence:
#
# PCOD8036670 Si02
#       7
#     2   2   2   2   2   2   2
#     4  12  28  46  76 112 143 195 249 303 368 432
#     4  12  22  41  72 104 146 196 238 287 372 434
#     4  12  25  43  67 107 155 185 232 301 364 434
#     4  12  27  47  73 111 145 192 246 303 362 437
#     4  12  23  40  68 103 148 188 237 291 351 440
#     4  12  25  48  75 104 148 198 240 306 366 430
#     4  12  25  54  76 101 149 193 251 306 362 432
#
# _framework density 24.101965
#
# number of rings (size 3 to 8) (size 9 to 14) (size 15 to 20)
#    0.000    0.000    5.714    4.714    0.000    2.286 
#    0.000    0.000    0.000    0.000    0.000    0.000 
#    0.000    0.000    0.000    0.000    0.000    0.000 
#
# Total GULP energy -173511.385514 kJ/mol
# GULP energy per Si atom -12393.670394 kJ/mol
# Density = 2.404711 g / cm^3
# Si number density = 24.101965 Si / 1000 Ang^3
#
#
#
# Elastic Constant Matrix: (Units=GPa)
#
#
# Indices 1 2 3 4 5 6 
#
# 1 98.6069 20.9088 31.8795 -21.2015 17.2593 -1.4537
# 2 20.9088 74.2248 15.1507 9.0752 7.5680 2.5917
# 3 31.8795 15.1507 105.5183 -7.3388 14.2798 10.4235
# 4 -21.2015 9.0752 -7.3388 35.6710 -3.7789 0.5178
# 5 17.2593 7.5680 14.2798 -3.7789 53.0954 -0.5974
# 6 -1.4537 2.5917 10.4235 0.5178 -0.5974 34.4884
#
#
#
# Elastic Compliance Matrix: (Units=1/GPa)
#
#
# Indices 1 2 3 4 5 6 
#
# 1 0.014358 -0.004305 -0.002919 0.008727 -0.002629 0.001634
# 2 -0.004305 0.015928 -0.001239 -0.006963 -0.001044 -0.000918
# 3 -0.002919 -0.001239 0.011182 0.000733 -0.001869 -0.003453
# 4 0.008727 -0.006963 0.000733 0.035190 0.000465 0.000149
# 5 -0.002629 -0.001044 -0.001869 0.000465 0.020383 0.000878
# 6 0.001634 -0.000918 -0.003453 0.000149 0.000878 0.030190
#
#
# Mechanical properties :
#
#
# Convention : Reuss Voigt Hill
#
# Bulk Modulus (GPa) = 40.74418 46.02534 43.38476
# Shear Modulus (GPa) = 32.82216 38.67833 35.75025
#
# Velocity S-wave (km/s) = 3.69427 4.01032 3.85553
# Velocity P-wave (km/s) = 5.92777 6.37033 6.15303
#
# Compressibility (1/GPa) = 0.02454338
#
# Stress axis : x y z
#
# Youngs Moduli (GPa) = 69.64634 62.78285 89.43262
#
# Poissons Ratio (x) = 0.27027 0.26101
# Poissons Ratio (y) = 0.29982 0.11079
# Poissons Ratio (z) = 0.20326 0.07777
#
# Static dielectric constant tensor:
#      x y z
#    x 4.990970 -0.270260 0.013400 
#    y -0.270260 4.566160 0.069720 
#    z 0.013400 0.069720 4.629770 
# 
# 
# High freq. dielectric constant tensor:
#      x y z
#    x 1.962100 -0.009780 0.006410 
#    y -0.009780 1.955130 0.017160 
#    z 0.006410 0.017160 1.970560 
# 
# From -- ./inp_files/333191.got.cif
#   From: 2010.06.25/outbox.cif.g09.slc.cpg/sg2_167_cif.got.tgz:333191.got - 2010.06.27 13:26:56.
