data_PCOD8036644
_publ_section_title
;
Structure prediction by ZEFSAII (Michael W. Deem and Ramdas Pophale) SiO2 
 PCOD8036644
Probable space group: P -1
;
_chemical_formula_sum "Si O2"
_cell_formula_units_Z 16
_cell_length_a 11.608475
_cell_length_b 12.068644
_cell_length_c 12.741098
_cell_angle_alpha 104.321352
_cell_angle_beta 102.301633
_cell_angle_gamma 23.399765
_cell_volume 686.423729
_symmetry_space_group_name_H-M "P -1"
_symmetry_group_IT_number 2
_symmetry_cell_setting 'triclinic'
loop_
_space_group_symop_operation_xyz
x,y,z
-x,-y,-z
loop_
_atom_site_type_symbol
_atom_site_label
_atom_site_fract_x
_atom_site_fract_y
_atom_site_fract_z
Si Si1 0.235625 0.534532 0.842982
Si Si2 0.882193 0.936428 0.525498
Si Si3 0.156762 0.113554 0.720369
Si Si4 0.435277 0.398696 0.198159
Si Si5 0.759966 0.706669 0.300534
Si Si6 0.622645 0.470641 0.338492
Si Si7 0.222744 0.203366 0.426249
Si Si8 0.783279 0.085144 0.978024
O O1 0.162885 0.464650 0.802730
O O2 0.201830 0.622417 0.742892
O O3 0.557337 0.286063 0.885070
O O4 0.992737 0.791024 0.938060
O O5 0.584729 0.255176 0.580619
O O6 0.912371 0.901725 0.398626
O O7 0.927764 0.768706 0.540022
O O8 0.147078 0.775371 0.586506
O O9 0.186163 0.220409 0.725840
O O10 0.909501 0.315588 0.808304
O O11 0.452822 0.800687 0.750624
O O12 0.465560 0.498225 0.273162
O O13 0.591409 0.249999 0.083033
O O14 0.963048 0.520054 0.405874
O O15 0.411921 0.997309 0.313677
O O16 0.500000 0.000000 0.500000
O O17 0.000000 0.000000 0.000000
#
# Coordination Sequence:
#
# PCOD8036644 Si02
#       8
#     2   2   2   2   2   2   2   2
#     4  12  24  44  73 114 131 168 229 312 354 392
#     4  12  24  41  68 107 141 184 228 278 344 406
#     4  12  28  46  67  97 149 197 223 264 339 431
#     4  12  28  48  68  98 138 187 235 280 347 424
#     4  12  25  43  69 103 145 181 229 288 341 402
#     4  12  25  42  72 105 141 173 230 296 345 403
#     4  12  22  38  68 103 137 184 237 282 324 402
#     4  12  26  46  78 103 132 172 235 299 362 401
#
# _framework density 23.309218000000001
#
# number of rings (size 3 to 8) (size 9 to 14) (size 15 to 20)
#    0.000    0.000    5.000    5.250    3.500    3.000 
#    0.000    3.750    0.000    0.000    0.000    0.000 
#    0.000    0.000    0.000    0.000    0.000    0.000 
#
# Total GULP energy -198364.820137 kJ/mol
# GULP energy per Si atom -12397.801259 kJ/mol
# Density = 2.325616 g / cm^3
# Si number density = 23.309218 Si / 1000 Ang^3
#
#
#
# Elastic Constant Matrix: (Units=GPa)
#
#
# Indices 1 2 3 4 5 6 
#
# 1 60.8364 13.1334 25.6126 14.6197 -2.7845 15.6335
# 2 13.1334 118.7379 17.4207 9.9549 0.2802 -3.2408
# 3 25.6126 17.4207 71.7779 -2.4667 1.5193 1.7132
# 4 14.6197 9.9549 -2.4667 36.6575 -11.4819 1.9822
# 5 -2.7845 0.2802 1.5193 -11.4819 31.6927 3.4909
# 6 15.6335 -3.2408 1.7132 1.9822 3.4909 37.9046
#
#
#
# Elastic Compliance Matrix: (Units=1/GPa)
#
#
# Indices 1 2 3 4 5 6 
#
# 1 0.025207 -0.000921 -0.008884 -0.009840 0.000138 -0.009572
# 2 -0.000921 0.009083 -0.001979 -0.002691 -0.001206 0.001498
# 3 -0.008884 -0.001979 0.017701 0.005134 -0.000019 0.002428
# 4 -0.009840 -0.002691 0.005134 0.035966 0.011875 0.000622
# 5 0.000138 -0.001206 -0.000019 0.011875 0.036333 -0.004126
# 6 -0.009572 0.001498 0.002428 0.000622 -0.004126 0.030696
#
#
# Mechanical properties :
#
#
# Convention : Reuss Voigt Hill
#
# Bulk Modulus (GPa) = 35.18101 40.40952 37.79526
# Shear Modulus (GPa) = 26.59165 34.26332 30.42749
#
# Velocity S-wave (km/s) = 3.38127 3.83815 3.61693
# Velocity P-wave (km/s) = 5.51089 6.08406 5.80455
#
# Compressibility (1/GPa) = 0.02842443
#
# Stress axis : x y z
#
# Youngs Moduli (GPa) = 39.67105 110.09012 56.49417
#
# Poissons Ratio (x) = 0.10143 0.50188
# Poissons Ratio (y) = 0.03655 0.11177
# Poissons Ratio (z) = 0.35243 0.21781
#
# Static dielectric constant tensor:
#      x y z
#    x 3.854050 0.345370 0.237070 
#    y 0.345370 3.723750 -0.013590 
#    z 0.237070 -0.013590 4.404080 
# 
# 
# High freq. dielectric constant tensor:
#      x y z
#    x 1.912170 -0.000770 0.012350 
#    y -0.000770 1.950660 0.011040 
#    z 0.012350 0.011040 1.922850 
# 
# From -- ./inp_files/452317.got.cif
#   From: 2010.06.25/outbox.cif.g09.slc.cpg/sg2_227_cif.got.tgz:452317.got - 2010.06.27 13:26:56.
