data_PCOD8036952
_publ_section_title
;
Structure prediction by ZEFSAII (Michael W. Deem and Ramdas Pophale) SiO2 
 PCOD8036952
Probable space group: P -1
;
_chemical_formula_sum "Si O2"
_cell_formula_units_Z 16
_cell_length_a 8.857041
_cell_length_b 12.020016
_cell_length_c 8.893629
_cell_angle_alpha 113.885681
_cell_angle_beta 119.934372
_cell_angle_gamma 58.087718
_cell_volume 683.568926
_symmetry_space_group_name_H-M "P -1"
_symmetry_group_IT_number 2
_symmetry_cell_setting 'triclinic'
loop_
_space_group_symop_operation_xyz
x,y,z
-x,-y,-z
loop_
_atom_site_type_symbol
_atom_site_label
_atom_site_fract_x
_atom_site_fract_y
_atom_site_fract_z
Si Si1 0.782348 0.960520 0.385602
Si Si2 0.174560 0.240453 0.255807
Si Si3 0.027608 0.481729 0.830917
Si Si4 0.450396 0.777012 0.432975
Si Si5 0.720673 0.022095 0.037135
Si Si6 0.705154 0.381014 0.539572
Si Si7 0.609149 0.764399 0.189067
Si Si8 0.072087 0.827568 0.678339
O O1 0.752936 0.828547 0.341993
O O2 0.000054 0.913740 0.532194
O O3 0.644768 0.068122 0.491378
O O4 0.727710 0.000769 0.208511
O O5 0.012911 0.373697 0.178787
O O6 0.347514 0.280406 0.409453
O O7 0.089811 0.207903 0.346740
O O8 0.238093 0.114945 0.103926
O O9 0.881455 0.421915 0.666141
O O10 0.252334 0.387538 0.867571
O O11 0.000000 0.500000 0.000000
O O12 0.308840 0.710214 0.379191
O O13 0.474302 0.759987 0.256323
O O14 0.876573 0.084142 0.123371
O O15 0.518526 0.141368 0.957704
O O16 0.500000 0.500000 0.500000
O O17 0.741359 0.301918 0.354423
#
# Coordination Sequence:
#
# PCOD8036952 Si02
#       8
#     2   2   2   2   2   2   2   2
#     4  12  23  45  75 106 144 191 243 300 363 430
#     4  12  26  48  76 107 149 193 243 303 363 430
#     4  12  29  48  75 109 150 191 241 299 371 434
#     4  12  25  45  77 106 144 194 245 299 363 433
#     4  12  27  45  77 112 146 191 244 309 360 425
#     4  12  27  46  75 104 146 191 243 295 364 437
#     4  12  26  47  75 107 147 191 247 296 364 437
#     4  12  27  48  75 109 146 191 249 301 360 434
#
# _framework density 23.406565000000001
#
# number of rings (size 3 to 8) (size 9 to 14) (size 15 to 20)
#    0.000    0.000    6.250    3.000    5.250    2.000 
#    0.000    1.250    0.000    0.000    0.000    0.000 
#    0.000    0.000    0.000    0.000    0.000    0.000 
#
# Total GULP energy -198283.446649 kJ/mol
# GULP energy per Si atom -12392.715416 kJ/mol
# Density = 2.335329 g / cm^3
# Si number density = 23.406565 Si / 1000 Ang^3
#
#
#
# Elastic Constant Matrix: (Units=GPa)
#
#
# Indices 1 2 3 4 5 6 
#
# 1 84.5997 44.3765 45.3182 4.5066 -14.1077 -24.0274
# 2 44.3765 139.7669 51.9318 -17.2266 -1.4397 -19.3936
# 3 45.3182 51.9318 108.4667 -8.5191 -7.0393 -2.3191
# 4 4.5066 -17.2266 -8.5191 32.9122 -5.1347 7.6159
# 5 -14.1077 -1.4397 -7.0393 -5.1347 34.7541 7.0131
# 6 -24.0274 -19.3936 -2.3191 7.6159 7.0131 36.4916
#
#
#
# Elastic Compliance Matrix: (Units=1/GPa)
#
#
# Indices 1 2 3 4 5 6 
#
# 1 0.023272 -0.003501 -0.008315 -0.009999 0.003235 0.014400
# 2 -0.003501 0.010281 -0.003171 0.004264 -0.001482 0.002352
# 3 -0.008315 -0.003171 0.014580 0.005309 0.001781 -0.007684
# 4 -0.009999 0.004264 0.005309 0.039318 0.005681 -0.013277
# 5 0.003235 -0.001482 0.001781 0.005681 0.032429 -0.005962
# 6 0.014400 0.002352 -0.007684 -0.013277 -0.005962 0.041564
#
#
# Mechanical properties :
#
#
# Convention : Reuss Voigt Hill
#
# Bulk Modulus (GPa) = 55.06349 68.45403 61.75876
# Shear Modulus (GPa) = 25.32038 33.57871 29.44955
#
# Velocity S-wave (km/s) = 3.29259 3.79170 3.55092
# Velocity P-wave (km/s) = 6.16690 6.96265 6.57682
#
# Compressibility (1/GPa) = 0.01816086
#
# Stress axis : x y z
#
# Youngs Moduli (GPa) = 42.96935 97.26623 68.58794
#
# Poissons Ratio (x) = 0.34049 0.57030
# Poissons Ratio (y) = 0.15042 0.21748
# Poissons Ratio (z) = 0.35728 0.30841
#
# Static dielectric constant tensor:
#      x y z
#    x 4.250700 0.111810 0.153750 
#    y 0.111810 4.326070 0.140180 
#    z 0.153750 0.140180 4.169340 
# 
# 
# High freq. dielectric constant tensor:
#      x y z
#    x 1.934310 0.000420 0.001660 
#    y 0.000420 1.940520 -0.002520 
#    z 0.001660 -0.002520 1.924450 
# 
# From -- ./inp_files/188784.got.cif
#   From: 2010.06.25/outbox.cif.g09.slc.cpg/sg2_95_cif.got.tgz:188784.got - 2010.06.27 13:26:56.
