data_PCOD8036770
_publ_section_title
;
Structure prediction by ZEFSAII (Michael W. Deem and Ramdas Pophale) SiO2 
 PCOD8036770
Probable space group: P -1
;
_chemical_formula_sum "Si O2"
_cell_formula_units_Z 14
_cell_length_a 16.768182
_cell_length_b 7.409160
_cell_length_c 7.958942
_cell_angle_alpha 54.789044
_cell_angle_beta 40.984354
_cell_angle_gamma 61.148839
_cell_volume 527.789096
_symmetry_space_group_name_H-M "P -1"
_symmetry_group_IT_number 2
_symmetry_cell_setting 'triclinic'
loop_
_space_group_symop_operation_xyz
x,y,z
-x,-y,-z
loop_
_atom_site_type_symbol
_atom_site_label
_atom_site_fract_x
_atom_site_fract_y
_atom_site_fract_z
Si Si1 0.453602 0.678275 0.761011
Si Si2 0.871242 0.012800 0.839357
Si Si3 0.909411 0.504491 0.486773
Si Si4 0.648936 0.747799 0.837350
Si Si5 0.953620 0.190069 0.100759
Si Si6 0.279290 0.862866 0.673300
Si Si7 0.642886 0.878380 0.148176
O O1 0.363389 0.675806 0.740638
O O2 0.589290 0.712343 0.459576
O O3 0.408526 0.869706 0.860496
O O4 0.440089 0.434297 0.993130
O O5 0.873080 0.260294 0.633584
O O6 0.807251 0.004332 0.126607
O O7 0.008882 0.895016 0.721350
O O8 0.791248 0.866470 0.925080
O O9 0.790807 0.662331 0.642221
O O10 0.000000 0.500000 0.500000
O O11 0.977920 0.591064 0.167754
O O12 0.628340 0.969122 0.639181
O O13 0.605728 0.813864 0.057056
O O14 0.805993 0.235412 0.284609
O O15 0.000000 0.000000 0.000000
#
# Coordination Sequence:
#
# PCOD8036770 Si02
#       7
#     2   2   2   2   2   2   2
#     4  10  22  45  61  82 126 157 193 252 301 347
#     4  10  19  37  57  83 124 155 189 243 298 345
#     4  12  18  33  63  85 114 162 196 230 298 347
#     4  12  21  37  65  90 114 159 206 239 295 357
#     4  10  17  31  59  89 113 156 199 235 290 361
#     4  10  19  35  62  89 115 157 201 241 293 353
#     4  10  23  40  62  90 119 156 200 248 297 351
#
# _framework density 26.525746000000002
#
# number of rings (size 3 to 8) (size 9 to 14) (size 15 to 20)
#    0.000    1.429    8.571    0.429    0.000    0.571 
#    0.000   15.000    0.000    2.571    0.000    0.000 
#    0.000    0.000    0.000    0.000    0.000    0.000 
#
# Total GULP energy -173520.755980 kJ/mol
# GULP energy per Si atom -12394.339713 kJ/mol
# Density = 2.646537 g / cm^3
# Si number density = 26.525746 Si / 1000 Ang^3
#
#
#
# Elastic Constant Matrix: (Units=GPa)
#
#
# Indices 1 2 3 4 5 6 
#
# 1 29.6774 16.9671 -32.6454 1.8524 -36.1199 0.1791
# 2 16.9671 47.0045 50.0956 -3.8137 -0.5058 11.9821
# 3 -32.6454 50.0956 122.0949 -35.1902 -30.4153 12.9489
# 4 1.8524 -3.8137 -35.1902 38.2108 3.6549 -1.3567
# 5 -36.1199 -0.5058 -30.4153 3.6549 38.1677 -5.5050
# 6 0.1791 11.9821 12.9489 -1.3567 -5.5050 28.3487
#
#
#
# Elastic Compliance Matrix: (Units=1/GPa)
#
#
# Indices 1 2 3 4 5 6 
#
# 1 -0.003877 0.014760 -0.012503 -0.008724 -0.013102 -0.003465
# 2 0.014760 0.013970 0.003185 0.001941 0.015889 -0.004275
# 3 -0.012503 0.003185 0.002478 0.004089 -0.010828 -0.004306
# 4 -0.008724 0.001941 0.004089 0.031255 -0.008363 -0.002761
# 5 -0.013102 0.015889 -0.010828 -0.008363 0.006052 -0.000912
# 6 -0.003465 -0.004275 -0.004306 -0.002761 -0.000912 0.038761
#
#
# Mechanical properties :
#
#
# Convention : Reuss Voigt Hill
#
# Bulk Modulus (GPa) = 42.63695 29.73458 36.18577
# Shear Modulus (GPa) = 58.42903 31.90273 45.16588
#
# Velocity S-wave (km/s) = 4.69842 3.47177 4.13088
# Velocity P-wave (km/s) = 6.74849 5.22542 6.03519
#
# Compressibility (1/GPa) = 0.02345383
#
# Stress axis : x y z
#
# Youngs Moduli (GPa) = -257.89923 71.58127 403.53859
#
# Poissons Ratio (x) = -1.05652 5.04563
# Poissons Ratio (y) = 3.80652 -1.28538
# Poissons Ratio (z) = -3.22463 -0.22801
#
# Static dielectric constant tensor:
#      x y z
#    x 5.669640 -0.340010 -0.254600 
#    y -0.340010 4.413330 -0.305420 
#    z -0.254600 -0.305420 5.256080 
# 
# 
# High freq. dielectric constant tensor:
#      x y z
#    x 2.068540 -0.001530 -0.014260 
#    y -0.001530 2.027770 -0.011920 
#    z -0.014260 -0.011920 2.077180 
# 
# From -- ./inp_files/327011.got.cif
#   From: 2010.06.25/outbox.cif.g09.slc.cpg/sg2_164_cif.got.tgz:327011.got - 2010.06.27 13:26:56.
