data_PCOD8036321
_publ_section_title
;
Structure prediction by ZEFSAII (Michael W. Deem and Ramdas Pophale) SiO2 
 PCOD8036321
Probable space group: P -1
;
_chemical_formula_sum "Si O2"
_cell_formula_units_Z 16
_cell_length_a 24.394485
_cell_length_b 8.869200
_cell_length_c 13.376890
_cell_angle_alpha 63.093531
_cell_angle_beta 157.981152
_cell_angle_gamma 126.691106
_cell_volume 819.117649
_symmetry_space_group_name_H-M "P -1"
_symmetry_group_IT_number 2
_symmetry_cell_setting 'triclinic'
loop_
_space_group_symop_operation_xyz
x,y,z
-x,-y,-z
loop_
_atom_site_type_symbol
_atom_site_label
_atom_site_fract_x
_atom_site_fract_y
_atom_site_fract_z
Si Si1 0.469902 0.858292 0.719692
Si Si2 0.703609 0.797531 0.254657
Si Si3 0.433808 0.563142 0.575191
Si Si4 0.980015 0.194463 0.156827
Si Si5 0.415383 0.572258 0.978274
Si Si6 0.951503 0.779112 0.965129
Si Si7 0.419472 0.083775 0.413974
Si Si8 0.830796 0.378314 0.559360
O O1 0.423899 0.703954 0.598275
O O2 0.319296 0.739912 0.578819
O O3 0.473294 0.053476 0.625524
O O4 0.655282 0.928817 0.063319
O O5 0.646374 0.595394 0.160325
O O6 0.906560 0.900509 0.590672
O O7 0.604241 0.751764 0.206818
O O8 0.247676 0.369208 0.299569
O O9 0.506321 0.684565 0.557012
O O10 0.563661 0.496560 0.855799
O O11 0.003075 0.246318 0.063139
O O12 0.033698 0.396185 0.245170
O O13 0.786048 0.033254 0.907880
O O14 0.268565 0.629734 0.709883
O O15 0.064110 0.730412 0.244679
O O16 0.000000 0.000000 0.000000
O O17 0.500000 0.000000 0.500000
#
# Coordination Sequence:
#
# PCOD8036321 Si02
#       8
#     2   2   2   2   2   2   2   2
#     4   9  15  29  53  81 104 130 170 209 256 302
#     4   8  14  25  50  80  99 127 169 213 249 297
#     4  10  18  34  48  75 112 133 160 215 259 300
#     4  11  18  34  56  78 101 138 174 207 259 301
#     4   8  14  27  50  76  99 129 169 208 258 295
#     4  12  23  34  52  79 104 132 178 219 251 298
#     4  10  20  29  49  81 110 136 165 206 258 311
#     4  10  17  31  57  79  98 132 175 216 252 297
#
# _framework density 19.533213
#
# number of rings (size 3 to 8) (size 9 to 14) (size 15 to 20)
#    0.000    2.250    3.750    3.375    0.000    0.000 
#    0.000   12.500    0.000    0.000    0.000    1.750 
#    0.000    0.000    0.000    0.000    0.000    0.000 
#
# Total GULP energy -198246.448684 kJ/mol
# GULP energy per Si atom -12390.403043 kJ/mol
# Density = 1.948875 g / cm^3
# Si number density = 19.533213 Si / 1000 Ang^3
#
#
#
# Elastic Constant Matrix: (Units=GPa)
#
#
# Indices 1 2 3 4 5 6 
#
# 1 19.7615 30.5939 27.0487 0.3728 4.4073 19.5876
# 2 30.5939 121.6061 82.1651 -22.0842 -3.0141 30.7971
# 3 27.0487 82.1651 160.2013 -32.9381 11.6320 24.6987
# 4 0.3728 -22.0842 -32.9381 37.2959 14.1833 -1.6474
# 5 4.4073 -3.0141 11.6320 14.1833 18.2022 -3.1653
# 6 19.5876 30.7971 24.6987 -1.6474 -3.1653 32.1256
#
#
#
# Elastic Compliance Matrix: (Units=1/GPa)
#
#
# Indices 1 2 3 4 5 6 
#
# 1 0.252859 -0.032806 0.008708 0.023117 -0.114496 -0.139514
# 2 -0.032806 0.019485 -0.007423 -0.001329 0.018476 0.008783
# 3 0.008708 -0.007423 0.019392 0.026955 -0.039447 -0.015606
# 4 0.023117 -0.001329 0.026955 0.084146 -0.095326 -0.038622
# 5 -0.114496 0.018476 -0.039447 -0.095326 0.202156 0.097456
# 6 -0.139514 0.008783 -0.015606 -0.038622 0.097456 0.127392
#
#
# Mechanical properties :
#
#
# Convention : Reuss Voigt Hill
#
# Bulk Modulus (GPa) = 4.37268 64.57604 34.47436
# Shear Modulus (GPa) = 5.91925 28.30882 17.11404
#
# Velocity S-wave (km/s) = 1.74268 3.81105 2.96320
# Velocity P-wave (km/s) = 2.50852 7.24547 5.42170
#
# Compressibility (1/GPa) = 0.22869271
#
# Stress axis : x y z
#
# Youngs Moduli (GPa) = 3.95478 51.32257 51.56892
#
# Poissons Ratio (x) = 1.68369 -0.44907
# Poissons Ratio (y) = 0.12974 0.38281
# Poissons Ratio (z) = -0.03444 0.38098
#
# Static dielectric constant tensor:
#      x y z
#    x 3.244050 0.553600 -0.114020 
#    y 0.553600 3.925680 -0.698170 
#    z -0.114020 -0.698170 4.128020 
# 
# 
# High freq. dielectric constant tensor:
#      x y z
#    x 1.705240 0.027440 0.000840 
#    y 0.027440 1.740580 -0.032550 
#    z 0.000840 -0.032550 1.775580 
# 
# From -- ./inp_files/205963.got.cif
#   From: 2010.06.25/outbox.cif.g09.slc.cpg/sg2_103_cif.got.tgz:205963.got - 2010.06.27 13:26:56.
