data_PCOD8036098
_publ_section_title
;
Structure prediction by ZEFSAII (Michael W. Deem and Ramdas Pophale) SiO2 
 PCOD8036098
Probable space group: P -1
;
_chemical_formula_sum "Si O2"
_cell_formula_units_Z 16
_cell_length_a 9.388195
_cell_length_b 5.169605
_cell_length_c 20.758558
_cell_angle_alpha 66.215039
_cell_angle_beta 124.540930
_cell_angle_gamma 125.747513
_cell_volume 669.608712
_symmetry_space_group_name_H-M "P -1"
_symmetry_group_IT_number 2
_symmetry_cell_setting 'triclinic'
loop_
_space_group_symop_operation_xyz
x,y,z
-x,-y,-z
loop_
_atom_site_type_symbol
_atom_site_label
_atom_site_fract_x
_atom_site_fract_y
_atom_site_fract_z
Si Si1 0.711881 0.552695 0.064656
Si Si2 0.081507 0.612540 0.312678
Si Si3 0.175613 0.306751 0.247880
Si Si4 0.916777 0.726660 0.431633
Si Si5 0.727086 0.627467 0.525741
Si Si6 0.933730 0.288045 0.067425
Si Si7 0.664435 0.214122 0.219126
Si Si8 0.570907 0.524073 0.271095
O O1 0.761177 0.341612 0.048773
O O2 0.719842 0.434888 0.149409
O O3 0.863430 0.927072 0.062476
O O4 0.500000 0.500000 0.000000
O O5 0.169091 0.543151 0.276703
O O6 0.218955 0.645096 0.406562
O O7 0.866917 0.311888 0.299341
O O8 0.051557 0.928726 0.269555
O O9 0.398134 0.363907 0.294605
O O10 0.106503 0.389391 0.154196
O O11 0.772651 0.726320 0.452368
O O12 0.778975 0.592528 0.347720
O O13 0.000000 0.500000 0.500000
O O14 0.109566 0.054896 0.427698
O O15 0.500000 0.500000 0.500000
O O16 0.000000 0.500000 0.000000
O O17 0.521967 0.282917 0.222493
O O18 0.568850 0.844217 0.212626
#
# Coordination Sequence:
#
# PCOD8036098 Si02
#       8
#     2   2   2   2   2   2   2   2
#     4  12  27  46  72 104 140 182 232 278 345 424
#     4  12  24  47  71  98 138 185 233 288 344 411
#     4  12  26  45  71 103 138 180 237 286 343 423
#     4  11  26  45  66 103 142 180 238 298 348 427
#     4  11  26  44  71  99 140 190 234 291 363 420
#     4  12  26  47  70 102 143 181 226 289 345 411
#     4  12  24  46  71  99 138 184 228 283 344 410
#     4  12  27  44  72 101 140 183 230 289 351 407
#
# _framework density 23.894552000000001
#
# number of rings (size 3 to 8) (size 9 to 14) (size 15 to 20)
#    0.000    0.250    3.750    4.500    8.750    0.500 
#    0.000    0.000    0.000    0.000    0.000    0.000 
#    0.000    0.000    0.000    0.000    0.000    0.000 
#
# Total GULP energy -198370.548336 kJ/mol
# GULP energy per Si atom -12398.159271 kJ/mol
# Density = 2.384017 g / cm^3
# Si number density = 23.894552 Si / 1000 Ang^3
#
#
#
# Elastic Constant Matrix: (Units=GPa)
#
#
# Indices 1 2 3 4 5 6 
#
# 1 117.1535 17.7310 9.9984 3.4307 -3.1431 -1.5221
# 2 17.7310 68.1108 20.6331 -10.4090 5.2743 -0.1880
# 3 9.9984 20.6331 97.8291 -7.1606 -1.6722 -4.5898
# 4 3.4307 -10.4090 -7.1606 31.7916 1.2975 7.6436
# 5 -3.1431 5.2743 -1.6722 1.2975 41.8172 1.6236
# 6 -1.5221 -0.1880 -4.5898 7.6436 1.6236 48.6391
#
#
#
# Elastic Compliance Matrix: (Units=1/GPa)
#
#
# Indices 1 2 3 4 5 6 
#
# 1 0.009070 -0.002615 -0.000488 -0.002113 0.001037 0.000525
# 2 -0.002615 0.017359 -0.003078 0.005646 -0.002641 -0.001104
# 3 -0.000488 -0.003078 0.011067 0.001319 0.000723 0.000786
# 4 -0.002113 0.005646 0.001319 0.035195 -0.001701 -0.005394
# 5 0.001037 -0.002641 0.000723 -0.001701 0.024424 -0.000458
# 6 0.000525 -0.001104 0.000786 -0.005394 -0.000458 0.021509
#
#
# Mechanical properties :
#
#
# Convention : Reuss Voigt Hill
#
# Bulk Modulus (GPa) = 39.78569 42.20203 40.99386
# Shear Modulus (GPa) = 35.87750 40.09833 37.98792
#
# Velocity S-wave (km/s) = 3.87911 4.10095 3.99157
# Velocity P-wave (km/s) = 6.06218 6.33434 6.19975
#
# Compressibility (1/GPa) = 0.02513466
#
# Stress axis : x y z
#
# Youngs Moduli (GPa) = 110.25621 57.60549 90.36173
#
# Poissons Ratio (x) = 0.15065 0.04407
# Poissons Ratio (y) = 0.28834 0.27810
# Poissons Ratio (z) = 0.05377 0.17729
#
# Static dielectric constant tensor:
#      x y z
#    x 4.532300 -0.094210 -0.129610 
#    y -0.094210 4.389060 -0.061760 
#    z -0.129610 -0.061760 4.490410 
# 
# 
# High freq. dielectric constant tensor:
#      x y z
#    x 1.960880 -0.005250 0.000480 
#    y -0.005250 1.945440 -0.009280 
#    z 0.000480 -0.009280 1.953200 
# 
# From -- ./inp_files/141306.got.cif
#   From: 2010.06.25/outbox.cif.g09.slc.cpg/sg2_71_cif.got.tgz:141306.got - 2010.06.27 13:26:56.
