data_PCOD8036302
_publ_section_title
;
Structure prediction by ZEFSAII (Michael W. Deem and Ramdas Pophale) SiO2 
 PCOD8036302
Probable space group: P -1
;
_chemical_formula_sum "Si O2"
_cell_formula_units_Z 8
_cell_length_a 5.115749
_cell_length_b 9.177086
_cell_length_c 9.023842
_cell_angle_alpha 48.363310
_cell_angle_beta 84.423188
_cell_angle_gamma 103.631526
_cell_volume 288.312739
_symmetry_space_group_name_H-M "P -1"
_symmetry_group_IT_number 2
_symmetry_cell_setting 'triclinic'
loop_
_space_group_symop_operation_xyz
x,y,z
-x,-y,-z
loop_
_atom_site_type_symbol
_atom_site_label
_atom_site_fract_x
_atom_site_fract_y
_atom_site_fract_z
Si Si1 0.753005 0.313637 0.530431
Si Si2 0.174662 0.736860 0.778749
Si Si3 0.738092 0.880254 0.837116
Si Si4 0.198051 0.242576 0.785834
O O1 0.728289 0.250211 0.403330
O O2 0.433643 0.262756 0.636813
O O3 0.934394 0.574447 0.361474
O O4 0.866358 0.137196 0.714944
O O5 0.450961 0.848407 0.790048
O O6 0.973492 0.864650 0.724362
O O7 0.000000 0.500000 0.000000
O O8 0.655405 0.703569 0.093011
O O9 0.000000 0.000000 0.000000
#
# Coordination Sequence:
#
# PCOD8036302 Si02
#       4
#     2   2   2   2
#     4  11  26  47  79 112 153 204 251 313 388 443
#     4  12  26  50  79 113 153 199 254 318 381 450
#     4  12  26  51  78 112 155 197 256 316 379 455
#     4  11  26  51  76 113 157 200 257 312 377 460
#
# _framework density 27.747643
#
# number of rings (size 3 to 8) (size 9 to 14) (size 15 to 20)
#    0.000    0.500    2.500    4.500    0.000    3.000 
#    4.500    0.000    0.000    0.000    0.000    0.000 
#    0.000    0.000    0.000    0.000    0.000    0.000 
#
# Total GULP energy -99169.160339 kJ/mol
# GULP energy per Si atom -12396.145042 kJ/mol
# Density = 2.768449 g / cm^3
# Si number density = 27.747643 Si / 1000 Ang^3
#
#
#
# Elastic Constant Matrix: (Units=GPa)
#
#
# Indices 1 2 3 4 5 6 
#
# 1 113.5166 56.1950 57.7727 -23.9980 6.9631 -27.3909
# 2 56.1950 178.3850 82.9949 -26.1412 0.9387 -27.7841
# 3 57.7727 82.9949 200.2690 -3.2918 28.1866 -7.8866
# 4 -23.9980 -26.1412 -3.2918 68.1686 -13.2079 -9.1230
# 5 6.9631 0.9387 28.1866 -13.2079 62.3178 -5.3522
# 6 -27.3909 -27.7841 -7.8866 -9.1230 -5.3522 47.8716
#
#
#
# Elastic Compliance Matrix: (Units=1/GPa)
#
#
# Indices 1 2 3 4 5 6 
#
# 1 0.014248 -0.000475 -0.003777 0.006239 0.002192 0.008688
# 2 -0.000475 0.008971 -0.003715 0.004412 0.003006 0.005500
# 3 -0.003777 -0.003715 0.008000 -0.003762 -0.004298 -0.004197
# 4 0.006239 0.004412 -0.003762 0.020953 0.006255 0.010203
# 5 0.002192 0.003006 -0.004298 0.006255 0.019513 0.005664
# 6 0.008688 0.005500 -0.004197 0.010203 0.005664 0.030939
#
#
# Mechanical properties :
#
#
# Convention : Reuss Voigt Hill
#
# Bulk Modulus (GPa) = 65.42254 98.45509 81.93882
# Shear Modulus (GPa) = 40.43597 55.35213 47.89405
#
# Velocity S-wave (km/s) = 3.82157 4.47121 4.15909
# Velocity P-wave (km/s) = 6.56517 7.88765 7.25660
#
# Compressibility (1/GPa) = 0.01528525
#
# Stress axis : x y z
#
# Youngs Moduli (GPa) = 70.18772 111.46878 124.99804
#
# Poissons Ratio (x) = 0.05296 0.47212
# Poissons Ratio (y) = 0.03335 0.46432
# Poissons Ratio (z) = 0.26510 0.41407
#
# Static dielectric constant tensor:
#      x y z
#    x 11.495440 1.163220 13.679060 
#    y 1.163220 6.210970 1.640930 
#    z 13.679060 1.640930 35.017430 
# 
# 
# High freq. dielectric constant tensor:
#      x y z
#    x 2.130270 0.013800 0.034940 
#    y 0.013800 2.169670 -0.009770 
#    z 0.034940 -0.009770 2.167900 
# 
# From -- ./inp_files/17160.got.cif
#   From: 2010.06.25/outbox.cif.g09.slc.cpg/sg2_9_cif.got.tgz:17160.got - 2010.06.27 13:26:56.
