data_PCOD8036796
_publ_section_title
;
Structure prediction by ZEFSAII (Michael W. Deem and Ramdas Pophale) SiO2 
 PCOD8036796
Probable space group: P -1
;
_chemical_formula_sum "Si O2"
_cell_formula_units_Z 16
_cell_length_a 8.845084
_cell_length_b 17.794547
_cell_length_c 5.387637
_cell_angle_alpha 112.897894
_cell_angle_beta 79.113679
_cell_angle_gamma 119.044535
_cell_volume 682.924959
_symmetry_space_group_name_H-M "P -1"
_symmetry_group_IT_number 2
_symmetry_cell_setting 'triclinic'
loop_
_space_group_symop_operation_xyz
x,y,z
-x,-y,-z
loop_
_atom_site_type_symbol
_atom_site_label
_atom_site_fract_x
_atom_site_fract_y
_atom_site_fract_z
Si Si1 0.710824 0.713214 0.128495
Si Si2 0.547848 0.851518 0.802328
Si Si3 0.825938 0.910431 0.382053
Si Si4 0.888398 0.485383 0.266345
Si Si5 0.353063 0.992076 0.718926
Si Si6 0.386280 0.707061 0.042149
Si Si7 0.789699 0.212762 0.466292
Si Si8 0.822539 0.653870 0.528709
O O1 0.847298 0.821552 0.174351
O O2 0.759615 0.680099 0.326756
O O3 0.507580 0.692037 0.193724
O O4 0.721347 0.657704 0.811595
O O5 0.707581 0.867953 0.603691
O O6 0.544436 0.786212 0.942642
O O7 0.357054 0.793124 0.680483
O O8 0.562683 0.953245 0.982899
O O9 0.733280 0.943953 0.253130
O O10 0.000000 0.000000 0.500000
O O11 0.730182 0.384051 0.190873
O O12 0.798809 0.551702 0.376325
O O13 0.000000 0.500000 0.500000
O O14 0.000000 0.500000 0.000000
O O15 0.213708 0.886593 0.638711
O O16 0.500000 0.000000 0.500000
O O17 0.256323 0.748127 0.220447
O O18 0.976001 0.280922 0.398091
#
# Coordination Sequence:
#
# PCOD8036796 Si02
#       8
#     2   2   2   2   2   2   2   2
#     4  12  27  51  71 113 155 199 251 305 388 450
#     4  12  23  43  71 103 145 199 259 302 379 442
#     4  12  27  44  67 101 153 205 247 313 376 448
#     4  12  27  51  81 120 149 191 256 316 387 450
#     4  12  23  41  65 105 141 188 262 308 362 445
#     4  12  26  47  81 101 156 199 248 317 382 455
#     4  12  25  44  73 108 142 203 249 320 371 443
#     4  12  29  48  77 112 154 191 254 319 374 453
#
# _framework density 23.428636999999998
#
# number of rings (size 3 to 8) (size 9 to 14) (size 15 to 20)
#    0.000    0.000    6.250    3.375    3.500    1.500 
#    0.000    0.000    0.000    0.000    0.000    0.000 
#    0.000    0.000    0.000    0.000    0.000    0.000 
#
# Total GULP energy -198276.680849 kJ/mol
# GULP energy per Si atom -12392.292553 kJ/mol
# Density = 2.337531 g / cm^3
# Si number density = 23.428637 Si / 1000 Ang^3
#
#
#
# Elastic Constant Matrix: (Units=GPa)
#
#
# Indices 1 2 3 4 5 6 
#
# 1 94.5085 37.2035 22.5999 8.4871 9.2646 -2.1786
# 2 37.2035 114.6774 37.9846 40.1015 0.8394 -4.8253
# 3 22.5999 37.9846 112.8795 19.4449 -2.7326 -4.5261
# 4 8.4871 40.1015 19.4449 52.9234 3.2911 -1.3360
# 5 9.2646 0.8394 -2.7326 3.2911 35.5324 8.2844
# 6 -2.1786 -4.8253 -4.5261 -1.3360 8.2844 46.4778
#
#
#
# Elastic Compliance Matrix: (Units=1/GPa)
#
#
# Indices 1 2 3 4 5 6 
#
# 1 0.012843 -0.004307 -0.001530 0.002016 -0.003721 0.000727
# 2 -0.004307 0.014104 -0.002237 -0.009244 0.001348 0.000538
# 3 -0.001530 -0.002237 0.010296 -0.001915 0.001326 0.000407
# 4 0.002016 -0.009244 -0.001915 0.026470 -0.002961 0.000237
# 5 -0.003721 0.001348 0.001326 -0.002961 0.030733 -0.005468
# 6 0.000727 0.000538 0.000407 0.000237 -0.005468 0.022627
#
#
# Mechanical properties :
#
#
# Convention : Reuss Voigt Hill
#
# Bulk Modulus (GPa) = 47.40424 57.51571 52.45998
# Shear Modulus (GPa) = 35.64998 41.93854 38.79426
#
# Velocity S-wave (km/s) = 3.90505 4.23549 4.07363
# Velocity P-wave (km/s) = 6.37260 6.96576 6.67577
#
# Compressibility (1/GPa) = 0.02109516
#
# Stress axis : x y z
#
# Youngs Moduli (GPa) = 77.86477 70.90332 97.12102
#
# Poissons Ratio (x) = 0.30535 0.14862
# Poissons Ratio (y) = 0.33533 0.21726
# Poissons Ratio (z) = 0.11915 0.15861
#
# Static dielectric constant tensor:
#      x y z
#    x 4.152980 -0.816610 -0.137700 
#    y -0.816610 2.302410 0.054130 
#    z -0.137700 0.054130 4.415520 
# 
# 
# High freq. dielectric constant tensor:
#      x y z
#    x 1.933440 -0.009570 0.007180 
#    y -0.009570 1.931600 0.022120 
#    z 0.007180 0.022120 1.939470 
# 
# From -- ./inp_files/48900.got.cif
#   From: 2010.06.25/outbox.cif.g09.slc.cpg/sg2_25_cif.got.tgz:48900.got - 2010.06.27 13:26:56.
