data_PCOD8036365
_publ_section_title
;
Structure prediction by ZEFSAII (Michael W. Deem and Ramdas Pophale) SiO2 
 PCOD8036365
Probable space group: P -1
;
_chemical_formula_sum "Si O2"
_cell_formula_units_Z 14
_cell_length_a 11.763929
_cell_length_b 9.544308
_cell_length_c 10.957284
_cell_angle_alpha 125.011264
_cell_angle_beta 122.083264
_cell_angle_gamma 36.898401
_cell_volume 598.403144
_symmetry_space_group_name_H-M "P -1"
_symmetry_group_IT_number 2
_symmetry_cell_setting 'triclinic'
loop_
_space_group_symop_operation_xyz
x,y,z
-x,-y,-z
loop_
_atom_site_type_symbol
_atom_site_label
_atom_site_fract_x
_atom_site_fract_y
_atom_site_fract_z
Si Si1 0.051226 0.544444 0.707178
Si Si2 0.697498 0.082074 0.840468
Si Si3 0.121002 0.653041 0.454910
Si Si4 0.040711 0.073375 0.739867
Si Si5 0.223913 0.625463 0.038566
Si Si6 0.419670 0.890962 0.945761
Si Si7 0.615394 0.723885 0.413399
O O1 0.167542 0.447146 0.598027
O O2 0.026067 0.369389 0.634628
O O3 0.179715 0.504043 0.868426
O O4 0.850818 0.829277 0.727061
O O5 0.762584 0.219299 0.962818
O O6 0.506422 0.282031 0.750085
O O7 0.654434 0.027492 0.916015
O O8 0.340324 0.398744 0.489279
O O9 0.111600 0.722532 0.345006
O O10 0.064307 0.851269 0.618176
O O11 0.952973 0.181526 0.876460
O O12 0.244716 0.987090 0.808221
O O13 0.415081 0.404052 0.112158
O O14 0.500000 0.000000 0.000000
O O15 0.500000 0.000000 0.500000
#
# Coordination Sequence:
#
# PCOD8036365 Si02
#       7
#     2   2   2   2   2   2   2
#     4  12  25  45  75 105 147 194 248 302 363 438
#     4  12  26  46  74 113 146 189 253 311 365 430
#     4  11  26  49  69 106 152 197 242 293 379 443
#     4  11  27  49  73 105 154 195 240 309 369 445
#     4  12  26  45  79 110 144 191 252 311 368 425
#     4  12  27  47  76 110 146 193 250 307 369 435
#     4  12  26  44  72 107 146 191 243 303 362 440
#
# _framework density 23.395599000000001
#
# number of rings (size 3 to 8) (size 9 to 14) (size 15 to 20)
#    0.000    0.286    4.286    3.857    6.000    1.143 
#    0.000    2.143    0.000    0.000    0.000    0.000 
#    0.000    0.000    0.000    0.000    0.000    0.000 
#
# Total GULP energy -173592.084982 kJ/mol
# GULP energy per Si atom -12399.434642 kJ/mol
# Density = 2.334235 g / cm^3
# Si number density = 23.395599 Si / 1000 Ang^3
#
#
#
# Elastic Constant Matrix: (Units=GPa)
#
#
# Indices 1 2 3 4 5 6 
#
# 1 120.7033 56.6537 56.4647 14.3038 11.8412 3.1294
# 2 56.6537 160.3547 37.5241 -4.0793 3.7699 7.8783
# 3 56.4647 37.5241 111.7713 8.9011 17.8813 13.3840
# 4 14.3038 -4.0793 8.9011 45.3572 0.2059 2.0065
# 5 11.8412 3.7699 17.8813 0.2059 34.8682 4.5442
# 6 3.1294 7.8783 13.3840 2.0065 4.5442 38.8008
#
#
#
# Elastic Compliance Matrix: (Units=1/GPa)
#
#
# Indices 1 2 3 4 5 6 
#
# 1 0.012757 -0.003484 -0.004952 -0.003435 -0.001625 0.001754
# 2 -0.003484 0.007797 -0.001044 0.002052 0.001015 -0.001167
# 3 -0.004952 -0.001044 0.012974 -0.000912 -0.004424 -0.003299
# 4 -0.003435 0.002052 -0.000912 0.023541 0.001431 -0.001210
# 5 -0.001625 0.001015 -0.004424 0.001431 0.031686 -0.002334
# 6 0.001754 -0.001167 -0.003299 -0.001210 -0.002334 0.027342
#
#
# Mechanical properties :
#
#
# Convention : Reuss Voigt Hill
#
# Bulk Modulus (GPa) = 68.63520 77.12382 72.87951
# Shear Modulus (GPa) = 35.73667 39.95104 37.84386
#
# Velocity S-wave (km/s) = 3.91256 4.13683 4.02626
# Velocity P-wave (km/s) = 7.05771 7.47359 7.26862
#
# Compressibility (1/GPa) = 0.01456978
#
# Stress axis : x y z
#
# Youngs Moduli (GPa) = 78.38631 128.25580 77.07633
#
# Poissons Ratio (x) = 0.44682 0.38166
# Poissons Ratio (y) = 0.27308 0.08045
# Poissons Ratio (z) = 0.38815 0.13386
#
# Static dielectric constant tensor:
#      x y z
#    x 4.187600 -0.172980 0.243700 
#    y -0.172980 4.640650 -0.283360 
#    z 0.243700 -0.283360 4.373940 
# 
# 
# High freq. dielectric constant tensor:
#      x y z
#    x 1.911570 -0.002460 0.015070 
#    y -0.002460 1.945330 -0.007720 
#    z 0.015070 -0.007720 1.939020 
# 
# From -- ./inp_files/240558.got.cif
#   From: 2010.06.25/outbox.cif.g09.slc.cpg/sg2_121_cif.got.tgz:240558.got - 2010.06.27 13:26:56.
