data_PCOD8036708
_publ_section_title
;
Structure prediction by ZEFSAII (Michael W. Deem and Ramdas Pophale) SiO2 
 PCOD8036708
Probable space group: P -1
;
_chemical_formula_sum "Si O2"
_cell_formula_units_Z 16
_cell_length_a 27.371796
_cell_length_b 8.833771
_cell_length_c 26.826821
_cell_angle_alpha 41.021284
_cell_angle_beta 10.815774
_cell_angle_gamma 42.195296
_cell_volume 798.912250
_symmetry_space_group_name_H-M "P -1"
_symmetry_group_IT_number 2
_symmetry_cell_setting 'triclinic'
loop_
_space_group_symop_operation_xyz
x,y,z
-x,-y,-z
loop_
_atom_site_type_symbol
_atom_site_label
_atom_site_fract_x
_atom_site_fract_y
_atom_site_fract_z
Si Si1 0.706605 0.720762 0.653095
Si Si2 0.769654 0.987262 0.625905
Si Si3 0.738803 0.720790 0.916623
Si Si4 0.792411 0.591410 0.781478
Si Si5 0.264969 0.016518 0.541555
Si Si6 0.753010 0.958937 0.224278
Si Si7 0.243976 0.794198 0.942325
Si Si8 0.250907 0.510499 0.712013
O O1 0.731511 0.865000 0.642148
O O2 0.951697 0.559202 0.440884
O O3 0.684420 0.898154 0.585991
O O4 0.452360 0.563220 0.949537
O O5 0.818644 0.801287 0.665504
O O6 0.018157 0.152981 0.333063
O O7 0.518577 0.134713 0.852971
O O8 0.773728 0.693909 0.829576
O O9 0.705410 0.476632 0.037542
O O10 0.234621 0.741999 0.638252
O O11 0.513086 0.068856 0.313448
O O12 0.013940 0.139712 0.785474
O O13 0.747075 0.697949 0.276544
O O14 0.500000 0.000000 0.500000
O O15 0.777664 0.140160 0.109797
O O16 0.000000 0.000000 0.000000
O O17 0.500000 0.500000 0.500000
O O18 0.000000 0.500000 0.000000
#
# Coordination Sequence:
#
# PCOD8036708 Si02
#       8
#     2   2   2   2   2   2   2   2
#     4  12  24  42  68 100 131 179 226 274 338 389
#     4  12  26  42  66 101 141 167 223 292 329 385
#     4  12  24  43  67  98 133 181 224 265 344 399
#     4  12  23  45  68  97 132 184 226 268 332 408
#     4  12  22  43  70  97 129 176 230 272 316 397
#     4  12  26  44  68 104 136 170 213 272 339 390
#     4  12  24  44  71  93 138 176 217 276 327 398
#     4  12  23  43  70  98 128 177 221 267 319 392
#
# _framework density 20.027229999999999
#
# number of rings (size 3 to 8) (size 9 to 14) (size 15 to 20)
#    0.000    0.000    5.000    6.000    0.000    2.000 
#    0.000    0.000    0.000    0.000    0.000    0.000 
#    0.000    0.000    0.000    0.000    0.000    0.000 
#
# Total GULP energy -198517.975253 kJ/mol
# GULP energy per Si atom -12407.373453 kJ/mol
# Density = 1.998165 g / cm^3
# Si number density = 20.027230 Si / 1000 Ang^3
#
#
#
# Elastic Constant Matrix: (Units=GPa)
#
#
# Indices 1 2 3 4 5 6 
#
# 1 141.9715 22.5470 7.1807 -6.5447 -6.3529 3.3919
# 2 22.5470 146.0337 37.7302 12.0074 5.6108 -9.6095
# 3 7.1807 37.7302 145.0901 27.2443 -9.4544 24.2997
# 4 -6.5447 12.0074 27.2443 59.0086 6.8976 13.8711
# 5 -6.3529 5.6108 -9.4544 6.8976 42.2342 -0.6566
# 6 3.3919 -9.6095 24.2997 13.8711 -0.6566 64.1776
#
#
#
# Elastic Compliance Matrix: (Units=1/GPa)
#
#
# Indices 1 2 3 4 5 6 
#
# 1 0.007377 -0.001321 -0.000034 0.001169 0.001074 -0.000816
# 2 -0.001321 0.007947 -0.002293 -0.001074 -0.001556 0.002344
# 3 -0.000034 -0.002293 0.008764 -0.003213 0.002741 -0.002937
# 4 0.001169 -0.001074 -0.003213 0.020005 -0.003720 -0.003368
# 5 0.001074 -0.001556 0.002741 -0.003720 0.025263 -0.000265
# 6 -0.000816 0.002344 -0.002937 -0.003368 -0.000265 0.017813
#
#
# Mechanical properties :
#
#
# Convention : Reuss Voigt Hill
#
# Bulk Modulus (GPa) = 59.56068 63.11236 61.33652
# Shear Modulus (GPa) = 49.96835 57.45990 53.71413
#
# Velocity S-wave (km/s) = 5.00044 5.36220 5.18447
# Velocity P-wave (km/s) = 7.94629 8.36177 8.15668
#
# Compressibility (1/GPa) = 0.01678960
#
# Stress axis : x y z
#
# Youngs Moduli (GPa) = 135.56231 125.83976 114.09867
#
# Poissons Ratio (x) = 0.16626 0.00392
# Poissons Ratio (y) = 0.17910 0.26168
# Poissons Ratio (z) = 0.00466 0.28861
#
# Static dielectric constant tensor:
#      x y z
#    x 3.712590 0.645560 -0.225350 
#    y 0.645560 2.844590 0.282890 
#    z -0.225350 0.282890 3.849920 
# 
# 
# High freq. dielectric constant tensor:
#      x y z
#    x 1.791790 -0.005010 -0.003860 
#    y -0.005010 1.803270 0.000860 
#    z -0.003860 0.000860 1.808630 
# 
# From -- ./inp_files/55304.got.cif
#   From: 2010.06.25/outbox.cif.g09.slc.cpg/sg2_28_cif.got.tgz:55304.got - 2010.06.27 13:26:56.
