data_PCOD8036075
_publ_section_title
;
Structure prediction by ZEFSAII (Michael W. Deem and Ramdas Pophale) SiO2 
 PCOD8036075
Probable space group: P -1
;
_chemical_formula_sum "Si O2"
_cell_formula_units_Z 14
_cell_length_a 6.719784
_cell_length_b 14.574319
_cell_length_c 13.407488
_cell_angle_alpha 39.890696
_cell_angle_beta 120.719434
_cell_angle_gamma 134.357256
_cell_volume 601.166413
_symmetry_space_group_name_H-M "P -1"
_symmetry_group_IT_number 2
_symmetry_cell_setting 'triclinic'
loop_
_space_group_symop_operation_xyz
x,y,z
-x,-y,-z
loop_
_atom_site_type_symbol
_atom_site_label
_atom_site_fract_x
_atom_site_fract_y
_atom_site_fract_z
Si Si1 0.233824 0.468113 0.902367
Si Si2 0.486893 0.374404 0.515594
Si Si3 0.600381 0.091257 0.842483
Si Si4 0.057668 0.921526 0.485455
Si Si5 0.353508 0.748524 0.970796
Si Si6 0.539528 0.185327 0.277103
Si Si7 0.781779 0.668787 0.198843
O O1 0.313435 0.658677 0.735229
O O2 0.166950 0.357951 0.879227
O O3 0.500000 0.500000 0.000000
O O4 0.968835 0.381332 0.979590
O O5 0.500000 0.500000 0.500000
O O6 0.557753 0.246678 0.690064
O O7 0.710862 0.503568 0.383527
O O8 0.196926 0.255951 0.478805
O O9 0.919276 0.163469 0.835615
O O10 0.425527 0.941074 0.842696
O O11 0.500000 0.000000 0.000000
O O12 0.303142 0.909170 0.602133
O O13 0.207193 0.060975 0.317978
O O14 0.000000 0.000000 0.500000
O O15 0.420359 0.727608 0.892723
O O16 0.543235 0.707200 0.121535
#
# Coordination Sequence:
#
# PCOD8036075 Si02
#       7
#     2   2   2   2   2   2   2
#     4  12  26  44  75 111 151 188 247 305 378 443
#     4  12  29  48  77 108 154 198 253 311 378 448
#     4  12  27  49  76 106 148 197 255 307 372 444
#     4  11  26  48  73 106 151 196 249 308 380 443
#     4  12  26  46  77 111 146 193 251 310 373 450
#     4  11  26  42  75 108 144 193 247 307 371 451
#     4  12  27  49  76 107 152 200 245 310 380 444
#
# _framework density 23.288059000000001
#
# number of rings (size 3 to 8) (size 9 to 14) (size 15 to 20)
#    0.000    0.286    2.857    4.714   12.000    1.143 
#    0.000    0.000    0.000    0.000    0.000    0.000 
#    0.000    0.000    0.000    0.000    0.000    0.000 
#
# Total GULP energy -173537.235609 kJ/mol
# GULP energy per Si atom -12395.516829 kJ/mol
# Density = 2.323505 g / cm^3
# Si number density = 23.288059 Si / 1000 Ang^3
#
#
#
# Elastic Constant Matrix: (Units=GPa)
#
#
# Indices 1 2 3 4 5 6 
#
# 1 129.7013 42.5201 56.7665 -10.4454 -5.6759 12.1750
# 2 42.5201 114.9128 30.2931 -25.3779 -11.4881 3.5634
# 3 56.7665 30.2931 136.1604 -15.3494 -12.2475 14.4180
# 4 -10.4454 -25.3779 -15.3494 45.1095 2.1622 -2.1111
# 5 -5.6759 -11.4881 -12.2475 2.1622 50.9907 -11.0770
# 6 12.1750 3.5634 14.4180 -2.1111 -11.0770 49.6447
#
#
#
# Elastic Compliance Matrix: (Units=1/GPa)
#
#
# Indices 1 2 3 4 5 6 
#
# 1 0.010342 -0.003025 -0.003612 -0.000571 -0.000688 -0.001448
# 2 -0.003025 0.011345 -0.000550 0.005434 0.002024 0.000770
# 3 -0.003612 -0.000550 0.009465 0.001943 0.001353 -0.001439
# 4 -0.000571 0.005434 0.001943 0.025744 0.000627 0.000420
# 5 -0.000688 0.002024 0.001353 0.000627 0.021244 0.004397
# 6 -0.001448 0.000770 -0.001439 0.000420 0.004397 0.021860
#
#
# Mechanical properties :
#
#
# Convention : Reuss Voigt Hill
#
# Bulk Modulus (GPa) = 59.59424 71.10376 65.34900
# Shear Modulus (GPa) = 41.67814 45.89531 43.78673
#
# Velocity S-wave (km/s) = 4.23505 4.44415 4.34086
# Velocity P-wave (km/s) = 7.03987 7.54536 7.29699
#
# Compressibility (1/GPa) = 0.01678014
#
# Stress axis : x y z
#
# Youngs Moduli (GPa) = 96.69127 88.14507 105.64696
#
# Poissons Ratio (x) = 0.26660 0.38157
# Poissons Ratio (y) = 0.29245 0.05810
# Poissons Ratio (z) = 0.34922 0.04847
#
# Static dielectric constant tensor:
#      x y z
#    x 4.508040 -0.177800 0.138500 
#    y -0.177800 4.520400 -0.316670 
#    z 0.138500 -0.316670 4.564110 
# 
# 
# High freq. dielectric constant tensor:
#      x y z
#    x 1.933990 -0.001120 -0.001620 
#    y -0.001120 1.928330 -0.017220 
#    z -0.001620 -0.017220 1.930940 
# 
# From -- ./inp_files/95254.got.cif
#   From: 2010.06.25/outbox.cif.g09.slc.cpg/sg2_48_cif.got.tgz:95254.got - 2010.06.27 13:26:56.
