data_PCOD8036625
_publ_section_title
;
Structure prediction by ZEFSAII (Michael W. Deem and Ramdas Pophale) SiO2 
 PCOD8036625
Probable space group: P -1
;
_chemical_formula_sum "Si O2"
_cell_formula_units_Z 12
_cell_length_a 19.176355
_cell_length_b 7.557926
_cell_length_c 13.616489
_cell_angle_alpha 141.987292
_cell_angle_beta 23.493597
_cell_angle_gamma 144.035826
_cell_volume 453.183701
_symmetry_space_group_name_H-M "P -1"
_symmetry_group_IT_number 2
_symmetry_cell_setting 'triclinic'
loop_
_space_group_symop_operation_xyz
x,y,z
-x,-y,-z
loop_
_atom_site_type_symbol
_atom_site_label
_atom_site_fract_x
_atom_site_fract_y
_atom_site_fract_z
Si Si1 0.192074 0.802303 0.017826
Si Si2 0.592168 0.776303 0.735518
Si Si3 0.015903 0.823521 0.668861
Si Si4 0.911439 0.296812 0.275574
Si Si5 0.315497 0.330362 0.223514
Si Si6 0.454366 0.179603 0.548328
O O1 0.034736 0.471055 0.098964
O O2 0.240494 0.973064 0.135457
O O3 0.375241 0.754502 0.719610
O O4 0.121717 0.020176 0.133317
O O5 0.653102 0.613075 0.676471
O O6 0.449965 0.508637 0.735276
O O7 0.770038 0.956337 0.520159
O O8 0.500000 0.000000 0.000000
O O9 0.000000 0.500000 0.500000
O O10 0.970301 0.804931 0.837700
O O11 0.838402 0.518956 0.533894
O O12 0.742253 0.001488 0.327295
O O13 0.500000 0.500000 0.000000
O O14 0.500000 0.000000 0.500000
#
# Coordination Sequence:
#
# PCOD8036625 Si02
#       6
#     2   2   2   2   2   2
#     4  12  26  50  81 114 161 203 260 325 386 468
#     4  12  28  49  77 115 153 204 267 322 390 473
#     4  12  26  46  79 117 155 201 263 317 385 467
#     4  12  25  49  79 117 156 209 261 315 394 461
#     4  12  21  46  78 111 155 207 254 314 386 462
#     4  12  27  52  81 112 160 208 257 328 397 455
#
# _framework density 26.479330000000001
#
# number of rings (size 3 to 8) (size 9 to 14) (size 15 to 20)
#    0.000    0.000    6.667    2.500    2.333    3.333 
#    0.000    1.667    3.667    0.000    0.000    0.000 
#    0.000    0.000    0.000    0.000    0.000    0.000 
#
# Total GULP energy -148802.783190 kJ/mol
# GULP energy per Si atom -12400.231932 kJ/mol
# Density = 2.641906 g / cm^3
# Si number density = 26.479330 Si / 1000 Ang^3
#
#
#
# Elastic Constant Matrix: (Units=GPa)
#
#
# Indices 1 2 3 4 5 6 
#
# 1 129.8372 60.2135 14.8993 -2.0179 25.3302 3.6660
# 2 60.2135 181.0141 67.0231 -2.1043 13.7464 25.0470
# 3 14.8993 67.0231 126.3226 9.9128 8.1147 5.1596
# 4 -2.0179 -2.1043 9.9128 55.4618 0.1148 10.3454
# 5 25.3302 13.7464 8.1147 0.1148 20.8311 2.5265
# 6 3.6660 25.0470 5.1596 10.3454 2.5265 51.1418
#
#
#
# Elastic Compliance Matrix: (Units=1/GPa)
#
#
# Indices 1 2 3 4 5 6 
#
# 1 0.011599 -0.003598 0.001294 -0.000191 -0.012409 0.001452
# 2 -0.003598 0.008827 -0.004274 0.001715 0.000693 -0.004015
# 3 0.001294 -0.004274 0.010334 -0.002247 -0.002955 0.001558
# 4 -0.000191 0.001715 -0.002247 0.019335 0.000418 -0.004532
# 5 -0.012409 0.000693 -0.002955 0.000418 0.064077 -0.002402
# 6 0.001452 -0.004015 0.001558 -0.004532 -0.002402 0.022294
#
#
# Mechanical properties :
#
#
# Convention : Reuss Voigt Hill
#
# Bulk Modulus (GPa) = 56.80886 80.16066 68.48476
# Shear Modulus (GPa) = 32.15661 45.15614 38.65637
#
# Velocity S-wave (km/s) = 3.48861 4.13405 3.82497
# Velocity P-wave (km/s) = 6.14230 7.28875 6.73994
#
# Compressibility (1/GPa) = 0.01760289
#
# Stress axis : x y z
#
# Youngs Moduli (GPa) = 86.21358 113.29221 96.77048
#
# Poissons Ratio (x) = 0.40765 -0.12520
# Poissons Ratio (y) = 0.31022 0.41359
# Poissons Ratio (z) = -0.11155 0.48420
#
# Static dielectric constant tensor:
#      x y z
#    x 5.213600 0.048230 0.118630 
#    y 0.048230 5.349600 0.281660 
#    z 0.118630 0.281660 4.948550 
# 
# 
# High freq. dielectric constant tensor:
#      x y z
#    x 2.069000 -0.000150 0.005510 
#    y -0.000150 2.076740 0.004840 
#    z 0.005510 0.004840 2.074140 
# 
# From -- ./inp_files/176805.got.cif
#   From: 2010.06.25/outbox.cif.g09.slc.cpg/sg2_89_cif.got.tgz:176805.got - 2010.06.27 13:26:56.
