data_PCOD8036046
_publ_section_title
;
Structure prediction by ZEFSAII (Michael W. Deem and Ramdas Pophale) SiO2 
 PCOD8036046
Probable space group: P -1
;
_chemical_formula_sum "Si O2"
_cell_formula_units_Z 12
_cell_length_a 6.705836
_cell_length_b 9.082705
_cell_length_c 12.856084
_cell_angle_alpha 120.968470
_cell_angle_beta 81.417397
_cell_angle_gamma 130.998182
_cell_volume 484.796931
_symmetry_space_group_name_H-M "P -1"
_symmetry_group_IT_number 2
_symmetry_cell_setting 'triclinic'
loop_
_space_group_symop_operation_xyz
x,y,z
-x,-y,-z
loop_
_atom_site_type_symbol
_atom_site_label
_atom_site_fract_x
_atom_site_fract_y
_atom_site_fract_z
Si Si1 0.688111 0.604448 0.922808
Si Si2 0.869007 0.995474 0.615444
Si Si3 0.716651 0.396884 0.534844
Si Si4 0.378426 0.807231 0.320591
Si Si5 0.898783 0.096657 0.269284
Si Si6 0.712482 0.976122 0.003677
O O1 0.671307 0.409420 0.801270
O O2 0.500000 0.500000 0.000000
O O3 0.606153 0.718949 0.893772
O O4 0.009522 0.822306 0.008663
O O5 0.556795 0.737172 0.563183
O O6 0.048662 0.047962 0.721565
O O7 0.868328 0.203327 0.690390
O O8 0.000000 0.000000 0.500000
O O9 0.603409 0.200244 0.559578
O O10 0.000000 0.500000 0.500000
O O11 0.813580 0.633706 0.663824
O O12 0.660020 0.054459 0.341067
O O13 0.772072 0.999018 0.130545
O O14 0.500000 0.000000 0.000000
#
# Coordination Sequence:
#
# PCOD8036046 Si02
#       6
#     2   2   2   2   2   2
#     4  11  25  50  77 111 149 192 253 309 377 447
#     4  12  26  46  79 109 153 200 248 308 371 442
#     4  12  24  48  74 107 153 197 246 308 372 442
#     4  12  25  47  75 112 153 192 251 309 372 444
#     4  12  25  48  73 112 147 199 251 301 379 447
#     4  11  27  51  77 109 150 195 253 312 373 445
#
# _framework density 24.752632999999999
#
# number of rings (size 3 to 8) (size 9 to 14) (size 15 to 20)
#    0.000    0.333    6.667    2.000    0.000    4.667 
#    0.000    0.000    0.000    0.000    0.000    0.000 
#    0.000    0.000    0.000    0.000    0.000    0.000 
#
# Total GULP energy -148675.057801 kJ/mol
# GULP energy per Si atom -12389.588150 kJ/mol
# Density = 2.469630 g / cm^3
# Si number density = 24.752633 Si / 1000 Ang^3
#
#
#
# Elastic Constant Matrix: (Units=GPa)
#
#
# Indices 1 2 3 4 5 6 
#
# 1 212.3147 58.7365 54.7076 -8.9444 -11.1537 -13.9460
# 2 58.7365 158.5190 38.0730 -1.4709 -8.8217 11.3614
# 3 54.7076 38.0730 90.8238 -10.8055 -6.8484 -9.6889
# 4 -8.9444 -1.4709 -10.8055 45.9013 -9.9794 -8.0739
# 5 -11.1537 -8.8217 -6.8484 -9.9794 42.9517 -2.0507
# 6 -13.9460 11.3614 -9.6889 -8.0739 -2.0507 52.0716
#
#
#
# Elastic Compliance Matrix: (Units=1/GPa)
#
#
# Indices 1 2 3 4 5 6 
#
# 1 0.006049 -0.001681 -0.002539 0.001082 0.001155 0.001728
# 2 -0.001681 0.007778 -0.002654 -0.001121 0.000343 -0.002802
# 3 -0.002539 -0.002654 0.014640 0.003929 0.002201 0.003319
# 4 0.001082 -0.001121 0.003929 0.025330 0.006823 0.005462
# 5 0.001155 0.000343 0.002201 0.006823 0.025718 0.002715
# 6 0.001728 -0.002802 0.003319 0.005462 0.002715 0.021850
#
#
# Mechanical properties :
#
#
# Convention : Reuss Voigt Hill
#
# Bulk Modulus (GPa) = 67.94174 84.96576 76.45375
# Shear Modulus (GPa) = 41.65993 48.86096 45.26044
#
# Velocity S-wave (km/s) = 4.10695 4.44776 4.28075
# Velocity P-wave (km/s) = 7.07087 7.79597 7.44226
#
# Compressibility (1/GPa) = 0.01471849
#
# Stress axis : x y z
#
# Youngs Moduli (GPa) = 165.31750 128.56204 68.30723
#
# Poissons Ratio (x) = 0.21613 0.17341
# Poissons Ratio (y) = 0.27792 0.18132
# Poissons Ratio (z) = 0.41970 0.34126
#
# Static dielectric constant tensor:
#      x y z
#    x 4.716640 -0.080620 -0.353050 
#    y -0.080620 5.309320 0.284880 
#    z -0.353050 0.284880 4.493850 
# 
# 
# High freq. dielectric constant tensor:
#      x y z
#    x 1.991790 0.002540 -0.032140 
#    y 0.002540 2.009980 0.007390 
#    z -0.032140 0.007390 1.978760 
# 
# From -- ./inp_files/87029.got.cif
#   From: 2010.06.25/outbox.cif.g09.slc.cpg/sg2_44_cif.got.tgz:87029.got - 2010.06.27 13:26:56.
