data_PCOD8036232
_publ_section_title
;
Structure prediction by ZEFSAII (Michael W. Deem and Ramdas Pophale) SiO2 
 PCOD8036232
Probable space group: P -1
;
_chemical_formula_sum "Si O2"
_cell_formula_units_Z 12
_cell_length_a 10.179371
_cell_length_b 9.436193
_cell_length_c 13.209822
_cell_angle_alpha 129.971252
_cell_angle_beta 34.996334
_cell_angle_gamma 109.222846
_cell_volume 498.543645
_symmetry_space_group_name_H-M "P -1"
_symmetry_group_IT_number 2
_symmetry_cell_setting 'triclinic'
loop_
_space_group_symop_operation_xyz
x,y,z
-x,-y,-z
loop_
_atom_site_type_symbol
_atom_site_label
_atom_site_fract_x
_atom_site_fract_y
_atom_site_fract_z
Si Si1 0.736974 0.402572 0.540383
Si Si2 0.770527 0.552382 0.805254
Si Si3 0.963117 0.198148 0.673988
Si Si4 0.747404 0.988265 0.282808
Si Si5 0.752715 0.242143 0.045990
Si Si6 0.537139 0.012799 0.211717
O O1 0.695692 0.464713 0.712633
O O2 0.817465 0.162376 0.364748
O O3 0.951383 0.457238 0.384230
O O4 0.472522 0.524285 0.700697
O O5 0.777719 0.409683 0.830092
O O6 0.557511 0.786988 0.068731
O O7 0.838293 0.184133 0.850787
O O8 0.249154 0.177121 0.497750
O O9 0.000000 0.000000 0.500000
O O10 0.500000 0.000000 0.500000
O O11 0.716934 0.998982 0.186903
O O12 0.003240 0.776030 0.050119
O O13 0.637582 0.089422 0.087027
#
# Coordination Sequence:
#
# PCOD8036232 Si02
#       6
#     2   2   2   2   2   2
#     4  11  26  46  77 108 146 192 246 298 367 436
#     4  11  26  47  77 109 145 192 243 302 366 431
#     4  12  27  45  75 113 147 189 247 302 366 434
#     4  12  27  49  73 108 152 192 244 304 367 431
#     4  12  26  47  75 107 146 193 244 303 362 435
#     4  12  27  49  75 107 148 195 242 303 367 432
#
# _framework density 24.070108999999999
#
# number of rings (size 3 to 8) (size 9 to 14) (size 15 to 20)
#    0.000    0.333    5.000    2.500    4.667    5.333 
#    0.000    0.000    0.000    0.000    0.000    0.000 
#    0.000    0.000    0.000    0.000    0.000    0.000 
#
# Total GULP energy -148863.471440 kJ/mol
# GULP energy per Si atom -12405.289287 kJ/mol
# Density = 2.401532 g / cm^3
# Si number density = 24.070109 Si / 1000 Ang^3
#
#
#
# Elastic Constant Matrix: (Units=GPa)
#
#
# Indices 1 2 3 4 5 6 
#
# 1 87.5266 36.4232 6.1295 4.1674 7.4871 -12.5195
# 2 36.4232 121.3081 31.9503 -20.6234 9.8482 -28.1880
# 3 6.1295 31.9503 88.2311 -4.7068 -6.4339 -18.1281
# 4 4.1674 -20.6234 -4.7068 44.7859 -7.4686 0.5110
# 5 7.4871 9.8482 -6.4339 -7.4686 52.0024 3.9416
# 6 -12.5195 -28.1880 -18.1281 0.5110 3.9416 40.6699
#
#
#
# Elastic Compliance Matrix: (Units=1/GPa)
#
#
# Indices 1 2 3 4 5 6 
#
# 1 0.013755 -0.004368 0.000666 -0.003526 -0.001707 0.001713
# 2 -0.004368 0.012925 -0.002887 0.005673 -0.001849 0.006435
# 3 0.000666 -0.002887 0.013292 0.000266 0.001835 0.003948
# 4 -0.003526 0.005673 0.000266 0.025769 0.002989 0.002352
# 5 -0.001707 -0.001849 0.001835 0.002989 0.020712 -0.003034
# 6 0.001713 0.006435 0.003948 0.002352 -0.003034 0.031600
#
#
# Mechanical properties :
#
#
# Convention : Reuss Voigt Hill
#
# Bulk Modulus (GPa) = 37.32259 49.56355 43.44307
# Shear Modulus (GPa) = 35.67275 42.32915 39.00095
#
# Velocity S-wave (km/s) = 3.85390 4.19809 4.02967
# Velocity P-wave (km/s) = 5.94498 6.64339 6.30387
#
# Compressibility (1/GPa) = 0.02679343
#
# Stress axis : x y z
#
# Youngs Moduli (GPa) = 72.70011 77.36795 75.23223
#
# Poissons Ratio (x) = 0.33795 -0.05008
# Poissons Ratio (y) = 0.31756 0.21721
# Poissons Ratio (z) = -0.04839 0.22337
#
# Static dielectric constant tensor:
#      x y z
#    x 4.598300 -0.148460 -0.392530 
#    y -0.148460 4.369780 -0.075380 
#    z -0.392530 -0.075380 4.900280 
# 
# 
# High freq. dielectric constant tensor:
#      x y z
#    x 1.955800 -0.013740 -0.023320 
#    y -0.013740 1.956230 -0.012820 
#    z -0.023320 -0.012820 1.977230 
# 
# From -- ./inp_files/167500.got.cif
#   From: 2010.06.25/outbox.cif.g09.slc.cpg/sg2_84_cif.got.tgz:167500.got - 2010.06.27 13:26:56.
