data_PCOD8036736
_publ_section_title
;
Structure prediction by ZEFSAII (Michael W. Deem and Ramdas Pophale) SiO2 
 PCOD8036736
Probable space group: P -1
;
_chemical_formula_sum "Si O2"
_cell_formula_units_Z 16
_cell_length_a 19.652591
_cell_length_b 9.385353
_cell_length_c 11.168634
_cell_angle_alpha 108.001977
_cell_angle_beta 131.763617
_cell_angle_gamma 34.651353
_cell_volume 721.906398
_symmetry_space_group_name_H-M "P -1"
_symmetry_group_IT_number 2
_symmetry_cell_setting 'triclinic'
loop_
_space_group_symop_operation_xyz
x,y,z
-x,-y,-z
loop_
_atom_site_type_symbol
_atom_site_label
_atom_site_fract_x
_atom_site_fract_y
_atom_site_fract_z
Si Si1 0.101192 0.121128 0.043042
Si Si2 0.957759 0.582722 0.334382
Si Si3 0.178439 0.439500 0.370589
Si Si4 0.243800 0.684591 0.474328
Si Si5 0.371184 0.754822 0.817455
Si Si6 0.426704 0.838116 0.455679
Si Si7 0.073709 0.700557 0.880498
Si Si8 0.386517 0.469498 0.159337
O O1 0.962195 0.238014 0.003192
O O2 0.226497 0.055962 0.248144
O O3 0.232021 0.816120 0.051646
O O4 0.977501 0.377669 0.863903
O O5 0.937897 0.452077 0.215051
O O6 0.000000 0.500000 0.500000
O O7 0.122375 0.442156 0.430558
O O8 0.771210 0.943105 0.195627
O O9 0.196134 0.591665 0.450357
O O10 0.378841 0.083721 0.476274
O O11 0.271184 0.763631 0.632411
O O12 0.429692 0.403611 0.542478
O O13 0.074384 0.980311 0.272578
O O14 0.476483 0.716031 0.840281
O O15 0.500000 0.500000 0.000000
O O16 0.499644 0.664013 0.620047
O O17 0.282359 0.458656 0.037303
#
# Coordination Sequence:
#
# PCOD8036736 Si02
#       8
#     2   2   2   2   2   2   2   2
#     4  12  22  44  73 106 139 181 221 280 362 419
#     4  12  27  48  71  97 138 188 239 278 335 405
#     4  12  27  44  72 107 142 177 228 290 347 411
#     4  12  25  46  73 104 141 182 226 285 353 411
#     4  12  28  45  70 101 137 185 238 288 333 397
#     4  12  24  42  73 107 141 177 219 288 356 418
#     4  12  25  45  76 102 139 186 226 283 349 418
#     4  12  24  45  72 101 139 180 233 278 350 418
#
# _framework density 22.163537000000002
#
# number of rings (size 3 to 8) (size 9 to 14) (size 15 to 20)
#    0.000    0.000    6.250    4.500    0.000    3.000 
#    0.000    0.000    0.000    0.000    0.000    0.000 
#    0.000    0.000    0.000    0.000    0.000    0.000 
#
# Total GULP energy -198484.705937 kJ/mol
# GULP energy per Si atom -12405.294121 kJ/mol
# Density = 2.211309 g / cm^3
# Si number density = 22.163537 Si / 1000 Ang^3
#
#
#
# Elastic Constant Matrix: (Units=GPa)
#
#
# Indices 1 2 3 4 5 6 
#
# 1 109.8247 15.8474 28.5840 14.5485 9.2432 8.0016
# 2 15.8474 106.6641 -4.2348 -14.7323 7.8887 8.7868
# 3 28.5840 -4.2348 79.9843 -6.7609 -3.1674 -1.4988
# 4 14.5485 -14.7323 -6.7609 27.4242 7.2481 -4.5774
# 5 9.2432 7.8887 -3.1674 7.2481 45.0263 0.0380
# 6 8.0016 8.7868 -1.4988 -4.5774 0.0380 29.5864
#
#
#
# Elastic Compliance Matrix: (Units=1/GPa)
#
#
# Indices 1 2 3 4 5 6 
#
# 1 0.012832 -0.003153 -0.005751 -0.010449 -0.000801 -0.004441
# 2 -0.003153 0.011451 0.002364 0.008928 -0.002629 -0.001044
# 3 -0.005751 0.002364 0.015476 0.008501 0.000484 0.002952
# 4 -0.010449 0.008928 0.008501 0.052265 -0.007242 0.008700
# 5 -0.000801 -0.002629 0.000484 -0.007242 0.024034 -0.000129
# 6 -0.004441 -0.001044 0.002952 0.008700 -0.000129 0.036806
#
#
# Mechanical properties :
#
#
# Convention : Reuss Voigt Hill
#
# Bulk Modulus (GPa) = 37.48215 41.87405 39.67810
# Shear Modulus (GPa) = 28.59804 37.49249 33.04526
#
# Velocity S-wave (km/s) = 3.59600 4.11740 3.86550
# Velocity P-wave (km/s) = 5.84722 6.44502 6.15338
#
# Compressibility (1/GPa) = 0.02667937
#
# Stress axis : x y z
#
# Youngs Moduli (GPa) = 77.92860 87.32871 64.61674
#
# Poissons Ratio (x) = 0.27534 0.37161
# Poissons Ratio (y) = 0.24570 -0.15275
# Poissons Ratio (z) = 0.44816 -0.20645
#
# Static dielectric constant tensor:
#      x y z
#    x 5.385860 -3.215770 -0.367240 
#    y -3.215770 11.769120 0.513840 
#    z -0.367240 0.513840 3.914910 
# 
# 
# High freq. dielectric constant tensor:
#      x y z
#    x 1.878280 0.007150 -0.000540 
#    y 0.007150 1.883900 -0.010270 
#    z -0.000540 -0.010270 1.874920 
# 
# From -- ./inp_files/190351.got.cif
#   From: 2010.06.25/outbox.cif.g09.slc.cpg/sg2_96_cif.got.tgz:190351.got - 2010.06.27 13:26:56.
