data_PCOD8036481
_publ_section_title
;
Structure prediction by ZEFSAII (Michael W. Deem and Ramdas Pophale) SiO2 
 PCOD8036481
Probable space group: P -1
;
_chemical_formula_sum "Si O2"
_cell_formula_units_Z 16
_cell_length_a 10.698721
_cell_length_b 11.144703
_cell_length_c 11.647535
_cell_angle_alpha 125.575553
_cell_angle_beta 75.483756
_cell_angle_gamma 62.425449
_cell_volume 693.592750
_symmetry_space_group_name_H-M "P -1"
_symmetry_group_IT_number 2
_symmetry_cell_setting 'triclinic'
loop_
_space_group_symop_operation_xyz
x,y,z
-x,-y,-z
loop_
_atom_site_type_symbol
_atom_site_label
_atom_site_fract_x
_atom_site_fract_y
_atom_site_fract_z
Si Si1 0.881876 0.748805 0.629068
Si Si2 0.199285 0.529952 0.735990
Si Si3 0.802338 0.568076 0.070455
Si Si4 0.271892 0.748967 0.704404
Si Si5 0.470865 0.049579 0.310737
Si Si6 0.907431 0.157302 0.438997
Si Si7 0.767007 0.901291 0.982143
Si Si8 0.272348 0.653245 0.171777
O O1 0.000000 0.500000 0.500000
O O2 0.057692 0.706965 0.533896
O O3 0.732559 0.863927 0.618889
O O4 0.739652 0.928384 0.866942
O O5 0.223071 0.513492 0.858268
O O6 0.165726 0.720288 0.793688
O O7 0.398396 0.273439 0.496630
O O8 0.987028 0.633917 0.813687
O O9 0.608105 0.848189 0.262433
O O10 0.792544 0.459315 0.906670
O O11 0.000000 0.500000 0.000000
O O12 0.500000 0.500000 0.500000
O O13 0.181502 0.850289 0.653998
O O14 0.249510 0.920134 0.869212
O O15 0.594868 0.954869 0.111161
O O16 0.749166 0.301973 0.661572
O O17 0.120601 0.896570 0.277685
O O18 0.500000 0.500000 0.000000
#
# Coordination Sequence:
#
# PCOD8036481 Si02
#       8
#     2   2   2   2   2   2   2   2
#     4  12  26  47  75 107 155 191 244 311 372 449
#     4  12  25  49  71 106 150 190 245 310 371 434
#     4  12  28  47  78 107 151 198 252 310 371 449
#     4  12  26  46  77 111 146 192 247 307 370 445
#     4  12  26  47  71 109 144 200 243 301 375 444
#     4  11  27  50  75 106 151 192 249 308 367 451
#     4  12  25  45  76 107 147 195 243 305 378 438
#     4  11  28  52  77 107 146 204 252 306 377 444
#
# _framework density 23.068292
#
# number of rings (size 3 to 8) (size 9 to 14) (size 15 to 20)
#    0.000    0.250    5.000    2.625    7.000    1.000 
#    2.250    0.000    0.000    0.000    0.000    0.000 
#    0.000    0.000    0.000    0.000    0.000    0.000 
#
# Total GULP energy -198397.299743 kJ/mol
# GULP energy per Si atom -12399.831234 kJ/mol
# Density = 2.301579 g / cm^3
# Si number density = 23.068292 Si / 1000 Ang^3
#
#
#
# Elastic Constant Matrix: (Units=GPa)
#
#
# Indices 1 2 3 4 5 6 
#
# 1 93.6076 14.5561 35.5719 3.3798 6.4713 -3.3157
# 2 14.5561 109.3129 39.1598 -5.0792 7.2418 -5.6891
# 3 35.5719 39.1598 113.7730 0.4629 -5.0940 1.7458
# 4 3.3798 -5.0792 0.4629 45.1067 -1.1658 -3.8291
# 5 6.4713 7.2418 -5.0940 -1.1658 41.1587 0.4883
# 6 -3.3157 -5.6891 1.7458 -3.8291 0.4883 36.2346
#
#
#
# Elastic Compliance Matrix: (Units=1/GPa)
#
#
# Indices 1 2 3 4 5 6 
#
# 1 0.012461 -0.000030 -0.004013 -0.000852 -0.002490 0.001272
# 2 -0.000030 0.010869 -0.003875 0.001380 -0.002373 0.002068
# 3 -0.004013 -0.003875 0.011527 -0.000319 0.002749 -0.001602
# 4 -0.000852 0.001380 -0.000319 0.022620 0.000462 0.002538
# 5 -0.002490 -0.002373 0.002749 0.000462 0.025471 -0.001027
# 6 0.001272 0.002068 -0.001602 0.002538 -0.001027 0.028398
#
#
# Mechanical properties :
#
#
# Convention : Reuss Voigt Hill
#
# Bulk Modulus (GPa) = 52.57642 55.02991 53.80317
# Shear Modulus (GPa) = 37.44691 39.66038 38.55365
#
# Velocity S-wave (km/s) = 4.03340 4.15089 4.09257
# Velocity P-wave (km/s) = 6.67324 6.84691 6.76064
#
# Compressibility (1/GPa) = 0.01901993
#
# Stress axis : x y z
#
# Youngs Moduli (GPa) = 80.25332 92.00223 86.75298
#
# Poissons Ratio (x) = 0.00276 0.34815
# Poissons Ratio (y) = 0.00241 0.33620
# Poissons Ratio (z) = 0.32206 0.35654
#
# Static dielectric constant tensor:
#      x y z
#    x 4.177920 -0.055360 -0.017140 
#    y -0.055360 4.362080 0.001120 
#    z -0.017140 0.001120 4.213720 
# 
# 
# High freq. dielectric constant tensor:
#      x y z
#    x 1.910830 -0.004340 -0.002240 
#    y -0.004340 1.919040 0.001720 
#    z -0.002240 0.001720 1.925350 
# 
# From -- ./inp_files/428921.got.cif
#   From: 2010.06.25/outbox.cif.g09.slc.cpg/sg2_215_cif.got.tgz:428921.got - 2010.06.27 13:26:56.
