data_PCOD8036811
_publ_section_title
;
Structure prediction by ZEFSAII (Michael W. Deem and Ramdas Pophale) SiO2 
 PCOD8036811
Probable space group: P -1
;
_chemical_formula_sum "Si O2"
_cell_formula_units_Z 16
_cell_length_a 5.550017
_cell_length_b 23.463193
_cell_length_c 11.287488
_cell_angle_alpha 149.455533
_cell_angle_beta 75.034513
_cell_angle_gamma 113.528438
_cell_volume 673.245367
_symmetry_space_group_name_H-M "P -1"
_symmetry_group_IT_number 2
_symmetry_cell_setting 'triclinic'
loop_
_space_group_symop_operation_xyz
x,y,z
-x,-y,-z
loop_
_atom_site_type_symbol
_atom_site_label
_atom_site_fract_x
_atom_site_fract_y
_atom_site_fract_z
Si Si1 0.015792 0.874928 0.004139
Si Si2 0.489168 0.693006 0.377208
Si Si3 0.786652 0.449188 0.039243
Si Si4 0.589746 0.453982 0.646487
Si Si5 0.613991 0.244286 0.113339
Si Si6 0.732808 0.104402 0.224615
Si Si7 0.978955 0.879859 0.562456
Si Si8 0.044498 0.696596 0.054269
O O1 0.702090 0.828329 0.994686
O O2 0.208530 0.813187 0.932030
O O3 0.017625 0.862060 0.838273
O O4 0.135369 0.017324 0.278457
O O5 0.358087 0.602242 0.338076
O O6 0.309462 0.772329 0.527360
O O7 0.794349 0.782381 0.506992
O O8 0.483220 0.620544 0.126200
O O9 0.714662 0.545477 0.303389
O O10 0.852679 0.354541 0.939009
O O11 0.000000 0.500000 0.000000
O O12 0.631811 0.374068 0.392462
O O13 0.783895 0.591899 0.847260
O O14 0.731770 0.261432 0.998593
O O15 0.770370 0.057591 0.268304
O O16 0.500000 0.000000 0.000000
O O17 0.011022 0.817588 0.324324
#
# Coordination Sequence:
#
# PCOD8036811 Si02
#       8
#     2   2   2   2   2   2   2   2
#     4  12  28  51  75 112 152 200 257 314 377 453
#     4  12  23  41  73 109 151 184 239 318 390 455
#     4  12  25  43  73 111 150 190 246 313 392 450
#     4  12  26  46  73 108 154 197 250 311 381 460
#     4  12  31  50  77 107 152 210 261 308 369 448
#     4  12  24  44  74 111 150 189 245 316 389 451
#     4  12  26  45  77 109 150 192 250 319 389 447
#     4  12  28  49  72 107 147 205 255 312 369 456
#
# _framework density 23.765478999999999
#
# number of rings (size 3 to 8) (size 9 to 14) (size 15 to 20)
#    0.000    0.000    6.250    3.375    5.250    1.500 
#    0.000    0.000    0.000    0.000    0.000    0.000 
#    0.000    0.000    0.000    0.000    0.000    0.000 
#
# Total GULP energy -198210.027660 kJ/mol
# GULP energy per Si atom -12388.126729 kJ/mol
# Density = 2.371139 g / cm^3
# Si number density = 23.765479 Si / 1000 Ang^3
#
#
#
# Elastic Constant Matrix: (Units=GPa)
#
#
# Indices 1 2 3 4 5 6 
#
# 1 88.3931 19.0068 30.9736 1.5351 -11.4630 14.2130
# 2 19.0068 106.7752 37.5934 -17.6927 -2.2894 27.1732
# 3 30.9736 37.5934 133.8825 -17.5996 -21.2254 5.6059
# 4 1.5351 -17.6927 -17.5996 34.9751 6.8457 -5.0729
# 5 -11.4630 -2.2894 -21.2254 6.8457 42.8354 -2.0582
# 6 14.2130 27.1732 5.6059 -5.0729 -2.0582 32.1635
#
#
#
# Elastic Compliance Matrix: (Units=1/GPa)
#
#
# Indices 1 2 3 4 5 6 
#
# 1 0.013712 -0.000591 -0.002851 -0.003626 0.002542 -0.005472
# 2 -0.000591 0.013882 -0.003088 0.004411 -0.002150 -0.010371
# 3 -0.002851 -0.003088 0.009870 0.003247 0.003582 0.002890
# 4 -0.003626 0.004411 0.003247 0.033824 -0.004418 0.002362
# 5 0.002542 -0.002150 0.003582 -0.004418 0.026443 0.001064
# 6 -0.005472 -0.010371 0.002890 0.002362 0.001064 0.042208
#
#
# Mechanical properties :
#
#
# Convention : Reuss Voigt Hill
#
# Bulk Modulus (GPa) = 40.97698 56.02205 48.49952
# Shear Modulus (GPa) = 31.03055 38.09327 34.56191
#
# Velocity S-wave (km/s) = 3.61737 4.00794 3.81765
# Velocity P-wave (km/s) = 5.89294 6.71135 6.31542
#
# Compressibility (1/GPa) = 0.02440395
#
# Stress axis : x y z
#
# Youngs Moduli (GPa) = 72.93079 72.03635 101.31982
#
# Poissons Ratio (x) = 0.04255 0.28886
# Poissons Ratio (y) = 0.04308 0.31287
# Poissons Ratio (z) = 0.20792 0.22245
#
# Static dielectric constant tensor:
#      x y z
#    x 4.363490 0.132960 -0.114970 
#    y 0.132960 4.618250 0.068580 
#    z -0.114970 0.068580 4.772230 
# 
# 
# High freq. dielectric constant tensor:
#      x y z
#    x 1.943640 0.014610 -0.013410 
#    y 0.014610 1.930840 0.000590 
#    z -0.013410 0.000590 1.964460 
# 
# From -- ./inp_files/371113.got.cif
#   From: 2010.06.25/outbox.cif.g09.slc.cpg/sg2_186_cif.got.tgz:371113.got - 2010.06.27 13:26:56.
