data_PCOD8036958
_publ_section_title
;
Structure prediction by ZEFSAII (Michael W. Deem and Ramdas Pophale) SiO2 
 PCOD8036958
Probable space group: P -1
;
_chemical_formula_sum "Si O2"
_cell_formula_units_Z 12
_cell_length_a 12.566877
_cell_length_b 8.425856
_cell_length_c 14.879229
_cell_angle_alpha 113.728351
_cell_angle_beta 149.668754
_cell_angle_gamma 48.366623
_cell_volume 530.115087
_symmetry_space_group_name_H-M "P -1"
_symmetry_group_IT_number 2
_symmetry_cell_setting 'triclinic'
loop_
_space_group_symop_operation_xyz
x,y,z
-x,-y,-z
loop_
_atom_site_type_symbol
_atom_site_label
_atom_site_fract_x
_atom_site_fract_y
_atom_site_fract_z
Si Si1 0.330624 0.222228 0.491809
Si Si2 0.308127 0.425374 0.104082
Si Si3 0.167795 0.051537 0.079604
Si Si4 0.332063 0.458066 0.928078
Si Si5 0.254086 0.051026 0.945830
Si Si6 0.327293 0.599058 0.489337
O O1 0.339879 0.404404 0.496924
O O2 0.004789 0.343428 0.297900
O O3 0.500000 0.000000 0.500000
O O4 0.498456 0.125409 0.686901
O O5 0.544306 0.337099 0.331526
O O6 0.383348 0.471609 0.073642
O O7 0.298905 0.225811 0.040730
O O8 0.992477 0.673264 0.960393
O O9 0.163990 0.003397 0.961126
O O10 0.000000 0.000000 0.000000
O O11 0.500000 0.500000 0.000000
O O12 0.452645 0.196629 0.936392
O O13 0.003112 0.161547 0.715196
O O14 0.500000 0.500000 0.500000
#
# Coordination Sequence:
#
# PCOD8036958 Si02
#       6
#     2   2   2   2   2   2
#     4  12  26  46  78 108 148 197 255 302 371 453
#     4  12  25  47  77 107 150 200 247 305 373 445
#     4  12  23  45  76 108 147 195 251 306 364 445
#     4  12  29  50  74 109 157 196 247 319 378 434
#     4  12  27  48  72 108 156 192 249 313 370 439
#     4  12  26  45  80 113 145 195 253 303 373 446
#
# _framework density 22.636596000000001
#
# number of rings (size 3 to 8) (size 9 to 14) (size 15 to 20)
#    0.000    0.000    6.667    2.000    4.667    1.333 
#    0.000    0.000    0.000    0.000    0.000    0.000 
#    0.000    0.000    0.000    0.000    0.000    0.000 
#
# Total GULP energy -148864.628101 kJ/mol
# GULP energy per Si atom -12405.385675 kJ/mol
# Density = 2.258507 g / cm^3
# Si number density = 22.636596 Si / 1000 Ang^3
#
#
#
# Elastic Constant Matrix: (Units=GPa)
#
#
# Indices 1 2 3 4 5 6 
#
# 1 96.3085 14.6467 72.1238 3.4746 -16.8877 -11.3951
# 2 14.6467 88.2572 81.1801 -21.3952 -0.9539 -13.7322
# 3 72.1238 81.1801 224.9808 -5.2971 -16.2086 -5.6290
# 4 3.4746 -21.3952 -5.2971 40.9735 -4.3639 3.2925
# 5 -16.8877 -0.9539 -16.2086 -4.3639 45.7265 1.6563
# 6 -11.3951 -13.7322 -5.6290 3.2925 1.6563 37.4257
#
#
#
# Elastic Compliance Matrix: (Units=1/GPa)
#
#
# Indices 1 2 3 4 5 6 
#
# 1 0.015456 0.003616 -0.005887 -0.000214 0.003495 0.005011
# 2 0.003616 0.022282 -0.008845 0.009538 -0.000683 0.007137
# 3 -0.005887 -0.008845 0.009441 -0.002530 0.000871 -0.003434
# 4 -0.000214 0.009538 -0.002530 0.029259 0.002001 0.000391
# 5 0.003495 -0.000683 0.000871 0.002001 0.023655 -0.000279
# 6 0.005011 0.007137 -0.003434 0.000391 -0.000279 0.030326
#
#
# Mechanical properties :
#
#
# Convention : Reuss Voigt Hill
#
# Bulk Modulus (GPa) = 40.08776 82.82753 61.45764
# Shear Modulus (GPa) = 31.06215 40.93155 35.99685
#
# Velocity S-wave (km/s) = 3.70835 4.25691 3.99206
# Velocity P-wave (km/s) = 6.00696 7.79944 6.96113
#
# Compressibility (1/GPa) = 0.02494527
#
# Stress axis : x y z
#
# Youngs Moduli (GPa) = 64.70052 44.87958 105.92021
#
# Poissons Ratio (x) = -0.16228 0.62360
# Poissons Ratio (y) = -0.23395 0.93689
# Poissons Ratio (z) = 0.38092 0.39697
#
# Static dielectric constant tensor:
#      x y z
#    x 4.362700 -0.071360 -0.385670 
#    y -0.071360 4.275370 -0.202210 
#    z -0.385670 -0.202210 5.324170 
# 
# 
# High freq. dielectric constant tensor:
#      x y z
#    x 1.904710 0.005880 -0.012880 
#    y 0.005880 1.903380 -0.007060 
#    z -0.012880 -0.007060 1.897960 
# 
# From -- ./inp_files/157833.got.cif
#   From: 2010.06.25/outbox.cif.g09.slc.cpg/sg2_79_cif.got.tgz:157833.got - 2010.06.27 13:26:56.
