data_PCOD8036251
_publ_section_title
;
Structure prediction by ZEFSAII (Michael W. Deem and Ramdas Pophale) SiO2 
 PCOD8036251
Probable space group: P -1
;
_chemical_formula_sum "Si O2"
_cell_formula_units_Z 10
_cell_length_a 11.787556
_cell_length_b 8.439176
_cell_length_c 8.578479
_cell_angle_alpha 34.241033
_cell_angle_beta 60.525223
_cell_angle_gamma 74.799962
_cell_volume 399.400253
_symmetry_space_group_name_H-M "P -1"
_symmetry_group_IT_number 2
_symmetry_cell_setting 'triclinic'
loop_
_space_group_symop_operation_xyz
x,y,z
-x,-y,-z
loop_
_atom_site_type_symbol
_atom_site_label
_atom_site_fract_x
_atom_site_fract_y
_atom_site_fract_z
Si Si1 0.016246 0.171006 0.512376
Si Si2 0.387786 0.459814 0.739044
Si Si3 0.860008 0.648558 0.225928
Si Si4 0.545565 0.893271 0.747985
Si Si5 0.283760 0.407110 0.307226
O O1 0.171650 0.372265 0.273656
O O2 0.915907 0.370102 0.424795
O O3 0.000000 0.000000 0.500000
O O4 0.981472 0.943622 0.865960
O O5 0.500000 0.500000 0.500000
O O6 0.239368 0.390301 0.822711
O O7 0.422211 0.757827 0.573849
O O8 0.392130 0.190016 0.065954
O O9 0.786526 0.687837 0.402229
O O10 0.618544 0.795931 0.629736
O O11 0.381766 0.742919 0.976685
#
# Coordination Sequence:
#
# PCOD8036251 Si02
#       5
#     2   2   2   2   2
#     4  12  27  48  72 100 143 186 233 288 348 419
#     4  12  24  46  71 103 141 184 236 280 349 413
#     4  12  26  44  75 103 139 184 234 288 344 418
#     4  11  27  45  73 104 145 186 227 292 344 420
#     4  11  26  47  71 108 143 182 237 285 353 407
#
# _framework density 25.03754
#
# number of rings (size 3 to 8) (size 9 to 14) (size 15 to 20)
#    0.000    0.400    2.000    6.000    2.800    8.000 
#    0.000    0.000    0.000    0.000    0.000    0.000 
#    0.000    0.000    0.000    0.000    0.000    0.000 
#
# Total GULP energy -124063.851337 kJ/mol
# GULP energy per Si atom -12406.385134 kJ/mol
# Density = 2.498055 g / cm^3
# Si number density = 25.037540 Si / 1000 Ang^3
#
#
#
# Elastic Constant Matrix: (Units=GPa)
#
#
# Indices 1 2 3 4 5 6 
#
# 1 151.5413 31.3729 24.4971 7.4514 -19.9352 29.4358
# 2 31.3729 105.7977 36.7550 15.6150 5.1471 -9.9550
# 3 24.4971 36.7550 71.0025 9.3347 10.6617 -5.2783
# 4 7.4514 15.6150 9.3347 42.1190 3.3556 -2.0752
# 5 -19.9352 5.1471 10.6617 3.3556 43.6095 3.1852
# 6 29.4358 -9.9550 -5.2783 -2.0752 3.1852 35.3097
#
#
#
# Elastic Compliance Matrix: (Units=1/GPa)
#
#
# Indices 1 2 3 4 5 6 
#
# 1 0.011187 -0.003209 -0.004031 -0.001055 0.007404 -0.011563
# 2 -0.003209 0.013030 -0.004530 -0.002811 -0.002097 0.005696
# 3 -0.004031 -0.004530 0.019327 -0.001115 -0.006347 0.005479
# 4 -0.001055 -0.002811 -0.001115 0.025452 -0.001953 0.001593
# 5 0.007404 -0.002097 -0.006347 -0.001953 0.029028 -0.010446
# 6 -0.011563 0.005696 0.005479 0.001593 -0.010446 0.041421
#
#
# Mechanical properties :
#
#
# Convention : Reuss Voigt Hill
#
# Bulk Modulus (GPa) = 49.99146 57.06573 53.52859
# Shear Modulus (GPa) = 29.47174 39.92207 34.69690
#
# Velocity S-wave (km/s) = 3.43461 3.99744 3.72667
# Velocity P-wave (km/s) = 5.97819 6.64436 6.32006
#
# Compressibility (1/GPa) = 0.02000342
#
# Stress axis : x y z
#
# Youngs Moduli (GPa) = 89.39075 76.74354 51.74158
#
# Poissons Ratio (x) = 0.24630 0.20857
# Poissons Ratio (y) = 0.28689 0.23439
# Poissons Ratio (z) = 0.36033 0.34765
#
# Static dielectric constant tensor:
#      x y z
#    x 4.831170 0.079360 -0.281590 
#    y 0.079360 4.652780 0.021830 
#    z -0.281590 0.021830 4.559260 
# 
# 
# High freq. dielectric constant tensor:
#      x y z
#    x 2.018120 0.006480 -0.006360 
#    y 0.006480 2.007110 0.011280 
#    z -0.006360 0.011280 2.002770 
# 
# From -- ./inp_files/18659.got.cif
#   From: 2010.06.25/outbox.cif.g09.slc.cpg/sg2_10_cif.got.tgz:18659.got - 2010.06.27 13:26:56.
