data_PCOD8036196
_publ_section_title
;
Structure prediction by ZEFSAII (Michael W. Deem and Ramdas Pophale) SiO2 
 PCOD8036196
Probable space group: P -1
;
_chemical_formula_sum "Si O2"
_cell_formula_units_Z 16
_cell_length_a 20.852365
_cell_length_b 6.744339
_cell_length_c 9.676557
_cell_angle_alpha 43.843112
_cell_angle_beta 53.993869
_cell_angle_gamma 55.640972
_cell_volume 738.245735
_symmetry_space_group_name_H-M "P -1"
_symmetry_group_IT_number 2
_symmetry_cell_setting 'triclinic'
loop_
_space_group_symop_operation_xyz
x,y,z
-x,-y,-z
loop_
_atom_site_type_symbol
_atom_site_label
_atom_site_fract_x
_atom_site_fract_y
_atom_site_fract_z
Si Si1 0.290016 0.517851 0.357307
Si Si2 0.712859 0.130992 0.317518
Si Si3 0.075464 0.338183 0.394143
Si Si4 0.548987 0.280380 0.936138
Si Si5 0.182122 0.734229 0.643574
Si Si6 0.076016 0.334968 0.077343
Si Si7 0.816724 0.240024 0.884826
Si Si8 0.551510 0.629985 0.260369
O O1 0.364765 0.650399 0.239461
O O2 0.219024 0.609528 0.513462
O O3 0.255931 0.651762 0.186436
O O4 0.320425 0.162982 0.488235
O O5 0.749683 0.167962 0.401823
O O6 0.639614 0.411103 0.234840
O O7 0.782485 0.095291 0.131001
O O8 0.047649 0.348873 0.264952
O O9 0.151563 0.483215 0.242505
O O10 0.000000 0.500000 0.500000
O O11 0.103821 0.003414 0.578980
O O12 0.496051 0.327569 0.842827
O O13 0.500000 0.500000 0.000000
O O14 0.563919 0.943584 0.139963
O O15 0.151638 0.484304 0.890354
O O16 0.106784 0.996663 0.159823
O O17 0.000000 0.500000 0.000000
O O18 0.500000 0.500000 0.500000
#
# Coordination Sequence:
#
# PCOD8036196 Si02
#       8
#     2   2   2   2   2   2   2   2
#     4  12  26  44  72 102 140 186 233 286 345 414
#     4  12  26  44  72 102 140 186 233 286 345 414
#     4  12  28  46  72 100 142 184 232 294 350 414
#     4  11  26  46  72 107 145 183 230 285 347 412
#     4  12  26  45  69 104 139 183 237 288 348 412
#     4  12  28  46  72 102 140 183 236 292 352 419
#     4  12  26  45  69 104 139 183 237 288 348 412
#     4  11  26  46  72 107 145 183 230 285 347 412
#
# _framework density 21.672998
#
# number of rings (size 3 to 8) (size 9 to 14) (size 15 to 20)
#    0.000    0.250    5.000    3.000    7.000    8.000 
#    0.000    0.000    0.000    0.000    0.000    0.000 
#    0.000    0.000    0.000    0.000    0.000    0.000 
#
# Total GULP energy -198553.601385 kJ/mol
# GULP energy per Si atom -12409.600087 kJ/mol
# Density = 2.162367 g / cm^3
# Si number density = 21.672998 Si / 1000 Ang^3
#
#
#
# Elastic Constant Matrix: (Units=GPa)
#
#
# Indices 1 2 3 4 5 6 
#
# 1 97.2981 25.6622 13.5717 -7.4616 11.6932 -2.3499
# 2 25.6622 125.4013 29.0695 -11.8898 6.7639 -5.8369
# 3 13.5717 29.0695 89.0323 -6.8212 1.1936 6.2253
# 4 -7.4616 -11.8898 -6.8212 43.5367 0.8825 0.8417
# 5 11.6932 6.7639 1.1936 0.8825 39.3564 -1.9748
# 6 -2.3499 -5.8369 6.2253 0.8417 -1.9748 39.4769
#
#
#
# Elastic Compliance Matrix: (Units=1/GPa)
#
#
# Indices 1 2 3 4 5 6 
#
# 1 0.011371 -0.001775 -0.001037 0.001356 -0.003052 0.000396
# 2 -0.001775 0.009262 -0.002716 0.001788 -0.000942 0.001607
# 3 -0.001037 -0.002716 0.012528 0.001086 0.000248 -0.002450
# 4 0.001356 0.001788 0.001086 0.023894 -0.001299 -0.000401
# 5 -0.003052 -0.000942 0.000248 -0.001299 0.026549 0.000996
# 6 0.000396 0.001607 -0.002450 -0.000401 0.000996 0.026037
#
#
# Mechanical properties :
#
#
# Convention : Reuss Voigt Hill
#
# Bulk Modulus (GPa) = 45.23855 49.81539 47.52697
# Shear Modulus (GPa) = 39.04239 40.70256 39.87248
#
# Velocity S-wave (km/s) = 4.24893 4.33833 4.29386
# Velocity P-wave (km/s) = 6.70744 6.93756 6.82347
#
# Compressibility (1/GPa) = 0.02210504
#
# Stress axis : x y z
#
# Youngs Moduli (GPa) = 87.94436 107.96310 79.82137
#
# Poissons Ratio (x) = 0.19163 0.08275
# Poissons Ratio (y) = 0.15610 0.21683
# Poissons Ratio (z) = 0.09117 0.29327
#
# Static dielectric constant tensor:
#      x y z
#    x 3.909250 0.092200 -0.044250 
#    y 0.092200 4.110750 -0.196050 
#    z -0.044250 -0.196050 4.044950 
# 
# 
# High freq. dielectric constant tensor:
#      x y z
#    x 1.859270 0.004740 0.001210 
#    y 0.004740 1.867430 -0.004330 
#    z 0.001210 -0.004330 1.864860 
# 
# From -- ./inp_files/47291.got.cif
#   From: 2010.06.25/outbox.cif.g09.slc.cpg/sg2_24_cif.got.tgz:47291.got - 2010.06.27 13:26:56.
