data_PCOD8036872
_publ_section_title
;
Structure prediction by ZEFSAII (Michael W. Deem and Ramdas Pophale) SiO2 
 PCOD8036872
Probable space group: P -1
;
_chemical_formula_sum "Si O2"
_cell_formula_units_Z 12
_cell_length_a 14.513054
_cell_length_b 9.461671
_cell_length_c 9.413657
_cell_angle_alpha 31.568557
_cell_angle_beta 72.321641
_cell_angle_gamma 59.902119
_cell_volume 563.269004
_symmetry_space_group_name_H-M "P -1"
_symmetry_group_IT_number 2
_symmetry_cell_setting 'triclinic'
loop_
_space_group_symop_operation_xyz
x,y,z
-x,-y,-z
loop_
_atom_site_type_symbol
_atom_site_label
_atom_site_fract_x
_atom_site_fract_y
_atom_site_fract_z
Si Si1 0.607167 0.407763 0.122179
Si Si2 0.190037 0.677918 0.474281
Si Si3 0.247686 0.292326 0.276708
Si Si4 0.120575 0.351835 0.006972
Si Si5 0.436116 0.363251 0.733802
Si Si6 0.075687 0.639660 0.293623
O O1 0.570938 0.543807 0.179091
O O2 0.680251 0.040695 0.403451
O O3 0.500000 0.500000 0.000000
O O4 0.680174 0.535940 0.902518
O O5 0.317921 0.484043 0.615149
O O6 0.171394 0.569665 0.422858
O O7 0.147602 0.042329 0.174734
O O8 0.120800 0.608119 0.683924
O O9 0.214946 0.258614 0.161142
O O10 0.134492 0.485046 0.251281
O O11 0.000000 0.500000 0.000000
O O12 0.500000 0.500000 0.500000
O O13 0.500000 0.000000 0.000000
O O14 0.000000 0.500000 0.500000
O O15 0.000000 0.000000 0.000000
#
# Coordination Sequence:
#
# PCOD8036872 Si02
#       6
#     2   2   2   2   2   2
#     4  12  27  46  70 102 135 179 226 278 344 400
#     4  12  25  45  68 101 135 173 228 276 332 404
#     4  12  24  47  68 101 139 175 225 281 332 405
#     4  12  23  43  72  98 131 177 222 278 334 398
#     4  12  26  45  72 100 134 176 228 279 338 400
#     4  12  27  46  68 103 140 181 224 273 338 402
#
# _framework density 21.304207999999999
#
# number of rings (size 3 to 8) (size 9 to 14) (size 15 to 20)
#    0.000    0.000    3.333    7.000    4.667    0.000 
#    0.000    0.000    0.000    0.000    0.000    0.000 
#    0.000    0.000    0.000    0.000    0.000    0.000 
#
# Total GULP energy -148910.146584 kJ/mol
# GULP energy per Si atom -12409.178882 kJ/mol
# Density = 2.125572 g / cm^3
# Si number density = 21.304208 Si / 1000 Ang^3
#
#
#
# Elastic Constant Matrix: (Units=GPa)
#
#
# Indices 1 2 3 4 5 6 
#
# 1 131.6757 31.3827 41.3810 -1.1971 -10.0658 6.8696
# 2 31.3827 117.9565 40.0829 -10.2874 -10.7531 -4.4081
# 3 41.3810 40.0829 150.3782 -12.2635 -18.3581 -9.2126
# 4 -1.1971 -10.2874 -12.2635 53.9942 -0.3484 2.1478
# 5 -10.0658 -10.7531 -18.3581 -0.3484 54.0012 9.6026
# 6 6.8696 -4.4081 -9.2126 2.1478 9.6026 45.2506
#
#
#
# Elastic Compliance Matrix: (Units=1/GPa)
#
#
# Indices 1 2 3 4 5 6 
#
# 1 0.008814 -0.001689 -0.002024 -0.000496 0.000989 -0.002101
# 2 -0.001689 0.009793 -0.001888 0.001383 0.000901 0.000569
# 3 -0.002024 -0.001888 0.008123 0.001399 0.001780 0.001333
# 4 -0.000496 0.001383 0.001399 0.019120 0.000889 -0.000601
# 5 0.000989 0.000901 0.001780 0.000889 0.020210 -0.004031
# 6 -0.002101 0.000569 0.001333 -0.000601 -0.004031 0.023629
#
#
# Mechanical properties :
#
#
# Convention : Reuss Voigt Hill
#
# Bulk Modulus (GPa) = 64.39705 69.52260 66.95983
# Shear Modulus (GPa) = 47.14110 49.79345 48.46728
#
# Velocity S-wave (km/s) = 4.70910 4.83977 4.77488
# Velocity P-wave (km/s) = 7.73696 7.99595 7.86752
#
# Compressibility (1/GPa) = 0.01552866
#
# Stress axis : x y z
#
# Youngs Moduli (GPa) = 113.46153 102.11866 123.10696
#
# Poissons Ratio (x) = 0.17246 0.24912
# Poissons Ratio (y) = 0.19162 0.23240
# Poissons Ratio (z) = 0.22960 0.19278
#
# Static dielectric constant tensor:
#      x y z
#    x 4.102310 0.094880 -0.053280 
#    y 0.094880 4.008920 -0.013300 
#    z -0.053280 -0.013300 4.210610 
# 
# 
# High freq. dielectric constant tensor:
#      x y z
#    x 1.858590 0.001200 -0.003180 
#    y 0.001200 1.842420 -0.000930 
#    z -0.003180 -0.000930 1.857650 
# 
# From -- ./inp_files/22019.got.cif
#   From: 2010.06.25/outbox.cif.g09.slc.cpg/sg2_12_cif.got.tgz:22019.got - 2010.06.27 13:26:56.
