data_PCOD8036361
_publ_section_title
;
Structure prediction by ZEFSAII (Michael W. Deem and Ramdas Pophale) SiO2 
 PCOD8036361
Probable space group: P -1
;
_chemical_formula_sum "Si O2"
_cell_formula_units_Z 12
_cell_length_a 5.384196
_cell_length_b 14.220262
_cell_length_c 17.825068
_cell_angle_alpha 157.551096
_cell_angle_beta 110.711232
_cell_angle_gamma 67.957222
_cell_volume 482.967236
_symmetry_space_group_name_H-M "P -1"
_symmetry_group_IT_number 2
_symmetry_cell_setting 'triclinic'
loop_
_space_group_symop_operation_xyz
x,y,z
-x,-y,-z
loop_
_atom_site_type_symbol
_atom_site_label
_atom_site_fract_x
_atom_site_fract_y
_atom_site_fract_z
Si Si1 0.316107 0.857602 0.101879
Si Si2 0.534474 0.778435 0.729558
Si Si3 0.737939 0.331603 0.634314
Si Si4 0.232717 0.582781 0.135585
Si Si5 0.824285 0.811497 0.927159
Si Si6 0.772497 0.950344 0.611273
O O1 0.451465 0.078369 0.241412
O O2 0.144482 0.967503 0.236311
O O3 0.531068 0.641555 0.997068
O O4 0.130822 0.745838 0.938111
O O5 0.500000 0.500000 0.500000
O O6 0.801421 0.788186 0.816962
O O7 0.289408 0.911268 0.852033
O O8 0.879079 0.338125 0.735496
O O9 0.656487 0.610869 0.800193
O O10 0.463381 0.217227 0.529465
O O11 0.951618 0.183559 0.492286
O O12 0.343761 0.813976 0.278081
O O13 0.000000 0.500000 0.000000
#
# Coordination Sequence:
#
# PCOD8036361 Si02
#       6
#     2   2   2   2   2   2
#     4  12  26  49  75 112 158 204 259 329 392 467
#     4  11  26  50  79 109 153 202 266 326 402 469
#     4  12  26  50  76 114 161 200 267 326 387 474
#     4  12  26  50  77 111 159 212 260 321 391 466
#     4  11  26  48  79 114 152 204 260 328 399 465
#     4  12  28  45  79 116 157 211 264 315 393 474
#
# _framework density 24.846405000000001
#
# number of rings (size 3 to 8) (size 9 to 14) (size 15 to 20)
#    0.000    0.333    1.667    6.000    4.667    3.333 
#    0.000    0.000    0.000    0.000    0.000    0.000 
#    0.000    0.000    0.000    0.000    0.000    0.000 
#
# Total GULP energy -148844.370099 kJ/mol
# GULP energy per Si atom -12403.697508 kJ/mol
# Density = 2.478985 g / cm^3
# Si number density = 24.846405 Si / 1000 Ang^3
#
#
#
# Elastic Constant Matrix: (Units=GPa)
#
#
# Indices 1 2 3 4 5 6 
#
# 1 97.5015 16.6712 44.4232 0.1639 -13.9700 -5.4425
# 2 16.6712 110.7933 47.5127 -0.3549 -20.5580 -7.6553
# 3 44.4232 47.5127 151.1006 10.4500 -16.7383 -3.4547
# 4 0.1639 -0.3549 10.4500 58.9787 15.7605 7.5626
# 5 -13.9700 -20.5580 -16.7383 15.7605 28.8646 -11.9698
# 6 -5.4425 -7.6553 -3.4547 7.5626 -11.9698 49.0699
#
#
#
# Elastic Compliance Matrix: (Units=1/GPa)
#
#
# Indices 1 2 3 4 5 6 
#
# 1 0.012761 0.001050 -0.002997 -0.002037 0.007783 0.003581
# 2 0.001050 0.012559 -0.002571 -0.003369 0.012018 0.005346
# 3 -0.002997 -0.002571 0.008980 -0.002843 0.004025 0.001319
# 4 -0.002037 -0.003369 -0.002843 0.024906 -0.022940 -0.010386
# 5 0.007783 0.012018 0.004025 -0.022940 0.071814 0.024075
# 6 0.003581 0.005346 0.001319 -0.010386 0.024075 0.029176
#
#
# Mechanical properties :
#
#
# Convention : Reuss Voigt Hill
#
# Bulk Modulus (GPa) = 39.58224 64.06774 51.82499
# Shear Modulus (GPa) = 28.14455 44.10185 36.12320
#
# Velocity S-wave (km/s) = 3.36927 4.21762 3.81709
# Velocity P-wave (km/s) = 5.57686 7.03983 6.35062
#
# Compressibility (1/GPa) = 0.02526385
#
# Stress axis : x y z
#
# Youngs Moduli (GPa) = 78.36636 79.62397 111.35418
#
# Poissons Ratio (x) = -0.08362 0.33371
# Poissons Ratio (y) = -0.08230 0.28633
# Poissons Ratio (z) = 0.23485 0.20474
#
# Static dielectric constant tensor:
#      x y z
#    x 4.123290 0.259700 0.012300 
#    y 0.259700 5.112360 -0.091730 
#    z 0.012300 -0.091730 4.805700 
# 
# 
# High freq. dielectric constant tensor:
#      x y z
#    x 1.975190 0.009560 0.001040 
#    y 0.009560 2.017120 -0.001540 
#    z 0.001040 -0.001540 2.003770 
# 
# From -- ./inp_files/488758.got.cif
#   From: 2010.06.25/outbox.cif.g09.slc.cpg/sg2_245_cif.got.tgz:488758.got - 2010.06.27 13:26:56.
