data_PCOD8036843
_publ_section_title
;
Structure prediction by ZEFSAII (Michael W. Deem and Ramdas Pophale) SiO2 
 PCOD8036843
Probable space group: P -1
;
_chemical_formula_sum "Si O2"
_cell_formula_units_Z 14
_cell_length_a 9.049393
_cell_length_b 19.983427
_cell_length_c 7.360452
_cell_angle_alpha 70.499504
_cell_angle_beta 65.048705
_cell_angle_gamma 30.599405
_cell_volume 613.070967
_symmetry_space_group_name_H-M "P -1"
_symmetry_group_IT_number 2
_symmetry_cell_setting 'triclinic'
loop_
_space_group_symop_operation_xyz
x,y,z
-x,-y,-z
loop_
_atom_site_type_symbol
_atom_site_label
_atom_site_fract_x
_atom_site_fract_y
_atom_site_fract_z
Si Si1 0.663634 0.617638 0.492182
Si Si2 0.352526 0.876410 0.466909
Si Si3 0.632085 0.784892 0.766414
Si Si4 0.702718 0.361699 0.952346
Si Si5 0.355925 0.364802 0.934841
Si Si6 0.663548 0.865650 0.020777
Si Si7 0.245562 0.563857 0.450303
O O1 0.473780 0.751523 0.551715
O O2 0.571031 0.651036 0.298336
O O3 0.597703 0.559613 0.634769
O O4 0.000000 0.500000 0.500000
O O5 0.410091 0.890367 0.621720
O O6 0.532380 0.854173 0.238822
O O7 0.000000 0.000000 0.500000
O O8 0.964633 0.641883 0.647947
O O9 0.516055 0.758201 0.957829
O O10 0.629495 0.850966 0.846758
O O11 0.504321 0.366295 0.996756
O O12 0.869393 0.331424 0.713856
O O13 0.983105 0.243919 0.044837
O O14 0.500000 0.500000 0.000000
O O15 0.000000 0.500000 0.000000
O O16 0.500000 0.000000 0.000000
O O17 0.500000 0.500000 0.500000
#
# Coordination Sequence:
#
# PCOD8036843 Si02
#       7
#     2   2   2   2   2   2   2
#     4  12  23  43  74 105 147 186 244 297 359 431
#     4  12  29  49  75 109 148 197 248 298 368 444
#     4  12  26  49  75 103 150 192 248 305 361 446
#     4  12  27  44  74 112 152 188 245 306 368 429
#     4  12  23  42  72 111 146 193 240 301 368 435
#     4  12  29  53  74 108 147 193 247 309 372 438
#     4  12  23  43  71 110 146 189 236 303 366 421
#
# _framework density 22.835856
#
# number of rings (size 3 to 8) (size 9 to 14) (size 15 to 20)
#    0.000    0.000    7.143    1.714    6.000    3.429 
#    0.000    0.000    0.000    0.000    0.000    0.000 
#    0.000    0.000    0.000    0.000    0.000    0.000 
#
# Total GULP energy -173453.739749 kJ/mol
# GULP energy per Si atom -12389.552839 kJ/mol
# Density = 2.278388 g / cm^3
# Si number density = 22.835856 Si / 1000 Ang^3
#
#
#
# Elastic Constant Matrix: (Units=GPa)
#
#
# Indices 1 2 3 4 5 6 
#
# 1 194.8708 79.2894 35.6958 -8.0714 22.1593 -6.9131
# 2 79.2894 148.6128 22.1574 -11.1505 9.1192 -9.0003
# 3 35.6958 22.1574 46.3976 -14.3976 15.0798 -6.0477
# 4 -8.0714 -11.1505 -14.3976 26.2305 -1.7679 0.3881
# 5 22.1593 9.1192 15.0798 -1.7679 50.9019 -8.1307
# 6 -6.9131 -9.0003 -6.0477 0.3881 -8.1307 54.0410
#
#
#
# Elastic Compliance Matrix: (Units=1/GPa)
#
#
# Indices 1 2 3 4 5 6 
#
# 1 0.007334 -0.003345 -0.004061 -0.001490 -0.001488 -0.000287
# 2 -0.003345 0.008860 -0.000968 0.002217 0.000390 0.000982
# 3 -0.004061 -0.000968 0.032461 0.015669 -0.006842 0.001810
# 4 -0.001490 0.002217 0.015669 0.047017 -0.002564 0.001209
# 5 -0.001488 0.000390 -0.006842 -0.002564 0.022564 0.002522
# 6 -0.000287 0.000982 0.001810 0.001209 0.002522 0.019205
#
#
# Mechanical properties :
#
#
# Convention : Reuss Voigt Hill
#
# Bulk Modulus (GPa) = 31.34160 73.79625 52.56893
# Shear Modulus (GPa) = 30.33511 43.08391 36.70951
#
# Velocity S-wave (km/s) = 3.64867 4.34830 4.01376
# Velocity P-wave (km/s) = 5.61293 7.58923 6.67463
#
# Compressibility (1/GPa) = 0.03190647
#
# Stress axis : x y z
#
# Youngs Moduli (GPa) = 136.35291 112.86735 30.80591
#
# Poissons Ratio (x) = 0.37757 0.12510
# Poissons Ratio (y) = 0.45614 0.02982
# Poissons Ratio (z) = 0.55374 0.10926
#
# Static dielectric constant tensor:
#      x y z
#    x 3.834410 0.131970 -0.080220 
#    y 0.131970 4.173980 -0.185910 
#    z -0.080220 -0.185910 4.481170 
# 
# 
# High freq. dielectric constant tensor:
#      x y z
#    x 1.927990 -0.001880 0.009750 
#    y -0.001880 1.879970 -0.017160 
#    z 0.009750 -0.017160 1.918000 
# 
# From -- ./inp_files/220726.got.cif
#   From: 2010.06.25/outbox.cif.g09.slc.cpg/sg2_111_cif.got.tgz:220726.got - 2010.06.27 13:26:56.
