data_PCOD8036692
_publ_section_title
;
Structure prediction by ZEFSAII (Michael W. Deem and Ramdas Pophale) SiO2 
 PCOD8036692
Probable space group: P -1
;
_chemical_formula_sum "Si O2"
_cell_formula_units_Z 14
_cell_length_a 11.824149
_cell_length_b 6.849446
_cell_length_c 10.395258
_cell_angle_alpha 96.027888
_cell_angle_beta 69.970587
_cell_angle_gamma 124.787471
_cell_volume 645.137431
_symmetry_space_group_name_H-M "P -1"
_symmetry_group_IT_number 2
_symmetry_cell_setting 'triclinic'
loop_
_space_group_symop_operation_xyz
x,y,z
-x,-y,-z
loop_
_atom_site_type_symbol
_atom_site_label
_atom_site_fract_x
_atom_site_fract_y
_atom_site_fract_z
Si Si1 0.267036 0.314125 0.443007
Si Si2 0.662907 0.231452 0.433460
Si Si3 0.520619 0.288203 0.273923
Si Si4 0.186550 0.307851 0.194071
Si Si5 0.441118 0.846353 0.139498
Si Si6 0.321892 0.252419 0.898222
Si Si7 0.851764 0.029073 0.304467
O O1 0.292091 0.572257 0.459644
O O2 0.421818 0.346030 0.398984
O O3 0.200325 0.213912 0.320423
O O4 0.161327 0.136302 0.583964
O O5 0.660148 0.351825 0.309539
O O6 0.780711 0.169261 0.380364
O O7 0.500000 0.000000 0.500000
O O8 0.420674 0.006753 0.258538
O O9 0.584850 0.459191 0.135533
O O10 0.022417 0.226416 0.226004
O O11 0.287610 0.594532 0.162840
O O12 0.231265 0.188283 0.060978
O O13 0.564727 0.818857 0.145484
O O14 0.500000 0.000000 0.000000
O O15 0.217128 0.123001 0.808513
#
# Coordination Sequence:
#
# PCOD8036692 Si02
#       7
#     2   2   2   2   2   2   2
#     4  12  25  44  72 102 144 181 229 293 347 409
#     4  12  23  43  72 105 137 182 241 284 339 417
#     4  12  22  42  74 106 130 180 245 286 335 409
#     4  12  27  47  68 108 145 182 228 292 359 405
#     4  12  24  44  72 105 139 182 236 292 342 411
#     4  12  24  49  73  98 140 188 238 281 340 425
#     4  12  27  47  71 103 146 186 229 286 351 420
#
# _framework density 21.700803000000001
#
# number of rings (size 3 to 8) (size 9 to 14) (size 15 to 20)
#    0.000    0.000    7.143    4.286    0.000    0.571 
#    5.143    1.429    0.000    0.000    0.000    0.000 
#    0.000    0.000    0.000    0.000    0.000    0.000 
#
# Total GULP energy -173659.473342 kJ/mol
# GULP energy per Si atom -12404.248096 kJ/mol
# Density = 2.165141 g / cm^3
# Si number density = 21.700803 Si / 1000 Ang^3
#
#
#
# Elastic Constant Matrix: (Units=GPa)
#
#
# Indices 1 2 3 4 5 6 
#
# 1 107.0329 66.7970 44.5514 -5.7147 -7.6503 5.5339
# 2 66.7970 125.4384 62.7251 8.4593 -9.6288 -2.7293
# 3 44.5514 62.7251 116.1183 12.1056 3.9054 9.1597
# 4 -5.7147 8.4593 12.1056 40.9278 -6.5283 -5.0800
# 5 -7.6503 -9.6288 3.9054 -6.5283 46.7587 -3.6351
# 6 5.5339 -2.7293 9.1597 -5.0800 -3.6351 34.2915
#
#
#
# Elastic Compliance Matrix: (Units=1/GPa)
#
#
# Indices 1 2 3 4 5 6 
#
# 1 0.015205 -0.007098 -0.002391 0.004379 0.001717 -0.001549
# 2 -0.007098 0.014905 -0.005551 -0.001562 0.002452 0.003843
# 3 -0.002391 -0.005551 0.013470 -0.004331 -0.003628 -0.004680
# 4 0.004379 -0.001562 -0.004331 0.028080 0.005067 0.005023
# 5 0.001717 0.002452 -0.003628 0.005067 0.023504 0.004129
# 6 -0.001549 0.003843 -0.004680 0.005023 0.004129 0.032150
#
#
# Mechanical properties :
#
#
# Convention : Reuss Voigt Hill
#
# Bulk Modulus (GPa) = 74.07714 77.41517 75.74615
# Shear Modulus (GPa) = 30.88455 36.02999 33.45727
#
# Velocity S-wave (km/s) = 3.77662 4.07911 3.93078
# Velocity P-wave (km/s) = 7.29568 7.61162 7.45532
#
# Compressibility (1/GPa) = 0.01349944
#
# Stress axis : x y z
#
# Youngs Moduli (GPa) = 65.76940 67.09353 74.23639
#
# Poissons Ratio (x) = 0.47623 0.17753
# Poissons Ratio (y) = 0.46683 0.41206
# Poissons Ratio (z) = 0.15728 0.37242
#
# Static dielectric constant tensor:
#      x y z
#    x 3.961600 -0.125700 0.253740 
#    y -0.125700 4.179240 0.096780 
#    z 0.253740 0.096780 4.149310 
# 
# 
# High freq. dielectric constant tensor:
#      x y z
#    x 1.846410 -0.012290 0.018210 
#    y -0.012290 1.856350 0.008030 
#    z 0.018210 0.008030 1.864810 
# 
# From -- ./inp_files/410741.got.cif
#   From: 2010.06.25/outbox.cif.g09.slc.cpg/sg2_206_cif.got.tgz:410741.got - 2010.06.27 13:26:56.
