data_PCOD8036144
_publ_section_title
;
Structure prediction by ZEFSAII (Michael W. Deem and Ramdas Pophale) SiO2 
 PCOD8036144
Probable space group: P -1
;
_chemical_formula_sum "Si O2"
_cell_formula_units_Z 12
_cell_length_a 11.658212
_cell_length_b 9.029765
_cell_length_c 11.521341
_cell_angle_alpha 59.813268
_cell_angle_beta 37.410291
_cell_angle_gamma 39.239890
_cell_volume 445.727373
_symmetry_space_group_name_H-M "P -1"
_symmetry_group_IT_number 2
_symmetry_cell_setting 'triclinic'
loop_
_space_group_symop_operation_xyz
x,y,z
-x,-y,-z
loop_
_atom_site_type_symbol
_atom_site_label
_atom_site_fract_x
_atom_site_fract_y
_atom_site_fract_z
Si Si1 0.758285 0.512998 0.377611
Si Si2 0.486376 0.784845 0.877719
Si Si3 0.255166 0.059905 0.289389
Si Si4 0.366168 0.482225 0.781988
Si Si5 0.930073 0.221635 0.717962
Si Si6 0.165915 0.149072 0.789492
O O1 0.513567 0.566116 0.608615
O O2 0.751563 0.519032 0.241501
O O3 0.733012 0.722627 0.361218
O O4 0.042989 0.244606 0.288224
O O5 0.544281 0.911292 0.861379
O O6 0.765441 0.505302 0.741442
O O7 0.380236 0.907115 0.788493
O O8 0.269342 0.810226 0.108668
O O9 0.107284 0.095907 0.510833
O O10 0.432139 0.783669 0.214881
O O11 0.129128 0.667757 0.989129
O O12 0.138048 0.077810 0.714843
#
# Coordination Sequence:
#
# PCOD8036144 Si02
#       6
#     2   2   2   2   2   2
#     4  11  26  45  72 104 142 184 232 287 349 414
#     4  11  26  45  72 104 142 184 232 287 349 414
#     4  12  26  47  74 104 142 184 232 291 348 414
#     4  11  28  46  71 107 139 187 234 284 351 414
#     4  11  28  46  71 107 139 187 234 284 351 414
#     4  12  26  47  74 104 142 184 232 291 348 414
#
# _framework density 26.922286
#
# number of rings (size 3 to 8) (size 9 to 14) (size 15 to 20)
#    0.000    0.667    3.333    2.000    9.333    4.000 
#    0.000    0.000    0.000    0.000    0.000    0.000 
#    0.000    0.000    0.000    0.000    0.000    0.000 
#
# Total GULP energy -148953.811628 kJ/mol
# GULP energy per Si atom -12412.817636 kJ/mol
# Density = 2.686101 g / cm^3
# Si number density = 26.922286 Si / 1000 Ang^3
#
#
#
# Elastic Constant Matrix: (Units=GPa)
#
#
# Indices 1 2 3 4 5 6 
#
# 1 81.8963 12.1142 7.7097 -5.6098 -26.6207 -16.1473
# 2 12.1142 84.6622 1.5051 -25.9756 -6.2621 -12.4209
# 3 7.7097 1.5051 94.6413 -23.8558 -31.2148 17.9010
# 4 -5.6098 -25.9756 -23.8558 27.4396 3.4881 -6.2550
# 5 -26.6207 -6.2621 -31.2148 3.4881 29.3733 -5.7917
# 6 -16.1473 -12.4209 17.9010 -6.2550 -5.7917 24.5407
#
#
#
# Elastic Compliance Matrix: (Units=1/GPa)
#
#
# Indices 1 2 3 4 5 6 
#
# 1 0.050935 0.028200 0.028611 0.065512 0.087469 0.064259
# 2 0.028200 0.042794 0.026703 0.073726 0.065127 0.054898
# 3 0.028611 0.026703 0.043214 0.067165 0.076675 0.036033
# 4 0.065512 0.073726 0.067165 0.185182 0.146811 0.113276
# 5 0.087469 0.065127 0.076675 0.146811 0.215474 0.122859
# 6 0.064259 0.054898 0.036033 0.113276 0.122859 0.142399
#
#
# Mechanical properties :
#
#
# Convention : Reuss Voigt Hill
#
# Bulk Modulus (GPa) = 3.28979 33.76195 18.52587
# Shear Modulus (GPa) = 8.13941 32.26209 20.20075
#
# Velocity S-wave (km/s) = 1.74065 3.46546 2.74220
# Velocity P-wave (km/s) = 2.29443 5.34606 4.11368
#
# Compressibility (1/GPa) = 0.30397059
#
# Stress axis : x y z
#
# Youngs Moduli (GPa) = 19.63281 23.36801 23.14039
#
# Poissons Ratio (x) = -0.65899 -0.66206
# Poissons Ratio (y) = -0.55365 -0.61791
# Poissons Ratio (z) = -0.56171 -0.62399
#
# Static dielectric constant tensor:
#      x y z
#    x 5.174330 -0.276330 -0.244440 
#    y -0.276330 5.230500 -0.241790 
#    z -0.244440 -0.241790 4.869950 
# 
# 
# High freq. dielectric constant tensor:
#      x y z
#    x 2.094430 -0.010440 -0.009900 
#    y -0.010440 2.096480 -0.009090 
#    z -0.009900 -0.009090 2.094960 
# 
# From -- ./inp_files/251540.got.cif
#   From: 2010.06.25/outbox.cif.g09.slc.cpg/sg2_126_cif.got.tgz:251540.got - 2010.06.27 13:26:56.
