data_PCOD8036529
_publ_section_title
;
Structure prediction by ZEFSAII (Michael W. Deem and Ramdas Pophale) SiO2 
 PCOD8036529
Probable space group: P -1
;
_chemical_formula_sum "Si O2"
_cell_formula_units_Z 16
_cell_length_a 13.306056
_cell_length_b 9.384929
_cell_length_c 17.992854
_cell_angle_alpha 36.252049
_cell_angle_beta 33.913453
_cell_angle_gamma 35.522219
_cell_volume 666.267167
_symmetry_space_group_name_H-M "P -1"
_symmetry_group_IT_number 2
_symmetry_cell_setting 'triclinic'
loop_
_space_group_symop_operation_xyz
x,y,z
-x,-y,-z
loop_
_atom_site_type_symbol
_atom_site_label
_atom_site_fract_x
_atom_site_fract_y
_atom_site_fract_z
Si Si1 0.428273 0.831448 0.187984
Si Si2 0.330807 0.112423 0.617888
Si Si3 0.053871 0.364502 0.941672
Si Si4 0.984901 0.766442 0.360178
Si Si5 0.365772 0.601603 0.467286
Si Si6 0.654317 0.151507 0.953600
Si Si7 0.646363 0.396895 0.118907
Si Si8 0.954186 0.155564 0.331932
O O1 0.463787 0.726800 0.295472
O O2 0.497778 0.575293 0.200227
O O3 0.193164 0.023311 0.243852
O O4 0.568548 0.985566 0.022943
O O5 0.359702 0.889214 0.756750
O O6 0.500000 0.000000 0.500000
O O7 0.121937 0.184835 0.673973
O O8 0.325965 0.369503 0.551687
O O9 0.133396 0.537944 0.771623
O O10 0.868120 0.359304 0.014176
O O11 0.000000 0.500000 0.000000
O O12 0.225311 0.052454 0.968520
O O13 0.000000 0.500000 0.500000
O O14 0.199520 0.761400 0.218386
O O15 0.870328 0.004661 0.389104
O O16 0.500000 0.500000 0.500000
O O17 0.148705 0.831148 0.530747
O O18 0.452330 0.438514 0.968079
#
# Coordination Sequence:
#
# PCOD8036529 Si02
#       8
#     2   2   2   2   2   2   2   2
#     4  12  22  42  71 102 142 185 236 294 345 424
#     4  12  24  45  71 100 141 184 235 297 353 417
#     4  12  20  37  70 104 139 184 233 291 342 414
#     4  12  24  41  71 108 140 178 237 296 350 414
#     4  12  28  46  70 100 142 193 236 289 362 428
#     4  12  23  39  69 111 139 181 238 296 350 408
#     4  12  21  40  69 105 140 171 241 297 340 405
#     4  12  24  45  71 107 143 187 234 293 357 425
#
# _framework density 24.014391
#
# number of rings (size 3 to 8) (size 9 to 14) (size 15 to 20)
#    0.000    0.000    7.500    3.750    0.000    0.000 
#    0.000    0.625    0.000    3.000    0.000    0.000 
#    0.000    0.000    0.000    0.000    0.000    0.000 
#
# Total GULP energy -198245.926735 kJ/mol
# GULP energy per Si atom -12390.370421 kJ/mol
# Density = 2.395973 g / cm^3
# Si number density = 24.014391 Si / 1000 Ang^3
#
#
#
# Elastic Constant Matrix: (Units=GPa)
#
#
# Indices 1 2 3 4 5 6 
#
# 1 116.6108 46.4431 25.4771 -6.4438 -13.5110 -21.7769
# 2 46.4431 80.6273 25.5896 -20.6674 -11.3862 -25.5458
# 3 25.4771 25.5896 102.9447 -28.0668 -17.6326 -1.4885
# 4 -6.4438 -20.6674 -28.0668 47.7963 -8.7654 6.5951
# 5 -13.5110 -11.3862 -17.6326 -8.7654 33.2750 -10.8860
# 6 -21.7769 -25.5458 -1.4885 6.5951 -10.8860 51.3166
#
#
#
# Elastic Compliance Matrix: (Units=1/GPa)
#
#
# Indices 1 2 3 4 5 6 
#
# 1 0.011860 -0.005363 -0.001485 -0.001505 0.002814 0.003111
# 2 -0.005363 0.022970 0.000701 0.010421 0.012211 0.010430
# 3 -0.001485 0.000701 0.014547 0.010416 0.010420 0.001012
# 4 -0.001505 0.010421 0.010416 0.034199 0.018947 0.004475
# 5 0.002814 0.012211 0.010420 0.018947 0.051116 0.015984
# 6 0.003111 0.010430 0.001012 0.004475 0.015984 0.028844
#
#
# Mechanical properties :
#
#
# Convention : Reuss Voigt Hill
#
# Bulk Modulus (GPa) = 26.96738 55.02247 40.99493
# Shear Modulus (GPa) = 26.56884 39.98911 33.27897
#
# Velocity S-wave (km/s) = 3.32982 4.08513 3.72666
# Velocity P-wave (km/s) = 5.10271 6.72407 5.96870
#
# Compressibility (1/GPa) = 0.03708184
#
# Stress axis : x y z
#
# Youngs Moduli (GPa) = 84.31851 43.53516 68.74483
#
# Poissons Ratio (x) = 0.23348 0.10211
# Poissons Ratio (y) = 0.45220 -0.04820
# Poissons Ratio (z) = 0.12525 -0.03052
#
# Static dielectric constant tensor:
#      x y z
#    x 5.698240 -0.105850 0.144270 
#    y -0.105850 4.654730 -0.237600 
#    z 0.144270 -0.237600 4.654510 
# 
# 
# High freq. dielectric constant tensor:
#      x y z
#    x 1.953640 -0.036910 -0.014160 
#    y -0.036910 1.942800 -0.018680 
#    z -0.014160 -0.018680 1.965330 
# 
# From -- ./inp_files/566410.got.cif
#   From: 2010.06.25/outbox.cif.g09.slc.cpg/sg2_284_cif.got.tgz:566410.got - 2010.06.27 13:26:56.
