data_PCOD8036294
_publ_section_title
;
Structure prediction by ZEFSAII (Michael W. Deem and Ramdas Pophale) SiO2 
 PCOD8036294
Probable space group: P -1
;
_chemical_formula_sum "Si O2"
_cell_formula_units_Z 16
_cell_length_a 29.597891
_cell_length_b 11.996956
_cell_length_c 5.210150
_cell_angle_alpha 78.442644
_cell_angle_beta 62.953113
_cell_angle_gamma 28.100240
_cell_volume 681.443783
_symmetry_space_group_name_H-M "P -1"
_symmetry_group_IT_number 2
_symmetry_cell_setting 'triclinic'
loop_
_space_group_symop_operation_xyz
x,y,z
-x,-y,-z
loop_
_atom_site_type_symbol
_atom_site_label
_atom_site_fract_x
_atom_site_fract_y
_atom_site_fract_z
Si Si1 0.046936 0.028367 0.435535
Si Si2 0.397518 0.191524 0.876968
Si Si3 0.005576 0.411601 0.778317
Si Si4 0.167397 0.874646 0.682750
Si Si5 0.575489 0.662621 0.911318
Si Si6 0.784094 0.611823 0.836482
Si Si7 0.238943 0.215613 0.698916
Si Si8 0.469887 0.631275 0.269385
O O1 0.923421 0.345852 0.667436
O O2 0.124017 0.876248 0.568804
O O3 0.000000 0.000000 0.500000
O O4 0.116181 0.944594 0.058792
O O5 0.500000 0.000000 0.500000
O O6 0.452906 0.975748 0.002717
O O7 0.369868 0.369193 0.991700
O O8 0.269231 0.409040 0.994522
O O9 0.000000 0.500000 0.500000
O O10 0.124401 0.090127 0.620135
O O11 0.000000 0.500000 0.000000
O O12 0.891991 0.562481 0.010923
O O13 0.313391 0.574603 0.467285
O O14 0.538864 0.611277 0.117670
O O15 0.763351 0.686432 0.562142
O O16 0.712011 0.831106 0.136684
O O17 0.326648 0.938170 0.504970
O O18 0.500000 0.500000 0.500000
O O19 0.500000 0.500000 0.000000
#
# Coordination Sequence:
#
# PCOD8036294 Si02
#       8
#     2   2   2   2   2   2   2   2
#     4  12  25  45  69 106 143 188 230 282 359 426
#     4  11  26  47  77 106 146 195 242 302 368 437
#     4  12  26  46  73 104 139 195 243 295 361 419
#     4  12  27  47  70 108 147 183 238 299 355 427
#     4  11  28  48  72 110 146 191 246 302 367 435
#     4  12  23  46  75 104 144 186 236 295 358 436
#     4  12  25  48  72 104 143 184 245 298 358 431
#     4  12  29  49  73 105 142 192 242 302 361 426
#
# _framework density 23.479558000000001
#
# number of rings (size 3 to 8) (size 9 to 14) (size 15 to 20)
#    0.000    0.250    3.750    4.125   10.500    0.000 
#    0.000    0.000    0.000    0.000    0.000    0.000 
#    0.000    0.000    0.000    0.000    0.000    0.000 
#
# Total GULP energy -198324.654263 kJ/mol
# GULP energy per Si atom -12395.290891 kJ/mol
# Density = 2.342612 g / cm^3
# Si number density = 23.479558 Si / 1000 Ang^3
#
#
#
# Elastic Constant Matrix: (Units=GPa)
#
#
# Indices 1 2 3 4 5 6 
#
# 1 141.5317 24.5531 49.3915 -10.8022 16.0312 14.1023
# 2 24.5531 59.5549 30.8488 3.8944 -2.5185 8.7787
# 3 49.3915 30.8488 142.3138 -4.7478 6.8200 0.1934
# 4 -10.8022 3.8944 -4.7478 51.3339 -1.1907 1.7007
# 5 16.0312 -2.5185 6.8200 -1.1907 42.1991 1.5532
# 6 14.1023 8.7787 0.1934 1.7007 1.5532 40.5123
#
#
#
# Elastic Compliance Matrix: (Units=1/GPa)
#
#
# Indices 1 2 3 4 5 6 
#
# 1 0.009066 -0.002350 -0.002425 0.001877 -0.003044 -0.002597
# 2 -0.002350 0.020550 -0.003843 -0.002224 0.002811 -0.003631
# 3 -0.002425 -0.003843 0.008753 0.000519 -0.000769 0.001643
# 4 0.001877 -0.002224 0.000519 0.020118 -0.000325 -0.001006
# 5 -0.003044 0.002811 -0.000769 -0.000325 0.025155 -0.000497
# 6 -0.002597 -0.003631 0.001643 -0.001006 -0.000497 0.026428
#
#
# Mechanical properties :
#
#
# Convention : Reuss Voigt Hill
#
# Bulk Modulus (GPa) = 47.31839 61.44301 54.38070
# Shear Modulus (GPa) = 37.21569 42.71621 39.96595
#
# Velocity S-wave (km/s) = 3.98556 4.26994 4.13020
# Velocity P-wave (km/s) = 6.43244 7.10883 6.77908
#
# Compressibility (1/GPa) = 0.02113343
#
# Stress axis : x y z
#
# Youngs Moduli (GPa) = 110.29634 48.66103 114.24292
#
# Poissons Ratio (x) = 0.11437 0.27705
# Poissons Ratio (y) = 0.25924 0.43902
# Poissons Ratio (z) = 0.26748 0.18700
#
# Static dielectric constant tensor:
#      x y z
#    x 4.558120 -0.231100 -0.118590 
#    y -0.231100 4.340890 0.361050 
#    z -0.118590 0.361050 4.745910 
# 
# 
# High freq. dielectric constant tensor:
#      x y z
#    x 1.937880 0.002650 0.002920 
#    y 0.002650 1.926480 0.010510 
#    z 0.002920 0.010510 1.953800 
# 
# From -- ./inp_files/128470.got.cif
#   From: 2010.06.25/outbox.cif.g09.slc.cpg/sg2_65_cif.got.tgz:128470.got - 2010.06.27 13:26:56.
