data_PCOD8036828
_publ_section_title
;
Structure prediction by ZEFSAII (Michael W. Deem and Ramdas Pophale) SiO2 
 PCOD8036828
Probable space group: P -1
;
_chemical_formula_sum "Si O2"
_cell_formula_units_Z 16
_cell_length_a 25.436053
_cell_length_b 25.963046
_cell_length_c 8.265621
_cell_angle_alpha 135.062843
_cell_angle_beta 136.347784
_cell_angle_gamma 11.340502
_cell_volume 740.880531
_symmetry_space_group_name_H-M "P -1"
_symmetry_group_IT_number 2
_symmetry_cell_setting 'triclinic'
loop_
_space_group_symop_operation_xyz
x,y,z
-x,-y,-z
loop_
_atom_site_type_symbol
_atom_site_label
_atom_site_fract_x
_atom_site_fract_y
_atom_site_fract_z
Si Si1 0.932256 0.701409 0.588382
Si Si2 0.515138 0.171068 0.220229
Si Si3 0.349428 0.765881 0.857356
Si Si4 0.751995 0.249168 0.116733
Si Si5 0.491755 0.791222 0.351999
Si Si6 0.736622 0.749350 0.077654
Si Si7 0.050830 0.664593 0.088220
Si Si8 0.846354 0.271242 0.656766
O O1 0.209814 0.449661 0.544154
O O2 0.794324 0.750009 0.358161
O O3 0.993171 0.653181 0.806696
O O4 0.733576 0.948173 0.640372
O O5 0.555552 0.175079 0.488043
O O6 0.348323 0.378156 0.191740
O O7 0.347257 0.250939 0.038314
O O8 0.816721 0.877430 0.174321
O O9 0.324356 0.747854 0.931253
O O10 0.553036 0.536619 0.680477
O O11 0.471968 0.732744 0.088200
O O12 0.056174 0.037525 0.722646
O O13 0.832716 0.244776 0.394232
O O14 0.500000 0.500000 0.000000
O O15 0.000000 0.000000 0.000000
O O16 0.000000 0.500000 0.000000
O O17 0.500000 0.000000 0.000000
O O18 0.052883 0.739369 0.167764
#
# Coordination Sequence:
#
# PCOD8036828 Si02
#       8
#     2   2   2   2   2   2   2   2
#     4  12  23  45  68  96 133 173 228 274 324 404
#     4  12  26  41  67 100 135 172 220 283 342 381
#     4  12  24  46  73  99 132 185 225 262 329 403
#     4  12  28  46  69 108 140 172 220 279 331 383
#     4  12  23  42  70  99 126 178 231 270 320 402
#     4  12  23  43  67  94 129 177 225 275 330 401
#     4  12  26  42  66 102 136 168 220 283 338 379
#     4  12  25  47  72  96 139 183 219 268 328 407
#
# _framework density 21.595925999999999
#
# number of rings (size 3 to 8) (size 9 to 14) (size 15 to 20)
#    0.000    0.000    5.000    5.250    3.500    1.000 
#    0.000    0.000    0.000    0.000    0.000    0.000 
#    0.000    0.000    0.000    0.000    0.000    0.000 
#
# Total GULP energy -198533.832551 kJ/mol
# GULP energy per Si atom -12408.364534 kJ/mol
# Density = 2.154677 g / cm^3
# Si number density = 21.595926 Si / 1000 Ang^3
#
#
#
# Elastic Constant Matrix: (Units=GPa)
#
#
# Indices 1 2 3 4 5 6 
#
# 1 84.5630 31.5845 14.4003 9.3303 -6.5257 1.3866
# 2 31.5845 120.4889 22.4242 7.3526 -18.3049 6.2168
# 3 14.4003 22.4242 130.5630 3.5312 -19.1728 1.7006
# 4 9.3303 7.3526 3.5312 35.9395 0.0782 -16.0020
# 5 -6.5257 -18.3049 -19.1728 0.0782 49.4521 -3.3380
# 6 1.3866 6.2168 1.7006 -16.0020 -3.3380 43.6993
#
#
#
# Elastic Compliance Matrix: (Units=1/GPa)
#
#
# Indices 1 2 3 4 5 6 
#
# 1 0.013524 -0.003093 -0.000819 -0.003310 0.000250 -0.001150
# 2 -0.003093 0.009908 -0.000873 -0.001933 0.002804 -0.001771
# 3 -0.000819 -0.000873 0.008324 -0.000496 0.002787 -0.000142
# 4 -0.003310 -0.001933 -0.000496 0.034995 -0.000511 0.013175
# 5 0.000250 0.002804 0.002787 -0.000511 0.022442 0.001012
# 6 -0.001150 -0.001771 -0.000142 0.013175 0.001012 0.028079
#
#
# Mechanical properties :
#
#
# Convention : Reuss Voigt Hill
#
# Bulk Modulus (GPa) = 45.07703 52.49255 48.78479
# Shear Modulus (GPa) = 37.24679 43.63190 40.43935
#
# Velocity S-wave (km/s) = 4.15747 4.49974 4.33199
# Velocity P-wave (km/s) = 6.63056 7.16633 6.90365
#
# Compressibility (1/GPa) = 0.02218425
#
# Stress axis : x y z
#
# Youngs Moduli (GPa) = 73.94411 100.92541 120.13405
#
# Poissons Ratio (x) = 0.31220 0.09841
# Poissons Ratio (y) = 0.22873 0.10493
# Poissons Ratio (z) = 0.06057 0.08815
#
# Static dielectric constant tensor:
#      x y z
#    x 3.914700 -0.005190 0.013170 
#    y -0.005190 4.072030 0.013740 
#    z 0.013170 0.013740 4.219340 
# 
# 
# High freq. dielectric constant tensor:
#      x y z
#    x 1.845020 0.000290 -0.005080 
#    y 0.000290 1.870840 0.002360 
#    z -0.005080 0.002360 1.867080 
# 
# From -- ./inp_files/350004.got.cif
#   From: 2010.06.25/outbox.cif.g09.slc.cpg/sg2_176_cif.got.tgz:350004.got - 2010.06.27 13:26:56.
