data_PCOD8036869
_publ_section_title
;
Structure prediction by ZEFSAII (Michael W. Deem and Ramdas Pophale) SiO2 
 PCOD8036869
Probable space group: P -1
;
_chemical_formula_sum "Si O2"
_cell_formula_units_Z 14
_cell_length_a 23.923862
_cell_length_b 14.511308
_cell_length_c 14.975524
_cell_angle_alpha 29.148281
_cell_angle_beta 21.281754
_cell_angle_gamma 18.875372
_cell_volume 608.924513
_symmetry_space_group_name_H-M "P -1"
_symmetry_group_IT_number 2
_symmetry_cell_setting 'triclinic'
loop_
_space_group_symop_operation_xyz
x,y,z
-x,-y,-z
loop_
_atom_site_type_symbol
_atom_site_label
_atom_site_fract_x
_atom_site_fract_y
_atom_site_fract_z
Si Si1 0.476702 0.424108 0.003304
Si Si2 0.406887 0.397676 0.464304
Si Si3 0.045048 0.126025 0.640064
Si Si4 0.865142 0.343365 0.175508
Si Si5 0.091226 0.127377 0.764739
Si Si6 0.765373 0.706412 0.869215
Si Si7 0.665227 0.909829 0.249107
O O1 0.628331 0.400456 0.725259
O O2 0.500000 0.500000 0.000000
O O3 0.226192 0.659869 0.132912
O O4 0.541905 0.144890 0.155610
O O5 0.293202 0.569143 0.579844
O O6 0.255872 0.357658 0.688152
O O7 0.674473 0.082936 0.346666
O O8 0.139180 0.139623 0.579371
O O9 0.099469 0.218320 0.399481
O O10 0.157330 0.816095 0.721393
O O11 0.770338 0.617192 0.036492
O O12 0.129506 0.144209 0.976730
O O13 0.891117 0.444096 0.836367
O O14 0.000000 0.000000 0.000000
O O15 0.500000 0.000000 0.000000
O O16 0.500000 0.000000 0.500000
#
# Coordination Sequence:
#
# PCOD8036869 Si02
#       7
#     2   2   2   2   2   2   2
#     4  12  23  43  72 104 130 194 246 290 362 440
#     4  12  27  45  72 104 149 189 242 306 364 436
#     4  12  25  46  77 103 149 187 249 296 361 444
#     4  12  27  46  69 112 148 192 235 315 368 419
#     4  12  24  49  76 103 145 196 241 294 371 429
#     4  12  28  46  74 111 147 189 245 303 364 439
#     4  12  24  46  73  99 145 190 247 293 366 436
#
# _framework density 22.991356
#
# number of rings (size 3 to 8) (size 9 to 14) (size 15 to 20)
#    0.000    0.000    5.714    4.286    2.000    4.000 
#    0.000    0.000    0.000    0.000    0.000    0.000 
#    0.000    0.000    0.000    0.000    0.000    0.000 
#
# Total GULP energy -173567.965160 kJ/mol
# GULP energy per Si atom -12397.711797 kJ/mol
# Density = 2.293903 g / cm^3
# Si number density = 22.991356 Si / 1000 Ang^3
#
#
#
# Elastic Constant Matrix: (Units=GPa)
#
#
# Indices 1 2 3 4 5 6 
#
# 1 97.1016 27.1429 34.7915 -2.6596 19.7850 -7.8870
# 2 27.1429 110.2319 50.2364 -10.5013 16.1169 -4.5728
# 3 34.7915 50.2364 128.3190 -25.2953 25.6603 -0.2398
# 4 -2.6596 -10.5013 -25.2953 49.7310 -5.4726 7.8255
# 5 19.7850 16.1169 25.6603 -5.4726 45.4879 -12.1463
# 6 -7.8870 -4.5728 -0.2398 7.8255 -12.1463 32.4203
#
#
#
# Elastic Compliance Matrix: (Units=1/GPa)
#
#
# Indices 1 2 3 4 5 6 
#
# 1 0.012352 -0.001548 -0.002422 -0.001552 -0.003117 0.001976
# 2 -0.001548 0.011379 -0.003808 0.000150 -0.000979 0.000797
# 3 -0.002422 -0.003808 0.011925 0.005250 -0.004787 -0.004099
# 4 -0.001552 0.000150 0.005250 0.023611 -0.001229 -0.006477
# 5 -0.003117 -0.000979 -0.004787 -0.001229 0.028968 0.010217
# 6 0.001976 0.000797 -0.004099 -0.006477 0.010217 0.036799
#
#
# Mechanical properties :
#
#
# Convention : Reuss Voigt Hill
#
# Bulk Modulus (GPa) = 49.75126 62.22157 55.98641
# Shear Modulus (GPa) = 33.94646 40.42663 37.18654
#
# Velocity S-wave (km/s) = 3.84668 4.19781 4.02607
# Velocity P-wave (km/s) = 6.43547 7.11458 6.78353
#
# Compressibility (1/GPa) = 0.02009999
#
# Stress axis : x y z
#
# Youngs Moduli (GPa) = 80.95831 87.88109 83.85500
#
# Poissons Ratio (x) = 0.13603 0.20310
# Poissons Ratio (y) = 0.12531 0.31935
# Poissons Ratio (z) = 0.19608 0.33468
#
# Static dielectric constant tensor:
#      x y z
#    x 4.581920 -0.336380 0.292000 
#    y -0.336380 4.817150 -0.785760 
#    z 0.292000 -0.785760 4.835240 
# 
# 
# High freq. dielectric constant tensor:
#      x y z
#    x 1.908930 -0.006920 0.007720 
#    y -0.006920 1.907470 -0.019780 
#    z 0.007720 -0.019780 1.924380 
# 
# From -- ./inp_files/542994.got.cif
#   From: 2010.06.25/outbox.cif.g09.slc.cpg/sg2_272_cif.got.tgz:542994.got - 2010.06.27 13:26:56.
