data_PCOD8036215
_publ_section_title
;
Structure prediction by ZEFSAII (Michael W. Deem and Ramdas Pophale) SiO2 
 PCOD8036215
Probable space group: P -1
;
_chemical_formula_sum "Si O2"
_cell_formula_units_Z 10
_cell_length_a 11.859685
_cell_length_b 11.833899
_cell_length_c 11.254159
_cell_angle_alpha 146.143116
_cell_angle_beta 37.204054
_cell_angle_gamma 157.125423
_cell_volume 338.448033
_symmetry_space_group_name_H-M "P -1"
_symmetry_group_IT_number 2
_symmetry_cell_setting 'triclinic'
loop_
_space_group_symop_operation_xyz
x,y,z
-x,-y,-z
loop_
_atom_site_type_symbol
_atom_site_label
_atom_site_fract_x
_atom_site_fract_y
_atom_site_fract_z
Si Si1 0.683879 0.490055 0.406626
Si Si2 0.649643 0.338140 0.803960
Si Si3 0.889609 0.015033 0.909825
Si Si4 0.566364 0.807579 0.400277
Si Si5 0.801513 0.136323 0.840658
O O1 0.500000 0.500000 0.500000
O O2 0.628148 0.468316 0.575263
O O3 0.024796 0.815647 0.377645
O O4 0.540920 0.150620 0.174358
O O5 0.628806 0.358090 0.698969
O O6 0.611220 0.073319 0.640117
O O7 0.972544 0.669639 0.867524
O O8 0.414331 0.282427 0.024014
O O9 0.117151 0.022903 0.742169
O O10 0.826227 0.005407 0.816735
O O11 0.000000 0.500000 0.000000
#
# Coordination Sequence:
#
# PCOD8036215 Si02
#       5
#     2   2   2   2   2
#     4  12  25  44  68 102 136 181 229 280 353 412
#     4  11  27  46  69 108 133 186 234 288 341 419
#     4  12  25  46  72 101 142 179 235 284 354 407
#     4  11  26  46  74  98 146 180 234 287 349 410
#     4  12  25  44  70 101 139 181 232 288 343 418
#
# _framework density 29.546633
#
# number of rings (size 3 to 8) (size 9 to 14) (size 15 to 20)
#    0.000    0.400    2.000    6.000    0.000    6.400 
#    0.000    0.000    0.000    0.000    0.000    0.000 
#    0.000    0.000    0.000    0.000    0.000    0.000 
#
# Total GULP energy -124051.167497 kJ/mol
# GULP energy per Si atom -12405.116750 kJ/mol
# Density = 2.947938 g / cm^3
# Si number density = 29.546633 Si / 1000 Ang^3
#
#
#
# Elastic Constant Matrix: (Units=GPa)
#
#
# Indices 1 2 3 4 5 6 
#
# 1 138.5341 33.1307 12.8668 -11.8858 23.0716 -19.4981
# 2 33.1307 158.8477 9.1719 -25.8887 15.6187 9.2926
# 3 12.8668 9.1719 71.5391 -2.8489 22.5646 -3.3010
# 4 -11.8858 -25.8887 -2.8489 31.0594 5.6757 5.8712
# 5 23.0716 15.6187 22.5646 5.6757 59.1125 3.1799
# 6 -19.4981 9.2926 -3.3010 5.8712 3.1799 54.5276
#
#
#
# Elastic Compliance Matrix: (Units=1/GPa)
#
#
# Indices 1 2 3 4 5 6 
#
# 1 0.008773 -0.001313 -0.000081 0.002258 -0.003441 0.003313
# 2 -0.001313 0.008086 0.000061 0.007114 -0.002197 -0.002482
# 3 -0.000081 0.000061 0.016167 0.002483 -0.006451 0.001048
# 4 0.002258 0.007114 0.002483 0.041388 -0.007453 -0.004276
# 5 -0.003441 -0.002197 -0.006451 -0.007453 0.022112 -0.001734
# 6 0.003313 -0.002482 0.001048 -0.004276 -0.001734 0.020572
#
#
# Mechanical properties :
#
#
# Convention : Reuss Voigt Hill
#
# Bulk Modulus (GPa) = 32.93700 53.25108 43.09404
# Shear Modulus (GPa) = 38.49586 49.85667 44.17627
#
# Velocity S-wave (km/s) = 3.61347 4.11224 3.87090
# Velocity P-wave (km/s) = 5.34614 6.37254 5.88177
#
# Compressibility (1/GPa) = 0.03036099
#
# Stress axis : x y z
#
# Youngs Moduli (GPa) = 113.98457 123.66786 61.85429
#
# Poissons Ratio (x) = 0.16231 0.00503
# Poissons Ratio (y) = 0.14960 -0.00378
# Poissons Ratio (z) = 0.00927 -0.00756
#
# Static dielectric constant tensor:
#      x y z
#    x 5.135510 0.218920 0.055120 
#    y 0.218920 7.718710 -0.240460 
#    z 0.055120 -0.240460 7.227310 
# 
# 
# High freq. dielectric constant tensor:
#      x y z
#    x 2.195070 -0.000110 0.006820 
#    y -0.000110 2.233710 0.012250 
#    z 0.006820 0.012250 2.260430 
# 
# From -- ./inp_files/714.got.cif
#   From: 2010.06.25/outbox.cif.g09.slc.cpg/sg2_1_cif.got.tgz:714.got - 2010.06.27 13:26:56.
