data_PCOD8036579
_publ_section_title
;
Structure prediction by ZEFSAII (Michael W. Deem and Ramdas Pophale) SiO2 
 PCOD8036579
Probable space group: P -1
;
_chemical_formula_sum "Si O2"
_cell_formula_units_Z 14
_cell_length_a 11.421671
_cell_length_b 8.885730
_cell_length_c 9.821022
_cell_angle_alpha 51.219917
_cell_angle_beta 116.074159
_cell_angle_gamma 121.345726
_cell_volume 653.849412
_symmetry_space_group_name_H-M "P -1"
_symmetry_group_IT_number 2
_symmetry_cell_setting 'triclinic'
loop_
_space_group_symop_operation_xyz
x,y,z
-x,-y,-z
loop_
_atom_site_type_symbol
_atom_site_label
_atom_site_fract_x
_atom_site_fract_y
_atom_site_fract_z
Si Si1 0.450783 0.262615 0.068915
Si Si2 0.238039 0.152905 0.777118
Si Si3 0.286176 0.965646 0.381458
Si Si4 0.314026 0.904734 0.734170
Si Si5 0.131693 0.524890 0.457669
Si Si6 0.040800 0.098281 0.109711
Si Si7 0.049008 0.520243 0.860734
O O1 0.576736 0.202733 0.103628
O O2 0.397915 0.130084 0.252520
O O3 0.500000 0.500000 0.000000
O O4 0.328846 0.209209 0.927309
O O5 0.193531 0.344856 0.607376
O O6 0.323029 0.093393 0.732605
O O7 0.100005 0.953010 0.844945
O O8 0.348991 0.990881 0.550574
O O9 0.255574 0.736688 0.436842
O O10 0.142853 0.009624 0.291441
O O11 0.159717 0.737085 0.752166
O O12 0.000000 0.500000 0.500000
O O13 0.086355 0.527464 0.276778
O O14 0.115076 0.341137 0.980770
O O15 0.000000 0.000000 0.000000
O O16 0.000000 0.500000 0.000000
#
# Coordination Sequence:
#
# PCOD8036579 Si02
#       7
#     2   2   2   2   2   2   2
#     4  12  27  50  74  94 135 190 236 272 336 422
#     4  12  25  45  68 102 140 177 225 290 342 397
#     4  12  25  44  74  99 138 178 234 279 343 404
#     4  12  27  45  67 105 143 177 229 285 342 407
#     4  12  23  43  71 104 139 176 225 285 340 409
#     4  12  21  40  71 101 133 180 227 283 336 401
#     4  12  24  40  68 104 140 175 224 284 351 393
#
# _framework density 21.411657999999999
#
# number of rings (size 3 to 8) (size 9 to 14) (size 15 to 20)
#    0.000    0.000    7.143    2.571    2.000    1.143 
#    0.000    1.429    0.000    0.000    0.000    0.000 
#    0.000    0.000    0.000    0.000    0.000    0.000 
#
# Total GULP energy -173654.267026 kJ/mol
# GULP energy per Si atom -12403.876216 kJ/mol
# Density = 2.136292 g / cm^3
# Si number density = 21.411658 Si / 1000 Ang^3
#
#
#
# Elastic Constant Matrix: (Units=GPa)
#
#
# Indices 1 2 3 4 5 6 
#
# 1 99.9904 43.1895 37.2410 -4.8443 6.4161 -18.2355
# 2 43.1895 102.7435 40.0916 -22.7626 -8.3897 -15.3960
# 3 37.2410 40.0916 121.6854 -5.4833 -0.7752 -17.9178
# 4 -4.8443 -22.7626 -5.4833 42.0340 -4.3279 1.6124
# 5 6.4161 -8.3897 -0.7752 -4.3279 48.8410 -5.5009
# 6 -18.2355 -15.3960 -17.9178 1.6124 -5.5009 37.7421
#
#
#
# Elastic Compliance Matrix: (Units=1/GPa)
#
#
# Indices 1 2 3 4 5 6 
#
# 1 0.013623 -0.005008 -0.002139 -0.001800 -0.002478 0.003239
# 2 -0.005008 0.015398 -0.002745 0.007733 0.004265 0.002850
# 3 -0.002139 -0.002745 0.010158 -0.000489 0.000234 0.002724
# 4 -0.001800 0.007733 -0.000489 0.028084 0.004211 0.001467
# 5 -0.002478 0.004265 0.000234 0.004211 0.022330 0.003728
# 6 0.003239 0.002850 0.002724 0.001467 0.003728 0.030997
#
#
# Mechanical properties :
#
#
# Convention : Reuss Voigt Hill
#
# Bulk Modulus (GPa) = 51.56208 62.82929 57.19569
# Shear Modulus (GPa) = 34.05088 39.31659 36.68374
#
# Velocity S-wave (km/s) = 3.99218 4.28977 4.14364
# Velocity P-wave (km/s) = 6.73673 7.34461 7.04723
#
# Compressibility (1/GPa) = 0.01939410
#
# Stress axis : x y z
#
# Youngs Moduli (GPa) = 73.40317 64.94416 98.44772
#
# Poissons Ratio (x) = 0.32523 0.21061
# Poissons Ratio (y) = 0.36759 0.27027
# Poissons Ratio (z) = 0.15703 0.17829
#
# Static dielectric constant tensor:
#      x y z
#    x -16.396900 -10.089360 2.155690 
#    y -10.089360 -1.025320 1.060080 
#    z 2.155690 1.060080 3.746220 
# 
# 
# High freq. dielectric constant tensor:
#      x y z
#    x 1.834280 -0.008420 0.004710 
#    y -0.008420 1.848370 -0.003700 
#    z 0.004710 -0.003700 1.856840 
# 
# From -- ./inp_files/159649.got.cif
#   From: 2010.06.25/outbox.cif.g09.slc.cpg/sg2_80_cif.got.tgz:159649.got - 2010.06.27 13:26:56.
