data_PCOD8036668
_publ_section_title
;
Structure prediction by ZEFSAII (Michael W. Deem and Ramdas Pophale) SiO2 
 PCOD8036668
Probable space group: P -1
;
_chemical_formula_sum "Si O2"
_cell_formula_units_Z 14
_cell_length_a 14.998520
_cell_length_b 29.175318
_cell_length_c 24.172172
_cell_angle_alpha 10.324309
_cell_angle_beta 21.771626
_cell_angle_gamma 20.015522
_cell_volume 647.260417
_symmetry_space_group_name_H-M "P -1"
_symmetry_group_IT_number 2
_symmetry_cell_setting 'triclinic'
loop_
_space_group_symop_operation_xyz
x,y,z
-x,-y,-z
loop_
_atom_site_type_symbol
_atom_site_label
_atom_site_fract_x
_atom_site_fract_y
_atom_site_fract_z
Si Si1 0.065917 0.559831 0.830015
Si Si2 0.917517 0.654315 0.213931
Si Si3 0.026082 0.159295 0.155122
Si Si4 0.213846 0.727265 0.729082
Si Si5 0.554277 0.180714 0.856721
Si Si6 0.655081 0.218718 0.873327
Si Si7 0.793339 0.634757 0.507359
O O1 0.347524 0.333249 0.922858
O O2 0.063632 0.861086 0.464749
O O3 0.000000 0.500000 0.000000
O O4 0.849996 0.533341 0.944462
O O5 0.759116 0.455614 0.545675
O O6 0.140640 0.551784 0.253678
O O7 0.035282 0.636717 0.105219
O O8 0.727747 0.975852 0.952239
O O9 0.794774 0.258978 0.215209
O O10 0.280707 0.147151 0.055661
O O11 0.506630 0.672421 0.606211
O O12 0.000000 0.000000 0.500000
O O13 0.500000 0.500000 0.500000
O O14 0.710012 0.098332 0.922141
O O15 0.790357 0.939198 0.163751
O O16 0.000000 0.500000 0.500000
#
# Coordination Sequence:
#
# PCOD8036668 Si02
#       7
#     2   2   2   2   2   2   2
#     4  12  24  40  73 104 135 184 238 292 349 410
#     4  12  27  43  70 107 145 189 232 287 366 420
#     4  12  24  43  70 105 146 179 238 295 346 422
#     4  12  25  48  72 103 139 185 240 293 347 417
#     4  12  22  41  71 107 143 180 236 290 350 412
#     4  12  23  44  72 104 143 185 235 292 348 425
#     4  12  27  49  72 101 146 191 234 294 357 421
#
# _framework density 21.629625999999998
#
# number of rings (size 3 to 8) (size 9 to 14) (size 15 to 20)
#    0.000    0.000    8.571    1.714    2.000    0.571 
#    2.571    0.714    0.000    0.000    0.000    0.000 
#    0.000    0.000    0.000    0.000    0.000    0.000 
#
# Total GULP energy -173600.793493 kJ/mol
# GULP energy per Si atom -12400.056678 kJ/mol
# Density = 2.158040 g / cm^3
# Si number density = 21.629626 Si / 1000 Ang^3
#
#
#
# Elastic Constant Matrix: (Units=GPa)
#
#
# Indices 1 2 3 4 5 6 
#
# 1 99.7874 41.9191 32.5287 -3.1304 6.6122 4.6400
# 2 41.9191 116.3676 47.2579 8.8974 -3.8368 2.2939
# 3 32.5287 47.2579 135.5315 -12.3437 -15.3064 -2.5294
# 4 -3.1304 8.8974 -12.3437 31.3341 4.9337 -0.3747
# 5 6.6122 -3.8368 -15.3064 4.9337 49.6453 3.3016
# 6 4.6400 2.2939 -2.5294 -0.3747 3.3016 35.2082
#
#
#
# Elastic Compliance Matrix: (Units=1/GPa)
#
#
# Indices 1 2 3 4 5 6 
#
# 1 0.012592 -0.004056 -0.001737 0.002129 -0.002655 -0.001248
# 2 -0.004056 0.011970 -0.003596 -0.005376 0.000934 -0.000648
# 3 -0.001737 -0.003596 0.009738 0.004308 0.002463 0.000978
# 4 0.002129 -0.005376 0.004308 0.035835 -0.003001 0.001042
# 5 -0.002655 0.000934 0.002463 -0.003001 0.021733 -0.001604
# 6 -0.001248 -0.000648 0.000978 0.001042 -0.001604 0.028841
#
#
# Mechanical properties :
#
#
# Convention : Reuss Voigt Hill
#
# Bulk Modulus (GPa) = 64.43121 66.12198 65.27660
# Shear Modulus (GPa) = 34.56324 38.56957 36.56641
#
# Velocity S-wave (km/s) = 4.00178 4.22736 4.11612
# Velocity P-wave (km/s) = 7.15580 7.37996 7.26874
#
# Compressibility (1/GPa) = 0.01552043
#
# Stress axis : x y z
#
# Youngs Moduli (GPa) = 79.41351 83.54376 102.69058
#
# Poissons Ratio (x) = 0.33888 0.17839
# Poissons Ratio (y) = 0.32213 0.36931
# Poissons Ratio (z) = 0.13795 0.30045
#
# Static dielectric constant tensor:
#      x y z
#    x 4.039640 0.066630 -0.112130 
#    y 0.066630 3.724280 -0.054460 
#    z -0.112130 -0.054460 4.149620 
# 
# 
# High freq. dielectric constant tensor:
#      x y z
#    x 1.855160 0.014220 -0.006720 
#    y 0.014220 1.831310 0.003060 
#    z -0.006720 0.003060 1.865450 
# 
# From -- ./inp_files/348676.got.cif
#   From: 2010.06.25/outbox.cif.g09.slc.cpg/sg2_175_cif.got.tgz:348676.got - 2010.06.27 13:26:56.
