data_PCOD8036572
_publ_section_title
;
Structure prediction by ZEFSAII (Michael W. Deem and Ramdas Pophale) SiO2 
 PCOD8036572
Probable space group: P -1
;
_chemical_formula_sum "Si O2"
_cell_formula_units_Z 16
_cell_length_a 9.155641
_cell_length_b 12.658248
_cell_length_c 8.420012
_cell_angle_alpha 111.132325
_cell_angle_beta 74.805182
_cell_angle_gamma 114.274263
_cell_volume 822.257717
_symmetry_space_group_name_H-M "P -1"
_symmetry_group_IT_number 2
_symmetry_cell_setting 'triclinic'
loop_
_space_group_symop_operation_xyz
x,y,z
-x,-y,-z
loop_
_atom_site_type_symbol
_atom_site_label
_atom_site_fract_x
_atom_site_fract_y
_atom_site_fract_z
Si Si1 0.305394 0.665766 0.311872
Si Si2 0.891071 0.221878 0.751184
Si Si3 0.766497 0.747156 0.239882
Si Si4 0.405528 0.884305 0.627567
Si Si5 0.600080 0.140924 0.038380
Si Si6 0.746160 0.992928 0.482165
Si Si7 0.551948 0.694414 0.988047
Si Si8 0.527862 0.471551 0.655515
O O1 0.137006 0.673241 0.296621
O O2 0.399103 0.794531 0.435375
O O3 0.307811 0.562484 0.383164
O O4 0.404562 0.642286 0.123289
O O5 0.067436 0.279915 0.809404
O O6 0.886334 0.106048 0.583515
O O7 0.756888 0.181182 0.904867
O O8 0.799061 0.877861 0.380860
O O9 0.626942 0.643827 0.315812
O O10 0.719834 0.746152 0.066651
O O11 0.340557 0.816637 0.775406
O O12 0.594363 0.966122 0.631747
O O13 0.301706 0.967819 0.655309
O O14 0.470252 0.199660 0.052782
O O15 0.500000 0.000000 0.000000
O O16 0.549836 0.587121 0.817080
O O17 0.500000 0.500000 0.500000
#
# Coordination Sequence:
#
# PCOD8036572 Si02
#       8
#     2   2   2   2   2   2   2   2
#     4   9  18  37  56  80 111 147 190 225 276 339
#     4  10  22  35  56  85 118 154 183 225 290 336
#     4  11  21  39  56  82 118 151 185 233 286 336
#     4  10  17  31  58  84 108 147 194 232 262 325
#     4  11  20  34  57  85 113 146 190 234 268 332
#     4  10  18  33  57  85 114 151 187 225 282 336
#     4  10  21  36  58  83 109 149 192 230 278 338
#     4  11  22  38  61  86 105 143 198 240 276 329
#
# _framework density 19.45862
#
# number of rings (size 3 to 8) (size 9 to 14) (size 15 to 20)
#    0.000    1.750    3.750    3.375    0.000    0.000 
#    0.000   11.250    0.000    0.000    0.000    0.000 
#    0.000    0.000    0.000    0.000    0.000    0.000 
#
# Total GULP energy -198257.909075 kJ/mol
# GULP energy per Si atom -12391.119317 kJ/mol
# Density = 1.941433 g / cm^3
# Si number density = 19.458620 Si / 1000 Ang^3
#
#
#
# Elastic Constant Matrix: (Units=GPa)
#
#
# Indices 1 2 3 4 5 6 
#
# 1 140.9453 56.1020 43.8987 -1.2822 16.4880 -27.7174
# 2 56.1020 96.1585 41.0282 -1.2511 5.2806 -37.7955
# 3 43.8987 41.0282 99.6451 -0.7458 14.4111 -16.6619
# 4 -1.2822 -1.2511 -0.7458 34.6992 -8.7596 5.1955
# 5 16.4880 5.2806 14.4111 -8.7596 19.6758 -4.1121
# 6 -27.7174 -37.7955 -16.6619 5.1955 -4.1121 28.7715
#
#
#
# Elastic Compliance Matrix: (Units=1/GPa)
#
#
# Indices 1 2 3 4 5 6 
#
# 1 0.010572 -0.003612 -0.001531 -0.002100 -0.006878 0.003949
# 2 -0.003612 0.025309 -0.004816 -0.002372 0.004570 0.028060
# 3 -0.001531 -0.004816 0.013804 -0.001995 -0.008564 -0.000671
# 4 -0.002100 -0.002372 -0.001995 0.034433 0.017082 -0.010071
# 5 -0.006878 0.004570 -0.008564 0.017082 0.069503 0.001267
# 6 0.003949 0.028060 -0.000671 -0.010071 0.001267 0.077032
#
#
# Mechanical properties :
#
#
# Convention : Reuss Voigt Hill
#
# Bulk Modulus (GPa) = 33.59462 68.75631 51.17547
# Shear Modulus (GPa) = 19.19428 29.67730 24.43579
#
# Velocity S-wave (km/s) = 3.14413 3.90955 3.54755
# Velocity P-wave (km/s) = 5.52113 7.46932 6.56786
#
# Compressibility (1/GPa) = 0.02976667
#
# Stress axis : x y z
#
# Youngs Moduli (GPa) = 94.59365 39.51152 72.44027
#
# Poissons Ratio (x) = 0.14272 0.11089
# Poissons Ratio (y) = 0.34169 0.34890
# Poissons Ratio (z) = 0.14480 0.19030
#
# Static dielectric constant tensor:
#      x y z
#    x 3.634090 -0.549730 0.311140 
#    y -0.549730 3.647160 -0.130760 
#    z 0.311140 -0.130760 3.705150 
# 
# 
# High freq. dielectric constant tensor:
#      x y z
#    x 1.744250 -0.039120 0.019840 
#    y -0.039120 1.744650 0.011900 
#    z 0.019840 0.011900 1.759590 
# 
# From -- ./inp_files/176636.got.cif
#   From: 2010.06.25/outbox.cif.g09.slc.cpg/sg2_89_cif.got.tgz:176636.got - 2010.06.27 13:26:56.
