data_PCOD8036142
_publ_section_title
;
Structure prediction by ZEFSAII (Michael W. Deem and Ramdas Pophale) SiO2 
 PCOD8036142
Probable space group: P -1
;
_chemical_formula_sum "Si O2"
_cell_formula_units_Z 16
_cell_length_a 9.098424
_cell_length_b 5.365972
_cell_length_c 21.210308
_cell_angle_alpha 55.643381
_cell_angle_beta 53.902094
_cell_angle_gamma 55.374474
_cell_volume 646.178817
_symmetry_space_group_name_H-M "P -1"
_symmetry_group_IT_number 2
_symmetry_cell_setting 'triclinic'
loop_
_space_group_symop_operation_xyz
x,y,z
-x,-y,-z
loop_
_atom_site_type_symbol
_atom_site_label
_atom_site_fract_x
_atom_site_fract_y
_atom_site_fract_z
Si Si1 0.602942 0.638892 0.005452
Si Si2 0.135181 0.216978 0.277212
Si Si3 0.086306 0.682924 0.564156
Si Si4 0.479038 0.719507 0.812042
Si Si5 0.626487 0.491113 0.676159
Si Si6 0.297033 0.096327 0.504509
Si Si7 0.989071 0.642526 0.051878
Si Si8 0.234323 0.415379 0.767664
O O1 0.632566 0.440628 0.091334
O O2 0.500000 0.500000 0.000000
O O3 0.814064 0.590781 0.930958
O O4 0.500000 0.000000 0.000000
O O5 0.340228 0.241435 0.199133
O O6 0.063643 0.388182 0.338962
O O7 0.960761 0.366908 0.249865
O O8 0.191295 0.838720 0.333240
O O9 0.157634 0.374354 0.545209
O O10 0.242009 0.773746 0.556711
O O11 0.000000 0.000000 0.500000
O O12 0.589352 0.502554 0.757872
O O13 0.317680 0.041858 0.777983
O O14 0.694048 0.764551 0.588197
O O15 0.415034 0.533184 0.692855
O O16 0.500000 0.000000 0.500000
O O17 0.812268 0.603505 0.142659
O O18 0.000000 0.500000 0.000000
O O19 0.000000 0.000000 0.000000
#
# Coordination Sequence:
#
# PCOD8036142 Si02
#       8
#     2   2   2   2   2   2   2   2
#     4  12  27  47  75 105 141 188 240 294 356 426
#     4  11  26  45  72 103 145 188 240 291 363 424
#     4  12  25  47  73 105 141 191 240 297 353 426
#     4  11  26  46  71 102 148 184 236 298 357 424
#     4  11  26  46  69 104 145 189 233 302 355 426
#     4  12  27  46  75 104 145 189 244 295 360 423
#     4  12  25  47  73 101 141 186 236 294 353 421
#     4  11  26  46  70 105 141 190 236 294 360 427
#
# _framework density 24.760947000000002
#
# number of rings (size 3 to 8) (size 9 to 14) (size 15 to 20)
#    0.000    0.500    2.500    4.500   10.500    1.000 
#    0.000    0.000    0.000    0.000    0.000    0.000 
#    0.000    0.000    0.000    0.000    0.000    0.000 
#
# Total GULP energy -198225.634803 kJ/mol
# GULP energy per Si atom -12389.102175 kJ/mol
# Density = 2.470459 g / cm^3
# Si number density = 24.760947 Si / 1000 Ang^3
#
#
#
# Elastic Constant Matrix: (Units=GPa)
#
#
# Indices 1 2 3 4 5 6 
#
# 1 93.9751 40.3706 -3.2276 2.1463 6.4391 -13.8127
# 2 40.3706 107.8766 16.6467 12.2376 -4.5826 -7.5460
# 3 -3.2276 16.6467 98.6468 17.0531 -2.5984 2.7279
# 4 2.1463 12.2376 17.0531 39.6129 4.7650 7.6195
# 5 6.4391 -4.5826 -2.5984 4.7650 41.7729 3.2521
# 6 -13.8127 -7.5460 2.7279 7.6195 3.2521 55.0851
#
#
#
# Elastic Compliance Matrix: (Units=1/GPa)
#
#
# Indices 1 2 3 4 5 6 
#
# 1 0.013496 -0.005173 0.001132 0.000187 -0.002814 0.002760
# 2 -0.005173 0.011958 -0.001603 -0.003140 0.002312 0.000718
# 3 0.001132 -0.001603 0.011248 -0.004527 0.000859 0.000083
# 4 0.000187 -0.003140 -0.004527 0.029367 -0.003693 -0.004003
# 5 -0.002814 0.002312 0.000859 -0.003693 0.025211 -0.001409
# 6 0.002760 0.000718 0.000083 -0.004003 -0.001409 0.019577
#
#
# Mechanical properties :
#
#
# Convention : Reuss Voigt Hill
#
# Bulk Modulus (GPa) = 39.35058 45.34199 42.34629
# Shear Modulus (GPa) = 38.27974 43.74143 41.01059
#
# Velocity S-wave (km/s) = 3.93615 4.20759 4.07413
# Velocity P-wave (km/s) = 6.04850 6.47740 6.26663
#
# Compressibility (1/GPa) = 0.02541259
#
# Stress axis : x y z
#
# Youngs Moduli (GPa) = 74.09344 83.62719 88.90656
#
# Poissons Ratio (x) = 0.43262 -0.10062
# Poissons Ratio (y) = 0.38330 0.14255
# Poissons Ratio (z) = -0.08385 0.13408
#
# Static dielectric constant tensor:
#      x y z
#    x 4.812030 -0.119910 -0.405020 
#    y -0.119910 4.495380 0.119210 
#    z -0.405020 0.119210 4.617280 
# 
# 
# High freq. dielectric constant tensor:
#      x y z
#    x 2.000520 -0.009140 -0.010220 
#    y -0.009140 1.987360 0.017980 
#    z -0.010220 0.017980 1.993950 
# 
# From -- ./inp_files/551292.got.cif
#   From: 2010.06.25/outbox.cif.g09.slc.cpg/sg2_276_cif.got.tgz:551292.got - 2010.06.27 13:26:56.
