data_PCOD8036286
_publ_section_title
;
Structure prediction by ZEFSAII (Michael W. Deem and Ramdas Pophale) SiO2 
 PCOD8036286
Probable space group: P -1
;
_chemical_formula_sum "Si O2"
_cell_formula_units_Z 16
_cell_length_a 16.853827
_cell_length_b 5.106512
_cell_length_c 8.587861
_cell_angle_alpha 89.212481
_cell_angle_beta 71.892522
_cell_angle_gamma 104.540009
_cell_volume 676.612950
_symmetry_space_group_name_H-M "P -1"
_symmetry_group_IT_number 2
_symmetry_cell_setting 'triclinic'
loop_
_space_group_symop_operation_xyz
x,y,z
-x,-y,-z
loop_
_atom_site_type_symbol
_atom_site_label
_atom_site_fract_x
_atom_site_fract_y
_atom_site_fract_z
Si Si1 0.803571 0.485976 0.303210
Si Si2 0.993097 0.744388 0.112308
Si Si3 0.722281 0.922107 0.222489
Si Si4 0.914816 0.026138 0.642182
Si Si5 0.653644 0.138979 0.975298
Si Si6 0.804865 0.431128 0.650579
Si Si7 0.551576 0.789793 0.519126
Si Si8 0.505433 0.744405 0.882112
O O1 0.903350 0.648990 0.260053
O O2 0.758752 0.660437 0.216262
O O3 0.765958 0.461850 0.502596
O O4 0.794225 0.198250 0.225940
O O5 0.066363 0.840868 0.198599
O O6 0.000000 0.500000 0.000000
O O7 0.000000 0.000000 0.000000
O O8 0.645510 0.893557 0.389188
O O9 0.693817 0.945009 0.060273
O O10 0.866494 0.228728 0.586666
O O11 0.853478 0.721378 0.692337
O O12 0.000000 0.000000 0.500000
O O13 0.727274 0.314448 0.818283
O O14 0.567840 0.004721 0.927647
O O15 0.596381 0.292424 0.114113
O O16 0.500000 0.500000 0.500000
O O17 0.563104 0.752147 0.694838
O O18 0.500000 0.000000 0.500000
O O19 0.500000 0.500000 0.000000
#
# Coordination Sequence:
#
# PCOD8036286 Si02
#       8
#     2   2   2   2   2   2   2   2
#     4  12  28  48  73 107 150 193 242 306 374 438
#     4  12  28  48  76 112 149 196 247 307 377 448
#     4  12  27  46  73 106 149 194 245 306 367 443
#     4  12  27  51  81 108 151 201 253 305 375 451
#     4  11  28  47  72 112 147 192 252 304 373 437
#     4  12  28  48  80 111 149 197 252 311 368 448
#     4  12  25  47  73 104 141 194 243 299 367 440
#     4  11  26  47  76 104 149 197 245 312 365 443
#
# _framework density 23.647196999999998
#
# number of rings (size 3 to 8) (size 9 to 14) (size 15 to 20)
#    0.000    0.250    2.500    4.875   14.000    0.000 
#    0.000    0.000    0.000    0.000    0.000    0.000 
#    0.000    0.000    0.000    0.000    0.000    0.000 
#
# Total GULP energy -198286.576917 kJ/mol
# GULP energy per Si atom -12392.911057 kJ/mol
# Density = 2.359337 g / cm^3
# Si number density = 23.647197 Si / 1000 Ang^3
#
#
#
# Elastic Constant Matrix: (Units=GPa)
#
#
# Indices 1 2 3 4 5 6 
#
# 1 96.6461 41.1010 32.4283 -9.9574 6.4457 2.5516
# 2 41.1010 142.7098 34.7229 -11.2209 4.9611 -6.6690
# 3 32.4283 34.7229 147.8171 -15.6860 11.9808 8.4267
# 4 -9.9574 -11.2209 -15.6860 43.0874 2.7851 2.8472
# 5 6.4457 4.9611 11.9808 2.7851 40.5683 -3.9447
# 6 2.5516 -6.6690 8.4267 2.8472 -3.9447 39.6645
#
#
#
# Elastic Compliance Matrix: (Units=1/GPa)
#
#
# Indices 1 2 3 4 5 6 
#
# 1 0.012507 -0.003077 -0.001667 0.001650 -0.001351 -0.001221
# 2 -0.003077 0.008364 -0.001297 0.000877 -0.000035 0.001813
# 3 -0.001667 -0.001297 0.008016 0.002493 -0.002331 -0.002225
# 4 0.001650 0.000877 0.002493 0.025097 -0.003081 -0.002596
# 5 -0.001351 -0.000035 -0.002331 -0.003081 0.026099 0.003393
# 6 -0.001221 0.001813 -0.002225 -0.002596 0.003393 0.026591
#
#
# Mechanical properties :
#
#
# Convention : Reuss Voigt Hill
#
# Bulk Modulus (GPa) = 59.50605 67.07526 63.29066
# Shear Modulus (GPa) = 40.20682 43.25876 41.73279
#
# Velocity S-wave (km/s) = 4.12792 4.28172 4.20552
# Velocity P-wave (km/s) = 6.92375 7.27123 7.09961
#
# Compressibility (1/GPa) = 0.01680501
#
# Stress axis : x y z
#
# Youngs Moduli (GPa) = 79.95420 119.56104 124.75333
#
# Poissons Ratio (x) = 0.36787 0.20795
# Poissons Ratio (y) = 0.24601 0.16183
# Poissons Ratio (z) = 0.13328 0.15509
#
# Static dielectric constant tensor:
#      x y z
#    x 4.589120 0.100710 -0.078860 
#    y 0.100710 4.602710 0.072280 
#    z -0.078860 0.072280 4.620860 
# 
# 
# High freq. dielectric constant tensor:
#      x y z
#    x 1.944750 0.006690 0.000160 
#    y 0.006690 1.950750 -0.007440 
#    z 0.000160 -0.007440 1.953610 
# 
# From -- ./inp_files/288631.got.cif
#   From: 2010.06.25/outbox.cif.g09.slc.cpg/sg2_145_cif.got.tgz:288631.got - 2010.06.27 13:26:56.
