data_PCOD8036875
_publ_section_title
;
Structure prediction by ZEFSAII (Michael W. Deem and Ramdas Pophale) SiO2 
 PCOD8036875
Probable space group: P -1
;
_chemical_formula_sum "Si O2"
_cell_formula_units_Z 16
_cell_length_a 12.468060
_cell_length_b 15.623203
_cell_length_c 15.566570
_cell_angle_alpha 150.707302
_cell_angle_beta 141.642953
_cell_angle_gamma 60.269934
_cell_volume 722.992416
_symmetry_space_group_name_H-M "P -1"
_symmetry_group_IT_number 2
_symmetry_cell_setting 'triclinic'
loop_
_space_group_symop_operation_xyz
x,y,z
-x,-y,-z
loop_
_atom_site_type_symbol
_atom_site_label
_atom_site_fract_x
_atom_site_fract_y
_atom_site_fract_z
Si Si1 0.824838 0.313387 0.162413
Si Si2 0.503677 0.811308 0.801808
Si Si3 0.208439 0.072341 0.640992
Si Si4 0.452435 0.865284 0.621640
Si Si5 0.685206 0.584253 0.258349
Si Si6 0.144214 0.350595 0.263637
Si Si7 0.018430 0.003454 0.743015
Si Si8 0.466967 0.417260 0.664159
O O1 0.662611 0.367603 0.080898
O O2 0.000000 0.500000 0.500000
O O3 0.946624 0.322652 0.162891
O O4 0.684926 0.078740 0.917887
O O5 0.482629 0.797616 0.674306
O O6 0.306757 0.584896 0.523412
O O7 0.736314 0.873876 0.031042
O O8 0.500000 0.000000 0.000000
O O9 0.273026 0.908479 0.551798
O O10 0.399320 0.318866 0.010962
O O11 0.000000 0.000000 0.500000
O O12 0.153193 0.062317 0.497779
O O13 0.383976 0.659146 0.335484
O O14 0.649699 0.688282 0.409694
O O15 0.500000 0.500000 0.000000
O O16 0.924535 0.775377 0.535194
O O17 0.280407 0.318398 0.387758
O O18 0.021439 0.165513 0.951788
#
# Coordination Sequence:
#
# PCOD8036875 Si02
#       8
#     2   2   2   2   2   2   2   2
#     4  12  23  43  74 104 144 189 242 291 366 426
#     4  12  25  45  72 106 145 185 243 295 362 428
#     4  12  27  49  72 102 151 193 236 299 367 427
#     4  12  26  46  74 108 141 195 239 295 360 436
#     4  12  24  45  72 103 143 191 237 299 360 426
#     4  12  26  44  73 110 143 187 244 306 351 432
#     4  12  25  45  72 105 143 187 243 300 357 424
#     4  12  25  47  75 102 151 187 239 299 368 421
#
# _framework density 22.130246
#
# number of rings (size 3 to 8) (size 9 to 14) (size 15 to 20)
#    0.000    0.000    5.000    5.625    1.750    2.500 
#    2.250    2.500    0.000    0.000    0.000    0.000 
#    0.000    0.000    0.000    0.000    0.000    0.000 
#
# Total GULP energy -198416.942681 kJ/mol
# GULP energy per Si atom -12401.058918 kJ/mol
# Density = 2.207988 g / cm^3
# Si number density = 22.130246 Si / 1000 Ang^3
#
#
#
# Elastic Constant Matrix: (Units=GPa)
#
#
# Indices 1 2 3 4 5 6 
#
# 1 155.1063 36.6326 40.5148 2.8250 -7.9951 -8.6592
# 2 36.6326 99.2628 24.6535 -4.8649 -10.2811 -3.9363
# 3 40.5148 24.6535 64.4667 0.9346 -12.8171 4.1531
# 4 2.8250 -4.8649 0.9346 33.7037 4.2934 0.6037
# 5 -7.9951 -10.2811 -12.8171 4.2934 51.1108 8.6013
# 6 -8.6592 -3.9363 4.1531 0.6037 8.6013 49.9392
#
#
#
# Elastic Compliance Matrix: (Units=1/GPa)
#
#
# Indices 1 2 3 4 5 6 
#
# 1 0.008188 -0.001895 -0.004619 -0.000801 -0.000485 0.001748
# 2 -0.001895 0.011784 -0.003184 0.001807 0.001011 0.000669
# 3 -0.004619 -0.003184 0.020781 -0.001164 0.004543 -0.003549
# 4 -0.000801 0.001807 -0.001164 0.030363 -0.002636 0.000187
# 5 -0.000485 0.001011 0.004543 -0.002636 0.021743 -0.004095
# 6 0.001748 0.000669 -0.003549 0.000187 -0.004095 0.021378
#
#
# Mechanical properties :
#
#
# Convention : Reuss Voigt Hill
#
# Bulk Modulus (GPa) = 46.82065 58.04864 52.43465
# Shear Modulus (GPa) = 35.52333 41.41973 38.47153
#
# Velocity S-wave (km/s) = 4.01083 4.33093 4.17395
# Velocity P-wave (km/s) = 6.53084 7.16217 6.85378
#
# Compressibility (1/GPa) = 0.02135810
#
# Stress axis : x y z
#
# Youngs Moduli (GPa) = 122.12439 84.85933 48.12083
#
# Poissons Ratio (x) = 0.16080 0.22227
# Poissons Ratio (y) = 0.23142 0.15321
# Poissons Ratio (z) = 0.56408 0.27018
#
# Static dielectric constant tensor:
#      x y z
#    x 4.364400 -0.029730 -0.116150 
#    y -0.029730 3.708050 -0.116060 
#    z -0.116150 -0.116060 3.915610 
# 
# 
# High freq. dielectric constant tensor:
#      x y z
#    x 1.899990 0.007340 -0.002230 
#    y 0.007340 1.870680 0.005890 
#    z -0.002230 0.005890 1.871570 
# 
# From -- ./inp_files/522699.got.cif
#   From: 2010.06.25/outbox.cif.g09.slc.cpg/sg2_262_cif.got.tgz:522699.got - 2010.06.27 13:26:56.
