data_PCOD8036416
_publ_section_title
;
Structure prediction by ZEFSAII (Michael W. Deem and Ramdas Pophale) SiO2 
 PCOD8036416
Probable space group: P -1
;
_chemical_formula_sum "Si O2"
_cell_formula_units_Z 12
_cell_length_a 8.406750
_cell_length_b 4.835033
_cell_length_c 14.005010
_cell_angle_alpha 77.339652
_cell_angle_beta 128.264684
_cell_angle_gamma 97.324495
_cell_volume 436.067105
_symmetry_space_group_name_H-M "P -1"
_symmetry_group_IT_number 2
_symmetry_cell_setting 'triclinic'
loop_
_space_group_symop_operation_xyz
x,y,z
-x,-y,-z
loop_
_atom_site_type_symbol
_atom_site_label
_atom_site_fract_x
_atom_site_fract_y
_atom_site_fract_z
Si Si1 0.998269 0.319931 0.609193
Si Si2 0.990187 0.844761 0.108187
Si Si3 0.730227 0.298369 0.052007
Si Si4 0.594382 0.063455 0.681090
Si Si5 0.574850 0.959645 0.181089
Si Si6 0.751297 0.769073 0.585773
O O1 0.909795 0.508475 0.650715
O O2 0.000000 0.500000 0.500000
O O3 0.224120 0.231323 0.726901
O O4 0.854933 0.052714 0.562278
O O5 0.821095 0.607282 0.055847
O O6 0.214262 0.743816 0.230723
O O7 0.916158 0.071487 0.143221
O O8 0.000000 0.000000 0.000000
O O9 0.600428 0.246567 0.104594
O O10 0.598872 0.235271 0.913877
O O11 0.487343 0.934429 0.744709
O O12 0.444906 0.275793 0.552169
O O13 0.672413 0.804489 0.662431
#
# Coordination Sequence:
#
# PCOD8036416 Si02
#       6
#     2   2   2   2   2   2
#     4  12  26  50  79 114 157 209 264 328 398 465
#     4  12  26  50  79 115 160 209 261 331 400 470
#     4  11  28  51  76 118 161 209 265 322 406 473
#     4  11  26  50  80 115 158 208 266 328 397 472
#     4  11  26  50  83 117 160 212 266 334 393 481
#     4  11  28  51  75 116 158 208 264 327 398 473
#
# _framework density 27.518699000000002
#
# number of rings (size 3 to 8) (size 9 to 14) (size 15 to 20)
#    0.000    0.667    3.333    2.000    0.000   14.667 
#    0.000    0.000    0.000    0.000    0.000    0.000 
#    0.000    0.000    0.000    0.000    0.000    0.000 
#
# Total GULP energy -148847.705888 kJ/mol
# GULP energy per Si atom -12403.975491 kJ/mol
# Density = 2.745607 g / cm^3
# Si number density = 27.518699 Si / 1000 Ang^3
#
#
#
# Elastic Constant Matrix: (Units=GPa)
#
#
# Indices 1 2 3 4 5 6 
#
# 1 186.0884 44.5787 86.1631 9.5558 -13.6592 -7.2994
# 2 44.5787 105.7168 23.7178 -1.3194 -7.0952 10.1717
# 3 86.1631 23.7178 129.2078 13.2984 -8.2846 12.9726
# 4 9.5558 -1.3194 13.2984 23.7349 0.1012 -2.3367
# 5 -13.6592 -7.0952 -8.2846 0.1012 61.7861 -4.7072
# 6 -7.2994 10.1717 12.9726 -2.3367 -4.7072 38.5520
#
#
#
# Elastic Compliance Matrix: (Units=1/GPa)
#
#
# Indices 1 2 3 4 5 6 
#
# 1 0.009063 -0.002859 -0.005896 -0.000057 0.001235 0.004602
# 2 -0.002859 0.011007 0.000107 0.001372 0.000389 -0.003351
# 3 -0.005896 0.000107 0.012781 -0.005350 -0.000008 -0.005770
# 4 -0.000057 0.001372 -0.005350 0.045639 -0.000331 0.004153
# 5 0.001235 0.000389 -0.000008 -0.000331 0.016666 0.002149
# 6 0.004602 -0.003351 -0.005770 0.004153 0.002149 0.030150
#
#
# Mechanical properties :
#
#
# Convention : Reuss Voigt Hill
#
# Bulk Modulus (GPa) = 64.29525 81.10359 72.69942
# Shear Modulus (GPa) = 33.83267 42.58481 38.20874
#
# Velocity S-wave (km/s) = 3.51015 3.93808 3.73025
# Velocity P-wave (km/s) = 6.31214 7.08619 6.71033
#
# Compressibility (1/GPa) = 0.01555325
#
# Stress axis : x y z
#
# Youngs Moduli (GPa) = 110.34314 90.85389 78.24219
#
# Poissons Ratio (x) = 0.25979 0.46128
# Poissons Ratio (y) = 0.31552 -0.00833
# Poissons Ratio (z) = 0.65054 -0.00968
#
# Static dielectric constant tensor:
#      x y z
#    x 6.157650 0.091080 0.202230 
#    y 0.091080 4.687110 0.011530 
#    z 0.202230 0.011530 5.275770 
# 
# 
# High freq. dielectric constant tensor:
#      x y z
#    x 2.140780 0.007830 0.005580 
#    y 0.007830 2.089850 0.000460 
#    z 0.005580 0.000460 2.132320 
# 
# From -- ./inp_files/487646.got.cif
#   From: 2010.06.25/outbox.cif.g09.slc.cpg/sg2_244_cif.got.tgz:487646.got - 2010.06.27 13:26:56.
