data_PCOD8036114
_publ_section_title
;
Structure prediction by ZEFSAII (Michael W. Deem and Ramdas Pophale) SiO2 
 PCOD8036114
Probable space group: P -1
;
_chemical_formula_sum "Si O2"
_cell_formula_units_Z 16
_cell_length_a 18.521758
_cell_length_b 10.031086
_cell_length_c 12.133178
_cell_angle_alpha 44.418469
_cell_angle_beta 28.891015
_cell_angle_gamma 42.866585
_cell_volume 722.667987
_symmetry_space_group_name_H-M "P -1"
_symmetry_group_IT_number 2
_symmetry_cell_setting 'triclinic'
loop_
_space_group_symop_operation_xyz
x,y,z
-x,-y,-z
loop_
_atom_site_type_symbol
_atom_site_label
_atom_site_fract_x
_atom_site_fract_y
_atom_site_fract_z
Si Si1 0.343775 0.774740 0.472282
Si Si2 0.160489 0.121289 0.121068
Si Si3 0.729770 0.112102 0.101010
Si Si4 0.236965 0.114180 0.582014
Si Si5 0.419336 0.389861 0.256482
Si Si6 0.921950 0.380716 0.755170
Si Si7 0.704687 0.574870 0.124006
Si Si8 0.202283 0.768342 0.435853
O O1 0.526005 0.662279 0.269394
O O2 0.267037 0.633823 0.726960
O O3 0.249241 0.839642 0.447307
O O4 0.325273 0.977544 0.443632
O O5 0.976928 0.230576 0.323916
O O6 0.227692 0.917105 0.221095
O O7 0.254947 0.271812 0.937321
O O8 0.190679 0.066433 0.984958
O O9 0.546810 0.217434 0.255734
O O10 0.740073 0.021185 0.261219
O O11 0.818966 0.278134 0.879892
O O12 0.311102 0.292322 0.388677
O O13 0.052117 0.207885 0.749281
O O14 0.311376 0.543567 0.397720
O O15 0.500000 0.500000 0.000000
O O16 0.000000 0.500000 0.500000
O O17 0.813799 0.539571 0.891583
#
# Coordination Sequence:
#
# PCOD8036114 Si02
#       8
#     2   2   2   2   2   2   2   2
#     4  11  26  47  70 103 142 181 233 287 351 422
#     4  11  26  45  69 101 140 183 231 286 348 413
#     4  12  25  47  71 101 142 183 238 290 346 417
#     4  12  27  46  73 105 138 187 234 290 352 414
#     4  12  25  47  70 104 140 185 236 287 350 416
#     4  12  27  47  73 102 143 187 238 290 348 419
#     4  11  26  47  69 104 139 184 233 287 355 413
#     4  11  26  45  69 101 140 182 230 287 350 414
#
# _framework density 22.140180999999998
#
# number of rings (size 3 to 8) (size 9 to 14) (size 15 to 20)
#    0.000    0.500    2.500    4.500   10.500    1.000 
#    0.000    0.000    0.000    0.000    0.000    0.000 
#    0.000    0.000    0.000    0.000    0.000    0.000 
#
# Total GULP energy -198579.942184 kJ/mol
# GULP energy per Si atom -12411.246387 kJ/mol
# Density = 2.208979 g / cm^3
# Si number density = 22.140181 Si / 1000 Ang^3
#
#
#
# Elastic Constant Matrix: (Units=GPa)
#
#
# Indices 1 2 3 4 5 6 
#
# 1 99.6410 26.3612 21.2466 3.0731 1.3586 10.5984
# 2 26.3612 107.0394 38.3149 13.5825 3.7359 22.7240
# 3 21.2466 38.3149 77.8639 10.9110 2.2169 9.0557
# 4 3.0731 13.5825 10.9110 31.0281 6.0355 -9.2942
# 5 1.3586 3.7359 2.2169 6.0355 34.3526 -2.1911
# 6 10.5984 22.7240 9.0557 -9.2942 -2.1911 49.5370
#
#
#
# Elastic Compliance Matrix: (Units=1/GPa)
#
#
# Indices 1 2 3 4 5 6 
#
# 1 0.011057 -0.001747 -0.002022 0.000063 -0.000204 -0.001192
# 2 -0.001747 0.013471 -0.004615 -0.005831 -0.000461 -0.006076
# 3 -0.002022 -0.004615 0.016344 -0.003903 0.000139 -0.001164
# 4 0.000063 -0.005831 -0.003903 0.040435 -0.005537 0.010716
# 5 -0.000204 -0.000461 0.000139 -0.005537 0.030165 0.000525
# 6 -0.001192 -0.006076 -0.001164 0.010716 0.000525 0.025476
#
#
# Mechanical properties :
#
#
# Convention : Reuss Voigt Hill
#
# Bulk Modulus (GPa) = 41.48771 50.70993 46.09882
# Shear Modulus (GPa) = 30.91196 36.22498 33.56847
#
# Velocity S-wave (km/s) = 3.74062 4.04934 3.89804
# Velocity P-wave (km/s) = 6.11847 6.69452 6.41297
#
# Compressibility (1/GPa) = 0.02410352
#
# Stress axis : x y z
#
# Youngs Moduli (GPa) = 90.44059 74.23592 61.18541
#
# Poissons Ratio (x) = 0.12971 0.12370
# Poissons Ratio (y) = 0.15803 0.28236
# Poissons Ratio (z) = 0.18285 0.34258
#
# Static dielectric constant tensor:
#      x y z
#    x 4.426050 0.241900 -0.279910 
#    y 0.241900 4.409690 0.021980 
#    z -0.279910 0.021980 4.093470 
# 
# 
# High freq. dielectric constant tensor:
#      x y z
#    x 1.884620 0.003540 -0.007080 
#    y 0.003540 1.884250 0.004990 
#    z -0.007080 0.004990 1.878720 
# 
# From -- ./inp_files/263568.got.cif
#   From: 2010.06.25/outbox.cif.g09.slc.cpg/sg2_132_cif.got.tgz:263568.got - 2010.06.27 13:26:56.
