data_PCOD8036048
_publ_section_title
;
Structure prediction by ZEFSAII (Michael W. Deem and Ramdas Pophale) SiO2 
 PCOD8036048
Probable space group: P -1
;
_chemical_formula_sum "Si O2"
_cell_formula_units_Z 12
_cell_length_a 8.754739
_cell_length_b 4.820431
_cell_length_c 14.106073
_cell_angle_alpha 109.496810
_cell_angle_beta 56.039146
_cell_angle_gamma 108.207322
_cell_volume 459.356023
_symmetry_space_group_name_H-M "P -1"
_symmetry_group_IT_number 2
_symmetry_cell_setting 'triclinic'
loop_
_space_group_symop_operation_xyz
x,y,z
-x,-y,-z
loop_
_atom_site_type_symbol
_atom_site_label
_atom_site_fract_x
_atom_site_fract_y
_atom_site_fract_z
Si Si1 0.876847 0.064410 0.909083
Si Si2 0.173653 0.851429 0.455431
Si Si3 0.574252 0.935669 0.277373
Si Si4 0.195165 0.435310 0.750419
Si Si5 0.010770 0.362116 0.326476
Si Si6 0.348766 0.435226 0.963401
O O1 0.704196 0.239927 0.998709
O O2 0.068740 0.307732 0.872754
O O3 0.839276 0.799174 0.969299
O O4 0.890235 0.893070 0.784645
O O5 0.376908 0.038384 0.382703
O O6 0.161590 0.787435 0.564714
O O7 0.163344 0.547657 0.363489
O O8 0.000000 0.000000 0.500000
O O9 0.649670 0.784692 0.328871
O O10 0.717531 0.221124 0.224401
O O11 0.553710 0.682253 0.174733
O O12 0.072476 0.421609 0.695470
O O13 0.500000 0.500000 0.000000
#
# Coordination Sequence:
#
# PCOD8036048 Si02
#       6
#     2   2   2   2   2   2
#     4  12  24  49  76 107 155 201 242 304 385 441
#     4  11  28  49  82 108 152 203 251 325 372 457
#     4  12  29  48  75 118 151 195 266 303 382 445
#     4  12  26  50  76 114 156 202 244 319 370 465
#     4  11  25  50  78 110 148 206 252 300 396 439
#     4  12  27  46  78 113 155 198 249 317 364 457
#
# _framework density 26.123526999999999
#
# number of rings (size 3 to 8) (size 9 to 14) (size 15 to 20)
#    0.000    0.333    3.333    3.500    7.000    5.333 
#    0.000    0.000    0.000    0.000    0.000    0.000 
#    0.000    0.000    0.000    0.000    0.000    0.000 
#
# Total GULP energy -148709.925170 kJ/mol
# GULP energy per Si atom -12392.493764 kJ/mol
# Density = 2.606407 g / cm^3
# Si number density = 26.123527 Si / 1000 Ang^3
#
#
#
# Elastic Constant Matrix: (Units=GPa)
#
#
# Indices 1 2 3 4 5 6 
#
# 1 53.9457 18.0109 9.6117 -8.1033 -6.1823 -23.8303
# 2 18.0109 135.9843 27.5798 -6.3899 -2.6680 -15.6993
# 3 9.6117 27.5798 110.9837 -12.4556 -5.8210 -6.2400
# 4 -8.1033 -6.3899 -12.4556 44.5245 -5.4156 -4.1037
# 5 -6.1823 -2.6680 -5.8210 -5.4156 29.5510 0.1062
# 6 -23.8303 -15.6993 -6.2400 -4.1037 0.1062 37.6663
#
#
#
# Elastic Compliance Matrix: (Units=1/GPa)
#
#
# Indices 1 2 3 4 5 6 
#
# 1 0.029282 -0.001206 0.000090 0.007821 0.007401 0.018870
# 2 -0.001206 0.008179 -0.001693 0.000740 0.000280 0.002446
# 3 0.000090 -0.001693 0.009954 0.002967 0.002366 0.001317
# 4 0.007821 0.000740 0.002967 0.026478 0.007109 0.008613
# 5 0.007401 0.000280 0.002366 0.007109 0.037161 0.005860
# 6 0.018870 0.002446 0.001317 0.008613 0.005860 0.040647
#
#
# Mechanical properties :
#
#
# Convention : Reuss Voigt Hill
#
# Bulk Modulus (GPa) = 23.92354 45.70206 34.81280
# Shear Modulus (GPa) = 29.19692 38.72910 33.96301
#
# Velocity S-wave (km/s) = 3.34675 3.85455 3.60959
# Velocity P-wave (km/s) = 4.91040 6.11086 5.54323
#
# Compressibility (1/GPa) = 0.04179984
#
# Stress axis : x y z
#
# Youngs Moduli (GPa) = 34.15063 122.25730 100.45817
#
# Poissons Ratio (x) = 0.14738 -0.00908
# Poissons Ratio (y) = 0.04117 0.17007
# Poissons Ratio (z) = -0.00309 0.20697
#
# Static dielectric constant tensor:
#      x y z
#    x 4.631580 0.059510 -0.024610 
#    y 0.059510 5.095960 -0.079850 
#    z -0.024610 -0.079850 4.802200 
# 
# 
# High freq. dielectric constant tensor:
#      x y z
#    x 2.032350 -0.000970 0.000410 
#    y -0.000970 2.064310 0.003000 
#    z 0.000410 0.003000 2.044840 
# 
# From -- ./inp_files/487263.got.cif
#   From: 2010.06.25/outbox.cif.g09.slc.cpg/sg2_244_cif.got.tgz:487263.got - 2010.06.27 13:26:56.
