data_PCOD8036430
_publ_section_title
;
Structure prediction by ZEFSAII (Michael W. Deem and Ramdas Pophale) SiO2 
 PCOD8036430
Probable space group: P -1
;
_chemical_formula_sum "Si O2"
_cell_formula_units_Z 12
_cell_length_a 5.083735
_cell_length_b 8.407913
_cell_length_c 14.309457
_cell_angle_alpha 122.279197
_cell_angle_beta 116.358629
_cell_angle_gamma 62.133727
_cell_volume 441.419882
_symmetry_space_group_name_H-M "P -1"
_symmetry_group_IT_number 2
_symmetry_cell_setting 'triclinic'
loop_
_space_group_symop_operation_xyz
x,y,z
-x,-y,-z
loop_
_atom_site_type_symbol
_atom_site_label
_atom_site_fract_x
_atom_site_fract_y
_atom_site_fract_z
Si Si1 0.625488 0.058931 0.269273
Si Si2 0.788943 0.171222 0.958641
Si Si3 0.149356 0.733802 0.197969
Si Si4 0.761910 0.408514 0.352296
Si Si5 0.188253 0.497108 0.807053
Si Si6 0.628963 0.814316 0.529200
O O1 0.551490 0.261277 0.260464
O O2 0.517711 0.111253 0.372519
O O3 0.488467 0.900845 0.148180
O O4 0.998198 0.943877 0.292861
O O5 0.968586 0.231667 0.918145
O O6 0.665439 0.360800 0.065393
O O7 0.000000 0.000000 0.000000
O O8 0.519252 0.684897 0.237376
O O9 0.056397 0.563961 0.186613
O O10 0.951302 0.405148 0.283725
O O11 0.534744 0.625394 0.414019
O O12 0.000195 0.296503 0.437217
O O13 0.500000 0.000000 0.500000
#
# Coordination Sequence:
#
# PCOD8036430 Si02
#       6
#     2   2   2   2   2   2
#     4  12  26  49  77 115 162 206 271 324 412 473
#     4  12  28  49  77 116 164 214 266 333 399 483
#     4  12  27  49  77 116 160 216 265 327 397 476
#     4  11  28  49  81 118 157 213 268 332 406 475
#     4  12  28  50  79 117 163 208 275 328 395 484
#     4  11  26  53  78 115 160 211 269 337 400 479
#
# _framework density 27.184999000000001
#
# number of rings (size 3 to 8) (size 9 to 14) (size 15 to 20)
#    0.000    0.333    1.667    5.500    9.333    2.000 
#    0.000    0.000    0.000    0.000    0.000    0.000 
#    0.000    0.000    0.000    0.000    0.000    0.000 
#
# Total GULP energy -148681.236232 kJ/mol
# GULP energy per Si atom -12390.103019 kJ/mol
# Density = 2.712313 g / cm^3
# Si number density = 27.184999 Si / 1000 Ang^3
#
#
#
# Elastic Constant Matrix: (Units=GPa)
#
#
# Indices 1 2 3 4 5 6 
#
# 1 78.3350 26.9252 2.0008 -16.0088 -13.4721 2.0420
# 2 26.9252 184.9219 43.7294 -8.1679 -4.3975 17.5423
# 3 2.0008 43.7294 92.0778 5.6087 -17.1030 9.2069
# 4 -16.0088 -8.1679 5.6087 65.9268 8.1831 -14.3675
# 5 -13.4721 -4.3975 -17.1030 8.1831 26.8918 9.0449
# 6 2.0420 17.5423 9.2069 -14.3675 9.0449 44.5594
#
#
#
# Elastic Compliance Matrix: (Units=1/GPa)
#
#
# Indices 1 2 3 4 5 6 
#
# 1 0.015470 -0.002410 0.002500 0.001814 0.008898 -0.001498
# 2 -0.002410 0.006652 -0.003388 0.000508 -0.002013 -0.001236
# 3 0.002500 -0.003388 0.015982 -0.004345 0.014336 -0.006394
# 4 0.001814 0.000508 -0.004345 0.019333 -0.010688 0.009018
# 5 0.008898 -0.002013 0.014336 -0.010688 0.059792 -0.018160
# 6 -0.001498 -0.001236 -0.006394 0.009018 -0.018160 0.030912
#
#
# Mechanical properties :
#
#
# Convention : Reuss Voigt Hill
#
# Bulk Modulus (GPa) = 31.73705 55.62729 43.68217
# Shear Modulus (GPa) = 30.25913 46.32088 38.29000
#
# Velocity S-wave (km/s) = 3.33991 4.13233 3.75707
# Velocity P-wave (km/s) = 5.15491 6.57838 5.90966
#
# Compressibility (1/GPa) = 0.03150892
#
# Stress axis : x y z
#
# Youngs Moduli (GPa) = 64.63988 150.34188 62.57122
#
# Poissons Ratio (x) = 0.36232 -0.15646
# Poissons Ratio (y) = 0.15578 0.21198
# Poissons Ratio (z) = -0.16163 0.50933
#
# Static dielectric constant tensor:
#      x y z
#    x 4.881110 0.208140 0.372130 
#    y 0.208140 5.876290 -0.436220 
#    z 0.372130 -0.436220 7.934750 
# 
# 
# High freq. dielectric constant tensor:
#      x y z
#    x 2.079070 0.009770 -0.018030 
#    y 0.009770 2.133050 0.005960 
#    z -0.018030 0.005960 2.097730 
# 
# From -- ./inp_files/480092.got.cif
#   From: 2010.06.25/outbox.cif.g09.slc.cpg/sg2_241_cif.got.tgz:480092.got - 2010.06.27 13:26:56.
