data_PCOD8036197
_publ_section_title
;
Structure prediction by ZEFSAII (Michael W. Deem and Ramdas Pophale) SiO2 
 PCOD8036197
Probable space group: P -1
;
_chemical_formula_sum "Si O2"
_cell_formula_units_Z 14
_cell_length_a 8.624650
_cell_length_b 9.077281
_cell_length_c 11.187610
_cell_angle_alpha 54.758828
_cell_angle_beta 50.384661
_cell_angle_gamma 64.188101
_cell_volume 547.877988
_symmetry_space_group_name_H-M "P -1"
_symmetry_group_IT_number 2
_symmetry_cell_setting 'triclinic'
loop_
_space_group_symop_operation_xyz
x,y,z
-x,-y,-z
loop_
_atom_site_type_symbol
_atom_site_label
_atom_site_fract_x
_atom_site_fract_y
_atom_site_fract_z
Si Si1 0.547589 0.678387 0.324585
Si Si2 0.794870 0.701742 0.962499
Si Si3 0.408981 0.266163 0.326430
Si Si4 0.237313 0.561937 0.111289
Si Si5 0.865076 0.748162 0.319274
Si Si6 0.168232 0.840620 0.830565
Si Si7 0.233323 0.007751 0.348875
O O1 0.500000 0.500000 0.500000
O O2 0.728491 0.768303 0.258083
O O3 0.338333 0.806238 0.372584
O O4 0.621993 0.647682 0.164581
O O5 0.835293 0.555291 0.907101
O O6 0.732109 0.893753 0.839677
O O7 0.009286 0.713300 0.917330
O O8 0.423227 0.447156 0.148218
O O9 0.250964 0.328569 0.477418
O O10 0.616805 0.192641 0.329588
O O11 0.332263 0.104231 0.364706
O O12 0.055863 0.599225 0.278283
O O13 0.258424 0.763637 0.952924
O O14 0.925774 0.951440 0.217870
O O15 0.000000 0.000000 0.500000
#
# Coordination Sequence:
#
# PCOD8036197 Si02
#       7
#     2   2   2   2   2   2   2
#     4  12  29  48  75 112 148 199 253 304 371 446
#     4  11  27  49  80 106 153 195 253 303 370 443
#     4  11  26  46  72 107 150 190 246 304 372 438
#     4  11  26  47  72 108 147 197 243 300 371 441
#     4  12  26  45  74 107 150 189 248 301 375 433
#     4  12  24  47  75 108 145 194 244 306 372 440
#     4  11  26  50  77 111 149 198 247 305 373 444
#
# _framework density 25.553135999999999
#
# number of rings (size 3 to 8) (size 9 to 14) (size 15 to 20)
#    0.000    0.571    2.857    3.429    8.000    0.000 
#    2.571    0.000    0.000    0.000    0.000    0.000 
#    0.000    0.000    0.000    0.000    0.000    0.000 
#
# Total GULP energy -173560.492474 kJ/mol
# GULP energy per Si atom -12397.178034 kJ/mol
# Density = 2.549498 g / cm^3
# Si number density = 25.553136 Si / 1000 Ang^3
#
#
#
# Elastic Constant Matrix: (Units=GPa)
#
#
# Indices 1 2 3 4 5 6 
#
# 1 80.5916 32.7619 10.7630 10.5573 -4.0977 -12.6642
# 2 32.7619 135.5787 50.7436 7.4878 9.0105 -21.0991
# 3 10.7630 50.7436 130.9519 -2.7722 18.4087 1.8538
# 4 10.5573 7.4878 -2.7722 41.9651 -5.5350 1.4362
# 5 -4.0977 9.0105 18.4087 -5.5350 41.0553 -3.8628
# 6 -12.6642 -21.0991 1.8538 1.4362 -3.8628 37.2869
#
#
#
# Elastic Compliance Matrix: (Units=1/GPa)
#
#
# Indices 1 2 3 4 5 6 
#
# 1 0.014717 -0.002715 -0.000598 -0.003089 0.002278 0.003847
# 2 -0.002715 0.010401 -0.003835 -0.001679 -0.000575 0.005159
# 3 -0.000598 -0.003835 0.009770 0.001097 -0.003760 -0.003291
# 4 -0.003089 -0.001679 0.001097 0.025434 0.002739 -0.002749
# 5 0.002278 -0.000575 -0.003760 0.002739 0.027080 0.003335
# 6 0.003847 0.005159 -0.003291 -0.002749 0.003335 0.031660
#
#
# Mechanical properties :
#
#
# Convention : Reuss Voigt Hill
#
# Bulk Modulus (GPa) = 48.56065 59.51767 54.03916
# Shear Modulus (GPa) = 35.65823 40.91838 38.28830
#
# Velocity S-wave (km/s) = 3.73963 4.00597 3.87509
# Velocity P-wave (km/s) = 6.13934 6.68875 6.41993
#
# Compressibility (1/GPa) = 0.02059281
#
# Stress axis : x y z
#
# Youngs Moduli (GPa) = 67.95063 96.14562 102.35422
#
# Poissons Ratio (x) = 0.26100 0.06118
# Poissons Ratio (y) = 0.18446 0.39252
# Poissons Ratio (z) = 0.04062 0.36871
#
# Static dielectric constant tensor:
#      x y z
#    x 4.743300 -0.217610 0.138900 
#    y -0.217610 4.602400 0.080390 
#    z 0.138900 0.080390 4.962390 
# 
# 
# High freq. dielectric constant tensor:
#      x y z
#    x 2.017790 -0.017440 0.004730 
#    y -0.017440 2.026780 0.000260 
#    z 0.004730 0.000260 2.043760 
# 
# From -- ./inp_files/381178.got.cif
#   From: 2010.06.25/outbox.cif.g09.slc.cpg/sg2_191_cif.got.tgz:381178.got - 2010.06.27 13:26:56.
