data_PCOD8036310
_publ_section_title
;
Structure prediction by ZEFSAII (Michael W. Deem and Ramdas Pophale) SiO2 
 PCOD8036310
Probable space group: P -1
;
_chemical_formula_sum "Si O2"
_cell_formula_units_Z 16
_cell_length_a 9.810109
_cell_length_b 9.521016
_cell_length_c 9.318972
_cell_angle_alpha 104.819577
_cell_angle_beta 120.791974
_cell_angle_gamma 66.493501
_cell_volume 684.190654
_symmetry_space_group_name_H-M "P -1"
_symmetry_group_IT_number 2
_symmetry_cell_setting 'triclinic'
loop_
_space_group_symop_operation_xyz
x,y,z
-x,-y,-z
loop_
_atom_site_type_symbol
_atom_site_label
_atom_site_fract_x
_atom_site_fract_y
_atom_site_fract_z
Si Si1 0.417984 0.162984 0.921122
Si Si2 0.639233 0.144442 0.777418
Si Si3 0.672325 0.254574 0.245690
Si Si4 0.163726 0.176895 0.137370
Si Si5 0.736357 0.283108 0.601701
Si Si6 0.105926 0.091306 0.782764
Si Si7 0.814691 0.343058 0.090426
Si Si8 0.802450 0.540656 0.886279
O O1 0.469161 0.168620 0.782936
O O2 0.216672 0.200638 0.823174
O O3 0.488839 0.275673 0.084911
O O4 0.500000 0.000000 0.000000
O O5 0.618492 0.225225 0.631763
O O6 0.716933 0.961797 0.741853
O O7 0.760016 0.206001 0.956643
O O8 0.641886 0.317294 0.407484
O O9 0.748688 0.367329 0.224659
O O10 0.802307 0.081782 0.264502
O O11 0.270612 0.280221 0.152813
O O12 0.016878 0.284287 0.185643
O O13 0.087692 0.101646 0.947663
O O14 0.759908 0.438027 0.713042
O O15 0.917881 0.155243 0.637211
O O16 0.739072 0.499317 0.997152
O O17 0.000000 0.500000 0.000000
#
# Coordination Sequence:
#
# PCOD8036310 Si02
#       8
#     2   2   2   2   2   2   2   2
#     4   9  18  33  53  82 107 141 176 220 272 320
#     4  10  17  31  57  79 102 142 183 219 258 327
#     4  10  20  33  54  81 113 136 173 231 276 306
#     4  11  16  29  56  81 103 136 189 219 255 312
#     4  11  21  34  57  83 110 136 182 228 268 307
#     4  11  18  32  57  84 106 138 179 226 267 316
#     4   9  16  30  52  78 103 139 181 216 263 317
#     4   9  18  31  51  81 106 142 179 222 258 325
#
# _framework density 23.385293000000001
#
# number of rings (size 3 to 8) (size 9 to 14) (size 15 to 20)
#    0.000    2.000    7.500    1.500    0.000    0.000 
#    0.000    5.000    5.500    7.500    0.000    0.000 
#    0.000    0.000    0.000    0.000    0.000    0.000 
#
# Total GULP energy -198263.283432 kJ/mol
# GULP energy per Si atom -12391.455215 kJ/mol
# Density = 2.333207 g / cm^3
# Si number density = 23.385293 Si / 1000 Ang^3
#
#
#
# Elastic Constant Matrix: (Units=GPa)
#
#
# Indices 1 2 3 4 5 6 
#
# 1 107.2407 -2.3114 40.5089 -10.5563 -27.2341 23.9756
# 2 -2.3114 89.6841 32.1481 -12.8988 -11.0475 19.5616
# 3 40.5089 32.1481 119.2128 2.0045 -43.4197 18.3115
# 4 -10.5563 -12.8988 2.0045 21.3807 6.4713 -7.6239
# 5 -27.2341 -11.0475 -43.4197 6.4713 33.6529 -11.7926
# 6 23.9756 19.5616 18.3115 -7.6239 -11.7926 31.4115
#
#
#
# Elastic Compliance Matrix: (Units=1/GPa)
#
#
# Indices 1 2 3 4 5 6 
#
# 1 0.014450 0.004875 -0.003089 0.005622 0.005076 -0.008995
# 2 0.004875 0.016688 -0.006505 0.011099 -0.004348 -0.009260
# 3 -0.003089 -0.006505 0.020329 -0.014701 0.024485 0.000182
# 4 0.005622 0.011099 -0.014701 0.066049 -0.021626 0.005279
# 5 0.005076 -0.004348 0.024485 -0.021626 0.070119 0.005636
# 6 -0.008995 -0.009260 0.000182 0.005279 0.005636 0.047759
#
#
# Mechanical properties :
#
#
# Convention : Reuss Voigt Hill
#
# Bulk Modulus (GPa) = 23.79219 50.75877 37.27548
# Shear Modulus (GPa) = 19.31676 33.67516 26.49596
#
# Velocity S-wave (km/s) = 2.87718 3.79887 3.36969
# Velocity P-wave (km/s) = 4.60799 6.40269 5.57799
#
# Compressibility (1/GPa) = 0.04203059
#
# Stress axis : x y z
#
# Youngs Moduli (GPa) = 69.20353 59.92269 49.18998
#
# Poissons Ratio (x) = -0.29215 0.15196
# Poissons Ratio (y) = -0.33740 0.31997
# Poissons Ratio (z) = 0.21378 0.38979
#
# Static dielectric constant tensor:
#      x y z
#    x 4.642480 0.465530 -0.369960 
#    y 0.465530 4.449670 -0.215010 
#    z -0.369960 -0.215010 3.890010 
# 
# 
# High freq. dielectric constant tensor:
#      x y z
#    x 1.935570 0.011870 -0.025420 
#    y 0.011870 1.921330 -0.010500 
#    z -0.025420 -0.010500 1.875360 
# 
# From -- ./inp_files/243615.got.cif
#   From: 2010.06.25/outbox.cif.g09.slc.cpg/sg2_122_cif.got.tgz:243615.got - 2010.06.27 13:26:56.
