data_PCOD8036705
_publ_section_title
;
Structure prediction by ZEFSAII (Michael W. Deem and Ramdas Pophale) SiO2 
 PCOD8036705
Probable space group: P -1
;
_chemical_formula_sum "Si O2"
_cell_formula_units_Z 16
_cell_length_a 23.454320
_cell_length_b 8.528428
_cell_length_c 9.591643
_cell_angle_alpha 132.183114
_cell_angle_beta 130.495335
_cell_angle_gamma 30.079565
_cell_volume 700.395098
_symmetry_space_group_name_H-M "P -1"
_symmetry_group_IT_number 2
_symmetry_cell_setting 'triclinic'
loop_
_space_group_symop_operation_xyz
x,y,z
-x,-y,-z
loop_
_atom_site_type_symbol
_atom_site_label
_atom_site_fract_x
_atom_site_fract_y
_atom_site_fract_z
Si Si1 0.075276 0.306697 0.141418
Si Si2 0.745488 0.678161 0.213330
Si Si3 0.674325 0.395188 0.886155
Si Si4 0.255160 0.458656 0.335767
Si Si5 0.908952 0.367861 0.035947
Si Si6 0.360448 0.647210 0.499736
Si Si7 0.443230 0.696857 0.173045
Si Si8 0.129038 0.645666 0.511267
O O1 0.137386 0.381361 0.336722
O O2 0.184645 0.912857 0.071574
O O3 0.000000 0.500000 0.000000
O O4 0.980748 0.431272 0.177975
O O5 0.835950 0.388902 0.295178
O O6 0.689407 0.010698 0.380044
O O7 0.648966 0.701611 0.049461
O O8 0.806219 0.613185 0.128037
O O9 0.611025 0.462979 0.682455
O O10 0.627371 0.353271 0.912558
O O11 0.143888 0.583729 0.167648
O O12 0.272378 0.654519 0.415641
O O13 0.222645 0.558338 0.506597
O O14 0.364011 0.072487 0.247714
O O15 0.000000 0.000000 0.000000
O O16 0.467741 0.414194 0.635433
O O17 0.500000 0.500000 0.000000
O O18 0.000000 0.000000 0.500000
#
# Coordination Sequence:
#
# PCOD8036705 Si02
#       8
#     2   2   2   2   2   2   2   2
#     4  12  22  43  70 101 147 195 229 291 358 428
#     4  12  26  45  72 110 144 190 247 293 359 441
#     4  12  25  51  73 102 152 186 241 308 360 431
#     4  12  25  50  71 106 153 183 243 307 355 436
#     4  12  23  42  72 105 146 188 232 288 360 432
#     4  12  27  49  75 104 144 195 240 307 371 418
#     4  12  28  50  77 107 135 196 252 305 370 420
#     4  12  26  42  69 110 147 195 239 285 365 439
#
# _framework density 22.844249000000001
#
# number of rings (size 3 to 8) (size 9 to 14) (size 15 to 20)
#    0.000    0.000    6.250    3.000    3.500    1.000 
#    2.250    0.000    0.000    0.000    0.000    0.000 
#    0.000    0.000    0.000    0.000    0.000    0.000 
#
# Total GULP energy -198383.862907 kJ/mol
# GULP energy per Si atom -12398.991432 kJ/mol
# Density = 2.279225 g / cm^3
# Si number density = 22.844249 Si / 1000 Ang^3
#
#
#
# Elastic Constant Matrix: (Units=GPa)
#
#
# Indices 1 2 3 4 5 6 
#
# 1 142.6834 9.9175 45.2815 13.1657 -2.0518 1.9724
# 2 9.9175 100.7437 38.6588 -8.6703 -1.6081 7.2421
# 3 45.2815 38.6588 124.0311 -4.1044 0.6058 7.8337
# 4 13.1657 -8.6703 -4.1044 43.9245 8.2761 2.9160
# 5 -2.0518 -1.6081 0.6058 8.2761 31.4601 -0.2627
# 6 1.9724 7.2421 7.8337 2.9160 -0.2627 31.4519
#
#
#
# Elastic Compliance Matrix: (Units=1/GPa)
#
#
# Indices 1 2 3 4 5 6 
#
# 1 0.008318 0.000137 -0.003223 -0.003072 0.001424 0.000546
# 2 0.000137 0.011561 -0.003461 0.002028 0.000116 -0.001996
# 3 -0.003223 -0.003461 0.010486 0.001572 -0.001017 -0.001767
# 4 -0.003072 0.002028 0.001572 0.025746 -0.006926 -0.003111
# 5 0.001424 0.000116 -0.001017 -0.006926 0.033735 0.001061
# 6 0.000546 -0.001996 -0.001767 -0.003111 0.001061 0.032957
#
#
# Mechanical properties :
#
#
# Convention : Reuss Voigt Hill
#
# Bulk Modulus (GPa) = 57.89668 61.68597 59.79133
# Shear Modulus (GPa) = 35.29743 39.60732 37.45237
#
# Velocity S-wave (km/s) = 3.93508 4.16841 4.05342
# Velocity P-wave (km/s) = 6.78569 7.08724 6.93810
#
# Compressibility (1/GPa) = 0.01727215
#
# Stress axis : x y z
#
# Youngs Moduli (GPa) = 120.21991 86.50120 95.36336
#
# Poissons Ratio (x) = -0.01184 0.30731
# Poissons Ratio (y) = -0.01645 0.33002
# Poissons Ratio (z) = 0.38741 0.29935
#
# Static dielectric constant tensor:
#      x y z
#    x 3.878970 0.384610 0.433140 
#    y 0.384610 4.153690 -0.057470 
#    z 0.433140 -0.057470 4.073910 
# 
# 
# High freq. dielectric constant tensor:
#      x y z
#    x 1.918570 0.013330 0.004030 
#    y 0.013330 1.902130 -0.008160 
#    z 0.004030 -0.008160 1.910510 
# 
# From -- ./inp_files/352438.got.cif
#   From: 2010.06.25/outbox.cif.g09.slc.cpg/sg2_177_cif.got.tgz:352438.got - 2010.06.27 13:26:56.
