data_PCOD8036940
_publ_section_title
;
Structure prediction by ZEFSAII (Michael W. Deem and Ramdas Pophale) SiO2 
 PCOD8036940
Probable space group: P -1
;
_chemical_formula_sum "Si O2"
_cell_formula_units_Z 16
_cell_length_a 11.045343
_cell_length_b 13.959014
_cell_length_c 9.020572
_cell_angle_alpha 125.768495
_cell_angle_beta 40.909899
_cell_angle_gamma 105.276691
_cell_volume 696.183798
_symmetry_space_group_name_H-M "P -1"
_symmetry_group_IT_number 2
_symmetry_cell_setting 'triclinic'
loop_
_space_group_symop_operation_xyz
x,y,z
-x,-y,-z
loop_
_atom_site_type_symbol
_atom_site_label
_atom_site_fract_x
_atom_site_fract_y
_atom_site_fract_z
Si Si1 0.178057 0.678881 0.785524
Si Si2 0.148665 0.931785 0.171120
Si Si3 0.875197 0.820316 0.692133
Si Si4 0.889982 0.639977 0.786092
Si Si5 0.455020 0.241252 0.232187
Si Si6 0.280567 0.668560 0.130379
Si Si7 0.534403 0.363271 0.780845
Si Si8 0.777681 0.515136 0.184887
O O1 0.365303 0.663886 0.495520
O O2 0.271614 0.582312 0.745108
O O3 0.000522 0.649472 0.843559
O O4 0.086762 0.820981 0.056476
O O5 0.150831 0.032913 0.132573
O O6 0.371119 0.875975 0.973038
O O7 0.000000 0.000000 0.500000
O O8 0.903321 0.743814 0.750060
O O9 0.694618 0.811736 0.758109
O O10 0.069810 0.762160 0.356873
O O11 0.000000 0.500000 0.500000
O O12 0.662284 0.671559 0.063008
O O13 0.350551 0.339749 0.546574
O O14 0.533017 0.320015 0.115313
O O15 0.302030 0.710861 0.317235
O O16 0.267451 0.528024 0.979468
O O17 0.500000 0.500000 0.000000
O O18 0.000000 0.500000 0.000000
#
# Coordination Sequence:
#
# PCOD8036940 Si02
#       8
#     2   2   2   2   2   2   2   2
#     4  12  27  48  72 110 150 193 242 307 376 437
#     4  12  28  51  72 102 152 206 254 302 356 438
#     4  12  24  48  73 102 145 201 248 300 360 437
#     4  12  25  45  76 111 148 187 242 310 376 443
#     4  12  24  44  76 104 145 193 248 305 372 429
#     4  12  23  45  73 104 150 192 231 309 381 429
#     4  12  25  43  73 109 150 187 235 302 383 446
#     4  12  26  42  74 114 149 184 246 310 378 443
#
# _framework density 22.982436
#
# number of rings (size 3 to 8) (size 9 to 14) (size 15 to 20)
#    0.000    0.000    7.500    2.250    3.500    0.500 
#    2.250    0.625    0.000    0.000    0.000    0.000 
#    0.000    0.000    0.000    0.000    0.000    0.000 
#
# Total GULP energy -198334.216918 kJ/mol
# GULP energy per Si atom -12395.888557 kJ/mol
# Density = 2.293013 g / cm^3
# Si number density = 22.982436 Si / 1000 Ang^3
#
#
#
# Elastic Constant Matrix: (Units=GPa)
#
#
# Indices 1 2 3 4 5 6 
#
# 1 110.5650 19.6725 32.6431 0.2949 -6.4647 20.9311
# 2 19.6725 99.0381 30.5119 13.6398 -2.4905 -1.2110
# 3 32.6431 30.5119 129.8385 2.1283 -13.2947 9.2137
# 4 0.2949 13.6398 2.1283 38.0682 4.3810 -6.8101
# 5 -6.4647 -2.4905 -13.2947 4.3810 42.9734 -1.1916
# 6 20.9311 -1.2110 9.2137 -6.8101 -1.1916 43.1475
#
#
#
# Elastic Compliance Matrix: (Units=1/GPa)
#
#
# Indices 1 2 3 4 5 6 
#
# 1 0.010877 -0.001551 -0.001925 -0.000405 0.000855 -0.004949
# 2 -0.001551 0.011678 -0.002345 -0.003883 0.000141 0.000972
# 3 -0.001925 -0.002345 0.009052 -0.000104 0.002357 -0.001016
# 4 -0.000405 -0.003883 -0.000104 0.028848 -0.003132 0.004576
# 5 0.000855 0.000141 0.002357 -0.003132 0.024435 -0.000734
# 6 -0.004949 0.000972 -0.001016 0.004576 -0.000734 0.026523
#
#
# Mechanical properties :
#
#
# Convention : Reuss Voigt Hill
#
# Bulk Modulus (GPa) = 50.08744 56.12186 53.10465
# Shear Modulus (GPa) = 38.54746 41.94542 40.24644
#
# Velocity S-wave (km/s) = 4.09988 4.27676 4.18925
# Velocity P-wave (km/s) = 6.65230 6.99000 6.82324
#
# Compressibility (1/GPa) = 0.01996509
#
# Stress axis : x y z
#
# Youngs Moduli (GPa) = 91.94042 85.63127 110.47112
#
# Poissons Ratio (x) = 0.13280 0.21263
# Poissons Ratio (y) = 0.14258 0.25909
# Poissons Ratio (z) = 0.17696 0.20083
#
# Static dielectric constant tensor:
#      x y z
#    x 4.165170 -0.037390 -0.276380 
#    y -0.037390 4.359430 -0.063210 
#    z -0.276380 -0.063210 4.028000 
# 
# 
# High freq. dielectric constant tensor:
#      x y z
#    x 1.930250 0.004470 -0.015670 
#    y 0.004470 1.906310 -0.013170 
#    z -0.015670 -0.013170 1.904820 
# 
# From -- ./inp_files/274228.got.cif
#   From: 2010.06.25/outbox.cif.g09.slc.cpg/sg2_138_cif.got.tgz:274228.got - 2010.06.27 13:26:56.
