data_PCOD8036808
_publ_section_title
;
Structure prediction by ZEFSAII (Michael W. Deem and Ramdas Pophale) SiO2 
 PCOD8036808
Probable space group: P -1
;
_chemical_formula_sum "Si O2"
_cell_formula_units_Z 12
_cell_length_a 11.264107
_cell_length_b 21.644462
_cell_length_c 10.905237
_cell_angle_alpha 33.510040
_cell_angle_beta 155.448746
_cell_angle_gamma 151.023028
_cell_volume 525.539602
_symmetry_space_group_name_H-M "P -1"
_symmetry_group_IT_number 2
_symmetry_cell_setting 'triclinic'
loop_
_space_group_symop_operation_xyz
x,y,z
-x,-y,-z
loop_
_atom_site_type_symbol
_atom_site_label
_atom_site_fract_x
_atom_site_fract_y
_atom_site_fract_z
Si Si1 0.283853 0.263231 0.984965
Si Si2 0.561679 0.890219 0.977475
Si Si3 0.409305 0.459894 0.120800
Si Si4 0.665262 0.284682 0.719255
Si Si5 0.861224 0.111219 0.608323
Si Si6 0.620769 0.158376 0.642418
O O1 0.551790 0.416405 0.971365
O O2 0.094027 0.208985 0.768634
O O3 0.016023 0.252874 0.849800
O O4 0.453097 0.183345 0.324893
O O5 0.244538 0.814417 0.713102
O O6 0.537665 0.010800 0.808267
O O7 0.533161 0.794923 0.216099
O O8 0.918309 0.944244 0.155324
O O9 0.655770 0.416273 0.478933
O O10 0.500000 0.500000 0.000000
O O11 0.050939 0.333222 0.013022
O O12 0.500118 0.190467 0.602295
O O13 0.500000 0.000000 0.500000
#
# Coordination Sequence:
#
# PCOD8036808 Si02
#       6
#     2   2   2   2   2   2
#     4  12  25  41  72 107 129 180 244 285 328 401
#     4  12  27  44  70 104 144 183 223 285 356 412
#     4  12  23  45  72 100 142 183 233 281 334 414
#     4  12  25  46  69 106 144 183 221 284 357 410
#     4  12  26  47  70  99 140 185 236 283 337 414
#     4  12  23  41  72 103 144 170 228 292 346 408
#
# _framework density 22.833674999999999
#
# number of rings (size 3 to 8) (size 9 to 14) (size 15 to 20)
#    0.000    0.000    5.000    5.500    0.000    0.000 
#    0.000   10.000    0.000    0.000    0.000    0.000 
#    0.000    0.000    0.000    0.000    0.000    0.000 
#
# Total GULP energy -148784.051213 kJ/mol
# GULP energy per Si atom -12398.670934 kJ/mol
# Density = 2.278170 g / cm^3
# Si number density = 22.833675 Si / 1000 Ang^3
#
#
#
# Elastic Constant Matrix: (Units=GPa)
#
#
# Indices 1 2 3 4 5 6 
#
# 1 98.5816 59.3596 39.3637 -6.8666 -9.0448 -3.2458
# 2 59.3596 117.9687 40.5493 -5.5097 -10.6609 -9.5675
# 3 39.3637 40.5493 135.5796 -10.7394 -6.5289 2.5055
# 4 -6.8666 -5.5097 -10.7394 42.5282 5.1820 1.4370
# 5 -9.0448 -10.6609 -6.5289 5.1820 37.1435 3.2307
# 6 -3.2458 -9.5675 2.5055 1.4370 3.2307 20.7334
#
#
#
# Elastic Compliance Matrix: (Units=1/GPa)
#
#
# Indices 1 2 3 4 5 6 
#
# 1 0.015316 -0.006832 -0.002256 0.000883 0.001314 -0.000748
# 2 -0.006832 0.013116 -0.001986 -0.000240 0.001348 0.005029
# 3 -0.002256 -0.001986 0.008822 0.001640 0.000421 -0.002515
# 4 0.000883 -0.000240 0.001640 0.024435 -0.002851 -0.001420
# 5 0.001314 0.001348 0.000421 -0.002851 0.028401 -0.003451
# 6 -0.000748 0.005029 -0.002515 -0.001420 -0.003451 0.051375
#
#
# Mechanical properties :
#
#
# Convention : Reuss Voigt Hill
#
# Bulk Modulus (GPa) = 66.20604 70.07501 68.14052
# Shear Modulus (GPa) = 29.64755 34.27151 31.95953
#
# Velocity S-wave (km/s) = 3.60726 3.87837 3.74527
# Velocity P-wave (km/s) = 6.81231 7.12823 6.97206
#
# Compressibility (1/GPa) = 0.01510436
#
# Stress axis : x y z
#
# Youngs Moduli (GPa) = 65.29110 76.24489 113.35898
#
# Poissons Ratio (x) = 0.52089 0.25579
# Poissons Ratio (y) = 0.44606 0.22515
# Poissons Ratio (z) = 0.14733 0.15143
#
# Static dielectric constant tensor:
#      x y z
#    x 4.189880 -0.147900 -0.073370 
#    y -0.147900 3.923950 0.233400 
#    z -0.073370 0.233400 4.608700 
# 
# 
# High freq. dielectric constant tensor:
#      x y z
#    x 1.890890 -0.013460 0.001250 
#    y -0.013460 1.886630 0.010350 
#    z 0.001250 0.010350 1.928480 
# 
# From -- ./inp_files/439115.got.cif
#   From: 2010.06.25/outbox.cif.g09.slc.cpg/sg2_220_cif.got.tgz:439115.got - 2010.06.27 13:26:56.
