data_PCOD8036658
_publ_section_title
;
Structure prediction by ZEFSAII (Michael W. Deem and Ramdas Pophale) SiO2 
 PCOD8036658
Probable space group: P -1
;
_chemical_formula_sum "Si O2"
_cell_formula_units_Z 16
_cell_length_a 9.174753
_cell_length_b 12.805497
_cell_length_c 8.501991
_cell_angle_alpha 50.626748
_cell_angle_beta 89.426750
_cell_angle_gamma 104.210368
_cell_volume 729.997834
_symmetry_space_group_name_H-M "P -1"
_symmetry_group_IT_number 2
_symmetry_cell_setting 'triclinic'
loop_
_space_group_symop_operation_xyz
x,y,z
-x,-y,-z
loop_
_atom_site_type_symbol
_atom_site_label
_atom_site_fract_x
_atom_site_fract_y
_atom_site_fract_z
Si Si1 0.361176 0.397556 0.192607
Si Si2 0.140907 0.577756 0.535653
Si Si3 0.876958 0.679089 0.004065
Si Si4 0.408803 0.574265 0.319078
Si Si5 0.874067 0.072024 0.371396
Si Si6 0.689051 0.822789 0.072397
Si Si7 0.617118 0.856781 0.387378
Si Si8 0.718004 0.115573 0.643814
O O1 0.214992 0.339889 0.138949
O O2 0.319925 0.474894 0.271982
O O3 0.419037 0.268413 0.365876
O O4 0.500000 0.500000 0.000000
O O5 0.292595 0.612694 0.397609
O O6 0.153337 0.735303 0.446982
O O7 0.000000 0.500000 0.500000
O O8 0.132811 0.475721 0.782638
O O9 0.047094 0.774735 0.858371
O O10 0.820576 0.764549 0.058489
O O11 0.500000 0.500000 0.500000
O O12 0.525607 0.720242 0.102100
O O13 0.761462 0.085341 0.497521
O O14 0.762682 0.985573 0.319668
O O15 0.000000 0.000000 0.500000
O O16 0.674361 0.803362 0.278030
O O17 0.730183 0.988888 0.875205
O O18 0.459285 0.891703 0.336009
#
# Coordination Sequence:
#
# PCOD8036658 Si02
#       8
#     2   2   2   2   2   2   2   2
#     4  12  22  40  76 103 141 190 239 288 352 427
#     4  12  29  49  71 108 147 183 235 305 362 418
#     4  12  26  49  71 107 142 194 241 288 360 434
#     4  12  22  45  73 106 141 189 242 290 348 433
#     4  12  27  47  71 105 146 189 239 292 360 430
#     4  12  24  45  79 102 141 190 249 288 347 437
#     4  12  25  45  73 108 141 188 241 304 353 414
#     4  12  27  49  70 107 147 184 239 298 360 424
#
# _framework density 21.917874000000001
#
# number of rings (size 3 to 8) (size 9 to 14) (size 15 to 20)
#    0.000    0.000    7.500    1.500    3.500    2.000 
#    4.500    0.000    0.000    0.000    0.000    0.000 
#    0.000    0.000    0.000    0.000    0.000    0.000 
#
# Total GULP energy -198396.947541 kJ/mol
# GULP energy per Si atom -12399.809221 kJ/mol
# Density = 2.186799 g / cm^3
# Si number density = 21.917874 Si / 1000 Ang^3
#
#
#
# Elastic Constant Matrix: (Units=GPa)
#
#
# Indices 1 2 3 4 5 6 
#
# 1 61.4829 32.3515 21.4450 1.6658 -8.8702 15.5973
# 2 32.3515 126.2594 32.7781 0.8203 5.3747 14.1262
# 3 21.4450 32.7781 136.3510 -21.2496 -10.7341 -0.1115
# 4 1.6658 0.8203 -21.2496 50.7288 0.2830 -8.1961
# 5 -8.8702 5.3747 -10.7341 0.2830 35.4897 -1.0135
# 6 15.5973 14.1262 -0.1115 -8.1961 -1.0135 32.3107
#
#
#
# Elastic Compliance Matrix: (Units=1/GPa)
#
#
# Indices 1 2 3 4 5 6 
#
# 1 0.022789 -0.004239 -0.002693 -0.003431 0.005269 -0.009862
# 2 -0.004239 0.010051 -0.002231 -0.001394 -0.003326 -0.002814
# 3 -0.002693 -0.002231 0.009202 0.004536 0.002513 0.003537
# 4 -0.003431 -0.001394 0.004536 0.023061 0.000775 0.008155
# 5 0.005269 -0.003326 0.002513 0.000775 0.030754 0.000080
# 6 -0.009862 -0.002814 0.003537 0.008155 0.000080 0.039024
#
#
# Mechanical properties :
#
#
# Convention : Reuss Voigt Hill
#
# Bulk Modulus (GPa) = 42.16528 55.24916 48.70722
# Shear Modulus (GPa) = 31.03434 39.54045 35.28740
#
# Velocity S-wave (km/s) = 3.76698 4.25199 4.01681
# Velocity P-wave (km/s) = 6.18060 7.02624 6.61694
#
# Compressibility (1/GPa) = 0.02371620
#
# Stress axis : x y z
#
# Youngs Moduli (GPa) = 43.87995 99.49397 108.67760
#
# Poissons Ratio (x) = 0.42173 0.29269
# Poissons Ratio (y) = 0.18600 0.24244
# Poissons Ratio (z) = 0.11818 0.22195
#
# Static dielectric constant tensor:
#      x y z
#    x 3.987210 0.284100 -0.070270 
#    y 0.284100 4.483460 0.026970 
#    z -0.070270 0.026970 4.206570 
# 
# 
# High freq. dielectric constant tensor:
#      x y z
#    x 1.849100 0.005620 -0.019290 
#    y 0.005620 1.883110 -0.002780 
#    z -0.019290 -0.002780 1.877500 
# 
# From -- ./inp_files/184310.got.cif
#   From: 2010.06.25/outbox.cif.g09.slc.cpg/sg2_93_cif.got.tgz:184310.got - 2010.06.27 13:26:56.
