data_PCOD8036662
_publ_section_title
;
Structure prediction by ZEFSAII (Michael W. Deem and Ramdas Pophale) SiO2 
 PCOD8036662
Probable space group: P -1
;
_chemical_formula_sum "Si O2"
_cell_formula_units_Z 16
_cell_length_a 7.853864
_cell_length_b 7.905223
_cell_length_c 22.666928
_cell_angle_alpha 107.954317
_cell_angle_beta 122.069359
_cell_angle_gamma 37.704903
_cell_volume 712.190297
_symmetry_space_group_name_H-M "P -1"
_symmetry_group_IT_number 2
_symmetry_cell_setting 'triclinic'
loop_
_space_group_symop_operation_xyz
x,y,z
-x,-y,-z
loop_
_atom_site_type_symbol
_atom_site_label
_atom_site_fract_x
_atom_site_fract_y
_atom_site_fract_z
Si Si1 0.374707 0.032995 0.635327
Si Si2 0.648084 0.472928 0.583438
Si Si3 0.401087 0.767341 0.343460
Si Si4 0.365511 0.176736 0.220644
Si Si5 0.671119 0.302986 0.259711
Si Si6 0.364125 0.293049 0.865156
Si Si7 0.657482 0.427996 0.889157
Si Si8 0.609976 0.120431 0.019919
O O1 0.431617 0.152101 0.609959
O O2 0.014373 0.274031 0.619207
O O3 0.461962 0.781334 0.598220
O O4 0.607869 0.933094 0.722035
O O5 0.500000 0.500000 0.500000
O O6 0.596307 0.352582 0.609541
O O7 0.599498 0.537959 0.303110
O O8 0.041302 0.038751 0.283380
O O9 0.568906 0.215176 0.275173
O O10 0.009385 0.466464 0.165688
O O11 0.523110 0.961924 0.173196
O O12 0.447455 0.411543 0.173902
O O13 0.426925 0.417399 0.848855
O O14 0.559665 0.195185 0.950211
O O15 0.608751 0.595468 0.952347
O O16 0.021171 0.109291 0.919853
O O17 0.500000 0.000000 0.000000
#
# Coordination Sequence:
#
# PCOD8036662 Si02
#       8
#     2   2   2   2   2   2   2   2
#     4  12  25  45  72 103 140 182 227 280 336 398
#     4  12  26  47  71 105 143 180 225 274 331 408
#     4  12  24  45  70 103 140 180 228 281 336 399
#     4  12  22  41  65  95 128 169 223 274 332 398
#     4  12  23  42  68  98 133 177 225 283 337 394
#     4  12  24  39  62  92 124 171 218 275 338 397
#     4  12  24  41  61  90 125 167 220 277 334 402
#     4  12  24  42  59  86 124 169 217 273 340 402
#
# _framework density 22.465904999999999
#
# number of rings (size 3 to 8) (size 9 to 14) (size 15 to 20)
#    0.000    0.000    2.500    9.000    0.000    1.000 
#    0.000    0.000    0.000    0.000    0.000    0.000 
#    0.000    0.000    0.000    0.000    0.000    0.000 
#
# Total GULP energy -198452.114467 kJ/mol
# GULP energy per Si atom -12403.257154 kJ/mol
# Density = 2.241477 g / cm^3
# Si number density = 22.465905 Si / 1000 Ang^3
#
#
#
# Elastic Constant Matrix: (Units=GPa)
#
#
# Indices 1 2 3 4 5 6 
#
# 1 126.8827 25.1894 12.1314 5.3641 6.3074 17.2760
# 2 25.1894 116.7556 23.7094 15.1991 -4.4333 2.1730
# 3 12.1314 23.7094 108.5077 10.3147 -17.7472 5.9958
# 4 5.3641 15.1991 10.3147 30.0857 -2.0217 0.0862
# 5 6.3074 -4.4333 -17.7472 -2.0217 28.6749 4.0319
# 6 17.2760 2.1730 5.9958 0.0862 4.0319 29.6242
#
#
#
# Elastic Compliance Matrix: (Units=1/GPa)
#
#
# Indices 1 2 3 4 5 6 
#
# 1 0.009061 -0.001729 -0.000645 -0.000644 -0.002037 -0.004748
# 2 -0.001729 0.009785 -0.001485 -0.004086 0.000613 0.000520
# 3 -0.000645 -0.001485 0.011146 -0.002477 0.007018 -0.002719
# 4 -0.000644 -0.004086 -0.002477 0.036290 0.000393 0.001018
# 5 -0.002037 0.000613 0.007018 0.000393 0.040604 -0.005805
# 6 -0.004748 0.000520 -0.002719 0.001018 -0.005805 0.037824
#
#
# Mechanical properties :
#
#
# Convention : Reuss Voigt Hill
#
# Bulk Modulus (GPa) = 44.89380 52.68958 48.79169
# Shear Modulus (GPa) = 31.27867 37.08467 34.18167
#
# Velocity S-wave (km/s) = 3.73537 4.06730 3.90486
# Velocity P-wave (km/s) = 6.21534 6.74991 6.48813
#
# Compressibility (1/GPa) = 0.02227479
#
# Stress axis : x y z
#
# Youngs Moduli (GPa) = 110.36101 102.19714 89.71786
#
# Poissons Ratio (x) = 0.17671 0.05786
# Poissons Ratio (y) = 0.19082 0.13321
# Poissons Ratio (z) = 0.07117 0.15174
#
# Static dielectric constant tensor:
#      x y z
#    x 4.175310 0.395950 -0.117340 
#    y 0.395950 4.037770 -0.428550 
#    z -0.117340 -0.428550 4.222800 
# 
# 
# High freq. dielectric constant tensor:
#      x y z
#    x 1.904090 0.002780 -0.000340 
#    y 0.002780 1.902820 0.000760 
#    z -0.000340 0.000760 1.878320 
# 
# From -- ./inp_files/352519.got.cif
#   From: 2010.06.25/outbox.cif.g09.slc.cpg/sg2_177_cif.got.tgz:352519.got - 2010.06.27 13:26:56.
