data_PCOD8036842
_publ_section_title
;
Structure prediction by ZEFSAII (Michael W. Deem and Ramdas Pophale) SiO2 
 PCOD8036842
Probable space group: P -1
;
_chemical_formula_sum "Si O2"
_cell_formula_units_Z 16
_cell_length_a 11.458331
_cell_length_b 11.287471
_cell_length_c 11.536706
_cell_angle_alpha 58.145717
_cell_angle_beta 124.195346
_cell_angle_gamma 146.182957
_cell_volume 680.840245
_symmetry_space_group_name_H-M "P -1"
_symmetry_group_IT_number 2
_symmetry_cell_setting 'triclinic'
loop_
_space_group_symop_operation_xyz
x,y,z
-x,-y,-z
loop_
_atom_site_type_symbol
_atom_site_label
_atom_site_fract_x
_atom_site_fract_y
_atom_site_fract_z
Si Si1 0.093065 0.941122 0.159906
Si Si2 0.731815 0.160265 0.278914
Si Si3 0.346002 0.016756 0.059147
Si Si4 0.560603 0.691474 0.668479
Si Si5 0.837464 0.477055 0.350669
Si Si6 0.761473 0.883033 0.450488
Si Si7 0.991731 0.650454 0.882305
Si Si8 0.512820 0.356260 0.805888
O O1 0.929928 0.694590 0.240105
O O2 0.281943 0.012060 0.154710
O O3 0.209125 0.093620 0.257872
O O4 0.000000 0.000000 0.000000
O O5 0.497630 0.992955 0.168305
O O6 0.760948 0.326209 0.277666
O O7 0.922427 0.274706 0.236913
O O8 0.752282 0.032043 0.428770
O O9 0.495771 0.243359 0.964486
O O10 0.130045 0.838026 0.956649
O O11 0.366516 0.653155 0.609036
O O12 0.612560 0.693740 0.560421
O O13 0.466675 0.473641 0.773429
O O14 0.000000 0.500000 0.500000
O O15 0.652831 0.809049 0.302445
O O16 0.000000 0.000000 0.500000
O O17 0.755643 0.536998 0.800952
O O18 0.000000 0.500000 0.000000
#
# Coordination Sequence:
#
# PCOD8036842 Si02
#       8
#     2   2   2   2   2   2   2   2
#     4  12  28  48  79 111 156 202 255 317 381 458
#     4  12  25  47  76 109 154 195 254 317 384 450
#     4  12  25  46  74 116 148 191 255 318 386 445
#     4  12  29  50  77 109 154 203 257 309 383 460
#     4  12  30  50  77 113 156 209 257 312 384 464
#     4  12  29  50  79 109 155 203 257 315 379 458
#     4  12  23  42  72 109 150 192 244 317 380 450
#     4  12  27  47  78 111 151 199 256 316 388 451
#
# _framework density 23.500374000000001
#
# number of rings (size 3 to 8) (size 9 to 14) (size 15 to 20)
#    0.000    0.000    3.750    5.250   10.500    2.000 
#    0.000    0.000    0.000    0.000    0.000    0.000 
#    0.000    0.000    0.000    0.000    0.000    0.000 
#
# Total GULP energy -198296.885715 kJ/mol
# GULP energy per Si atom -12393.555357 kJ/mol
# Density = 2.344689 g / cm^3
# Si number density = 23.500374 Si / 1000 Ang^3
#
#
#
# Elastic Constant Matrix: (Units=GPa)
#
#
# Indices 1 2 3 4 5 6 
#
# 1 133.7049 47.6199 40.8226 2.6759 9.8511 16.3482
# 2 47.6199 92.3530 33.3581 4.7976 14.2151 3.2984
# 3 40.8226 33.3581 104.0222 0.1291 16.5034 11.4343
# 4 2.6759 4.7976 0.1291 29.9027 -3.5281 7.2394
# 5 9.8511 14.2151 16.5034 -3.5281 50.4304 -2.9135
# 6 16.3482 3.2984 11.4343 7.2394 -2.9135 51.1488
#
#
#
# Elastic Compliance Matrix: (Units=1/GPa)
#
#
# Indices 1 2 3 4 5 6 
#
# 1 0.009986 -0.004242 -0.002267 0.000380 -0.000129 -0.002473
# 2 -0.004242 0.014462 -0.002716 -0.002521 -0.002463 0.001247
# 3 -0.002267 -0.002716 0.012043 0.000755 -0.002799 -0.002059
# 4 0.000380 -0.002521 0.000755 0.035318 0.002573 -0.004980
# 5 -0.000129 -0.002463 -0.002799 0.002573 0.021743 0.001700
# 6 -0.002473 0.001247 -0.002059 -0.004980 0.001700 0.021523
#
#
# Mechanical properties :
#
#
# Convention : Reuss Voigt Hill
#
# Bulk Modulus (GPa) = 55.42664 63.74236 59.58450
# Shear Modulus (GPa) = 35.83216 40.18169 38.00692
#
# Velocity S-wave (km/s) = 3.90904 4.13950 4.02592
# Velocity P-wave (km/s) = 6.63406 7.07320 6.85714
#
# Compressibility (1/GPa) = 0.01804187
#
# Stress axis : x y z
#
# Youngs Moduli (GPa) = 100.13674 69.14687 83.03314
#
# Poissons Ratio (x) = 0.29332 0.18822
# Poissons Ratio (y) = 0.42478 0.22553
# Poissons Ratio (z) = 0.22700 0.18781
#
# Static dielectric constant tensor:
#      x y z
#    x 4.289320 -0.267150 0.161700 
#    y -0.267150 4.152340 -0.133100 
#    z 0.161700 -0.133100 4.248390 
# 
# 
# High freq. dielectric constant tensor:
#      x y z
#    x 1.949900 0.001290 0.008890 
#    y 0.001290 1.935900 -0.006930 
#    z 0.008890 -0.006930 1.941050 
# 
# From -- ./inp_files/98714.got.cif
#   From: 2010.06.25/outbox.cif.g09.slc.cpg/sg2_50_cif.got.tgz:98714.got - 2010.06.27 13:26:56.
