data_PCOD8036661
_publ_section_title
;
Structure prediction by ZEFSAII (Michael W. Deem and Ramdas Pophale) SiO2 
 PCOD8036661
Probable space group: P -1
;
_chemical_formula_sum "Si O2"
_cell_formula_units_Z 14
_cell_length_a 23.870100
_cell_length_b 11.744741
_cell_length_c 12.479489
_cell_angle_alpha 156.617228
_cell_angle_beta 27.298395
_cell_angle_gamma 149.536538
_cell_volume 615.849851
_symmetry_space_group_name_H-M "P -1"
_symmetry_group_IT_number 2
_symmetry_cell_setting 'triclinic'
loop_
_space_group_symop_operation_xyz
x,y,z
-x,-y,-z
loop_
_atom_site_type_symbol
_atom_site_label
_atom_site_fract_x
_atom_site_fract_y
_atom_site_fract_z
Si Si1 0.414026 0.181111 0.362191
Si Si2 0.716855 0.952020 0.854147
Si Si3 0.209243 0.364553 0.732002
Si Si4 0.545606 0.424081 0.971498
Si Si5 0.069568 0.681521 0.819054
Si Si6 0.103403 0.067186 0.291683
Si Si7 0.679056 0.956151 0.360250
O O1 0.500000 0.500000 0.500000
O O2 0.288280 0.193725 0.523459
O O3 0.372144 0.065861 0.451688
O O4 0.500000 0.000000 0.000000
O O5 0.808484 0.819107 0.507378
O O6 0.760248 0.911657 0.867203
O O7 0.573350 0.762135 0.918298
O O8 0.721414 0.291542 0.110385
O O9 0.073272 0.342088 0.998727
O O10 0.637240 0.224807 0.608531
O O11 0.500000 0.500000 0.000000
O O12 0.623942 0.677940 0.136631
O O13 0.100116 0.360492 0.482860
O O14 0.167685 0.938308 0.806644
O O15 0.079867 0.779291 0.009132
O O16 0.000000 0.000000 0.500000
#
# Coordination Sequence:
#
# PCOD8036661 Si02
#       7
#     2   2   2   2   2   2   2
#     4  12  26  47  71  96 129 175 230 281 335 389
#     4  12  23  39  67  96 132 172 223 277 322 388
#     4  12  24  41  67  98 126 170 227 274 324 394
#     4  12  25  44  65  99 135 176 221 267 336 405
#     4  12  24  42  65 100 136 174 221 267 338 402
#     4  12  22  41  63  99 139 176 215 265 331 398
#     4  12  26  45  68  96 139 177 215 281 336 392
#
# _framework density 22.732814000000001
#
# number of rings (size 3 to 8) (size 9 to 14) (size 15 to 20)
#    0.000    0.000    2.857    9.429    0.000    0.571 
#    0.000    0.000    0.000    6.857    0.000    0.000 
#    0.000    0.000    0.000    0.000    0.000    0.000 
#
# Total GULP energy -173564.077152 kJ/mol
# GULP energy per Si atom -12397.434082 kJ/mol
# Density = 2.268107 g / cm^3
# Si number density = 22.732814 Si / 1000 Ang^3
#
#
#
# Elastic Constant Matrix: (Units=GPa)
#
#
# Indices 1 2 3 4 5 6 
#
# 1 92.6466 41.2335 22.7981 -1.5279 -19.4996 6.5112
# 2 41.2335 134.3689 36.8556 -7.3135 -7.4586 9.5891
# 3 22.7981 36.8556 108.5274 14.1124 -12.7263 -0.4289
# 4 -1.5279 -7.3135 14.1124 40.2919 1.4449 2.5254
# 5 -19.4996 -7.4586 -12.7263 1.4449 39.2535 -8.7376
# 6 6.5112 9.5891 -0.4289 2.5254 -8.7376 35.0833
#
#
#
# Elastic Compliance Matrix: (Units=1/GPa)
#
#
# Indices 1 2 3 4 5 6 
#
# 1 0.013911 -0.003661 -0.000993 0.000009 0.005863 -0.000134
# 2 -0.003661 0.009671 -0.003103 0.002929 -0.001681 -0.002631
# 3 -0.000993 -0.003103 0.011517 -0.004904 0.003357 0.002363
# 4 0.000009 0.002929 -0.004904 0.027391 -0.002824 -0.003537
# 5 0.005863 -0.001681 0.003357 -0.002824 0.030888 0.007308
# 6 -0.000134 -0.002631 0.002363 -0.003537 0.007308 0.031351
#
#
# Mechanical properties :
#
#
# Convention : Reuss Voigt Hill
#
# Bulk Modulus (GPa) = 51.06208 59.70192 55.38200
# Shear Modulus (GPa) = 34.06634 38.56947 36.31790
#
# Velocity S-wave (km/s) = 3.87532 4.12350 4.00133
# Velocity P-wave (km/s) = 6.52186 6.99932 6.76480
#
# Compressibility (1/GPa) = 0.01958400
#
# Stress axis : x y z
#
# Youngs Moduli (GPa) = 71.88591 103.40484 86.82446
#
# Poissons Ratio (x) = 0.37856 0.08624
# Poissons Ratio (y) = 0.26317 0.26945
# Poissons Ratio (z) = 0.07140 0.32091
#
# Static dielectric constant tensor:
#      x y z
#    x 4.089710 0.216180 -0.057260 
#    y 0.216180 4.434770 -0.089080 
#    z -0.057260 -0.089080 4.296160 
# 
# 
# High freq. dielectric constant tensor:
#      x y z
#    x 1.884370 0.016540 -0.004740 
#    y 0.016540 1.910730 -0.000220 
#    z -0.004740 -0.000220 1.915050 
# 
# From -- ./inp_files/474805.got.cif
#   From: 2010.06.25/outbox.cif.g09.slc.cpg/sg2_238_cif.got.tgz:474805.got - 2010.06.27 13:26:56.
