data_PCOD8036290
_publ_section_title
;
Structure prediction by ZEFSAII (Michael W. Deem and Ramdas Pophale) SiO2 
 PCOD8036290
Probable space group: P -1
;
_chemical_formula_sum "Si O2"
_cell_formula_units_Z 8
_cell_length_a 9.190177
_cell_length_b 11.840906
_cell_length_c 5.379386
_cell_angle_alpha 90.984462
_cell_angle_beta 69.539713
_cell_angle_gamma 38.377629
_cell_volume 294.758610
_symmetry_space_group_name_H-M "P -1"
_symmetry_group_IT_number 2
_symmetry_cell_setting 'triclinic'
loop_
_space_group_symop_operation_xyz
x,y,z
-x,-y,-z
loop_
_atom_site_type_symbol
_atom_site_label
_atom_site_fract_x
_atom_site_fract_y
_atom_site_fract_z
Si Si1 0.095692 0.378850 0.186572
Si Si2 0.188871 0.656635 0.447860
Si Si3 0.610048 0.044272 0.565885
Si Si4 0.317273 0.777148 0.724690
O O1 0.000000 0.500000 0.500000
O O2 0.970120 0.328393 0.257930
O O3 0.447478 0.155751 0.935786
O O4 0.000000 0.500000 0.000000
O O5 0.294234 0.708725 0.501315
O O6 0.483924 0.405592 0.185743
O O7 0.959279 0.823140 0.373738
O O8 0.525580 0.203837 0.452597
O O9 0.500000 0.000000 0.500000
O O10 0.000000 0.000000 0.000000
#
# Coordination Sequence:
#
# PCOD8036290 Si02
#       4
#     2   2   2   2
#     4  12  26  48  80 116 159 208 268 336 400 477
#     4  11  26  47  76 111 158 209 262 328 406 473
#     4  12  26  49  80 117 158 211 269 334 403 481
#     4  11  26  48  74 111 162 205 271 324 406 479
#
# _framework density 27.140853
#
# number of rings (size 3 to 8) (size 9 to 14) (size 15 to 20)
#    0.000    0.500    2.500    4.500    3.500    1.000 
#    0.000    0.000    0.000    0.000    0.000    0.000 
#    0.000    0.000    0.000    0.000    0.000    0.000 
#
# Total GULP energy -99131.662460 kJ/mol
# GULP energy per Si atom -12391.457808 kJ/mol
# Density = 2.707908 g / cm^3
# Si number density = 27.140853 Si / 1000 Ang^3
#
#
#
# Elastic Constant Matrix: (Units=GPa)
#
#
# Indices 1 2 3 4 5 6 
#
# 1 145.8635 39.3416 27.4914 12.8120 13.6227 21.8167
# 2 39.3416 176.4365 30.7295 33.7759 29.3283 -7.1969
# 3 27.4914 30.7295 143.7259 38.8178 13.8225 -3.6784
# 4 12.8120 33.7759 38.8178 55.6739 -12.5255 -15.1896
# 5 13.6227 29.3283 13.8225 -12.5255 26.6395 4.8141
# 6 21.8167 -7.1969 -3.6784 -15.1896 4.8141 64.0563
#
#
#
# Elastic Compliance Matrix: (Units=1/GPa)
#
#
# Indices 1 2 3 4 5 6 
#
# 1 0.008255 -0.000568 -0.000224 -0.003307 -0.004431 -0.003339
# 2 -0.000568 0.011081 0.003251 -0.013338 -0.019859 -0.000045
# 3 -0.000224 0.003251 0.011505 -0.013745 -0.015720 -0.000976
# 4 -0.003307 -0.013338 -0.013745 0.048419 0.045020 0.006936
# 5 -0.004431 -0.019859 -0.015720 0.045020 0.090586 0.002243
# 6 -0.003339 -0.000045 -0.000976 0.006936 0.002243 0.018164
#
#
# Mechanical properties :
#
#
# Convention : Reuss Voigt Hill
#
# Bulk Modulus (GPa) = 27.96590 73.46121 50.71356
# Shear Modulus (GPa) = 25.63950 53.83817 39.73884
#
# Velocity S-wave (km/s) = 3.07690 4.45866 3.83060
# Velocity P-wave (km/s) = 4.79056 7.32336 6.18794
#
# Compressibility (1/GPa) = 0.03575783
#
# Stress axis : x y z
#
# Youngs Moduli (GPa) = 121.13993 90.24520 86.92166
#
# Poissons Ratio (x) = 0.05129 0.01944
# Poissons Ratio (y) = 0.06885 -0.28256
# Poissons Ratio (z) = 0.02709 -0.29336
#
# Static dielectric constant tensor:
#      x y z
#    x 4.690770 0.017240 -0.443590 
#    y 0.017240 5.912260 1.053190 
#    z -0.443590 1.053190 5.693650 
# 
# 
# High freq. dielectric constant tensor:
#      x y z
#    x 2.107150 0.010530 -0.028980 
#    y 0.010530 2.124790 0.031210 
#    z -0.028980 0.031210 2.070150 
# 
# From -- ./inp_files/17418.got.cif
#   From: 2010.06.25/outbox.cif.g09.slc.cpg/sg2_9_cif.got.tgz:17418.got - 2010.06.27 13:26:56.
