data_PCOD8036051
_publ_section_title
;
Structure prediction by ZEFSAII (Michael W. Deem and Ramdas Pophale) SiO2 
 PCOD8036051
Probable space group: P -1
;
_chemical_formula_sum "Si O2"
_cell_formula_units_Z 14
_cell_length_a 20.582728
_cell_length_b 15.640276
_cell_length_c 4.947615
_cell_angle_alpha 99.823357
_cell_angle_beta 96.673413
_cell_angle_gamma 19.587202
_cell_volume 521.319291
_symmetry_space_group_name_H-M "P -1"
_symmetry_group_IT_number 2
_symmetry_cell_setting 'triclinic'
loop_
_space_group_symop_operation_xyz
x,y,z
-x,-y,-z
loop_
_atom_site_type_symbol
_atom_site_label
_atom_site_fract_x
_atom_site_fract_y
_atom_site_fract_z
Si Si1 0.107115 0.112908 0.030865
Si Si2 0.290941 0.224710 0.290513
Si Si3 0.703991 0.045408 0.470352
Si Si4 0.138665 0.332154 0.741068
Si Si5 0.289921 0.566810 0.392828
Si Si6 0.087601 0.962170 0.212111
Si Si7 0.676475 0.654962 0.962688
O O1 0.172549 0.936077 0.070738
O O2 0.197238 0.072109 0.252036
O O3 0.874900 0.416793 0.101335
O O4 0.194711 0.013181 0.718634
O O5 0.273453 0.239425 0.616649
O O6 0.300728 0.314022 0.279154
O O7 0.109206 0.410647 0.088352
O O8 0.481438 0.930674 0.162812
O O9 0.473209 0.352124 0.565132
O O10 0.731686 0.915201 0.293280
O O11 0.000000 0.500000 0.500000
O O12 0.349173 0.415436 0.137953
O O13 0.089092 0.784491 0.546467
O O14 0.260993 0.697497 0.314048
O O15 0.000000 0.000000 0.000000
#
# Coordination Sequence:
#
# PCOD8036051 Si02
#       7
#     2   2   2   2   2   2   2
#     4  12  28  48  78 113 156 197 253 320 386 455
#     4  11  27  46  80 112 148 210 269 314 377 460
#     4  12  29  49  76 114 157 207 246 318 395 454
#     4  12  26  47  71 112 160 205 254 319 384 461
#     4  11  26  50  80 111 158 198 262 317 389 461
#     4  11  26  48  81 114 146 204 258 323 381 461
#     4  11  25  50  80 115 151 207 266 324 377 465
#
# _framework density 26.854944
#
# number of rings (size 3 to 8) (size 9 to 14) (size 15 to 20)
#    0.000    0.571    2.857    3.000    6.000   10.286 
#    0.000    0.000    0.000    0.000    0.000    0.000 
#    0.000    0.000    0.000    0.000    0.000    0.000 
#
# Total GULP energy -173501.430877 kJ/mol
# GULP energy per Si atom -12392.959348 kJ/mol
# Density = 2.679382 g / cm^3
# Si number density = 26.854944 Si / 1000 Ang^3
#
#
#
# Elastic Constant Matrix: (Units=GPa)
#
#
# Indices 1 2 3 4 5 6 
#
# 1 75.6543 28.7074 22.5282 -0.6363 -26.1339 20.9251
# 2 28.7074 175.4959 29.3553 -17.2984 0.8515 0.4566
# 3 22.5282 29.3553 131.2213 -8.6632 -28.4609 -0.7294
# 4 -0.6363 -17.2984 -8.6632 29.5898 -0.5248 12.0042
# 5 -26.1339 0.8515 -28.4609 -0.5248 49.2941 -15.3397
# 6 20.9251 0.4566 -0.7294 12.0042 -15.3397 47.1187
#
#
#
# Elastic Compliance Matrix: (Units=1/GPa)
#
#
# Indices 1 2 3 4 5 6 
#
# 1 0.018937 -0.002856 -0.000915 0.001118 0.007646 -0.006192
# 2 -0.002856 0.006767 -0.001335 0.003697 -0.002545 -0.000589
# 3 -0.000915 -0.001335 0.009386 0.001201 0.005620 0.002088
# 4 0.001118 0.003697 0.001201 0.041001 -0.001950 -0.011594
# 5 0.007646 -0.002545 0.005620 -0.001950 0.029755 0.006900
# 6 -0.006192 -0.000589 0.002088 -0.011594 0.006900 0.029211
#
#
# Mechanical properties :
#
#
# Convention : Reuss Voigt Hill
#
# Bulk Modulus (GPa) = 40.19236 60.39483 50.29360
# Shear Modulus (GPa) = 32.56032 45.31922 38.93977
#
# Velocity S-wave (km/s) = 3.48581 4.11244 3.81202
# Velocity P-wave (km/s) = 5.58570 6.71474 6.17607
#
# Compressibility (1/GPa) = 0.02488035
#
# Stress axis : x y z
#
# Youngs Moduli (GPa) = 52.80608 147.77920 106.53998
#
# Poissons Ratio (x) = 0.42199 0.09744
# Poissons Ratio (y) = 0.15079 0.14221
# Poissons Ratio (z) = 0.04830 0.19725
#
# Static dielectric constant tensor:
#      x y z
#    x 4.589990 0.781960 1.237210 
#    y 0.781960 6.462010 -0.127480 
#    z 1.237210 -0.127480 3.875280 
# 
# 
# High freq. dielectric constant tensor:
#      x y z
#    x 2.095940 -0.005720 -0.010340 
#    y -0.005720 2.094680 -0.013860 
#    z -0.010340 -0.013860 2.083930 
# 
# From -- ./inp_files/119436.got.cif
#   From: 2010.06.25/outbox.cif.g09.slc.cpg/sg2_60_cif.got.tgz:119436.got - 2010.06.27 13:26:56.
