data_PCOD8036711
_publ_section_title
;
Structure prediction by ZEFSAII (Michael W. Deem and Ramdas Pophale) SiO2 
 PCOD8036711
Probable space group: P -1
;
_chemical_formula_sum "Si O2"
_cell_formula_units_Z 16
_cell_length_a 6.560735
_cell_length_b 14.512116
_cell_length_c 14.533626
_cell_angle_alpha 131.213067
_cell_angle_beta 77.038966
_cell_angle_gamma 132.619790
_cell_volume 701.790094
_symmetry_space_group_name_H-M "P -1"
_symmetry_group_IT_number 2
_symmetry_cell_setting 'triclinic'
loop_
_space_group_symop_operation_xyz
x,y,z
-x,-y,-z
loop_
_atom_site_type_symbol
_atom_site_label
_atom_site_fract_x
_atom_site_fract_y
_atom_site_fract_z
Si Si1 0.810743 0.085424 0.220567
Si Si2 0.722961 0.585164 0.720533
Si Si3 0.161906 0.834542 0.401336
Si Si4 0.766825 0.769925 0.549621
Si Si5 0.224035 0.955154 0.274542
Si Si6 0.505781 0.730386 0.950068
Si Si7 0.441081 0.334765 0.901886
Si Si8 0.134490 0.544920 0.225179
O O1 0.952173 0.250515 0.250172
O O2 0.038168 0.161269 0.332194
O O3 0.475056 0.976930 0.216443
O O4 0.766773 0.944479 0.070283
O O5 0.494465 0.444269 0.570161
O O6 0.612965 0.662343 0.831997
O O7 0.734972 0.476063 0.716907
O O8 0.109845 0.842765 0.305535
O O9 0.064592 0.657511 0.326744
O O10 0.971660 0.847577 0.489591
O O11 0.500000 0.000000 0.500000
O O12 0.626341 0.846832 0.604244
O O13 0.917613 0.842552 0.173103
O O14 0.189069 0.653416 0.895490
O O15 0.417708 0.651691 0.009253
O O16 0.613971 0.343056 0.806375
O O17 0.500000 0.500000 0.000000
#
# Coordination Sequence:
#
# PCOD8036711 Si02
#       8
#     2   2   2   2   2   2   2   2
#     4  12  28  48  73 104 142 194 242 290 350 420
#     4  12  28  48  73 104 142 194 242 290 350 420
#     4  12  22  43  71 104 142 182 230 288 359 422
#     4  12  25  49  72 106 144 182 241 299 353 422
#     4  12  25  45  73 106 146 184 234 293 358 423
#     4  12  25  49  72 106 144 182 241 299 353 422
#     4  12  22  43  71 104 142 182 230 288 359 422
#     4  12  25  45  73 106 146 184 234 293 358 423
#
# _framework density 22.798840999999999
#
# number of rings (size 3 to 8) (size 9 to 14) (size 15 to 20)
#    0.000    0.000    5.000    6.000    0.000    2.000 
#    0.000    0.000    0.000    0.000    0.000    0.000 
#    0.000    0.000    0.000    0.000    0.000    0.000 
#
# Total GULP energy -198392.795494 kJ/mol
# GULP energy per Si atom -12399.549718 kJ/mol
# Density = 2.274695 g / cm^3
# Si number density = 22.798841 Si / 1000 Ang^3
#
#
#
# Elastic Constant Matrix: (Units=GPa)
#
#
# Indices 1 2 3 4 5 6 
#
# 1 82.7328 12.8458 39.0712 3.3859 -2.6504 -0.5879
# 2 12.8458 88.9998 27.2453 15.9793 -0.3701 -1.5960
# 3 39.0712 27.2453 132.5589 26.0591 -2.0844 0.8372
# 4 3.3859 15.9793 26.0591 32.2191 -0.2673 -0.4271
# 5 -2.6504 -0.3701 -2.0844 -0.2673 36.7600 14.6726
# 6 -0.5879 -1.5960 0.8372 -0.4271 14.6726 21.1164
#
#
#
# Elastic Compliance Matrix: (Units=1/GPa)
#
#
# Indices 1 2 3 4 5 6 
#
# 1 0.014308 -0.001174 -0.004499 0.002724 0.000786 -0.000003
# 2 -0.001174 0.012742 -0.001278 -0.005151 -0.000576 0.001277
# 3 -0.004499 -0.001278 0.010626 -0.007500 0.000731 -0.001302
# 4 0.002724 -0.005151 -0.007500 0.039382 -0.000423 0.001074
# 5 0.000786 -0.000576 0.000731 -0.000423 0.037800 -0.026324
# 6 -0.000003 0.001277 -0.001302 0.001074 -0.026324 0.065818
#
#
# Mechanical properties :
#
#
# Convention : Reuss Voigt Hill
#
# Bulk Modulus (GPa) = 42.06005 51.40181 46.73093
# Shear Modulus (GPa) = 24.69123 33.02772 28.85948
#
# Velocity S-wave (km/s) = 3.29447 3.81025 3.56171
# Velocity P-wave (km/s) = 5.74106 6.47705 6.12013
#
# Compressibility (1/GPa) = 0.02377553
#
# Stress axis : x y z
#
# Youngs Moduli (GPa) = 69.89240 78.48238 94.10454
#
# Poissons Ratio (x) = 0.09211 0.42338
# Poissons Ratio (y) = 0.08203 0.12022
# Poissons Ratio (z) = 0.31445 0.10026
#
# Static dielectric constant tensor:
#      x y z
#    x 4.025790 0.014310 -0.015850 
#    y 0.014310 3.612490 0.055210 
#    z -0.015850 0.055210 4.290070 
# 
# 
# High freq. dielectric constant tensor:
#      x y z
#    x 1.904910 -0.000160 -0.000960 
#    y -0.000160 1.896010 0.012710 
#    z -0.000960 0.012710 1.916030 
# 
# From -- ./inp_files/84461.got.cif
#   From: 2010.06.25/outbox.cif.g09.slc.cpg/sg2_43_cif.got.tgz:84461.got - 2010.06.27 13:26:56.
