data_PCOD8036479
_publ_section_title
;
Structure prediction by ZEFSAII (Michael W. Deem and Ramdas Pophale) SiO2 
 PCOD8036479
Probable space group: P -1
;
_chemical_formula_sum "Si O2"
_cell_formula_units_Z 12
_cell_length_a 8.335434
_cell_length_b 11.102987
_cell_length_c 8.583188
_cell_angle_alpha 59.989628
_cell_angle_beta 112.342186
_cell_angle_gamma 68.836938
_cell_volume 461.630729
_symmetry_space_group_name_H-M "P -1"
_symmetry_group_IT_number 2
_symmetry_cell_setting 'triclinic'
loop_
_space_group_symop_operation_xyz
x,y,z
-x,-y,-z
loop_
_atom_site_type_symbol
_atom_site_label
_atom_site_fract_x
_atom_site_fract_y
_atom_site_fract_z
Si Si1 0.860196 0.343352 0.549134
Si Si2 0.380137 0.710548 0.001384
Si Si3 0.222375 0.857455 0.553747
Si Si4 0.922513 0.355912 0.921940
Si Si5 0.327729 0.066017 0.753828
Si Si6 0.360923 0.223025 0.365799
O O1 0.618741 0.561671 0.286151
O O2 0.825391 0.199746 0.586550
O O3 0.947816 0.313912 0.775728
O O4 0.071082 0.281355 0.554724
O O5 0.156338 0.747078 0.964560
O O6 0.405126 0.662661 0.855886
O O7 0.299713 0.916120 0.835326
O O8 0.373941 0.911890 0.527716
O O9 0.000000 0.000000 0.500000
O O10 0.715720 0.583467 0.725780
O O11 0.171234 0.271930 0.137939
O O12 0.412015 0.087777 0.610860
O O13 0.500000 0.000000 0.000000
#
# Coordination Sequence:
#
# PCOD8036479 Si02
#       6
#     2   2   2   2   2   2
#     4  12  27  50  83 117 163 212 275 328 408 487
#     4  12  27  51  81 114 164 223 264 328 418 476
#     4  12  27  51  81 117 162 215 265 335 404 485
#     4  11  27  49  86 119 161 216 270 340 400 486
#     4  12  30  50  80 123 164 210 273 342 402 482
#     4  11  28  52  80 122 164 209 275 336 409 476
#
# _framework density 25.994800999999999
#
# number of rings (size 3 to 8) (size 9 to 14) (size 15 to 20)
#    0.000    0.333    3.333    3.000    9.333    4.000 
#    0.000    0.000    0.000    0.000    0.000    0.000 
#    0.000    0.000    0.000    0.000    0.000    0.000 
#
# Total GULP energy -148678.296507 kJ/mol
# GULP energy per Si atom -12389.858042 kJ/mol
# Density = 2.593564 g / cm^3
# Si number density = 25.994801 Si / 1000 Ang^3
#
#
#
# Elastic Constant Matrix: (Units=GPa)
#
#
# Indices 1 2 3 4 5 6 
#
# 1 203.1967 71.6478 77.1476 2.7136 5.6082 -19.9024
# 2 71.6478 131.7795 63.0461 12.4787 -5.9332 4.9099
# 3 77.1476 63.0461 128.5969 40.6835 11.6054 -0.0781
# 4 2.7136 12.4787 40.6835 46.3968 1.1968 8.6770
# 5 5.6082 -5.9332 11.6054 1.1968 53.9601 -5.7412
# 6 -19.9024 4.9099 -0.0781 8.6770 -5.7412 37.9319
#
#
#
# Elastic Compliance Matrix: (Units=1/GPa)
#
#
# Indices 1 2 3 4 5 6 
#
# 1 0.007882 -0.002532 -0.004643 0.003601 0.000211 0.003662
# 2 -0.002532 0.011288 -0.004779 0.001784 0.002186 -0.002876
# 3 -0.004643 -0.004779 0.017641 -0.013992 -0.003431 0.000900
# 4 0.003601 0.001784 -0.013992 0.034213 0.001436 -0.005979
# 5 0.000211 0.002186 -0.003431 0.001436 0.019720 0.002477
# 6 0.003662 -0.002876 0.000900 -0.005979 0.002477 0.030401
#
#
# Mechanical properties :
#
#
# Convention : Reuss Voigt Hill
#
# Bulk Modulus (GPa) = 77.49702 98.58401 88.04051
# Shear Modulus (GPa) = 33.47770 44.43988 38.95879
#
# Velocity S-wave (km/s) = 3.59257 4.13918 3.87552
# Velocity P-wave (km/s) = 6.86192 7.80068 7.34631
#
# Compressibility (1/GPa) = 0.01290372
#
# Stress axis : x y z
#
# Youngs Moduli (GPa) = 126.87658 88.59146 56.68538
#
# Poissons Ratio (x) = 0.22429 0.26320
# Poissons Ratio (y) = 0.32122 0.27087
# Poissons Ratio (z) = 0.58912 0.42333
#
# Static dielectric constant tensor:
#      x y z
#    x 4.668480 -0.497070 -0.630660 
#    y -0.497070 3.353400 -2.016640 
#    z -0.630660 -2.016640 2.166090 
# 
# 
# High freq. dielectric constant tensor:
#      x y z
#    x 2.051960 0.006350 0.013730 
#    y 0.006350 2.055520 0.005290 
#    z 0.013730 0.005290 2.062740 
# 
# From -- ./inp_files/185994.got.cif
#   From: 2010.06.25/outbox.cif.g09.slc.cpg/sg2_93_cif.got.tgz:185994.got - 2010.06.27 13:26:56.
