data_PCOD8036398
_publ_section_title
;
Structure prediction by ZEFSAII (Michael W. Deem and Ramdas Pophale) SiO2 
 PCOD8036398
Probable space group: P -1
;
_chemical_formula_sum "Si O2"
_cell_formula_units_Z 14
_cell_length_a 8.601132
_cell_length_b 17.338009
_cell_length_c 23.465930
_cell_angle_alpha 20.153427
_cell_angle_beta 29.864037
_cell_angle_gamma 30.246532
_cell_volume 574.552603
_symmetry_space_group_name_H-M "P -1"
_symmetry_group_IT_number 2
_symmetry_cell_setting 'triclinic'
loop_
_space_group_symop_operation_xyz
x,y,z
-x,-y,-z
loop_
_atom_site_type_symbol
_atom_site_label
_atom_site_fract_x
_atom_site_fract_y
_atom_site_fract_z
Si Si1 0.431464 0.628414 0.768833
Si Si2 0.235811 0.532273 0.108501
Si Si3 0.168406 0.342059 0.479894
Si Si4 0.154732 0.039554 0.109952
Si Si5 0.738187 0.819155 0.902618
Si Si6 0.778134 0.236050 0.437270
Si Si7 0.438876 0.301622 0.615457
O O1 0.627235 0.592678 0.790111
O O2 0.623127 0.755149 0.576574
O O3 0.057385 0.783074 0.786019
O O4 0.443144 0.375707 0.915613
O O5 0.964386 0.428557 0.240250
O O6 0.500000 0.500000 0.000000
O O7 0.089564 0.815031 0.962222
O O8 0.427839 0.348399 0.441269
O O9 0.922874 0.598765 0.366006
O O10 0.942348 0.186930 0.681275
O O11 0.136067 0.203452 0.057209
O O12 0.500000 0.000000 0.000000
O O13 0.473457 0.071161 0.802119
O O14 0.708548 0.209131 0.544670
O O15 0.000000 0.000000 0.500000
O O16 0.500000 0.500000 0.500000
#
# Coordination Sequence:
#
# PCOD8036398 Si02
#       7
#     2   2   2   2   2   2   2
#     4  11  27  50  79 116 152 205 271 323 397 469
#     4  12  26  48  76 113 153 204 262 327 390 460
#     4  12  27  49  76 117 156 207 259 326 398 472
#     4  12  27  48  77 110 157 201 254 320 396 471
#     4  11  26  49  79 110 161 202 262 328 395 470
#     4  12  28  48  78 114 160 209 269 324 395 472
#     4  12  26  48  77 117 157 207 262 329 400 469
#
# _framework density 24.366785
#
# number of rings (size 3 to 8) (size 9 to 14) (size 15 to 20)
#    0.000    0.286    2.857    4.714    8.000    2.286 
#    0.000    0.000    0.000    0.000    0.000    0.000 
#    0.000    0.000    0.000    0.000    0.000    0.000 
#
# Total GULP energy -173535.665999 kJ/mol
# GULP energy per Si atom -12395.404714 kJ/mol
# Density = 2.431132 g / cm^3
# Si number density = 24.366785 Si / 1000 Ang^3
#
#
#
# Elastic Constant Matrix: (Units=GPa)
#
#
# Indices 1 2 3 4 5 6 
#
# 1 123.3968 28.4453 43.5271 0.0038 -3.1927 -6.0652
# 2 28.4453 110.5744 36.1765 8.7431 0.4242 -4.7946
# 3 43.5271 36.1765 117.8066 19.0944 2.2113 -11.4854
# 4 0.0038 8.7431 19.0944 59.8230 -1.1399 12.6228
# 5 -3.1927 0.4242 2.2113 -1.1399 36.5561 1.8757
# 6 -6.0652 -4.7946 -11.4854 12.6228 1.8757 53.7680
#
#
#
# Elastic Compliance Matrix: (Units=1/GPa)
#
#
# Indices 1 2 3 4 5 6 
#
# 1 0.009657 -0.001501 -0.003355 0.001335 0.001111 -0.000113
# 2 -0.001501 0.010310 -0.002433 -0.000823 -0.000151 0.000429
# 3 -0.003355 -0.002433 0.011403 -0.003897 -0.001220 0.002798
# 4 0.001335 -0.000823 -0.003897 0.019224 0.001234 -0.005312
# 5 0.001111 -0.000151 -0.001220 0.001234 0.027638 -0.001402
# 6 -0.000113 0.000429 0.002798 -0.005312 -0.001402 0.020517
#
#
# Mechanical properties :
#
#
# Convention : Reuss Voigt Hill
#
# Bulk Modulus (GPa) = 59.55858 63.11952 61.33905
# Shear Modulus (GPa) = 42.04299 46.27136 44.15718
#
# Velocity S-wave (km/s) = 4.15833 4.36242 4.26160
# Velocity P-wave (km/s) = 6.89574 7.16481 7.03156
#
# Compressibility (1/GPa) = 0.01679019
#
# Stress axis : x y z
#
# Youngs Moduli (GPa) = 103.55564 96.99071 87.69813
#
# Poissons Ratio (x) = 0.14560 0.29425
# Poissons Ratio (y) = 0.15546 0.21340
# Poissons Ratio (z) = 0.34745 0.23601
#
# Static dielectric constant tensor:
#      x y z
#    x 4.477830 0.090070 0.059670 
#    y 0.090070 4.517220 0.169030 
#    z 0.059670 0.169030 4.270430 
# 
# 
# High freq. dielectric constant tensor:
#      x y z
#    x 1.978420 -0.007050 0.014790 
#    y -0.007050 1.982440 0.008510 
#    z 0.014790 0.008510 1.968670 
# 
# From -- ./inp_files/242602.got.cif
#   From: 2010.06.25/outbox.cif.g09.slc.cpg/sg2_122_cif.got.tgz:242602.got - 2010.06.27 13:26:56.
