data_PCOD8036982
_publ_section_title
;
Structure prediction by ZEFSAII (Michael W. Deem and Ramdas Pophale) SiO2 
 PCOD8036982
Probable space group: P -1
;
_chemical_formula_sum "Si O2"
_cell_formula_units_Z 16
_cell_length_a 16.569549
_cell_length_b 11.665301
_cell_length_c 8.717260
_cell_angle_alpha 116.138168
_cell_angle_beta 146.193858
_cell_angle_gamma 52.192061
_cell_volume 731.537613
_symmetry_space_group_name_H-M "P -1"
_symmetry_group_IT_number 2
_symmetry_cell_setting 'triclinic'
loop_
_space_group_symop_operation_xyz
x,y,z
-x,-y,-z
loop_
_atom_site_type_symbol
_atom_site_label
_atom_site_fract_x
_atom_site_fract_y
_atom_site_fract_z
Si Si1 0.060002 0.504816 0.766984
Si Si2 0.552514 0.357965 0.899662
Si Si3 0.575377 0.983339 0.276319
Si Si4 0.328114 0.612625 0.220362
Si Si5 0.826671 0.080674 0.690812
Si Si6 0.181671 0.936541 0.686189
Si Si7 0.738806 0.810744 0.953359
Si Si8 0.270193 0.288778 0.443561
O O1 0.000000 0.500000 0.500000
O O2 0.903722 0.595442 0.686190
O O3 0.183770 0.571410 0.998470
O O4 0.152564 0.339982 0.876434
O O5 0.645354 0.374773 0.909355
O O6 0.378140 0.360170 0.589241
O O7 0.500000 0.500000 0.000000
O O8 0.684234 0.209750 0.104016
O O9 0.609670 0.829864 0.312158
O O10 0.752141 0.974250 0.541791
O O11 0.456638 0.123659 0.277864
O O12 0.500000 0.000000 0.000000
O O13 0.500000 0.500000 0.500000
O O14 0.283621 0.762933 0.318060
O O15 0.831857 0.103632 0.532754
O O16 0.000000 0.000000 0.000000
O O17 0.000000 0.000000 0.500000
O O18 0.227014 0.064523 0.851003
O O19 0.770135 0.788539 0.807427
#
# Coordination Sequence:
#
# PCOD8036982 Si02
#       8
#     2   2   2   2   2   2   2   2
#     4  12  28  48  75 105 146 195 245 299 360 432
#     4  12  26  49  75 107 149 190 240 300 369 434
#     4  12  23  46  73 104 144 188 240 292 360 430
#     4  12  27  48  74 106 146 191 242 294 364 433
#     4  12  26  45  73 107 145 186 240 300 361 431
#     4  12  29  45  73 108 148 193 236 301 368 429
#     4  12  27  47  73 106 146 190 246 295 358 436
#     4  12  26  45  76 108 142 192 244 300 363 430
#
# _framework density 21.871739000000002
#
# number of rings (size 3 to 8) (size 9 to 14) (size 15 to 20)
#    0.000    0.000    2.500    6.750   10.500    0.000 
#    0.000    0.000    0.000    0.000    0.000    0.000 
#    0.000    0.000    0.000    0.000    0.000    0.000 
#
# Total GULP energy -198436.080236 kJ/mol
# GULP energy per Si atom -12402.255015 kJ/mol
# Density = 2.182196 g / cm^3
# Si number density = 21.871739 Si / 1000 Ang^3
#
#
#
# Elastic Constant Matrix: (Units=GPa)
#
#
# Indices 1 2 3 4 5 6 
#
# 1 139.9322 50.1047 44.5156 -6.5372 4.0097 -11.8412
# 2 50.1047 130.6639 32.9916 -9.6503 6.1986 0.2750
# 3 44.5156 32.9916 114.4539 -3.1655 13.1875 7.6745
# 4 -6.5372 -9.6503 -3.1655 41.5267 -8.2825 -5.9384
# 5 4.0097 6.1986 13.1875 -8.2825 42.4040 -6.9458
# 6 -11.8412 0.2750 7.6745 -5.9384 -6.9458 42.7529
#
#
#
# Elastic Compliance Matrix: (Units=1/GPa)
#
#
# Indices 1 2 3 4 5 6 
#
# 1 0.009522 -0.002797 -0.003265 0.001403 0.001398 0.003663
# 2 -0.002797 0.009220 -0.001451 0.001444 -0.000422 -0.000442
# 3 -0.003265 -0.001451 0.011071 -0.001286 -0.003775 -0.003674
# 4 0.001403 0.001444 -0.001286 0.026511 0.006100 0.005284
# 5 0.001398 -0.000422 -0.003775 0.006100 0.026907 0.006286
# 6 0.003663 -0.000442 -0.003674 0.005284 0.006286 0.026822
#
#
# Mechanical properties :
#
#
# Convention : Reuss Voigt Hill
#
# Bulk Modulus (GPa) = 67.63413 71.14153 69.38783
# Shear Modulus (GPa) = 38.45821 42.49927 40.47874
#
# Velocity S-wave (km/s) = 4.19782 4.41286 4.30668
# Velocity P-wave (km/s) = 7.38145 7.65256 7.51823
#
# Compressibility (1/GPa) = 0.01478543
#
# Stress axis : x y z
#
# Youngs Moduli (GPa) = 105.01837 108.45942 90.32393
#
# Poissons Ratio (x) = 0.30340 0.29492
# Poissons Ratio (y) = 0.29378 0.13110
# Poissons Ratio (z) = 0.34290 0.15743
#
# Static dielectric constant tensor:
#      x y z
#    x 4.352050 -0.011000 0.113460 
#    y -0.011000 3.848260 -0.027050 
#    z 0.113460 -0.027050 4.195090 
# 
# 
# High freq. dielectric constant tensor:
#      x y z
#    x 1.883860 -0.005760 0.003000 
#    y -0.005760 1.876640 -0.003350 
#    z 0.003000 -0.003350 1.875650 
# 
# From -- ./inp_files/333653.got.cif
#   From: 2010.06.25/outbox.cif.g09.slc.cpg/sg2_167_cif.got.tgz:333653.got - 2010.06.27 13:26:56.
