data_PCOD8036854
_publ_section_title
;
Structure prediction by ZEFSAII (Michael W. Deem and Ramdas Pophale) SiO2 
 PCOD8036854
Probable space group: P -1
;
_chemical_formula_sum "Si O2"
_cell_formula_units_Z 14
_cell_length_a 8.470274
_cell_length_b 5.043728
_cell_length_c 15.781814
_cell_angle_alpha 97.905868
_cell_angle_beta 82.367118
_cell_angle_gamma 89.676896
_cell_volume 661.705027
_symmetry_space_group_name_H-M "P -1"
_symmetry_group_IT_number 2
_symmetry_cell_setting 'triclinic'
loop_
_space_group_symop_operation_xyz
x,y,z
-x,-y,-z
loop_
_atom_site_type_symbol
_atom_site_label
_atom_site_fract_x
_atom_site_fract_y
_atom_site_fract_z
Si Si1 0.387049 0.256071 0.511101
Si Si2 0.131961 0.070169 0.061196
Si Si3 0.662496 0.427876 0.939125
Si Si4 0.739213 0.874403 0.660329
Si Si5 0.241524 0.315549 0.705351
Si Si6 0.582131 0.412588 0.748887
Si Si7 0.961758 0.162855 0.253012
O O1 0.500000 0.500000 0.500000
O O2 0.267103 0.229436 0.439855
O O3 0.280311 0.303063 0.603085
O O4 0.500000 0.000000 0.500000
O O5 0.056586 0.072131 0.159450
O O6 0.273451 0.849522 0.038518
O O7 0.794410 0.648216 0.956479
O O8 0.000000 0.000000 0.000000
O O9 0.633177 0.394695 0.840876
O O10 0.500000 0.500000 0.000000
O O11 0.629805 0.698044 0.721117
O O12 0.921956 0.856464 0.675381
O O13 0.672171 0.178337 0.680071
O O14 0.393045 0.389605 0.753732
O O15 0.101845 0.534369 0.740871
O O16 0.185388 0.028605 0.728788
#
# Coordination Sequence:
#
# PCOD8036854 Si02
#       7
#     2   2   2   2   2   2   2
#     4  12  23  43  67 100 132 172 228 280 327 382
#     4  12  27  47  69  99 141 178 212 277 343 393
#     4  12  26  46  71 104 131 173 231 274 323 400
#     4  12  23  45  71  92 136 183 215 273 336 395
#     4  12  26  41  70 101 132 176 228 272 326 399
#     4  12  23  44  70  97 131 181 224 268 327 397
#     4  12  26  44  66  99 139 175 219 269 342 400
#
# _framework density 21.157464000000001
#
# number of rings (size 3 to 8) (size 9 to 14) (size 15 to 20)
#    0.000    0.000    5.714    4.286    4.000    1.143 
#    0.000    0.000    0.000    0.000    0.000    0.000 
#    0.000    0.000    0.000    0.000    0.000    0.000 
#
# Total GULP energy -173737.029274 kJ/mol
# GULP energy per Si atom -12409.787805 kJ/mol
# Density = 2.110931 g / cm^3
# Si number density = 21.157464 Si / 1000 Ang^3
#
#
#
# Elastic Constant Matrix: (Units=GPa)
#
#
# Indices 1 2 3 4 5 6 
#
# 1 112.6392 20.7075 28.2956 8.7720 14.5005 0.0919
# 2 20.7075 96.1716 16.5896 7.0494 2.8427 -0.6423
# 3 28.2956 16.5896 84.5143 10.9259 12.2433 3.8320
# 4 8.7720 7.0494 10.9259 31.5216 2.2945 -5.6264
# 5 14.5005 2.8427 12.2433 2.2945 38.6495 -10.1098
# 6 0.0919 -0.6423 3.8320 -5.6264 -10.1098 47.0083
#
#
#
# Elastic Compliance Matrix: (Units=1/GPa)
#
#
# Indices 1 2 3 4 5 6 
#
# 1 0.010305 -0.001594 -0.002462 -0.001558 -0.003056 -0.000685
# 2 -0.001594 0.011103 -0.001517 -0.001510 0.000400 0.000184
# 3 -0.002462 -0.001517 0.014148 -0.004042 -0.003856 -0.002482
# 4 -0.001558 -0.001510 -0.004042 0.034653 0.001150 0.004707
# 5 -0.003056 0.000400 -0.003856 0.001150 0.029950 0.006904
# 6 -0.000685 0.000184 -0.002482 0.004707 0.006904 0.023527
#
#
# Mechanical properties :
#
#
# Convention : Reuss Voigt Hill
#
# Bulk Modulus (GPa) = 40.96705 47.16783 44.06744
# Shear Modulus (GPa) = 34.97283 38.61805 36.79544
#
# Velocity S-wave (km/s) = 4.07009 4.27695 4.17480
# Velocity P-wave (km/s) = 6.44147 6.83607 6.64170
#
# Compressibility (1/GPa) = 0.02440986
#
# Stress axis : x y z
#
# Youngs Moduli (GPa) = 97.04335 90.06523 70.68132
#
# Poissons Ratio (x) = 0.14358 0.17402
# Poissons Ratio (y) = 0.15470 0.10720
# Poissons Ratio (z) = 0.23893 0.13660
#
# Static dielectric constant tensor:
#      x y z
#    x 3.951400 0.103220 0.139970 
#    y 0.103220 4.193620 0.095450 
#    z 0.139970 0.095450 4.131180 
# 
# 
# High freq. dielectric constant tensor:
#      x y z
#    x 1.840930 0.003540 0.011440 
#    y 0.003540 1.850170 0.001410 
#    z 0.011440 0.001410 1.834570 
# 
# From -- ./inp_files/486510.got.cif
#   From: 2010.06.25/outbox.cif.g09.slc.cpg/sg2_244_cif.got.tgz:486510.got - 2010.06.27 13:26:56.
