data_PCOD8036803
_publ_section_title
;
Structure prediction by ZEFSAII (Michael W. Deem and Ramdas Pophale) SiO2 
 PCOD8036803
Probable space group: P -1
;
_chemical_formula_sum "Si O2"
_cell_formula_units_Z 16
_cell_length_a 9.415350
_cell_length_b 25.536291
_cell_length_c 26.014869
_cell_angle_alpha 168.925959
_cell_angle_beta 142.391508
_cell_angle_gamma 38.929274
_cell_volume 733.171014
_symmetry_space_group_name_H-M "P -1"
_symmetry_group_IT_number 2
_symmetry_cell_setting 'triclinic'
loop_
_space_group_symop_operation_xyz
x,y,z
-x,-y,-z
loop_
_atom_site_type_symbol
_atom_site_label
_atom_site_fract_x
_atom_site_fract_y
_atom_site_fract_z
Si Si1 0.649944 0.075859 0.779011
Si Si2 0.128681 0.721624 0.783439
Si Si3 0.606015 0.837156 0.981676
Si Si4 0.149654 0.260147 0.787687
Si Si5 0.654797 0.377496 0.470042
Si Si6 0.237904 0.401827 0.833309
Si Si7 0.141958 0.466281 0.653481
Si Si8 0.912020 0.058178 0.731849
O O1 0.666457 0.780141 0.527916
O O2 0.391310 0.200675 0.828940
O O3 0.728160 0.043928 0.711814
O O4 0.812587 0.297587 0.065322
O O5 0.112402 0.620834 0.740056
O O6 0.000000 0.500000 0.500000
O O7 0.402350 0.745858 0.873516
O O8 0.000000 0.000000 0.000000
O O9 0.823102 0.979128 0.210052
O O10 0.522425 0.094463 0.171766
O O11 0.677251 0.578136 0.718524
O O12 0.189856 0.306932 0.784883
O O13 0.000000 0.000000 0.500000
O O14 0.000000 0.500000 0.000000
O O15 0.500000 0.500000 0.500000
O O16 0.907688 0.316105 0.459655
O O17 0.177408 0.164469 0.547910
O O18 0.500000 0.500000 0.000000
O O19 0.075462 0.653825 0.015426
#
# Coordination Sequence:
#
# PCOD8036803 Si02
#       8
#     2   2   2   2   2   2   2   2
#     4  12  25  45  74 103 144 181 236 307 351 421
#     4  12  27  48  69 101 149 191 232 293 359 432
#     4  12  25  44  68 101 137 180 233 293 347 413
#     4  12  28  47  70 105 146 184 235 290 356 428
#     4  12  23  41  69 103 134 176 236 291 343 421
#     4  12  26  44  76 101 139 193 236 286 359 426
#     4  12  24  44  72 104 136 191 235 284 375 416
#     4  12  24  44  74 107 139 180 245 301 349 412
#
# _framework density 21.823014000000001
#
# number of rings (size 3 to 8) (size 9 to 14) (size 15 to 20)
#    0.000    0.000    3.750    6.750    1.750    3.000 
#    0.000    0.000    0.000    0.000    0.000    0.000 
#    0.000    0.000    0.000    0.000    0.000    0.000 
#
# Total GULP energy -198401.487749 kJ/mol
# GULP energy per Si atom -12400.092984 kJ/mol
# Density = 2.177334 g / cm^3
# Si number density = 21.823014 Si / 1000 Ang^3
#
#
#
# Elastic Constant Matrix: (Units=GPa)
#
#
# Indices 1 2 3 4 5 6 
#
# 1 136.0465 47.4947 54.7080 -4.3114 4.6995 0.3914
# 2 47.4947 104.6327 43.4462 8.2999 -8.1776 -0.6812
# 3 54.7080 43.4462 159.9694 6.9168 -1.1047 1.1224
# 4 -4.3114 8.2999 6.9168 52.1430 1.6350 8.9734
# 5 4.6995 -8.1776 -1.1047 1.6350 40.3804 3.8098
# 6 0.3914 -0.6812 1.1224 8.9734 3.8098 40.1254
#
#
#
# Elastic Compliance Matrix: (Units=1/GPa)
#
#
# Indices 1 2 3 4 5 6 
#
# 1 0.009750 -0.003728 -0.002413 0.001836 -0.002001 -0.000312
# 2 -0.003728 0.012491 -0.002005 -0.002212 0.002949 0.000519
# 3 -0.002413 -0.002005 0.007661 -0.000894 0.000124 -0.000037
# 4 0.001836 -0.002212 -0.000894 0.020616 -0.001093 -0.004537
# 5 -0.002001 0.002949 0.000124 -0.001093 0.025845 -0.002143
# 6 -0.000312 0.000519 -0.000037 -0.004537 -0.002143 0.026153
#
#
# Mechanical properties :
#
#
# Convention : Reuss Voigt Hill
#
# Bulk Modulus (GPa) = 73.47478 76.88291 75.17885
# Shear Modulus (GPa) = 40.53667 43.52973 42.03320
#
# Velocity S-wave (km/s) = 4.31457 4.47102 4.39349
# Velocity P-wave (km/s) = 7.65260 7.87147 7.76281
#
# Compressibility (1/GPa) = 0.01361011
#
# Stress axis : x y z
#
# Youngs Moduli (GPa) = 102.55947 80.05480 130.53411
#
# Poissons Ratio (x) = 0.29844 0.31499
# Poissons Ratio (y) = 0.38234 0.26175
# Poissons Ratio (z) = 0.24749 0.16053
#
# Static dielectric constant tensor:
#      x y z
#    x 3.994510 0.192460 0.173970 
#    y 0.192460 3.783750 0.033270 
#    z 0.173970 0.033270 4.187510 
# 
# 
# High freq. dielectric constant tensor:
#      x y z
#    x 1.857050 0.004390 0.007900 
#    y 0.004390 1.877360 0.005740 
#    z 0.007900 0.005740 1.881770 
# 
# From -- ./inp_files/557252.got.cif
#   From: 2010.06.25/outbox.cif.g09.slc.cpg/sg2_279_cif.got.tgz:557252.got - 2010.06.27 13:26:56.
