data_PCOD8036525
_publ_section_title
;
Structure prediction by ZEFSAII (Michael W. Deem and Ramdas Pophale) SiO2 
 PCOD8036525
Probable space group: P -1
;
_chemical_formula_sum "Si O2"
_cell_formula_units_Z 16
_cell_length_a 24.697692
_cell_length_b 24.183009
_cell_length_c 10.912654
_cell_angle_alpha 145.769654
_cell_angle_beta 143.824151
_cell_angle_gamma 11.669526
_cell_volume 741.406505
_symmetry_space_group_name_H-M "P -1"
_symmetry_group_IT_number 2
_symmetry_cell_setting 'triclinic'
loop_
_space_group_symop_operation_xyz
x,y,z
-x,-y,-z
loop_
_atom_site_type_symbol
_atom_site_label
_atom_site_fract_x
_atom_site_fract_y
_atom_site_fract_z
Si Si1 0.535929 0.136199 0.549680
Si Si2 0.970834 0.277107 0.163253
Si Si3 0.482606 0.750615 0.508914
Si Si4 0.021739 0.794071 0.418376
Si Si5 0.968998 0.372256 0.071227
Si Si6 0.605483 0.464567 0.027144
Si Si7 0.108474 0.929910 0.824761
Si Si8 0.466494 0.002429 0.303842
O O1 0.311360 0.428033 0.743998
O O2 0.544210 0.121863 0.386230
O O3 0.505419 0.053933 0.379676
O O4 0.813828 0.901002 0.673289
O O5 0.982726 0.329327 0.159019
O O6 0.014931 0.116774 0.912188
O O7 0.713090 0.515214 0.599571
O O8 0.561733 0.614197 0.278762
O O9 0.215564 0.977226 0.497815
O O10 0.060393 0.867124 0.573019
O O11 0.955436 0.796757 0.183583
O O12 0.173043 0.255375 0.206326
O O13 0.676139 0.705436 0.110973
O O14 0.500000 0.500000 0.000000
O O15 0.422956 0.627743 0.872848
O O16 0.919511 0.129864 0.965713
O O17 0.500000 0.000000 0.500000
#
# Coordination Sequence:
#
# PCOD8036525 Si02
#       8
#     2   2   2   2   2   2   2   2
#     4  12  24  39  69 103 120 153 213 288 319 350
#     4  12  22  39  65  99 129 155 212 272 318 361
#     4  12  23  41  62  96 132 169 212 261 311 368
#     4  12  26  42  62  90 140 183 202 238 317 402
#     4  12  26  45  66  95 129 169 212 256 322 396
#     4  12  20  34  61  91 124 166 221 258 293 360
#     4  12  22  36  61  96 128 169 209 257 311 362
#     4  12  23  46  73  96 120 158 218 275 328 363
#
# _framework density 21.580601999999999
#
# number of rings (size 3 to 8) (size 9 to 14) (size 15 to 20)
#    0.000    0.000    7.500    3.750    0.000    0.500 
#    0.000    3.750    0.000    6.000    0.000    0.000 
#    0.000    0.000    0.000    0.000    0.000    0.000 
#
# Total GULP energy -198281.846946 kJ/mol
# GULP energy per Si atom -12392.615434 kJ/mol
# Density = 2.153148 g / cm^3
# Si number density = 21.580602 Si / 1000 Ang^3
#
#
#
# Elastic Constant Matrix: (Units=GPa)
#
#
# Indices 1 2 3 4 5 6 
#
# 1 87.3658 22.4842 11.9199 -0.9724 31.7176 4.7831
# 2 22.4842 83.5602 12.3825 -11.9305 -0.6748 0.5403
# 3 11.9199 12.3825 84.1108 1.7182 6.9513 -3.5017
# 4 -0.9724 -11.9305 1.7182 27.4112 -0.7373 8.6883
# 5 31.7176 -0.6748 6.9513 -0.7373 31.3811 3.7923
# 6 4.7831 0.5403 -3.5017 8.6883 3.7923 31.8287
#
#
#
# Elastic Compliance Matrix: (Units=1/GPa)
#
#
# Indices 1 2 3 4 5 6 
#
# 1 0.020618 -0.006040 -0.000240 -0.002498 -0.020994 0.000161
# 2 -0.006040 0.015067 -0.002232 0.007481 0.007403 -0.002518
# 3 -0.000240 -0.002232 0.012658 -0.002661 -0.002980 0.002548
# 4 -0.002498 0.007481 -0.002661 0.044016 0.005851 -0.012757
# 5 -0.020994 0.007403 -0.002980 0.005851 0.054696 -0.005412
# 6 0.000161 -0.002518 0.002548 -0.012757 -0.005412 0.035844
#
#
# Mechanical properties :
#
#
# Convention : Reuss Voigt Hill
#
# Bulk Modulus (GPa) = 31.92700 38.73445 35.33073
# Shear Modulus (GPa) = 23.76833 32.00757 27.88795
#
# Velocity S-wave (km/s) = 3.32230 3.85536 3.59871
# Velocity P-wave (km/s) = 5.43537 6.14867 5.80299
#
# Compressibility (1/GPa) = 0.03132145
#
# Stress axis : x y z
#
# Youngs Moduli (GPa) = 48.50028 66.36854 78.99933
#
# Poissons Ratio (x) = 0.40084 0.01896
# Poissons Ratio (y) = 0.29292 0.17630
# Poissons Ratio (z) = 0.01164 0.14811
#
# Static dielectric constant tensor:
#      x y z
#    x 3.808360 2.188630 0.256220 
#    y 2.188630 -15.447460 0.616110 
#    z 0.256220 0.616110 3.661840 
# 
# 
# High freq. dielectric constant tensor:
#      x y z
#    x 1.858480 -0.004900 0.030420 
#    y -0.004900 1.864540 0.000330 
#    z 0.030420 0.000330 1.823850 
# 
# From -- ./inp_files/340332.got.cif
#   From: 2010.06.25/outbox.cif.g09.slc.cpg/sg2_171_cif.got.tgz:340332.got - 2010.06.27 13:26:56.
