data_PCOD8036933
_publ_section_title
;
Structure prediction by ZEFSAII (Michael W. Deem and Ramdas Pophale) SiO2 
 PCOD8036933
Probable space group: P -1
;
_chemical_formula_sum "Si O2"
_cell_formula_units_Z 16
_cell_length_a 8.958274
_cell_length_b 19.080129
_cell_length_c 11.580559
_cell_angle_alpha 148.558302
_cell_angle_beta 38.872860
_cell_angle_gamma 132.174023
_cell_volume 647.848619
_symmetry_space_group_name_H-M "P -1"
_symmetry_group_IT_number 2
_symmetry_cell_setting 'triclinic'
loop_
_space_group_symop_operation_xyz
x,y,z
-x,-y,-z
loop_
_atom_site_type_symbol
_atom_site_label
_atom_site_fract_x
_atom_site_fract_y
_atom_site_fract_z
Si Si1 0.508542 0.475528 0.325517
Si Si2 0.077146 0.911165 0.491931
Si Si3 0.204746 0.355842 0.793993
Si Si4 0.308444 0.708562 0.500058
Si Si5 0.153860 0.811064 0.970421
Si Si6 0.985239 0.539490 0.728324
Si Si7 0.528423 0.205580 0.029385
Si Si8 0.015374 0.869775 0.732116
O O1 0.500000 0.500000 0.500000
O O2 0.698555 0.566573 0.268367
O O3 0.244848 0.498500 0.469423
O O4 0.578810 0.319146 0.059799
O O5 0.941607 0.778211 0.339912
O O6 0.336175 0.921415 0.287073
O O7 0.112639 0.907963 0.602317
O O8 0.934957 0.044563 0.732610
O O9 0.410847 0.311544 0.696502
O O10 0.046830 0.460035 0.110723
O O11 0.194459 0.558609 0.370135
O O12 0.204388 0.767697 0.527730
O O13 0.254241 0.813431 0.783447
O O14 0.361318 0.763205 0.866071
O O15 0.945790 0.696016 0.936483
O O16 0.248815 0.193288 0.201952
O O17 0.000000 0.000000 0.000000
#
# Coordination Sequence:
#
# PCOD8036933 Si02
#       8
#     2   2   2   2   2   2   2   2
#     4  12  23  45  71 107 147 190 244 303 371 428
#     4  12  28  50  76 111 149 197 253 303 365 447
#     4  12  28  46  78 111 147 199 251 305 365 444
#     4  12  26  49  73 109 152 196 242 306 374 439
#     4  12  25  50  76 106 149 199 248 301 366 441
#     4  12  26  47  73 110 149 193 248 308 368 435
#     4  12  27  48  79 107 147 199 245 313 362 442
#     4  12  28  49  73 110 151 195 244 303 377 443
#
# _framework density 24.697129
#
# number of rings (size 3 to 8) (size 9 to 14) (size 15 to 20)
#    0.000    0.000    6.250    2.625    3.500    2.500 
#    2.250    0.000    0.000    0.000    0.000    0.000 
#    0.000    0.000    0.000    0.000    0.000    0.000 
#
# Total GULP energy -198334.725758 kJ/mol
# GULP energy per Si atom -12395.920360 kJ/mol
# Density = 2.464092 g / cm^3
# Si number density = 24.697129 Si / 1000 Ang^3
#
#
#
# Elastic Constant Matrix: (Units=GPa)
#
#
# Indices 1 2 3 4 5 6 
#
# 1 105.5668 17.0659 27.4217 2.4261 -1.3026 -11.6948
# 2 17.0659 50.4681 18.1422 -2.1261 -9.8611 -15.3170
# 3 27.4217 18.1422 91.0790 11.1869 9.2690 -3.8455
# 4 2.4261 -2.1261 11.1869 39.1286 -2.6423 6.9340
# 5 -1.3026 -9.8611 9.2690 -2.6423 35.4169 8.2655
# 6 -11.6948 -15.3170 -3.8455 6.9340 8.2655 30.0909
#
#
#
# Elastic Compliance Matrix: (Units=1/GPa)
#
#
# Indices 1 2 3 4 5 6 
#
# 1 0.010817 -0.001806 -0.002678 -0.000568 -0.000175 0.003122
# 2 -0.001806 0.026694 -0.005225 0.001719 0.006521 0.010031
# 3 -0.002678 -0.005225 0.014012 -0.004642 -0.005738 0.000736
# 4 -0.000568 0.001719 -0.004642 0.028845 0.005729 -0.008160
# 5 -0.000175 0.006521 -0.005738 0.005729 0.033865 -0.008104
# 6 0.003122 0.010031 0.000736 -0.008160 -0.008104 0.043753
#
#
# Mechanical properties :
#
#
# Convention : Reuss Voigt Hill
#
# Bulk Modulus (GPa) = 31.14663 41.37484 36.26073
# Shear Modulus (GPa) = 26.58104 33.22622 29.90363
#
# Velocity S-wave (km/s) = 3.28423 3.67188 3.48345
# Velocity P-wave (km/s) = 5.19811 5.89628 5.55817
#
# Compressibility (1/GPa) = 0.03210620
#
# Stress axis : x y z
#
# Youngs Moduli (GPa) = 92.44842 37.46106 71.36971
#
# Poissons Ratio (x) = 0.06766 0.19109
# Poissons Ratio (y) = 0.16696 0.37289
# Poissons Ratio (z) = 0.24753 0.19572
#
# Static dielectric constant tensor:
#      x y z
#    x 4.710270 -0.289860 -0.290910 
#    y -0.289860 4.935430 0.278530 
#    z -0.290910 0.278530 5.005460 
# 
# 
# High freq. dielectric constant tensor:
#      x y z
#    x 1.985720 -0.007940 0.003320 
#    y -0.007940 1.977450 0.000430 
#    z 0.003320 0.000430 1.998080 
# 
# From -- ./inp_files/405649.got.cif
#   From: 2010.06.25/outbox.cif.g09.slc.cpg/sg2_203_cif.got.tgz:405649.got - 2010.06.27 13:26:56.
