data_PCOD8036170
_publ_section_title
;
Structure prediction by ZEFSAII (Michael W. Deem and Ramdas Pophale) SiO2 
 PCOD8036170
Probable space group: P -1
;
_chemical_formula_sum "Si O2"
_cell_formula_units_Z 16
_cell_length_a 12.103034
_cell_length_b 17.712734
_cell_length_c 8.243573
_cell_angle_alpha 126.013515
_cell_angle_beta 94.782859
_cell_angle_gamma 40.903286
_cell_volume 684.864918
_symmetry_space_group_name_H-M "P -1"
_symmetry_group_IT_number 2
_symmetry_cell_setting 'triclinic'
loop_
_space_group_symop_operation_xyz
x,y,z
-x,-y,-z
loop_
_atom_site_type_symbol
_atom_site_label
_atom_site_fract_x
_atom_site_fract_y
_atom_site_fract_z
Si Si1 0.674934 0.424144 0.304222
Si Si2 0.640724 0.969195 0.581933
Si Si3 0.352696 0.187241 0.130385
Si Si4 0.428453 0.785767 0.171166
Si Si5 0.859910 0.477804 0.331987
Si Si6 0.368653 0.680909 0.297669
Si Si7 0.086474 0.541539 0.062102
Si Si8 0.912117 0.063056 0.884178
O O1 0.500000 0.500000 0.500000
O O2 0.807781 0.422294 0.363930
O O3 0.517232 0.588314 0.356916
O O4 0.864072 0.205960 0.001121
O O5 0.885211 0.748420 0.384191
O O6 0.500000 0.000000 0.500000
O O7 0.684026 0.031773 0.565993
O O8 0.495267 0.112548 0.897099
O O9 0.319010 0.305691 0.382111
O O10 0.112338 0.321289 0.218036
O O11 0.500000 0.000000 0.000000
O O12 0.359523 0.774341 0.298145
O O13 0.327446 0.816557 0.028473
O O14 0.704861 0.594764 0.959808
O O15 0.857346 0.462885 0.117805
O O16 0.500000 0.500000 0.000000
O O17 0.101439 0.867131 0.553258
O O18 0.000000 0.500000 0.000000
O O19 0.000000 0.000000 0.000000
#
# Coordination Sequence:
#
# PCOD8036170 Si02
#       8
#     2   2   2   2   2   2   2   2
#     4  12  27  50  77 110 158 201 266 323 393 463
#     4  12  26  45  75 114 155 195 257 317 389 468
#     4  11  26  48  72 112 154 199 260 313 397 465
#     4  12  28  45  80 110 156 200 257 317 397 455
#     4  11  26  45  77 108 152 204 253 324 387 461
#     4  12  27  48  75 111 146 198 265 320 379 465
#     4  12  24  48  76 112 153 202 260 317 385 468
#     4  12  29  51  76 111 155 206 262 322 390 469
#
# _framework density 23.362269999999999
#
# number of rings (size 3 to 8) (size 9 to 14) (size 15 to 20)
#    0.000    0.250    6.250    1.125    5.250    3.000 
#    0.000    0.000    0.000    0.000    0.000    0.000 
#    0.000    0.000    0.000    0.000    0.000    0.000 
#
# Total GULP energy -198236.393027 kJ/mol
# GULP energy per Si atom -12389.774564 kJ/mol
# Density = 2.330910 g / cm^3
# Si number density = 23.362270 Si / 1000 Ang^3
#
#
#
# Elastic Constant Matrix: (Units=GPa)
#
#
# Indices 1 2 3 4 5 6 
#
# 1 165.2629 61.1425 67.2406 10.4382 14.7578 4.4759
# 2 61.1425 137.0884 39.6802 16.4623 5.9562 -14.9171
# 3 67.2406 39.6802 164.4007 26.7555 5.8437 -1.9745
# 4 10.4382 16.4623 26.7555 44.8228 7.1855 -0.3912
# 5 14.7578 5.9562 5.8437 7.1855 41.0704 6.2036
# 6 4.4759 -14.9171 -1.9745 -0.3912 6.2036 47.2271
#
#
#
# Elastic Compliance Matrix: (Units=1/GPa)
#
#
# Indices 1 2 3 4 5 6 
#
# 1 0.008574 -0.003227 -0.002872 0.001236 -0.002170 -0.001657
# 2 -0.003227 0.009547 -0.000552 -0.002359 -0.000234 0.003310
# 3 -0.002872 -0.000552 0.008026 -0.004016 0.000625 0.000318
# 4 0.001236 -0.002359 -0.004016 0.025929 -0.004024 -0.000287
# 5 -0.002170 -0.000234 0.000625 -0.004024 0.026280 -0.003327
# 6 -0.001657 0.003310 0.000318 -0.000287 -0.003327 0.022825
#
#
# Mechanical properties :
#
#
# Convention : Reuss Voigt Hill
#
# Bulk Modulus (GPa) = 77.85621 89.20873 83.53247
# Shear Modulus (GPa) = 42.10000 46.53664 44.31832
#
# Velocity S-wave (km/s) = 4.24966 4.46798 4.36019
# Velocity P-wave (km/s) = 7.58139 8.05512 7.82184
#
# Compressibility (1/GPa) = 0.01284419
#
# Stress axis : x y z
#
# Youngs Moduli (GPa) = 116.63163 104.74062 124.59651
#
# Poissons Ratio (x) = 0.33803 0.35782
# Poissons Ratio (y) = 0.37640 0.06884
# Poissons Ratio (z) = 0.33494 0.05787
#
# Static dielectric constant tensor:
#      x y z
#    x 4.255240 0.108980 -0.055180 
#    y 0.108980 4.941730 0.193180 
#    z -0.055180 0.193180 4.947780 
# 
# 
# High freq. dielectric constant tensor:
#      x y z
#    x 1.934000 0.003270 0.004570 
#    y 0.003270 1.932540 0.021660 
#    z 0.004570 0.021660 1.929690 
# 
# From -- ./inp_files/279907.got.cif
#   From: 2010.06.25/outbox.cif.g09.slc.cpg/sg2_140_cif.got.tgz:279907.got - 2010.06.27 13:26:56.
