data_PCOD8036070
_publ_section_title
;
Structure prediction by ZEFSAII (Michael W. Deem and Ramdas Pophale) SiO2 
 PCOD8036070
Probable space group: P -1
;
_chemical_formula_sum "Si O2"
_cell_formula_units_Z 14
_cell_length_a 9.437046
_cell_length_b 16.823757
_cell_length_c 18.138302
_cell_angle_alpha 21.595859
_cell_angle_beta 137.581842
_cell_angle_gamma 138.756092
_cell_volume 689.628029
_symmetry_space_group_name_H-M "P -1"
_symmetry_group_IT_number 2
_symmetry_cell_setting 'triclinic'
loop_
_space_group_symop_operation_xyz
x,y,z
-x,-y,-z
loop_
_atom_site_type_symbol
_atom_site_label
_atom_site_fract_x
_atom_site_fract_y
_atom_site_fract_z
Si Si1 0.455352 0.945920 0.833390
Si Si2 0.494056 0.144648 0.517605
Si Si3 0.236945 0.490808 0.078323
Si Si4 0.263728 0.099014 0.759690
Si Si5 0.917923 0.377115 0.396877
Si Si6 0.655324 0.346281 0.175897
Si Si7 0.737633 0.180147 0.859744
O O1 0.477799 0.106232 0.632232
O O2 0.253920 0.974276 0.783566
O O3 0.676013 0.010811 0.911810
O O4 0.417473 0.689705 0.015612
O O5 0.304778 0.262362 0.318927
O O6 0.733500 0.298459 0.456168
O O7 0.465364 0.913664 0.661286
O O8 0.215306 0.535864 0.945754
O O9 0.000000 0.500000 0.000000
O O10 0.514852 0.253148 0.732160
O O11 0.090394 0.236328 0.579370
O O12 0.195034 0.927075 0.948724
O O13 0.816760 0.362184 0.290948
O O14 0.055894 0.626833 0.253504
O O15 0.500000 0.500000 0.000000
#
# Coordination Sequence:
#
# PCOD8036070 Si02
#       7
#     2   2   2   2   2   2   2
#     4   9  23  43  62  92 135 161 214 266 316 383
#     4  11  26  42  62  98 130 168 214 266 324 383
#     4  11  26  40  66  94 130 174 210 265 327 374
#     4   9  22  41  66  96 127 165 216 264 314 377
#     4  12  24  38  71  94 126 169 222 259 325 378
#     4  11  26  44  65  93 132 166 217 268 319 387
#     4   9  22  41  67  96 126 169 216 264 316 380
#
# _framework density 20.300798
#
# number of rings (size 3 to 8) (size 9 to 14) (size 15 to 20)
#    0.857    0.857    1.429    0.857    8.000    2.857 
#    0.000    1.429    0.000    0.000    0.000    0.000 
#    0.000    0.000    0.000    0.000    0.000    0.000 
#
# Total GULP energy -173442.384771 kJ/mol
# GULP energy per Si atom -12388.741769 kJ/mol
# Density = 2.025459 g / cm^3
# Si number density = 20.300798 Si / 1000 Ang^3
#
#
#
# Elastic Constant Matrix: (Units=GPa)
#
#
# Indices 1 2 3 4 5 6 
#
# 1 101.2481 50.8346 66.1462 3.4818 -6.1316 -3.3649
# 2 50.8346 107.1643 48.0751 1.7402 -18.1339 -8.4262
# 3 66.1462 48.0751 139.4769 16.4237 14.4514 1.5154
# 4 3.4818 1.7402 16.4237 36.2933 13.5906 -3.3034
# 5 -6.1316 -18.1339 14.4514 13.5906 57.0705 6.0471
# 6 -3.3649 -8.4262 1.5154 -3.3034 6.0471 37.8400
#
#
#
# Elastic Compliance Matrix: (Units=1/GPa)
#
#
# Indices 1 2 3 4 5 6 
#
# 1 0.016563 -0.004600 -0.006570 0.001023 0.001681 0.000532
# 2 -0.004600 0.013802 -0.003025 -0.000363 0.004528 0.002030
# 3 -0.006570 -0.003025 0.012139 -0.003438 -0.003769 -0.001442
# 4 0.001023 -0.000363 -0.003438 0.032103 -0.007215 0.004103
# 5 0.001681 0.004528 -0.003769 -0.007215 0.022117 -0.002855
# 6 0.000532 0.002030 -0.001442 0.004103 -0.002855 0.027799
#
#
# Mechanical properties :
#
#
# Convention : Reuss Voigt Hill
#
# Bulk Modulus (GPa) = 70.84387 75.33346 73.08867
# Shear Modulus (GPa) = 31.72285 38.42965 35.07625
#
# Velocity S-wave (km/s) = 3.95731 4.35560 4.16122
# Velocity P-wave (km/s) = 7.47351 7.90469 7.69212
#
# Compressibility (1/GPa) = 0.01411555
#
# Stress axis : x y z
#
# Youngs Moduli (GPa) = 60.37728 72.45349 82.38028
#
# Poissons Ratio (x) = 0.33325 0.54122
# Poissons Ratio (y) = 0.27771 0.24916
# Poissons Ratio (z) = 0.39667 0.21914
#
# Static dielectric constant tensor:
#      x y z
#    x 3.754880 -0.044190 -0.154240 
#    y -0.044190 3.712850 -0.040840 
#    z -0.154240 -0.040840 3.655180 
# 
# 
# High freq. dielectric constant tensor:
#      x y z
#    x 1.800760 -0.006740 -0.009670 
#    y -0.006740 1.793550 0.007210 
#    z -0.009670 0.007210 1.792420 
# 
# From -- ./inp_files/500058.got.cif
#   From: 2010.06.25/outbox.cif.g09.slc.cpg/sg2_251_cif.got.tgz:500058.got - 2010.06.27 13:26:56.
