data_PCOD8036391
_publ_section_title
;
Structure prediction by ZEFSAII (Michael W. Deem and Ramdas Pophale) SiO2 
 PCOD8036391
Probable space group: P -1
;
_chemical_formula_sum "Si O2"
_cell_formula_units_Z 16
_cell_length_a 12.988990
_cell_length_b 6.446211
_cell_length_c 11.752243
_cell_angle_alpha 99.846375
_cell_angle_beta 124.413022
_cell_angle_gamma 110.402177
_cell_volume 669.162589
_symmetry_space_group_name_H-M "P -1"
_symmetry_group_IT_number 2
_symmetry_cell_setting 'triclinic'
loop_
_space_group_symop_operation_xyz
x,y,z
-x,-y,-z
loop_
_atom_site_type_symbol
_atom_site_label
_atom_site_fract_x
_atom_site_fract_y
_atom_site_fract_z
Si Si1 0.344411 0.529519 0.171959
Si Si2 0.789112 0.849383 0.755677
Si Si3 0.880844 0.323403 0.000893
Si Si4 0.524610 0.376082 0.146601
Si Si5 0.709000 0.899131 0.195022
Si Si6 0.393589 0.040497 0.512114
Si Si7 0.996484 0.205379 0.267702
Si Si8 0.253889 0.681618 0.580991
O O1 0.280315 0.414789 0.246522
O O2 0.243688 0.612331 0.057484
O O3 0.374977 0.357734 0.095733
O O4 0.511853 0.772732 0.309582
O O5 0.675080 0.834991 0.591716
O O6 0.935296 0.912124 0.783576
O O7 0.817706 0.044744 0.890103
O O8 0.000000 0.500000 0.000000
O O9 0.947851 0.356207 0.171420
O O10 0.659357 0.646756 0.210508
O O11 0.596798 0.301343 0.283140
O O12 0.440822 0.166257 0.974470
O O13 0.771606 0.148379 0.333944
O O14 0.852476 0.969813 0.214955
O O15 0.500000 0.000000 0.500000
O O16 0.271731 0.780258 0.471750
O O17 0.112110 0.394445 0.454551
#
# Coordination Sequence:
#
# PCOD8036391 Si02
#       8
#     2   2   2   2   2   2   2   2
#     4  12  24  44  74 106 143 187 236 300 359 427
#     4  12  25  46  69 108 147 186 241 293 359 432
#     4  12  26  46  69 109 149 187 240 289 365 430
#     4  11  26  49  77 108 137 189 248 297 360 425
#     4  11  27  49  73 106 141 192 244 299 357 424
#     4  12  23  43  73 106 144 188 231 298 363 422
#     4  12  27  46  75 106 147 197 234 299 357 431
#     4  12  26  51  70 107 148 187 246 295 365 424
#
# _framework density 23.910481999999998
#
# number of rings (size 3 to 8) (size 9 to 14) (size 15 to 20)
#    0.000    0.250    3.750    5.250    3.500    2.500 
#    2.250    0.000    0.000    0.000    0.000    0.000 
#    0.000    0.000    0.000    0.000    0.000    0.000 
#
# Total GULP energy -198381.318064 kJ/mol
# GULP energy per Si atom -12398.832379 kJ/mol
# Density = 2.385606 g / cm^3
# Si number density = 23.910482 Si / 1000 Ang^3
#
#
#
# Elastic Constant Matrix: (Units=GPa)
#
#
# Indices 1 2 3 4 5 6 
#
# 1 130.5207 41.2709 12.7837 -18.3409 11.4860 9.8090
# 2 41.2709 73.9451 23.6230 -9.4284 7.1920 4.1293
# 3 12.7837 23.6230 112.8097 -14.2889 13.6655 -7.8786
# 4 -18.3409 -9.4284 -14.2889 45.0866 -4.7756 10.4658
# 5 11.4860 7.1920 13.6655 -4.7756 35.1675 -5.7961
# 6 9.8090 4.1293 -7.8786 10.4658 -5.7961 37.4494
#
#
#
# Elastic Compliance Matrix: (Units=1/GPa)
#
#
# Indices 1 2 3 4 5 6 
#
# 1 0.010188 -0.004892 0.000415 0.003795 -0.002549 -0.003497
# 2 -0.004892 0.017530 -0.002989 0.001024 -0.000970 -0.001717
# 3 0.000415 -0.002989 0.010166 0.002150 -0.002969 0.001299
# 4 0.003795 0.001024 0.002150 0.026488 -0.000016 -0.008059
# 5 -0.002549 -0.000970 -0.002969 -0.000016 0.031445 0.005021
# 6 -0.003497 -0.001717 0.001299 -0.008059 0.005021 0.031111
#
#
# Mechanical properties :
#
#
# Convention : Reuss Voigt Hill
#
# Bulk Modulus (GPa) = 43.56921 52.51451 48.04186
# Shear Modulus (GPa) = 33.44257 39.51390 36.47824
#
# Velocity S-wave (km/s) = 3.74392 4.06960 3.91015
# Velocity P-wave (km/s) = 6.07870 6.64024 6.36567
#
# Compressibility (1/GPa) = 0.02295199
#
# Stress axis : x y z
#
# Youngs Moduli (GPa) = 98.15294 57.04662 98.36695
#
# Poissons Ratio (x) = 0.27906 -0.04083
# Poissons Ratio (y) = 0.48015 0.29403
# Poissons Ratio (z) = -0.04075 0.17052
#
# Static dielectric constant tensor:
#      x y z
#    x 4.511410 -0.710830 -0.355730 
#    y -0.710830 6.180750 0.992550 
#    z -0.355730 0.992550 4.787550 
# 
# 
# High freq. dielectric constant tensor:
#      x y z
#    x 1.950480 0.004760 -0.000630 
#    y 0.004760 1.947560 0.004360 
#    z -0.000630 0.004360 1.959280 
# 
# From -- ./inp_files/442015.got.cif
#   From: 2010.06.25/outbox.cif.g09.slc.cpg/sg2_222_cif.got.tgz:442015.got - 2010.06.27 13:26:56.
