data_PCOD8036291
_publ_section_title
;
Structure prediction by ZEFSAII (Michael W. Deem and Ramdas Pophale) SiO2 
 PCOD8036291
Probable space group: P -1
;
_chemical_formula_sum "Si O2"
_cell_formula_units_Z 12
_cell_length_a 8.951598
_cell_length_b 4.776414
_cell_length_c 11.498099
_cell_angle_alpha 107.524048
_cell_angle_beta 72.334879
_cell_angle_gamma 100.911853
_cell_volume 444.095562
_symmetry_space_group_name_H-M "P -1"
_symmetry_group_IT_number 2
_symmetry_cell_setting 'triclinic'
loop_
_space_group_symop_operation_xyz
x,y,z
-x,-y,-z
loop_
_atom_site_type_symbol
_atom_site_label
_atom_site_fract_x
_atom_site_fract_y
_atom_site_fract_z
Si Si1 0.830881 0.620281 0.580773
Si Si2 0.976727 0.546070 0.875264
Si Si3 0.833854 0.932515 0.223799
Si Si4 0.271378 0.950613 0.156915
Si Si5 0.594106 0.791501 0.067683
Si Si6 0.679899 0.039676 0.497227
O O1 0.714818 0.328526 0.606749
O O2 0.000000 0.500000 0.500000
O O3 0.248880 0.232940 0.492037
O O4 0.836953 0.845297 0.716630
O O5 0.027725 0.876269 0.858733
O O6 0.799118 0.399413 0.865550
O O7 0.091703 0.331762 0.761409
O O8 0.000000 0.500000 0.000000
O O9 0.767559 0.123249 0.364709
O O10 0.696350 0.764375 0.154987
O O11 0.454116 0.992127 0.161398
O O12 0.277477 0.052481 0.033386
O O13 0.500000 0.500000 0.000000
O O14 0.500000 0.000000 0.500000
#
# Coordination Sequence:
#
# PCOD8036291 Si02
#       6
#     2   2   2   2   2   2
#     4  12  28  52  79 115 159 211 267 325 399 476
#     4  12  25  47  71 111 150 196 249 314 394 468
#     4  12  27  47  77 108 153 197 258 317 390 467
#     4  11  27  46  77 110 154 201 261 326 393 472
#     4  11  26  47  76 114 151 203 257 329 402 466
#     4  12  28  52  78 115 157 211 267 328 394 471
#
# _framework density 27.021211000000001
#
# number of rings (size 3 to 8) (size 9 to 14) (size 15 to 20)
#    0.000    0.333    1.667    5.500    9.333    1.333 
#    0.000    0.000    0.000    0.000    0.000    0.000 
#    0.000    0.000    0.000    0.000    0.000    0.000 
#
# Total GULP energy -148690.749391 kJ/mol
# GULP energy per Si atom -12390.895783 kJ/mol
# Density = 2.695971 g / cm^3
# Si number density = 27.021211 Si / 1000 Ang^3
#
#
#
# Elastic Constant Matrix: (Units=GPa)
#
#
# Indices 1 2 3 4 5 6 
#
# 1 153.0230 29.8871 40.6804 -1.4402 -6.1887 5.4034
# 2 29.8871 112.9986 2.7534 10.5589 -6.2225 7.0419
# 3 40.6804 2.7534 85.4070 2.9318 -21.3715 7.6755
# 4 -1.4402 10.5589 2.9318 32.9817 2.0630 6.7743
# 5 -6.1887 -6.2225 -21.3715 2.0630 43.1165 0.4115
# 6 5.4034 7.0419 7.6755 6.7743 0.4115 47.0553
#
#
#
# Elastic Compliance Matrix: (Units=1/GPa)
#
#
# Indices 1 2 3 4 5 6 
#
# 1 0.008032 -0.002230 -0.004116 0.001537 -0.001281 -0.000127
# 2 -0.002230 0.009886 0.001445 -0.003310 0.001991 -0.001000
# 3 -0.004116 0.001445 0.015772 -0.002089 0.007555 -0.002082
# 4 0.001537 -0.003310 -0.002089 0.032633 -0.002816 -0.004014
# 5 -0.001281 0.001991 0.007555 -0.002816 0.027188 -0.001216
# 6 -0.000127 -0.001000 -0.002082 -0.004014 -0.001216 0.022344
#
#
# Mechanical properties :
#
#
# Convention : Reuss Voigt Hill
#
# Bulk Modulus (GPa) = 41.86256 55.34113 48.60184
# Shear Modulus (GPa) = 37.42021 43.17120 40.29570
#
# Velocity S-wave (km/s) = 3.72539 4.00143 3.86588
# Velocity P-wave (km/s) = 5.83359 6.47099 6.16054
#
# Compressibility (1/GPa) = 0.02388769
#
# Stress axis : x y z
#
# Youngs Moduli (GPa) = 124.50429 101.15753 63.40435
#
# Poissons Ratio (x) = 0.22561 0.26096
# Poissons Ratio (y) = 0.27768 -0.09164
# Poissons Ratio (z) = 0.51243 -0.14620
#
# Static dielectric constant tensor:
#      x y z
#    x 7.823210 -2.326130 -1.864580 
#    y -2.326130 6.838580 1.587520 
#    z -1.864580 1.587520 6.073090 
# 
# 
# High freq. dielectric constant tensor:
#      x y z
#    x 2.117130 0.001440 -0.009650 
#    y 0.001440 2.090220 0.009610 
#    z -0.009650 0.009610 2.086540 
# 
# From -- ./inp_files/321338.got.cif
#   From: 2010.06.25/outbox.cif.g09.slc.cpg/sg2_161_cif.got.tgz:321338.got - 2010.06.27 13:26:56.
