data_PCOD8036249
_publ_section_title
;
Structure prediction by ZEFSAII (Michael W. Deem and Ramdas Pophale) SiO2 
 PCOD8036249
Probable space group: P -1
;
_chemical_formula_sum "Si O2"
_cell_formula_units_Z 12
_cell_length_a 11.464338
_cell_length_b 6.858166
_cell_length_c 8.817765
_cell_angle_alpha 97.303065
_cell_angle_beta 108.806390
_cell_angle_gamma 54.176630
_cell_volume 530.412602
_symmetry_space_group_name_H-M "P -1"
_symmetry_group_IT_number 2
_symmetry_cell_setting 'triclinic'
loop_
_space_group_symop_operation_xyz
x,y,z
-x,-y,-z
loop_
_atom_site_type_symbol
_atom_site_label
_atom_site_fract_x
_atom_site_fract_y
_atom_site_fract_z
Si Si1 0.912519 0.429300 0.848282
Si Si2 0.408647 0.050713 0.617127
Si Si3 0.898126 0.709754 0.597309
Si Si4 0.061788 0.937243 0.691372
Si Si5 0.616738 0.524352 0.208549
Si Si6 0.599696 0.602606 0.863697
O O1 0.845084 0.615033 0.699483
O O2 0.775955 0.446767 0.879012
O O3 0.022830 0.161675 0.799373
O O4 0.000000 0.500000 0.000000
O O5 0.255158 0.067702 0.525394
O O6 0.346352 0.322205 0.661416
O O7 0.500000 0.000000 0.500000
O O8 0.509933 0.861054 0.770672
O O9 0.000000 0.500000 0.500000
O O10 0.988168 0.808690 0.719291
O O11 0.242260 0.754911 0.757013
O O12 0.000000 0.000000 0.500000
O O13 0.473391 0.541341 0.223849
O O14 0.578154 0.642739 0.037974
#
# Coordination Sequence:
#
# PCOD8036249 Si02
#       6
#     2   2   2   2   2   2
#     4  12  28  46  72 108 143 186 241 300 356 425
#     4  12  25  45  72 106 144 186 237 296 355 427
#     4  12  24  46  72 106 141 188 239 289 360 426
#     4  12  25  46  76 105 142 189 242 294 355 427
#     4  11  26  47  71 103 144 191 237 292 361 428
#     4  11  27  46  70 102 144 188 239 293 362 422
#
# _framework density 22.623895000000001
#
# number of rings (size 3 to 8) (size 9 to 14) (size 15 to 20)
#    0.000    0.333    5.000    2.500    2.333    6.000 
#    0.000    0.000    0.000    0.000    0.000    0.000 
#    0.000    0.000    0.000    0.000    0.000    0.000 
#
# Total GULP energy -148814.700173 kJ/mol
# GULP energy per Si atom -12401.225014 kJ/mol
# Density = 2.257240 g / cm^3
# Si number density = 22.623895 Si / 1000 Ang^3
#
#
#
# Elastic Constant Matrix: (Units=GPa)
#
#
# Indices 1 2 3 4 5 6 
#
# 1 150.7259 37.9852 51.0739 -5.9364 3.1159 -0.5143
# 2 37.9852 122.6653 59.6063 5.5201 -0.9689 -5.2611
# 3 51.0739 59.6063 104.1659 -0.2984 7.8323 -5.4231
# 4 -5.9364 5.5201 -0.2984 44.3676 4.1328 7.1816
# 5 3.1159 -0.9689 7.8323 4.1328 37.7162 -5.4893
# 6 -0.5143 -5.2611 -5.4231 7.1816 -5.4893 38.0456
#
#
#
# Elastic Compliance Matrix: (Units=1/GPa)
#
#
# Indices 1 2 3 4 5 6 
#
# 1 0.008094 -0.000919 -0.003462 0.001325 -0.000234 -0.000795
# 2 -0.000919 0.011678 -0.006324 -0.002041 0.002115 0.001391
# 3 -0.003462 -0.006324 0.015180 0.000591 -0.002992 0.000699
# 4 0.001325 -0.002041 0.000591 0.024173 -0.003701 -0.005277
# 5 -0.000234 0.002115 -0.002992 -0.003701 0.028290 0.004643
# 6 -0.000795 0.001391 0.000699 -0.005277 0.004643 0.028232
#
#
# Mechanical properties :
#
#
# Convention : Reuss Voigt Hill
#
# Bulk Modulus (GPa) = 73.85732 74.98751 74.42242
# Shear Modulus (GPa) = 35.31769 39.28533 37.30151
#
# Velocity S-wave (km/s) = 3.95534 4.17160 4.06491
# Velocity P-wave (km/s) = 7.31957 7.51134 7.41608
#
# Compressibility (1/GPa) = 0.01353962
#
# Stress axis : x y z
#
# Youngs Moduli (GPa) = 123.55126 85.62847 65.87765
#
# Poissons Ratio (x) = 0.07873 0.22809
# Poissons Ratio (y) = 0.11360 0.41663
# Poissons Ratio (z) = 0.42778 0.54154
#
# Static dielectric constant tensor:
#      x y z
#    x 3.260590 0.349720 -1.212800 
#    y 0.349720 4.083530 0.013230 
#    z -1.212800 0.013230 2.816630 
# 
# 
# High freq. dielectric constant tensor:
#      x y z
#    x 1.912340 0.005700 0.004470 
#    y 0.005700 1.889390 -0.010650 
#    z 0.004470 -0.010650 1.898420 
# 
# From -- ./inp_files/107240.got.cif
#   From: 2010.06.25/outbox.cif.g09.slc.cpg/sg2_54_cif.got.tgz:107240.got - 2010.06.27 13:26:56.
