data_PCOD8036246
_publ_section_title
;
Structure prediction by ZEFSAII (Michael W. Deem and Ramdas Pophale) SiO2 
 PCOD8036246
Probable space group: P -1
;
_chemical_formula_sum "Si O2"
_cell_formula_units_Z 14
_cell_length_a 22.193157
_cell_length_b 5.027015
_cell_length_c 15.420796
_cell_angle_alpha 99.173336
_cell_angle_beta 160.024957
_cell_angle_gamma 78.440684
_cell_volume 573.644419
_symmetry_space_group_name_H-M "P -1"
_symmetry_group_IT_number 2
_symmetry_cell_setting 'triclinic'
loop_
_space_group_symop_operation_xyz
x,y,z
-x,-y,-z
loop_
_atom_site_type_symbol
_atom_site_label
_atom_site_fract_x
_atom_site_fract_y
_atom_site_fract_z
Si Si1 0.110309 0.958073 0.558089
Si Si2 0.570863 0.026013 0.905139
Si Si3 0.157377 0.139612 0.336268
Si Si4 0.002710 0.567745 0.699260
Si Si5 0.653570 0.385525 0.636715
Si Si6 0.623710 0.473883 0.868791
Si Si7 0.129190 0.195358 0.103352
O O1 0.046010 0.730196 0.399086
O O2 0.087027 0.235507 0.486947
O O3 0.321060 0.875517 0.861854
O O4 0.000000 0.000000 0.500000
O O5 0.360306 0.066825 0.638935
O O6 0.616364 0.185997 0.889094
O O7 0.652821 0.707518 0.989013
O O8 0.060131 0.345795 0.285528
O O9 0.130916 0.276922 0.211943
O O10 0.066299 0.863347 0.193488
O O11 0.216466 0.564921 0.987049
O O12 0.500000 0.500000 0.500000
O O13 0.566396 0.418564 0.425548
O O14 0.817016 0.560455 0.869108
O O15 0.725783 0.070834 0.733885
#
# Coordination Sequence:
#
# PCOD8036246 Si02
#       7
#     2   2   2   2   2   2   2
#     4  12  24  46  73 104 139 185 236 299 358 407
#     4  12  25  44  73  96 141 184 233 282 354 421
#     4  11  27  48  71 108 147 190 233 289 361 430
#     4  12  26  43  74 105 140 183 240 294 350 425
#     4  12  24  43  72 106 138 185 246 290 342 420
#     4  12  22  43  68 103 134 184 235 287 342 415
#     4  11  26  47  71 100 150 193 224 290 365 416
#
# _framework density 24.405360000000002
#
# number of rings (size 3 to 8) (size 9 to 14) (size 15 to 20)
#    0.000    0.286    5.714    2.571    0.000   10.286 
#    0.000    0.000    0.000    0.000    0.000    0.000 
#    0.000    0.000    0.000    0.000    0.000    0.000 
#
# Total GULP energy -173668.234084 kJ/mol
# GULP energy per Si atom -12404.873863 kJ/mol
# Density = 2.434981 g / cm^3
# Si number density = 24.405360 Si / 1000 Ang^3
#
#
#
# Elastic Constant Matrix: (Units=GPa)
#
#
# Indices 1 2 3 4 5 6 
#
# 1 105.0388 38.2676 23.2475 4.5723 23.5926 -23.1172
# 2 38.2676 91.2580 12.8167 7.6629 7.9151 -11.3013
# 3 23.2475 12.8167 164.2631 7.5769 17.8402 -6.4177
# 4 4.5723 7.6629 7.5769 35.8204 2.2895 -1.3366
# 5 23.5926 7.9151 17.8402 2.2895 39.1492 -3.7439
# 6 -23.1172 -11.3013 -6.4177 -1.3366 -3.7439 38.7881
#
#
#
# Elastic Compliance Matrix: (Units=1/GPa)
#
#
# Indices 1 2 3 4 5 6 
#
# 1 0.014234 -0.004491 -0.000679 -0.000042 -0.006745 0.006410
# 2 -0.004491 0.013162 -0.000294 -0.002166 0.000409 0.001074
# 3 -0.000679 -0.000294 0.006531 -0.001066 -0.002414 0.000320
# 4 -0.000042 -0.002166 -0.001066 0.028660 -0.000719 0.000086
# 5 -0.006745 0.000409 -0.002414 -0.000719 0.030536 -0.001378
# 6 0.006410 0.001074 0.000320 0.000086 -0.001378 0.029837
#
#
# Mechanical properties :
#
#
# Convention : Reuss Voigt Hill
#
# Bulk Modulus (GPa) = 43.48061 56.58038 50.03049
# Shear Modulus (GPa) = 35.32177 41.83341 38.57759
#
# Velocity S-wave (km/s) = 3.80846 4.14467 3.98012
# Velocity P-wave (km/s) = 6.09868 6.79252 6.45493
#
# Compressibility (1/GPa) = 0.02299876
#
# Stress axis : x y z
#
# Youngs Moduli (GPa) = 70.25215 75.97614 153.12215
#
# Poissons Ratio (x) = 0.34123 0.10399
# Poissons Ratio (y) = 0.31552 0.04499
# Poissons Ratio (z) = 0.04771 0.02233
#
# Static dielectric constant tensor:
#      x y z
#    x 4.209740 -0.046010 0.021640 
#    y -0.046010 4.319780 0.126770 
#    z 0.021640 0.126770 4.959480 
# 
# 
# High freq. dielectric constant tensor:
#      x y z
#    x 1.957220 -0.001210 0.002590 
#    y -0.001210 1.976160 0.002200 
#    z 0.002590 0.002200 1.993360 
# 
# From -- ./inp_files/372932.got.cif
#   From: 2010.06.25/outbox.cif.g09.slc.cpg/sg2_187_cif.got.tgz:372932.got - 2010.06.27 13:26:56.
