data_PCOD8036102
_publ_section_title
;
Structure prediction by ZEFSAII (Michael W. Deem and Ramdas Pophale) SiO2 
 PCOD8036102
Probable space group: P -1
;
_chemical_formula_sum "Si O2"
_cell_formula_units_Z 12
_cell_length_a 9.509187
_cell_length_b 21.238586
_cell_length_c 5.225921
_cell_angle_alpha 73.120313
_cell_angle_beta 80.635308
_cell_angle_gamma 30.510697
_cell_volume 504.384603
_symmetry_space_group_name_H-M "P -1"
_symmetry_group_IT_number 2
_symmetry_cell_setting 'triclinic'
loop_
_space_group_symop_operation_xyz
x,y,z
-x,-y,-z
loop_
_atom_site_type_symbol
_atom_site_label
_atom_site_fract_x
_atom_site_fract_y
_atom_site_fract_z
Si Si1 0.386472 0.294725 0.306075
Si Si2 0.428813 0.427112 0.170013
Si Si3 0.965998 0.790080 0.577968
Si Si4 0.672781 0.131559 0.897188
Si Si5 0.536208 0.043492 0.132075
Si Si6 0.862416 0.409587 0.425103
O O1 0.302762 0.404558 0.187475
O O2 0.609863 0.198537 0.583858
O O3 0.117754 0.358189 0.377550
O O4 0.516548 0.222929 0.081564
O O5 0.308759 0.504558 0.374258
O O6 0.767560 0.290400 0.244748
O O7 0.338408 0.507799 0.862327
O O8 0.743522 0.838898 0.757392
O O9 0.046059 0.703447 0.442166
O O10 0.817247 0.914743 0.363704
O O11 0.571278 0.097900 0.911632
O O12 0.000000 0.000000 0.000000
O O13 0.500000 0.000000 0.000000
#
# Coordination Sequence:
#
# PCOD8036102 Si02
#       6
#     2   2   2   2   2   2
#     4  12  25  47  70 102 142 178 234 281 343 409
#     4  12  27  44  74 102 139 182 234 281 339 412
#     4  11  26  45  68 105 137 181 230 286 344 409
#     4  12  26  45  73 103 140 182 228 285 342 410
#     4  11  26  44  73  99 141 182 227 286 350 407
#     4  12  25  47  70 103 140 183 229 283 344 403
#
# _framework density 23.791367999999999
#
# number of rings (size 3 to 8) (size 9 to 14) (size 15 to 20)
#    0.000    0.333    1.667    6.500    9.333    0.000 
#    0.000    0.000    0.000    0.000    0.000    0.000 
#    0.000    0.000    0.000    0.000    0.000    0.000 
#
# Total GULP energy -148869.762874 kJ/mol
# GULP energy per Si atom -12405.813573 kJ/mol
# Density = 2.373722 g / cm^3
# Si number density = 23.791368 Si / 1000 Ang^3
#
#
#
# Elastic Constant Matrix: (Units=GPa)
#
#
# Indices 1 2 3 4 5 6 
#
# 1 74.9961 31.0852 4.3957 9.0887 3.0198 10.1540
# 2 31.0852 107.2944 26.8708 2.1926 13.0513 12.2641
# 3 4.3957 26.8708 84.9504 16.8571 16.3445 13.7230
# 4 9.0887 2.1926 16.8571 23.8712 1.4273 20.5173
# 5 3.0198 13.0513 16.3445 1.4273 42.3983 -9.0548
# 6 10.1540 12.2641 13.7230 20.5173 -9.0548 35.8408
#
#
#
# Elastic Compliance Matrix: (Units=1/GPa)
#
#
# Indices 1 2 3 4 5 6 
#
# 1 0.016215 -0.005223 0.002254 -0.008176 0.000079 0.001031
# 2 -0.005223 0.013226 -0.003846 0.012090 -0.004691 -0.009679
# 3 0.002254 -0.003846 0.016098 -0.011458 -0.004828 -0.000146
# 4 -0.008176 0.012090 -0.011458 0.106513 -0.015625 -0.062355
# 5 0.000079 -0.004691 -0.004828 -0.015625 0.031768 0.020401
# 6 0.001031 -0.009679 -0.000146 -0.062355 0.020401 0.071827
#
#
# Mechanical properties :
#
#
# Convention : Reuss Voigt Hill
#
# Bulk Modulus (GPa) = 31.33976 43.54937 37.44456
# Shear Modulus (GPa) = 17.86266 34.08135 25.97201
#
# Velocity S-wave (km/s) = 2.74305 3.78896 3.30761
# Velocity P-wave (km/s) = 4.82014 6.12258 5.50998
#
# Compressibility (1/GPa) = 0.03190835
#
# Stress axis : x y z
#
# Youngs Moduli (GPa) = 61.67242 75.60632 62.12044
#
# Poissons Ratio (x) = 0.39485 -0.13999
# Poissons Ratio (y) = 0.32208 0.23893
# Poissons Ratio (z) = -0.13898 0.29080
#
# Static dielectric constant tensor:
#      x y z
#    x 4.499180 0.131730 -0.098820 
#    y 0.131730 4.436890 -0.623240 
#    z -0.098820 -0.623240 4.315320 
# 
# 
# High freq. dielectric constant tensor:
#      x y z
#    x 1.958480 0.000570 0.002850 
#    y 0.000570 1.958410 -0.007940 
#    z 0.002850 -0.007940 1.947670 
# 
# From -- ./inp_files/54346.got.cif
#   From: 2010.06.25/outbox.cif.g09.slc.cpg/sg2_28_cif.got.tgz:54346.got - 2010.06.27 13:26:56.
