data_PCOD8036799
_publ_section_title
;
Structure prediction by ZEFSAII (Michael W. Deem and Ramdas Pophale) SiO2 
 PCOD8036799
Probable space group: P -1
;
_chemical_formula_sum "Si O2"
_cell_formula_units_Z 16
_cell_length_a 12.455922
_cell_length_b 12.155523
_cell_length_c 14.181553
_cell_angle_alpha 20.863683
_cell_angle_beta 94.531768
_cell_angle_gamma 95.188825
_cell_volume 761.492448
_symmetry_space_group_name_H-M "P -1"
_symmetry_group_IT_number 2
_symmetry_cell_setting 'triclinic'
loop_
_space_group_symop_operation_xyz
x,y,z
-x,-y,-z
loop_
_atom_site_type_symbol
_atom_site_label
_atom_site_fract_x
_atom_site_fract_y
_atom_site_fract_z
Si Si1 0.029115 0.210930 0.921345
Si Si2 0.627075 0.106820 0.630157
Si Si3 0.388089 0.883542 0.039550
Si Si4 0.280049 0.209074 0.928251
Si Si5 0.387432 0.153632 0.616191
Si Si6 0.205794 0.141393 0.288534
Si Si7 0.001416 0.092647 0.643353
Si Si8 0.808480 0.130893 0.288108
O O1 0.156820 0.261435 0.900522
O O2 0.976509 0.539828 0.642074
O O3 0.977941 0.049714 0.139060
O O4 0.000000 0.000000 0.000000
O O5 0.656981 0.468472 0.344916
O O6 0.498561 0.058025 0.653383
O O7 0.676808 0.942256 0.674536
O O8 0.666164 0.955837 0.849168
O O9 0.290387 0.997157 0.006006
O O10 0.374964 0.021267 0.825506
O O11 0.379254 0.517961 0.327336
O O12 0.500000 0.000000 0.000000
O O13 0.293427 0.012381 0.658369
O O14 0.119805 0.987056 0.334208
O O15 0.187031 0.002395 0.500804
O O16 0.196976 0.504631 0.999240
O O17 0.081610 0.948688 0.690709
#
# Coordination Sequence:
#
# PCOD8036799 Si02
#       8
#     2   2   2   2   2   2   2   2
#     4  12  26  43  68 106 136 172 211 271 338 386
#     4  12  23  43  70  96 133 171 225 270 319 395
#     4  12  23  41  68  94 136 177 216 254 324 404
#     4  12  23  41  67  99 132 177 215 266 322 399
#     4  12  26  43  64 104 135 171 219 273 328 391
#     4  12  24  47  70  93 127 179 230 272 329 384
#     4  12  25  47  70  98 134 174 223 270 322 408
#     4  12  28  44  69  98 133 173 221 284 334 369
#
# _framework density 21.011372000000001
#
# number of rings (size 3 to 8) (size 9 to 14) (size 15 to 20)
#    0.000    0.000    5.000    5.250    3.500    1.000 
#    0.000    0.000    0.000    0.000    0.000    0.000 
#    0.000    0.000    0.000    0.000    0.000    0.000 
#
# Total GULP energy -198533.655986 kJ/mol
# GULP energy per Si atom -12408.353499 kJ/mol
# Density = 2.096355 g / cm^3
# Si number density = 21.011372 Si / 1000 Ang^3
#
#
#
# Elastic Constant Matrix: (Units=GPa)
#
#
# Indices 1 2 3 4 5 6 
#
# 1 76.4428 22.2184 20.6211 0.0366 8.5523 -25.3607
# 2 22.2184 115.2186 49.8103 2.2833 -18.6745 -17.7986
# 3 20.6211 49.8103 131.4324 0.8176 -20.1514 -7.0939
# 4 0.0366 2.2833 0.8176 43.0471 -16.0704 -2.5673
# 5 8.5523 -18.6745 -20.1514 -16.0704 19.2599 -7.0625
# 6 -25.3607 -17.7986 -7.0939 -2.5673 -7.0625 53.7763
#
#
#
# Elastic Compliance Matrix: (Units=1/GPa)
#
#
# Indices 1 2 3 4 5 6 
#
# 1 0.019671 -0.005040 -0.004692 -0.008594 -0.024468 0.003366
# 2 -0.005040 0.014984 -0.000538 0.009492 0.026486 0.006443
# 3 -0.004692 -0.000538 0.011948 0.008031 0.021648 0.002412
# 4 -0.008594 0.009492 0.008031 0.047545 0.065117 0.010970
# 5 -0.024468 0.026486 0.021648 0.065117 0.175051 0.026181
# 6 0.003366 0.006443 0.002412 0.010970 0.026181 0.026596
#
#
# Mechanical properties :
#
#
# Convention : Reuss Voigt Hill
#
# Bulk Modulus (GPa) = 38.37185 56.48818 47.43002
# Shear Modulus (GPa) = 15.38354 38.57957 26.98156
#
# Velocity S-wave (km/s) = 2.70877 4.28966 3.58738
# Velocity P-wave (km/s) = 5.29956 7.17480 6.30726
#
# Compressibility (1/GPa) = 0.02606077
#
# Stress axis : x y z
#
# Youngs Moduli (GPa) = 50.83740 66.73920 83.69559
#
# Poissons Ratio (x) = 0.33637 0.39273
# Poissons Ratio (y) = 0.25623 0.04505
# Poissons Ratio (z) = 0.23855 0.03592
#
# Static dielectric constant tensor:
#      x y z
#    x 4.106700 -0.157600 0.126960 
#    y -0.157600 3.843710 -0.266570 
#    z 0.126960 -0.266570 3.864830 
# 
# 
# High freq. dielectric constant tensor:
#      x y z
#    x 1.833810 -0.014110 0.003170 
#    y -0.014110 1.832780 0.004280 
#    z 0.003170 0.004280 1.849090 
# 
# From -- ./inp_files/452278.got.cif
#   From: 2010.06.25/outbox.cif.g09.slc.cpg/sg2_227_cif.got.tgz:452278.got - 2010.06.27 13:26:56.
