data_PCOD8036244
_publ_section_title
;
Structure prediction by ZEFSAII (Michael W. Deem and Ramdas Pophale) SiO2 
 PCOD8036244
Probable space group: P -1
;
_chemical_formula_sum "Si O2"
_cell_formula_units_Z 16
_cell_length_a 8.746367
_cell_length_b 15.702733
_cell_length_c 9.159005
_cell_angle_alpha 67.021116
_cell_angle_beta 78.667716
_cell_angle_gamma 39.319924
_cell_volume 721.725014
_symmetry_space_group_name_H-M "P -1"
_symmetry_group_IT_number 2
_symmetry_cell_setting 'triclinic'
loop_
_space_group_symop_operation_xyz
x,y,z
-x,-y,-z
loop_
_atom_site_type_symbol
_atom_site_label
_atom_site_fract_x
_atom_site_fract_y
_atom_site_fract_z
Si Si1 0.376697 0.250642 0.143229
Si Si2 0.057753 0.023194 0.827001
Si Si3 0.657238 0.552071 0.149298
Si Si4 0.208325 0.520812 0.491081
Si Si5 0.684515 0.707118 0.541110
Si Si6 0.848343 0.288904 0.820950
Si Si7 0.034851 0.249719 0.120293
Si Si8 0.156906 0.989114 0.367590
O O1 0.263962 0.322398 0.275834
O O2 0.282439 0.194536 0.141225
O O3 0.669822 0.116306 0.191609
O O4 0.275568 0.376609 0.969842
O O5 0.017237 0.150457 0.774620
O O6 0.851795 0.070070 0.734108
O O7 0.000000 0.000000 0.000000
O O8 0.695714 0.526933 0.331236
O O9 0.369779 0.669623 0.090854
O O10 0.807496 0.405510 0.133328
O O11 0.339599 0.382613 0.463380
O O12 0.280211 0.579396 0.350870
O O13 0.912285 0.652496 0.456489
O O14 0.435266 0.877170 0.443096
O O15 0.005717 0.259604 0.943691
O O16 0.047515 0.141421 0.259612
O O17 0.000000 0.000000 0.500000
#
# Coordination Sequence:
#
# PCOD8036244 Si02
#       8
#     2   2   2   2   2   2   2   2
#     4  12  26  47  75 101 148 184 232 295 348 424
#     4  12  25  49  70 105 139 187 233 286 358 410
#     4  12  25  47  74 104 143 185 237 290 354 412
#     4  11  27  44  74 105 140 186 237 290 350 419
#     4  11  26  47  70 105 144 181 233 292 360 402
#     4  12  27  45  72 103 146 181 240 291 345 423
#     4  12  28  44  73 108 137 191 235 285 358 419
#     4  12  27  46  74 102 143 187 233 290 349 420
#
# _framework density 22.169108000000001
#
# number of rings (size 3 to 8) (size 9 to 14) (size 15 to 20)
#    0.000    0.250    5.000    2.625    8.750    1.000 
#    0.000    0.000    0.000    0.000    0.000    0.000 
#    0.000    0.000    0.000    0.000    0.000    0.000 
#
# Total GULP energy -198424.749752 kJ/mol
# GULP energy per Si atom -12401.546859 kJ/mol
# Density = 2.211865 g / cm^3
# Si number density = 22.169108 Si / 1000 Ang^3
#
#
#
# Elastic Constant Matrix: (Units=GPa)
#
#
# Indices 1 2 3 4 5 6 
#
# 1 97.6931 32.2035 42.0552 -0.6261 6.4931 15.2937
# 2 32.2035 104.3171 25.7597 -4.4605 -2.5013 18.0781
# 3 42.0552 25.7597 131.5849 -1.8997 2.2428 25.8093
# 4 -0.6261 -4.4605 -1.8997 32.2527 3.7805 3.4098
# 5 6.4931 -2.5013 2.2428 3.7805 39.1187 1.2448
# 6 15.2937 18.0781 25.8093 3.4098 1.2448 48.5300
#
#
#
# Elastic Compliance Matrix: (Units=1/GPa)
#
#
# Indices 1 2 3 4 5 6 
#
# 1 0.012977 -0.003045 -0.003289 0.000008 -0.002124 -0.001152
# 2 -0.003045 0.011314 -0.000638 0.001651 0.001203 -0.003063
# 3 -0.003289 -0.000638 0.009545 0.000818 0.000002 -0.003859
# 4 0.000008 0.001651 0.000818 0.031966 -0.002929 -0.003223
# 5 -0.002124 0.001203 0.000002 -0.002929 0.026284 -0.000248
# 6 -0.001152 -0.003063 -0.003859 -0.003223 -0.000248 0.024395
#
#
# Mechanical properties :
#
#
# Convention : Reuss Voigt Hill
#
# Bulk Modulus (GPa) = 50.27102 59.29242 54.78172
# Shear Modulus (GPa) = 36.48177 39.55208 38.01692
#
# Velocity S-wave (km/s) = 4.06102 4.22845 4.14558
# Velocity P-wave (km/s) = 6.68689 7.11641 6.90499
#
# Compressibility (1/GPa) = 0.01989218
#
# Stress axis : x y z
#
# Youngs Moduli (GPa) = 77.05684 88.38757 104.77233
#
# Poissons Ratio (x) = 0.26913 0.34462
# Poissons Ratio (y) = 0.23463 0.06681
# Poissons Ratio (z) = 0.25346 0.05636
#
# Static dielectric constant tensor:
#      x y z
#    x 3.978190 0.466750 -0.048950 
#    y 0.466750 1.900150 0.262110 
#    z -0.048950 0.262110 3.957340 
# 
# 
# High freq. dielectric constant tensor:
#      x y z
#    x 1.880620 0.001620 0.004340 
#    y 0.001620 1.880260 0.003700 
#    z 0.004340 0.003700 1.883980 
# 
# From -- ./inp_files/206335.got.cif
#   From: 2010.06.25/outbox.cif.g09.slc.cpg/sg2_104_cif.got.tgz:206335.got - 2010.06.27 13:26:56.
