data_PCOD8036974
_publ_section_title
;
Structure prediction by ZEFSAII (Michael W. Deem and Ramdas Pophale) SiO2 
 PCOD8036974
Probable space group: P -1
;
_chemical_formula_sum "Si O2"
_cell_formula_units_Z 16
_cell_length_a 27.439967
_cell_length_b 8.298071
_cell_length_c 27.352441
_cell_angle_alpha 138.369654
_cell_angle_beta 10.708026
_cell_angle_gamma 138.454299
_cell_volume 763.802812
_symmetry_space_group_name_H-M "P -1"
_symmetry_group_IT_number 2
_symmetry_cell_setting 'triclinic'
loop_
_space_group_symop_operation_xyz
x,y,z
-x,-y,-z
loop_
_atom_site_type_symbol
_atom_site_label
_atom_site_fract_x
_atom_site_fract_y
_atom_site_fract_z
Si Si1 0.657975 0.418507 0.141269
Si Si2 0.411437 0.571989 0.900905
Si Si3 0.756551 0.443978 0.262397
Si Si4 0.096985 0.656020 0.591461
Si Si5 0.449202 0.909538 0.083242
Si Si6 0.916082 0.606052 0.556226
Si Si7 0.268490 0.040271 0.772314
Si Si8 0.842380 0.773777 0.349684
O O1 0.663863 0.475538 0.091294
O O2 0.689026 0.684491 0.192113
O O3 0.392398 0.268243 0.389157
O O4 0.895265 0.271628 0.890477
O O5 0.668203 0.447708 0.634474
O O6 0.471642 0.864045 0.908272
O O7 0.176827 0.467177 0.144209
O O8 0.500000 0.500000 0.500000
O O9 0.792226 0.594868 0.312000
O O10 0.731326 0.152776 0.228012
O O11 0.000000 0.500000 0.000000
O O12 0.105165 0.592712 0.511385
O O13 0.125924 0.946973 0.636306
O O14 0.138103 0.827104 0.375174
O O15 0.629609 0.694814 0.867493
O O16 0.500000 0.000000 0.000000
O O17 0.000000 0.500000 0.500000
O O18 0.500000 0.000000 0.500000
O O19 0.000000 0.000000 0.000000
#
# Coordination Sequence:
#
# PCOD8036974 Si02
#       8
#     2   2   2   2   2   2   2   2
#     4  12  26  46  69 100 133 182 223 273 336 395
#     4  12  27  44  71 100 134 179 226 274 337 395
#     4  12  26  43  71 101 132 177 222 274 333 391
#     4  12  26  46  65 101 140 175 219 279 337 400
#     4  12  23  46  71  96 133 177 230 282 324 391
#     4  12  26  43  71 100 134 179 224 277 338 394
#     4  12  23  46  71  95 132 175 228 278 320 390
#     4  12  27  47  67  99 144 175 220 276 337 400
#
# _framework density 20.947814000000001
#
# number of rings (size 3 to 8) (size 9 to 14) (size 15 to 20)
#    0.000    0.000    5.000    4.500    7.000    0.000 
#    0.000    0.000    0.000    0.000    0.000    0.000 
#    0.000    0.000    0.000    0.000    0.000    0.000 
#
# Total GULP energy -198435.175199 kJ/mol
# GULP energy per Si atom -12402.198450 kJ/mol
# Density = 2.090014 g / cm^3
# Si number density = 20.947814 Si / 1000 Ang^3
#
#
#
# Elastic Constant Matrix: (Units=GPa)
#
#
# Indices 1 2 3 4 5 6 
#
# 1 105.2732 7.2252 26.5727 10.3149 -5.4193 -5.7231
# 2 7.2252 98.2037 28.2170 -1.5017 -1.3465 -3.4266
# 3 26.5727 28.2170 135.8438 2.7447 -10.1640 -9.4249
# 4 10.3149 -1.5017 2.7447 27.6752 -9.3863 0.5437
# 5 -5.4193 -1.3465 -10.1640 -9.3863 26.5999 1.1611
# 6 -5.7231 -3.4266 -9.4249 0.5437 1.1611 39.9081
#
#
#
# Elastic Compliance Matrix: (Units=1/GPa)
#
#
# Indices 1 2 3 4 5 6 
#
# 1 0.010404 -0.000259 -0.001827 -0.003715 0.000050 0.001087
# 2 -0.000259 0.010860 -0.002201 0.000880 -0.000049 0.000365
# 3 -0.001827 -0.002201 0.008483 0.000688 0.002937 0.001458
# 4 -0.003715 0.000880 0.000688 0.042473 0.014594 -0.001298
# 5 0.000050 -0.000049 0.002937 0.014594 0.043908 -0.000780
# 6 0.001087 0.000365 0.001458 -0.001298 -0.000780 0.025629
#
#
# Mechanical properties :
#
#
# Convention : Reuss Voigt Hill
#
# Bulk Modulus (GPa) = 47.23112 51.48338 49.35725
# Shear Modulus (GPa) = 31.76850 37.32370 34.54610
#
# Velocity S-wave (km/s) = 3.89852 4.22565 4.06538
# Velocity P-wave (km/s) = 6.54680 6.95978 6.75645
#
# Compressibility (1/GPa) = 0.02117248
#
# Stress axis : x y z
#
# Youngs Moduli (GPa) = 96.11947 92.08122 117.88253
#
# Poissons Ratio (x) = 0.02381 0.21539
# Poissons Ratio (y) = 0.02486 0.25950
# Poissons Ratio (z) = 0.17562 0.20270
#
# Static dielectric constant tensor:
#      x y z
#    x 3.894050 -0.068210 -0.075040 
#    y -0.068210 3.906980 -0.113380 
#    z -0.075040 -0.113380 3.864030 
# 
# 
# High freq. dielectric constant tensor:
#      x y z
#    x 1.832330 -0.003960 -0.003500 
#    y -0.003960 1.835330 -0.001440 
#    z -0.003500 -0.001440 1.845590 
# 
# From -- ./inp_files/621162.got.cif
#   From: 2010.06.25/outbox.cif.g09.slc.cpg/sg2_311_cif.got.tgz:621162.got - 2010.06.27 13:26:56.
