data_PCOD8036191
_publ_section_title
;
Structure prediction by ZEFSAII (Michael W. Deem and Ramdas Pophale) SiO2 
 PCOD8036191
Probable space group: P -1
;
_chemical_formula_sum "Si O2"
_cell_formula_units_Z 14
_cell_length_a 8.881477
_cell_length_b 12.167227
_cell_length_c 14.547752
_cell_angle_alpha 150.313892
_cell_angle_beta 51.937981
_cell_angle_gamma 118.210984
_cell_volume 604.976846
_symmetry_space_group_name_H-M "P -1"
_symmetry_group_IT_number 2
_symmetry_cell_setting 'triclinic'
loop_
_space_group_symop_operation_xyz
x,y,z
-x,-y,-z
loop_
_atom_site_type_symbol
_atom_site_label
_atom_site_fract_x
_atom_site_fract_y
_atom_site_fract_z
Si Si1 0.561245 0.222658 0.100797
Si Si2 0.185100 0.573031 0.697107
Si Si3 0.804750 0.051572 0.398618
Si Si4 0.783614 0.637898 0.992431
Si Si5 0.208100 0.070103 0.342384
Si Si6 0.360292 0.808219 0.257620
Si Si7 0.199715 0.594725 0.502843
O O1 0.697184 0.317073 0.191617
O O2 0.377547 0.401895 0.271292
O O3 0.683267 0.148273 0.909899
O O4 0.500000 0.000000 0.000000
O O5 0.214643 0.680837 0.664695
O O6 0.272780 0.307208 0.462780
O O7 0.957387 0.613074 0.835687
O O8 0.627892 0.128297 0.591829
O O9 0.790776 0.197513 0.416992
O O10 0.826678 0.791850 0.173603
O O11 0.982221 0.094746 0.426041
O O12 0.583560 0.744276 0.094286
O O13 0.758598 0.395098 0.864630
O O14 0.255404 0.025599 0.399649
O O15 0.000000 0.500000 0.500000
#
# Coordination Sequence:
#
# PCOD8036191 Si02
#       7
#     2   2   2   2   2   2   2
#     4  12  27  48  72 110 145 190 241 287 365 430
#     4  12  26  49  72 110 145 190 235 295 366 424
#     4  12  25  49  68 110 141 189 238 296 357 422
#     4  11  26  46  72 105 142 189 242 288 363 417
#     4  12  26  46  73 104 147 185 241 299 351 427
#     4  11  27  47  72 103 145 190 243 295 350 423
#     4  12  26  47  76 105 150 181 235 302 356 435
#
# _framework density 23.141379000000001
#
# number of rings (size 3 to 8) (size 9 to 14) (size 15 to 20)
#    0.000    0.286    5.714    1.286    8.000    2.286 
#    0.000    0.000    0.000    0.000    0.000    0.000 
#    0.000    0.000    0.000    0.000    0.000    0.000 
#
# Total GULP energy -173639.330134 kJ/mol
# GULP energy per Si atom -12402.809295 kJ/mol
# Density = 2.308871 g / cm^3
# Si number density = 23.141379 Si / 1000 Ang^3
#
#
#
# Elastic Constant Matrix: (Units=GPa)
#
#
# Indices 1 2 3 4 5 6 
#
# 1 109.2323 57.6254 52.1916 0.9808 -0.0523 -7.7933
# 2 57.6254 78.4964 43.5830 -6.5541 1.3228 -27.3812
# 3 52.1916 43.5830 140.7081 -13.4341 7.0857 -0.4389
# 4 0.9808 -6.5541 -13.4341 33.2473 7.8214 -0.1552
# 5 -0.0523 1.3228 7.0857 7.8214 49.0155 0.7945
# 6 -7.7933 -27.3812 -0.4389 -0.1552 0.7945 35.9901
#
#
#
# Elastic Compliance Matrix: (Units=1/GPa)
#
#
# Indices 1 2 3 4 5 6 
#
# 1 0.017500 -0.014341 -0.002617 -0.004827 0.001671 -0.007210
# 2 -0.014341 0.034394 -0.004628 0.005812 -0.001576 0.023065
# 3 -0.002617 -0.004628 0.009933 0.003589 -0.001823 -0.003911
# 4 -0.004827 0.005812 0.003589 0.034295 -0.006213 0.003705
# 5 0.001671 -0.001576 -0.001823 -0.006213 0.021723 -0.001366
# 6 -0.007210 0.023065 -0.003911 0.003705 -0.001366 0.043770
#
#
# Mechanical properties :
#
#
# Convention : Reuss Voigt Hill
#
# Bulk Modulus (GPa) = 53.59968 70.58187 62.09077
# Shear Modulus (GPa) = 23.69608 35.31970 29.50789
#
# Velocity S-wave (km/s) = 3.20342 3.91097 3.57475
# Velocity P-wave (km/s) = 6.07410 7.13868 6.62780
#
# Compressibility (1/GPa) = 0.01865683
#
# Stress axis : x y z
#
# Youngs Moduli (GPa) = 57.14207 29.07491 100.67173
#
# Poissons Ratio (x) = 0.41695 0.26344
# Poissons Ratio (y) = 0.81945 0.46589
# Poissons Ratio (z) = 0.14953 0.13455
#
# Static dielectric constant tensor:
#      x y z
#    x 4.149460 0.143620 0.009820 
#    y 0.143620 4.178490 -0.036880 
#    z 0.009820 -0.036880 4.653270 
# 
# 
# High freq. dielectric constant tensor:
#      x y z
#    x 1.919400 0.009860 -0.000690 
#    y 0.009860 1.912130 -0.010120 
#    z -0.000690 -0.010120 1.931930 
# 
# From -- ./inp_files/271887.got.cif
#   From: 2010.06.25/outbox.cif.g09.slc.cpg/sg2_136_cif.got.tgz:271887.got - 2010.06.27 13:26:56.
