data_PCOD8036681
_publ_section_title
;
Structure prediction by ZEFSAII (Michael W. Deem and Ramdas Pophale) SiO2 
 PCOD8036681
Probable space group: P -1
;
_chemical_formula_sum "Si O2"
_cell_formula_units_Z 14
_cell_length_a 17.808878
_cell_length_b 17.539721
_cell_length_c 12.030111
_cell_angle_alpha 31.348635
_cell_angle_beta 19.624300
_cell_angle_gamma 31.814875
_cell_volume 634.077816
_symmetry_space_group_name_H-M "P -1"
_symmetry_group_IT_number 2
_symmetry_cell_setting 'triclinic'
loop_
_space_group_symop_operation_xyz
x,y,z
-x,-y,-z
loop_
_atom_site_type_symbol
_atom_site_label
_atom_site_fract_x
_atom_site_fract_y
_atom_site_fract_z
Si Si1 0.300343 0.918643 0.867376
Si Si2 0.309472 0.450003 0.403427
Si Si3 0.546688 0.114224 0.534513
Si Si4 0.250402 0.891897 0.287823
Si Si5 0.598292 0.357181 0.779309
Si Si6 0.095336 0.531626 0.210687
Si Si7 0.161197 0.858754 0.695701
O O1 0.256642 0.914383 0.800639
O O2 0.500000 0.000000 0.500000
O O3 0.411157 0.751636 0.968098
O O4 0.065160 0.998719 0.160371
O O5 0.357120 0.268890 0.574530
O O6 0.301946 0.513386 0.462154
O O7 0.058264 0.513157 0.617930
O O8 0.500000 0.500000 0.000000
O O9 0.661268 0.130609 0.470104
O O10 0.429858 0.973373 0.878623
O O11 0.246882 0.738780 0.415537
O O12 0.307283 0.854505 0.384157
O O13 0.000000 0.000000 0.500000
O O14 0.355529 0.428749 0.967647
O O15 0.000000 0.500000 0.500000
O O16 0.076600 0.708514 0.011705
#
# Coordination Sequence:
#
# PCOD8036681 Si02
#       7
#     2   2   2   2   2   2   2
#     4  12  22  42  73 105 136 185 239 298 354 413
#     4  12  23  43  70 108 145 182 234 301 359 417
#     4  12  24  45  73 107 140 184 245 296 353 427
#     4  12  26  49  70  99 147 193 235 293 354 429
#     4  12  25  44  73 103 143 184 238 286 363 416
#     4  12  24  44  73 105 148 183 232 301 360 414
#     4  12  26  46  71 104 145 192 235 294 359 424
#
# _framework density 22.079308999999999
#
# number of rings (size 3 to 8) (size 9 to 14) (size 15 to 20)
#    0.000    0.000    7.143    3.429    0.000    1.714 
#    2.571    1.429    0.000    0.000    0.000    0.000 
#    0.000    0.000    0.000    0.000    0.000    0.000 
#
# Total GULP energy -173584.584305 kJ/mol
# GULP energy per Si atom -12398.898879 kJ/mol
# Density = 2.202906 g / cm^3
# Si number density = 22.079309 Si / 1000 Ang^3
#
#
#
# Elastic Constant Matrix: (Units=GPa)
#
#
# Indices 1 2 3 4 5 6 
#
# 1 153.7033 42.9675 31.8158 19.2270 1.8539 11.1595
# 2 42.9675 112.7701 24.5319 6.3019 -1.1646 6.0901
# 3 31.8158 24.5319 53.0871 -1.3229 0.3913 3.5282
# 4 19.2270 6.3019 -1.3229 36.7813 -6.3811 2.8675
# 5 1.8539 -1.1646 0.3913 -6.3811 41.9747 9.9959
# 6 11.1595 6.0901 3.5282 2.8675 9.9959 45.3981
#
#
#
# Elastic Compliance Matrix: (Units=1/GPa)
#
#
# Indices 1 2 3 4 5 6 
#
# 1 0.008587 -0.002061 -0.004226 -0.004345 -0.000807 -0.001054
# 2 -0.002061 0.010518 -0.003601 -0.000720 0.000470 -0.000682
# 3 -0.004226 -0.003601 0.023168 0.003816 0.000606 -0.000653
# 4 -0.004345 -0.000720 0.003816 0.030826 0.005361 -0.002259
# 5 -0.000807 0.000470 0.000606 0.005361 0.026111 -0.006000
# 6 -0.001054 -0.000682 -0.000653 -0.002259 -0.006000 0.023892
#
#
# Mechanical properties :
#
#
# Convention : Reuss Voigt Hill
#
# Bulk Modulus (GPa) = 44.45225 57.57676 51.01450
# Shear Modulus (GPa) = 33.24968 39.51383 36.38176
#
# Velocity S-wave (km/s) = 3.88483 4.23499 4.06368
# Velocity P-wave (km/s) = 6.34817 7.07442 6.72111
#
# Compressibility (1/GPa) = 0.02249605
#
# Stress axis : x y z
#
# Youngs Moduli (GPa) = 116.45844 95.07297 43.16306
#
# Poissons Ratio (x) = 0.19594 0.18241
# Poissons Ratio (y) = 0.24002 0.15545
# Poissons Ratio (z) = 0.49216 0.34240
#
# Static dielectric constant tensor:
#      x y z
#    x 4.528210 0.680540 0.574830 
#    y 0.680540 4.177440 -0.290870 
#    z 0.574830 -0.290870 3.924940 
# 
# 
# High freq. dielectric constant tensor:
#      x y z
#    x 1.895950 0.000790 0.003560 
#    y 0.000790 1.877940 -0.009530 
#    z 0.003560 -0.009530 1.843130 
# 
# From -- ./inp_files/183111.got.cif
#   From: 2010.06.25/outbox.cif.g09.slc.cpg/sg2_92_cif.got.tgz:183111.got - 2010.06.27 13:26:56.
