data_PCOD8036439
_publ_section_title
;
Structure prediction by ZEFSAII (Michael W. Deem and Ramdas Pophale) SiO2 
 PCOD8036439
Probable space group: P -1
;
_chemical_formula_sum "Si O2"
_cell_formula_units_Z 14
_cell_length_a 9.305731
_cell_length_b 5.197058
_cell_length_c 17.587297
_cell_angle_alpha 94.605616
_cell_angle_beta 137.378604
_cell_angle_gamma 84.354559
_cell_volume 573.127234
_symmetry_space_group_name_H-M "P -1"
_symmetry_group_IT_number 2
_symmetry_cell_setting 'triclinic'
loop_
_space_group_symop_operation_xyz
x,y,z
-x,-y,-z
loop_
_atom_site_type_symbol
_atom_site_label
_atom_site_fract_x
_atom_site_fract_y
_atom_site_fract_z
Si Si1 0.981978 0.581958 0.907591
Si Si2 0.626133 0.668992 0.664945
Si Si3 0.339379 0.865710 0.830535
Si Si4 0.354527 0.203898 0.569243
Si Si5 0.046736 0.409647 0.343844
Si Si6 0.878685 0.852944 0.383818
Si Si7 0.791993 0.924055 0.056534
O O1 0.738363 0.663742 0.791643
O O2 0.035876 0.314220 0.877863
O O3 0.870493 0.181473 0.051645
O O4 0.000000 0.500000 0.000000
O O5 0.471777 0.441205 0.584681
O O6 0.818518 0.614264 0.680206
O O7 0.501958 0.943585 0.612211
O O8 0.201912 0.611904 0.776046
O O9 0.274308 0.984273 0.727626
O O10 0.269139 0.041084 0.878904
O O11 0.592770 0.816181 0.929781
O O12 0.142142 0.180341 0.432575
O O13 0.292226 0.288490 0.633141
O O14 0.050958 0.672273 0.400536
O O15 0.000000 0.000000 0.500000
#
# Coordination Sequence:
#
# PCOD8036439 Si02
#       7
#     2   2   2   2   2   2   2
#     4  12  27  48  75 104 151 192 253 310 379 440
#     4  12  28  49  76 107 153 204 249 303 380 455
#     4  11  27  45  79 103 151 194 255 312 376 440
#     4  12  28  46  74 112 152 195 248 307 378 451
#     4  12  26  49  77 110 155 200 254 307 375 463
#     4  12  27  47  76 113 157 196 252 317 382 445
#     4  11  27  50  74 111 141 199 257 313 365 443
#
# _framework density 24.427388000000001
#
# number of rings (size 3 to 8) (size 9 to 14) (size 15 to 20)
#    0.000    0.286    2.857    4.286   10.000    1.143 
#    0.000    0.000    0.000    0.000    0.000    0.000 
#    0.000    0.000    0.000    0.000    0.000    0.000 
#
# Total GULP energy -173491.346949 kJ/mol
# GULP energy per Si atom -12392.239068 kJ/mol
# Density = 2.437179 g / cm^3
# Si number density = 24.427388 Si / 1000 Ang^3
#
#
#
# Elastic Constant Matrix: (Units=GPa)
#
#
# Indices 1 2 3 4 5 6 
#
# 1 62.6637 4.2869 3.5469 4.1243 -5.5806 6.7192
# 2 4.2869 110.7248 20.5550 -0.3494 11.3538 -4.7077
# 3 3.5469 20.5550 137.4041 4.9629 -4.2744 5.4776
# 4 4.1243 -0.3494 4.9629 28.8630 3.7229 1.0960
# 5 -5.5806 11.3538 -4.2744 3.7229 37.9456 0.9723
# 6 6.7192 -4.7077 5.4776 1.0960 0.9723 41.9290
#
#
#
# Elastic Compliance Matrix: (Units=1/GPa)
#
#
# Indices 1 2 3 4 5 6 
#
# 1 0.016793 -0.001109 0.000041 -0.002719 0.003145 -0.002823
# 2 -0.001109 0.009797 -0.001639 0.000940 -0.003411 0.001546
# 3 0.000041 -0.001639 0.007671 -0.001498 0.001538 -0.001189
# 4 -0.002719 0.000940 -0.001498 0.035871 -0.004367 -0.000099
# 5 0.003145 -0.003411 0.001538 -0.004367 0.028480 -0.001634
# 6 -0.002823 0.001546 -0.001189 -0.000099 -0.001634 0.024672
#
#
# Mechanical properties :
#
#
# Convention : Reuss Voigt Hill
#
# Bulk Modulus (GPa) = 34.66387 40.84112 37.75249
# Shear Modulus (GPa) = 36.14969 40.57445 38.36207
#
# Velocity S-wave (km/s) = 3.85110 4.07999 3.96719
# Velocity P-wave (km/s) = 5.83061 6.24105 6.03932
#
# Compressibility (1/GPa) = 0.02884848
#
# Stress axis : x y z
#
# Youngs Moduli (GPa) = 59.54694 102.07203 130.35714
#
# Poissons Ratio (x) = 0.11319 -0.00534
# Poissons Ratio (y) = 0.06603 0.21361
# Poissons Ratio (z) = -0.00244 0.16726
#
# Static dielectric constant tensor:
#      x y z
#    x 5.225980 0.102460 0.204360 
#    y 0.102460 4.303830 -0.014760 
#    z 0.204360 -0.014760 4.977110 
# 
# 
# High freq. dielectric constant tensor:
#      x y z
#    x 1.987390 0.007710 -0.005620 
#    y 0.007710 1.964460 -0.003220 
#    z -0.005620 -0.003220 1.993020 
# 
# From -- ./inp_files/553682.got.cif
#   From: 2010.06.25/outbox.cif.g09.slc.cpg/sg2_277_cif.got.tgz:553682.got - 2010.06.27 13:26:56.
