data_PCOD8036768
_publ_section_title
;
Structure prediction by ZEFSAII (Michael W. Deem and Ramdas Pophale) SiO2 
 PCOD8036768
Probable space group: P -1
;
_chemical_formula_sum "Si O2"
_cell_formula_units_Z 16
_cell_length_a 15.133973
_cell_length_b 9.301475
_cell_length_c 8.958411
_cell_angle_alpha 78.859510
_cell_angle_beta 37.946943
_cell_angle_gamma 72.392353
_cell_volume 736.921603
_symmetry_space_group_name_H-M "P -1"
_symmetry_group_IT_number 2
_symmetry_cell_setting 'triclinic'
loop_
_space_group_symop_operation_xyz
x,y,z
-x,-y,-z
loop_
_atom_site_type_symbol
_atom_site_label
_atom_site_fract_x
_atom_site_fract_y
_atom_site_fract_z
Si Si1 0.326913 0.771307 0.924620
Si Si2 0.510701 0.925674 0.836538
Si Si3 0.889027 0.140319 0.195070
Si Si4 0.952684 0.436609 0.924507
Si Si5 0.805474 0.726561 0.574897
Si Si6 0.305728 0.437977 0.971031
Si Si7 0.556718 0.191148 0.550824
Si Si8 0.999394 0.043757 0.659954
O O1 0.387971 0.830561 0.984256
O O2 0.320604 0.597587 0.985263
O O3 0.436485 0.788326 0.640063
O O4 0.163678 0.871168 0.082115
O O5 0.670546 0.809058 0.631581
O O6 0.481392 0.056035 0.722720
O O7 0.500000 0.000000 0.000000
O O8 0.718077 0.141153 0.418800
O O9 0.939736 0.117406 0.304723
O O10 0.907977 0.285697 0.056876
O O11 0.000000 0.000000 0.000000
O O12 0.089302 0.406827 0.633681
O O13 0.811382 0.546408 0.011870
O O14 0.000000 0.500000 0.000000
O O15 0.891917 0.847531 0.487704
O O16 0.745812 0.655111 0.810713
O O17 0.464687 0.347953 0.714227
O O18 0.000000 0.000000 0.500000
#
# Coordination Sequence:
#
# PCOD8036768 Si02
#       8
#     2   2   2   2   2   2   2   2
#     4  12  27  46  73 105 143 186 235 296 354 422
#     4  12  26  48  70 108 140 183 239 292 357 416
#     4  12  22  48  74 101 141 184 240 297 339 416
#     4  12  28  45  72 106 142 187 240 288 355 421
#     4  12  25  49  71 101 150 184 235 299 347 424
#     4  12  27  47  71 104 147 189 232 287 366 429
#     4  12  24  46  75 102 144 183 236 295 354 422
#     4  12  26  44  78 106 139 187 243 292 356 415
#
# _framework density 21.711945
#
# number of rings (size 3 to 8) (size 9 to 14) (size 15 to 20)
#    0.000    0.000    7.500    1.875    3.500    0.500 
#    0.000    0.000    0.000    0.000    0.000    0.000 
#    0.000    0.000    0.000    0.000    0.000    0.000 
#
# Total GULP energy -198424.676201 kJ/mol
# GULP energy per Si atom -12401.542263 kJ/mol
# Density = 2.166253 g / cm^3
# Si number density = 21.711945 Si / 1000 Ang^3
#
#
#
# Elastic Constant Matrix: (Units=GPa)
#
#
# Indices 1 2 3 4 5 6 
#
# 1 119.4728 31.3293 27.7382 7.9974 -5.7112 3.1597
# 2 31.3293 75.7485 30.5907 4.9325 -6.8464 -11.3055
# 3 27.7382 30.5907 104.3318 5.6448 2.0837 -8.1232
# 4 7.9974 4.9325 5.6448 40.7676 -10.9583 -3.8755
# 5 -5.7112 -6.8464 2.0837 -10.9583 44.1462 -3.0906
# 6 3.1597 -11.3055 -8.1232 -3.8755 -3.0906 34.7111
#
#
#
# Elastic Compliance Matrix: (Units=1/GPa)
#
#
# Indices 1 2 3 4 5 6 
#
# 1 0.009908 -0.003696 -0.001683 -0.001449 0.000244 -0.002640
# 2 -0.003696 0.017277 -0.003744 0.000435 0.002864 0.005391
# 3 -0.001683 -0.003744 0.011321 -0.001062 -0.001503 0.001331
# 4 -0.001449 0.000435 -0.001062 0.027116 0.006918 0.003669
# 5 0.000244 0.002864 -0.001503 0.006918 0.025166 0.003572
# 6 -0.002640 0.005391 0.001331 0.003669 0.003572 0.031845
#
#
# Mechanical properties :
#
#
# Convention : Reuss Voigt Hill
#
# Bulk Modulus (GPa) = 49.35558 53.20772 51.28165
# Shear Modulus (GPa) = 33.86773 37.91796 35.89284
#
# Velocity S-wave (km/s) = 3.95380 4.18354 4.07029
# Velocity P-wave (km/s) = 6.60490 6.92065 6.76462
#
# Compressibility (1/GPa) = 0.02026113
#
# Stress axis : x y z
#
# Youngs Moduli (GPa) = 100.92393 57.87875 88.33122
#
# Poissons Ratio (x) = 0.21393 0.14862
# Poissons Ratio (y) = 0.37304 0.33073
# Poissons Ratio (z) = 0.16981 0.21671
#
# Static dielectric constant tensor:
#      x y z
#    x 4.132480 0.346930 0.065000 
#    y 0.346930 4.156460 -0.154960 
#    z 0.065000 -0.154960 4.216010 
# 
# 
# High freq. dielectric constant tensor:
#      x y z
#    x 1.859420 -0.013740 -0.001000 
#    y -0.013740 1.857980 -0.000070 
#    z -0.001000 -0.000070 1.868430 
# 
# From -- ./inp_files/208963.got.cif
#   From: 2010.06.25/outbox.cif.g09.slc.cpg/sg2_105_cif.got.tgz:208963.got - 2010.06.27 13:26:56.
