data_PCOD8036723
_publ_section_title
;
Structure prediction by ZEFSAII (Michael W. Deem and Ramdas Pophale) SiO2 
 PCOD8036723
Probable space group: P -1
;
_chemical_formula_sum "Si O2"
_cell_formula_units_Z 14
_cell_length_a 8.555474
_cell_length_b 12.437582
_cell_length_c 9.037170
_cell_angle_alpha 108.727484
_cell_angle_beta 118.185323
_cell_angle_gamma 111.547083
_cell_volume 628.790825
_symmetry_space_group_name_H-M "P -1"
_symmetry_group_IT_number 2
_symmetry_cell_setting 'triclinic'
loop_
_space_group_symop_operation_xyz
x,y,z
-x,-y,-z
loop_
_atom_site_type_symbol
_atom_site_label
_atom_site_fract_x
_atom_site_fract_y
_atom_site_fract_z
Si Si1 0.419569 0.255320 0.759258
Si Si2 0.441267 0.941141 0.282846
Si Si3 0.794136 0.432764 0.770618
Si Si4 0.916884 0.721449 0.878420
Si Si5 0.504776 0.639096 0.834269
Si Si6 0.857306 0.699798 0.516599
Si Si7 0.299257 0.763356 0.619480
O O1 0.426528 0.122921 0.722422
O O2 0.573953 0.358378 0.738574
O O3 0.177624 0.210200 0.576459
O O4 0.494808 0.345212 0.982899
O O5 0.500000 0.000000 0.500000
O O6 0.523181 0.065374 0.254985
O O7 0.172471 0.821391 0.095431
O O8 0.830011 0.558291 0.743405
O O9 0.777124 0.317438 0.607221
O O10 0.000000 0.500000 0.000000
O O11 0.761206 0.723420 0.928977
O O12 0.887860 0.766339 0.723591
O O13 0.351622 0.470553 0.654695
O O14 0.414113 0.716589 0.753301
O O15 0.083720 0.723350 0.590839
#
# Coordination Sequence:
#
# PCOD8036723 Si02
#       7
#     2   2   2   2   2   2   2
#     4  12  26  43  73 106 144 183 236 293 354 421
#     4  12  28  50  72 103 146 191 237 289 359 428
#     4  12  22  43  75 104 139 188 239 298 352 407
#     4  12  26  46  76 106 143 189 238 295 355 420
#     4  12  26  45  75 112 141 183 243 295 354 417
#     4  12  26  45  75 111 142 184 242 295 353 418
#     4  12  27  47  72 101 150 189 234 293 354 425
#
# _framework density 22.264956000000002
#
# number of rings (size 3 to 8) (size 9 to 14) (size 15 to 20)
#    0.000    0.000    5.714    3.857    4.000    3.429 
#    0.000    0.000    0.000    0.000    0.000    0.000 
#    0.000    0.000    0.000    0.000    0.000    0.000 
#
# Total GULP energy -173654.479314 kJ/mol
# GULP energy per Si atom -12403.891380 kJ/mol
# Density = 2.221428 g / cm^3
# Si number density = 22.264956 Si / 1000 Ang^3
#
#
#
# Elastic Constant Matrix: (Units=GPa)
#
#
# Indices 1 2 3 4 5 6 
#
# 1 181.8335 143.6736 120.6657 -27.2490 -6.3490 -31.1336
# 2 143.6736 249.8958 163.7604 -51.3815 7.7007 -46.1669
# 3 120.6657 163.7604 211.7659 -51.5324 -22.8544 -32.4158
# 4 -27.2490 -51.3815 -51.5324 49.8325 5.1264 14.0099
# 5 -6.3490 7.7007 -22.8544 5.1264 33.0832 -14.6432
# 6 -31.1336 -46.1669 -32.4158 14.0099 -14.6432 47.4939
#
#
#
# Elastic Compliance Matrix: (Units=1/GPa)
#
#
# Indices 1 2 3 4 5 6 
#
# 1 0.011245 -0.005060 -0.002377 -0.002590 0.003243 0.002593
# 2 -0.005060 0.012452 -0.006709 0.003991 -0.009010 0.000253
# 3 -0.002377 -0.006709 0.014193 0.004046 0.012120 0.004150
# 4 -0.002590 0.003991 0.004046 0.029002 -0.005470 -0.005299
# 5 0.003243 -0.009010 0.012120 -0.005470 0.050498 0.018822
# 6 0.002593 0.000253 0.004150 -0.005299 0.018822 0.033201
#
#
# Mechanical properties :
#
#
# Convention : Reuss Voigt Hill
#
# Bulk Modulus (GPa) = 104.20175 166.63273 135.41724
# Shear Modulus (GPa) = 27.46020 40.44161 33.95091
#
# Velocity S-wave (km/s) = 3.51570 4.26652 3.90918
# Velocity P-wave (km/s) = 7.96132 9.96365 9.01823
#
# Compressibility (1/GPa) = 0.00959677
#
# Stress axis : x y z
#
# Youngs Moduli (GPa) = 88.93033 80.30731 70.45957
#
# Poissons Ratio (x) = 0.40639 0.16751
# Poissons Ratio (y) = 0.45002 0.47268
# Poissons Ratio (z) = 0.21143 0.53874
#
# Static dielectric constant tensor:
#      x y z
#    x 4.073830 -0.219850 -0.065230 
#    y -0.219850 4.315650 -0.123110 
#    z -0.065230 -0.123110 3.943170 
# 
# 
# High freq. dielectric constant tensor:
#      x y z
#    x 1.891650 -0.004960 0.000750 
#    y -0.004960 1.883780 -0.018280 
#    z 0.000750 -0.018280 1.880820 
# 
# From -- ./inp_files/156699.got.cif
#   From: 2010.06.25/outbox.cif.g09.slc.cpg/sg2_79_cif.got.tgz:156699.got - 2010.06.27 13:26:56.
