data_PCOD8036376
_publ_section_title
;
Structure prediction by ZEFSAII (Michael W. Deem and Ramdas Pophale) SiO2 
 PCOD8036376
Probable space group: P -1
;
_chemical_formula_sum "Si O2"
_cell_formula_units_Z 14
_cell_length_a 5.274846
_cell_length_b 13.091726
_cell_length_c 9.216118
_cell_angle_alpha 99.473511
_cell_angle_beta 98.049395
_cell_angle_gamma 73.351928
_cell_volume 598.530718
_symmetry_space_group_name_H-M "P -1"
_symmetry_group_IT_number 2
_symmetry_cell_setting 'triclinic'
loop_
_space_group_symop_operation_xyz
x,y,z
-x,-y,-z
loop_
_atom_site_type_symbol
_atom_site_label
_atom_site_fract_x
_atom_site_fract_y
_atom_site_fract_z
Si Si1 0.108789 0.304639 0.783353
Si Si2 0.790309 0.747208 0.899904
Si Si3 0.298711 0.664862 0.748228
Si Si4 0.483230 0.553676 0.170409
Si Si5 0.258939 0.021936 0.092465
Si Si6 0.712505 0.036308 0.614379
Si Si7 0.928732 0.184218 0.498374
O O1 0.811142 0.379380 0.795465
O O2 0.134337 0.224358 0.627896
O O3 0.312641 0.374575 0.788385
O O4 0.181715 0.237323 0.922237
O O5 0.511031 0.720778 0.846827
O O6 0.797841 0.854041 0.837367
O O7 0.049894 0.664240 0.834010
O O8 0.441097 0.538002 0.719465
O O9 0.208905 0.719229 0.598120
O O10 0.500000 0.500000 0.000000
O O11 0.357333 0.944225 0.218196
O O12 0.500000 0.000000 0.000000
O O13 0.000000 0.000000 0.000000
O O14 0.725198 0.153098 0.587484
O O15 0.500000 0.000000 0.500000
O O16 0.967925 0.931138 0.601913
#
# Coordination Sequence:
#
# PCOD8036376 Si02
#       7
#     2   2   2   2   2   2   2
#     4  12  26  44  74 106 141 182 243 295 352 426
#     4  12  23  43  70 101 137 186 235 289 345 419
#     4  12  25  45  73  98 141 186 236 282 358 423
#     4  12  24  46  73 105 139 187 236 301 360 411
#     4  12  27  44  72 107 141 184 246 293 345 419
#     4  11  26  49  73  99 152 195 229 290 368 422
#     4  11  28  46  70 109 144 191 234 293 360 432
#
# _framework density 23.390615
#
# number of rings (size 3 to 8) (size 9 to 14) (size 15 to 20)
#    0.000    0.286    4.286    3.857    8.000    1.143 
#    0.000    0.000    0.000    0.000    0.000    0.000 
#    0.000    0.000    0.000    0.000    0.000    0.000 
#
# Total GULP energy -173520.254676 kJ/mol
# GULP energy per Si atom -12394.303905 kJ/mol
# Density = 2.333738 g / cm^3
# Si number density = 23.390615 Si / 1000 Ang^3
#
#
#
# Elastic Constant Matrix: (Units=GPa)
#
#
# Indices 1 2 3 4 5 6 
#
# 1 131.2832 8.8976 33.1680 -3.8095 12.9500 21.2802
# 2 8.8976 85.1068 25.9806 -24.9790 -0.3578 28.2997
# 3 33.1680 25.9806 136.1720 -29.8625 11.6237 15.8836
# 4 -3.8095 -24.9790 -29.8625 53.8841 2.9992 0.9098
# 5 12.9500 -0.3578 11.6237 2.9992 36.4018 6.6701
# 6 21.2802 28.2997 15.8836 0.9098 6.6701 38.1700
#
#
#
# Elastic Compliance Matrix: (Units=1/GPa)
#
#
# Indices 1 2 3 4 5 6 
#
# 1 0.008933 0.001396 -0.001569 0.000594 -0.001784 -0.005065
# 2 0.001396 0.019653 -0.000419 0.009134 0.001961 -0.015736
# 3 -0.001569 -0.000419 0.009412 0.005087 -0.002425 -0.002429
# 4 0.000594 0.009134 0.005087 0.025933 -0.002149 -0.009463
# 5 -0.001784 0.001961 -0.002425 -0.002149 0.029925 -0.004628
# 6 -0.005065 -0.015736 -0.002429 -0.009463 -0.004628 0.042734
#
#
# Mechanical properties :
#
#
# Convention : Reuss Voigt Hill
#
# Bulk Modulus (GPa) = 27.16288 54.29495 40.72892
# Shear Modulus (GPa) = 33.32357 44.65890 38.99123
#
# Velocity S-wave (km/s) = 3.77856 4.37425 4.08727
# Velocity P-wave (km/s) = 5.53846 6.98390 6.30275
#
# Compressibility (1/GPa) = 0.03681495
#
# Stress axis : x y z
#
# Youngs Moduli (GPa) = 111.94339 50.88220 106.25257
#
# Poissons Ratio (x) = -0.07103 0.16670
# Poissons Ratio (y) = -0.15628 0.04448
# Poissons Ratio (z) = 0.17562 0.02130
#
# Static dielectric constant tensor:
#      x y z
#    x 4.398060 0.019060 0.054580 
#    y 0.019060 4.366790 -0.469320 
#    z 0.054580 -0.469320 4.007050 
# 
# 
# High freq. dielectric constant tensor:
#      x y z
#    x 1.940890 0.005590 0.000870 
#    y 0.005590 1.939140 -0.014280 
#    z 0.000870 -0.014280 1.921860 
# 
# From -- ./inp_files/37649.got.cif
#   From: 2010.06.25/outbox.cif.g09.slc.cpg/sg2_19_cif.got.tgz:37649.got - 2010.06.27 13:26:56.
