data_PCOD8036964
_publ_section_title
;
Structure prediction by ZEFSAII (Michael W. Deem and Ramdas Pophale) SiO2 
 PCOD8036964
Probable space group: P -1
;
_chemical_formula_sum "Si O2"
_cell_formula_units_Z 14
_cell_length_a 15.132064
_cell_length_b 15.983711
_cell_length_c 9.647880
_cell_angle_alpha 109.225000
_cell_angle_beta 80.542446
_cell_angle_gamma 161.105448
_cell_volume 625.364541
_symmetry_space_group_name_H-M "P -1"
_symmetry_group_IT_number 2
_symmetry_cell_setting 'triclinic'
loop_
_space_group_symop_operation_xyz
x,y,z
-x,-y,-z
loop_
_atom_site_type_symbol
_atom_site_label
_atom_site_fract_x
_atom_site_fract_y
_atom_site_fract_z
Si Si1 0.733225 0.587725 0.334403
Si Si2 0.572551 0.702194 0.455482
Si Si3 0.367599 0.359117 0.109156
Si Si4 0.727867 0.417803 0.667056
Si Si5 0.809765 0.452741 0.202101
Si Si6 0.526372 0.087447 0.337347
Si Si7 0.573577 0.932123 0.182654
O O1 0.561691 0.453249 0.446278
O O2 0.519958 0.414885 0.165400
O O3 0.789771 0.537196 0.285656
O O4 0.054925 0.946208 0.440632
O O5 0.452058 0.522191 0.271563
O O6 0.458228 0.691960 0.442888
O O7 0.500000 0.500000 0.000000
O O8 0.000000 0.000000 0.000000
O O9 0.692153 0.286985 0.537245
O O10 0.587227 0.285997 0.785401
O O11 0.087592 0.786403 0.784986
O O12 0.660276 0.256051 0.255893
O O13 0.627493 0.253734 0.003741
O O14 0.160297 0.755731 0.255233
O O15 0.605584 0.059366 0.309326
#
# Coordination Sequence:
#
# PCOD8036964 Si02
#       7
#     2   2   2   2   2   2   2
#     4  12  24  47  70  99 135 182 222 263 331 407
#     4  12  25  47  72  97 138 180 222 263 331 408
#     4  12  28  46  75 108 136 166 216 282 334 396
#     4  12  24  42  66  99 133 178 226 273 335 394
#     4  12  24  42  68  97 133 179 228 274 330 398
#     4  12  23  46  64  97 132 182 231 273 331 398
#     4  12  26  40  67  97 139 175 223 290 334 375
#
# _framework density 22.386942999999999
#
# number of rings (size 3 to 8) (size 9 to 14) (size 15 to 20)
#    0.000    0.000    2.857    7.714    4.000    0.000 
#    0.000    0.000    0.000    0.000    0.000    0.000 
#    0.000    0.000    0.000    0.000    0.000    0.000 
#
# Total GULP energy -173729.023796 kJ/mol
# GULP energy per Si atom -12409.215985 kJ/mol
# Density = 2.233599 g / cm^3
# Si number density = 22.386943 Si / 1000 Ang^3
#
#
#
# Elastic Constant Matrix: (Units=GPa)
#
#
# Indices 1 2 3 4 5 6 
#
# 1 60.2486 31.4295 11.6147 0.1289 15.9761 1.0908
# 2 31.4295 220.0496 56.4725 -3.2585 28.8192 26.6664
# 3 11.6147 56.4725 83.0985 -1.9471 12.1621 8.4940
# 4 0.1289 -3.2585 -1.9471 48.9653 -0.5232 5.4499
# 5 15.9761 28.8192 12.1621 -0.5232 44.7838 3.6180
# 6 1.0908 26.6664 8.4940 5.4499 3.6180 7.7933
#
#
#
# Elastic Compliance Matrix: (Units=1/GPa)
#
#
# Indices 1 2 3 4 5 6 
#
# 1 0.019972 -0.003700 -0.001034 -0.002081 -0.005707 0.015097
# 2 -0.003700 0.010048 -0.002561 0.004259 -0.001714 -0.033253
# 3 -0.001034 -0.002561 0.014930 0.001255 -0.001410 -0.007587
# 4 -0.002081 0.004259 0.001255 0.024444 0.000615 -0.033030
# 5 -0.005707 -0.001714 -0.001410 0.000615 0.026214 -0.004399
# 6 0.015097 -0.033253 -0.007587 -0.033030 -0.004399 0.273394
#
#
# Mechanical properties :
#
#
# Convention : Reuss Voigt Hill
#
# Bulk Modulus (GPa) = 32.93854 62.49223 47.71538
# Shear Modulus (GPa) = 12.69964 37.90049 25.30007
#
# Velocity S-wave (km/s) = 2.38435 4.11904 3.36538
# Velocity P-wave (km/s) = 4.72497 7.11317 6.03832
#
# Compressibility (1/GPa) = 0.03035957
#
# Stress axis : x y z
#
# Youngs Moduli (GPa) = 50.07057 99.52706 66.97773
#
# Poissons Ratio (x) = 0.36827 0.06922
# Poissons Ratio (y) = 0.18527 0.17155
# Poissons Ratio (z) = 0.05175 0.25492
#
# Static dielectric constant tensor:
#      x y z
#    x 4.128190 0.170740 0.038990 
#    y 0.170740 5.310900 -0.116180 
#    z 0.038990 -0.116180 4.104120 
# 
# 
# High freq. dielectric constant tensor:
#      x y z
#    x 1.889840 0.002160 0.006510 
#    y 0.002160 1.907570 -0.001160 
#    z 0.006510 -0.001160 1.893500 
# 
# From -- ./inp_files/128198.got.cif
#   From: 2010.06.25/outbox.cif.g09.slc.cpg/sg2_65_cif.got.tgz:128198.got - 2010.06.27 13:26:56.
