data_PCOD8036171
_publ_section_title
;
Structure prediction by ZEFSAII (Michael W. Deem and Ramdas Pophale) SiO2 
 PCOD8036171
Probable space group: P -1
;
_chemical_formula_sum "Si O2"
_cell_formula_units_Z 12
_cell_length_a 12.388338
_cell_length_b 10.169492
_cell_length_c 5.441561
_cell_angle_alpha 76.149831
_cell_angle_beta 76.580852
_cell_angle_gamma 123.306174
_cell_volume 497.339559
_symmetry_space_group_name_H-M "P -1"
_symmetry_group_IT_number 2
_symmetry_cell_setting 'triclinic'
loop_
_space_group_symop_operation_xyz
x,y,z
-x,-y,-z
loop_
_atom_site_type_symbol
_atom_site_label
_atom_site_fract_x
_atom_site_fract_y
_atom_site_fract_z
Si Si1 0.741469 0.041381 0.939372
Si Si2 0.278536 0.421303 0.197788
Si Si3 0.870194 0.503749 0.078375
Si Si4 0.664743 0.123312 0.435476
Si Si5 0.570486 0.648526 0.195144
Si Si6 0.041963 0.176834 0.792437
O O1 0.750632 0.139828 0.137840
O O2 0.639918 0.839590 0.176192
O O3 0.676766 0.051052 0.716723
O O4 0.902863 0.122871 0.740792
O O5 0.441220 0.589435 0.108200
O O6 0.184781 0.265956 0.514830
O O7 0.191711 0.492731 0.152851
O O8 0.297226 0.331280 0.003598
O O9 0.735141 0.325633 0.367659
O O10 0.920052 0.681424 0.091753
O O11 0.000000 0.500000 0.000000
O O12 0.500000 0.000000 0.500000
O O13 0.500000 0.500000 0.500000
O O14 0.000000 0.000000 0.000000
#
# Coordination Sequence:
#
# PCOD8036171 Si02
#       6
#     2   2   2   2   2   2
#     4  12  28  49  77 112 157 201 264 319 387 462
#     4  11  26  45  79 106 151 202 258 319 394 457
#     4  12  26  48  74 110 154 203 255 315 389 461
#     4  12  29  49  77 112 155 205 258 320 389 466
#     4  11  26  48  75 112 150 200 266 322 392 459
#     4  12  28  48  77 113 154 203 262 317 392 464
#
# _framework density 24.128382999999999
#
# number of rings (size 3 to 8) (size 9 to 14) (size 15 to 20)
#    0.000    0.333    1.667    5.500   14.000    2.667 
#    0.000    0.000    0.000    0.000    0.000    0.000 
#    0.000    0.000    0.000    0.000    0.000    0.000 
#
# Total GULP energy -148725.832262 kJ/mol
# GULP energy per Si atom -12393.819355 kJ/mol
# Density = 2.407347 g / cm^3
# Si number density = 24.128383 Si / 1000 Ang^3
#
#
#
# Elastic Constant Matrix: (Units=GPa)
#
#
# Indices 1 2 3 4 5 6 
#
# 1 160.1448 36.2473 38.8512 -6.7888 5.6412 6.0812
# 2 36.2473 133.7594 32.7563 -26.1291 2.5413 -2.1440
# 3 38.8512 32.7563 110.3110 -1.2117 -5.3327 -9.7822
# 4 -6.7888 -26.1291 -1.2117 47.8446 4.1013 -5.5123
# 5 5.6412 2.5413 -5.3327 4.1013 49.3043 -0.4461
# 6 6.0812 -2.1440 -9.7822 -5.5123 -0.4461 33.3377
#
#
#
# Elastic Compliance Matrix: (Units=1/GPa)
#
#
# Indices 1 2 3 4 5 6 
#
# 1 0.007255 -0.001386 -0.002381 0.000058 -0.001040 -0.002116
# 2 -0.001386 0.009424 -0.002209 0.005098 -0.000981 0.001040
# 3 -0.002381 -0.002209 0.010927 -0.001026 0.001684 0.003351
# 4 0.000058 0.005098 -0.001026 0.024332 -0.002368 0.004008
# 5 -0.001040 -0.000981 0.001684 -0.002368 0.020835 0.000508
# 6 -0.002116 0.001040 0.003351 0.004008 0.000508 0.032102
#
#
# Mechanical properties :
#
#
# Convention : Reuss Voigt Hill
#
# Bulk Modulus (GPa) = 63.88248 68.88054 66.38151
# Shear Modulus (GPa) = 40.96818 45.85467 43.41142
#
# Velocity S-wave (km/s) = 4.12506 4.36414 4.24628
# Velocity P-wave (km/s) = 7.01582 7.34873 7.18420
#
# Compressibility (1/GPa) = 0.01565374
#
# Stress axis : x y z
#
# Youngs Moduli (GPa) = 137.83482 106.11325 91.51430
#
# Poissons Ratio (x) = 0.14706 0.21789
# Poissons Ratio (y) = 0.19102 0.20220
# Poissons Ratio (z) = 0.32818 0.23445
#
# Static dielectric constant tensor:
#      x y z
#    x 4.872850 0.293960 0.302370 
#    y 0.293960 4.686090 -0.334420 
#    z 0.302370 -0.334420 2.901980 
# 
# 
# High freq. dielectric constant tensor:
#      x y z
#    x 1.981610 0.017960 0.003190 
#    y 0.017960 1.970770 -0.015040 
#    z 0.003190 -0.015040 1.950910 
# 
# From -- ./inp_files/60238.got.cif
#   From: 2010.06.25/outbox.cif.g09.slc.cpg/sg2_31_cif.got.tgz:60238.got - 2010.06.27 13:26:56.
