data_PCOD8036437
_publ_section_title
;
Structure prediction by ZEFSAII (Michael W. Deem and Ramdas Pophale) SiO2 
 PCOD8036437
Probable space group: P -1
;
_chemical_formula_sum "Si O2"
_cell_formula_units_Z 12
_cell_length_a 14.339227
_cell_length_b 5.013011
_cell_length_c 13.010377
_cell_angle_alpha 73.440037
_cell_angle_beta 139.004091
_cell_angle_gamma 124.391829
_cell_volume 488.712502
_symmetry_space_group_name_H-M "P -1"
_symmetry_group_IT_number 2
_symmetry_cell_setting 'triclinic'
loop_
_space_group_symop_operation_xyz
x,y,z
-x,-y,-z
loop_
_atom_site_type_symbol
_atom_site_label
_atom_site_fract_x
_atom_site_fract_y
_atom_site_fract_z
Si Si1 0.727140 0.294095 0.550003
Si Si2 0.588502 0.726101 0.645794
Si Si3 0.919235 0.147653 0.158220
Si Si4 0.676073 0.756701 0.176125
Si Si5 0.800193 0.294279 0.385359
Si Si6 0.860278 0.690088 0.983745
O O1 0.548812 0.267867 0.396484
O O2 0.763757 0.169656 0.487636
O O3 0.885073 0.670424 0.663333
O O4 0.725603 0.089329 0.670909
O O5 0.500000 0.500000 0.500000
O O6 0.674914 0.572876 0.798754
O O7 0.802262 0.044342 0.171180
O O8 0.883040 0.382521 0.032694
O O9 0.872784 0.814670 0.096719
O O10 0.751183 0.559847 0.305863
O O11 0.672179 0.968117 0.245168
O O12 0.500000 0.500000 0.000000
O O13 0.000000 0.500000 0.500000
O O14 0.000000 0.000000 0.000000
#
# Coordination Sequence:
#
# PCOD8036437 Si02
#       6
#     2   2   2   2   2   2
#     4  11  27  46  74 110 147 199 250 311 377 453
#     4  11  27  45  74 109 152 192 250 310 377 451
#     4  12  27  48  76 104 151 197 247 309 379 449
#     4  12  29  51  75 114 151 198 256 319 380 448
#     4  12  27  50  81 110 150 202 259 311 380 455
#     4  12  26  46  76 110 146 196 248 304 377 454
#
# _framework density 24.554314999999999
#
# number of rings (size 3 to 8) (size 9 to 14) (size 15 to 20)
#    0.000    0.333    3.333    3.500    9.333    0.000 
#    0.000    0.000    0.000    0.000    0.000    0.000 
#    0.000    0.000    0.000    0.000    0.000    0.000 
#
# Total GULP energy -148827.534061 kJ/mol
# GULP energy per Si atom -12402.294505 kJ/mol
# Density = 2.449843 g / cm^3
# Si number density = 24.554315 Si / 1000 Ang^3
#
#
#
# Elastic Constant Matrix: (Units=GPa)
#
#
# Indices 1 2 3 4 5 6 
#
# 1 128.3830 21.6336 34.2646 7.5979 -14.3640 16.2811
# 2 21.6336 83.6546 15.9191 4.5057 5.1302 5.0698
# 3 34.2646 15.9191 115.5106 19.4741 -9.8141 13.2019
# 4 7.5979 4.5057 19.4741 48.0100 -11.6735 -0.6351
# 5 -14.3640 5.1302 -9.8141 -11.6735 40.0961 10.5873
# 6 16.2811 5.0698 13.2019 -0.6351 10.5873 41.1339
#
#
#
# Elastic Compliance Matrix: (Units=1/GPa)
#
#
# Indices 1 2 3 4 5 6 
#
# 1 0.009638 -0.002206 -0.001774 0.000446 0.004521 -0.004130
# 2 -0.002206 0.012996 -0.001277 -0.001130 -0.003225 0.000494
# 3 -0.001774 -0.001277 0.010442 -0.003416 0.001890 -0.003031
# 4 0.000446 -0.001130 -0.003416 0.023819 0.006466 -0.000237
# 5 0.004521 -0.003225 0.001890 0.006466 0.031993 -0.010133
# 6 -0.004130 0.000494 -0.003031 -0.000237 -0.010133 0.029462
#
#
# Mechanical properties :
#
#
# Convention : Reuss Voigt Hill
#
# Bulk Modulus (GPa) = 44.31974 52.35366 48.33670
# Shear Modulus (GPa) = 36.66144 42.89672 39.77908
#
# Velocity S-wave (km/s) = 3.86823 4.18426 4.02934
# Velocity P-wave (km/s) = 6.16764 6.68670 6.43241
#
# Compressibility (1/GPa) = 0.02256331
#
# Stress axis : x y z
#
# Youngs Moduli (GPa) = 103.76110 76.94674 95.76545
#
# Poissons Ratio (x) = 0.16972 0.16988
# Poissons Ratio (y) = 0.22887 0.12225
# Poissons Ratio (z) = 0.18406 0.09823
#
# Static dielectric constant tensor:
#      x y z
#    x 4.583930 0.004510 -0.045970 
#    y 0.004510 3.883640 0.075460 
#    z -0.045970 0.075460 4.746730 
# 
# 
# High freq. dielectric constant tensor:
#      x y z
#    x 1.986920 0.002180 -0.002180 
#    y 0.002180 1.979670 0.002970 
#    z -0.002180 0.002970 1.984960 
# 
# From -- ./inp_files/28579.got.cif
#   From: 2010.06.25/outbox.cif.g09.slc.cpg/sg2_15_cif.got.tgz:28579.got - 2010.06.27 13:26:56.
