data_PCOD8036372
_publ_section_title
;
Structure prediction by ZEFSAII (Michael W. Deem and Ramdas Pophale) SiO2 
 PCOD8036372
Probable space group: P -1
;
_chemical_formula_sum "Si O2"
_cell_formula_units_Z 14
_cell_length_a 13.086136
_cell_length_b 5.124700
_cell_length_c 12.298948
_cell_angle_alpha 107.392204
_cell_angle_beta 50.543165
_cell_angle_gamma 113.247818
_cell_volume 583.778134
_symmetry_space_group_name_H-M "P -1"
_symmetry_group_IT_number 2
_symmetry_cell_setting 'triclinic'
loop_
_space_group_symop_operation_xyz
x,y,z
-x,-y,-z
loop_
_atom_site_type_symbol
_atom_site_label
_atom_site_fract_x
_atom_site_fract_y
_atom_site_fract_z
Si Si1 0.780308 0.883854 0.205035
Si Si2 0.931375 0.112011 0.928437
Si Si3 0.316030 0.974781 0.491412
Si Si4 0.905865 0.208001 0.568200
Si Si5 0.844861 0.476015 0.857327
Si Si6 0.479297 0.510083 0.334519
Si Si7 0.466135 0.679051 0.947338
O O1 0.915385 0.768165 0.109823
O O2 0.766142 0.063882 0.344142
O O3 0.642512 0.627257 0.255736
O O4 0.812128 0.074290 0.097050
O O5 0.918643 0.812773 0.835808
O O6 0.923625 0.354759 0.880964
O O7 0.415248 0.294846 0.449068
O O8 0.210021 0.921251 0.457523
O O9 0.411796 0.767197 0.405401
O O10 0.835246 0.281634 0.733491
O O11 0.000000 0.500000 0.500000
O O12 0.000000 0.000000 0.500000
O O13 0.691182 0.446541 0.996587
O O14 0.444964 0.343384 0.222182
O O15 0.500000 0.500000 0.000000
O O16 0.500000 0.000000 0.000000
#
# Coordination Sequence:
#
# PCOD8036372 Si02
#       7
#     2   2   2   2   2   2   2
#     4  11  26  49  72 105 144 191 242 288 357 419
#     4  11  27  45  75 104 140 187 243 298 344 421
#     4  12  27  46  72 107 145 188 234 290 356 429
#     4  12  25  45  73 103 143 184 237 291 355 420
#     4  12  24  46  70 104 139 182 236 298 353 407
#     4  12  26  46  71 105 143 187 237 290 356 423
#     4  12  25  44  70 101 139 183 232 286 353 421
#
# _framework density 23.981711000000001
#
# number of rings (size 3 to 8) (size 9 to 14) (size 15 to 20)
#    0.000    0.286    1.429    7.714    2.000    5.714 
#    0.000    0.000    0.000    0.000    0.000    0.000 
#    0.000    0.000    0.000    0.000    0.000    0.000 
#
# Total GULP energy -173634.286589 kJ/mol
# GULP energy per Si atom -12402.449042 kJ/mol
# Density = 2.392713 g / cm^3
# Si number density = 23.981711 Si / 1000 Ang^3
#
#
#
# Elastic Constant Matrix: (Units=GPa)
#
#
# Indices 1 2 3 4 5 6 
#
# 1 95.9975 55.8323 33.5343 9.4055 -13.9182 0.8773
# 2 55.8323 132.5970 27.4147 1.8772 -15.5863 -10.7243
# 3 33.5343 27.4147 145.8512 9.2606 16.3967 6.3764
# 4 9.4055 1.8772 9.2606 29.7609 12.4727 -5.4932
# 5 -13.9182 -15.5863 16.3967 12.4727 44.0628 0.3800
# 6 0.8773 -10.7243 6.3764 -5.4932 0.3800 43.1029
#
#
#
# Elastic Compliance Matrix: (Units=1/GPa)
#
#
# Indices 1 2 3 4 5 6 
#
# 1 0.016274 -0.005621 -0.002844 -0.006910 0.006186 -0.002244
# 2 -0.005621 0.010616 -0.001141 0.001168 0.002047 0.003055
# 3 -0.002844 -0.001141 0.008279 -0.000040 -0.004359 -0.001417
# 4 -0.006910 0.001168 -0.000040 0.042647 -0.013878 0.005995
# 5 0.006186 0.002047 -0.004359 -0.013878 0.030932 -0.001013
# 6 -0.002244 0.003055 -0.001417 0.005995 -0.001013 0.024989
#
#
# Mechanical properties :
#
#
# Convention : Reuss Voigt Hill
#
# Bulk Modulus (GPa) = 62.66636 67.55648 65.11142
# Shear Modulus (GPa) = 31.59226 40.56293 36.07759
#
# Velocity S-wave (km/s) = 3.63347 4.11714 3.88284
# Velocity P-wave (km/s) = 6.61743 7.12967 6.87832
#
# Compressibility (1/GPa) = 0.01595753
#
# Stress axis : x y z
#
# Youngs Moduli (GPa) = 61.44790 94.20150 120.78577
#
# Poissons Ratio (x) = 0.52951 0.34348
# Poissons Ratio (y) = 0.34540 0.13779
# Poissons Ratio (z) = 0.17474 0.10746
#
# Static dielectric constant tensor:
#      x y z
#    x 4.393830 0.054870 0.001790 
#    y 0.054870 3.902170 -0.305930 
#    z 0.001790 -0.305930 4.571070 
# 
# 
# High freq. dielectric constant tensor:
#      x y z
#    x 1.964980 0.007760 0.006580 
#    y 0.007760 1.955020 0.002270 
#    z 0.006580 0.002270 1.971840 
# 
# From -- ./inp_files/127267.got.cif
#   From: 2010.06.25/outbox.cif.g09.slc.cpg/sg2_64_cif.got.tgz:127267.got - 2010.06.27 13:26:56.
