data_PCOD8036564
_publ_section_title
;
Structure prediction by ZEFSAII (Michael W. Deem and Ramdas Pophale) SiO2 
 PCOD8036564
Probable space group: P -1
;
_chemical_formula_sum "Si O2"
_cell_formula_units_Z 14
_cell_length_a 8.403353
_cell_length_b 11.112636
_cell_length_c 12.219406
_cell_angle_alpha 124.837873
_cell_angle_beta 47.998789
_cell_angle_gamma 136.640806
_cell_volume 574.109706
_symmetry_space_group_name_H-M "P -1"
_symmetry_group_IT_number 2
_symmetry_cell_setting 'triclinic'
loop_
_space_group_symop_operation_xyz
x,y,z
-x,-y,-z
loop_
_atom_site_type_symbol
_atom_site_label
_atom_site_fract_x
_atom_site_fract_y
_atom_site_fract_z
Si Si1 0.586905 0.642196 0.355758
Si Si2 0.140503 0.087198 0.828260
Si Si3 0.708241 0.881167 0.614561
Si Si4 0.921885 0.493117 0.155791
Si Si5 0.353154 0.912472 0.910847
Si Si6 0.244380 0.269266 0.258674
Si Si7 0.529904 0.345909 0.947998
O O1 0.741083 0.780093 0.259003
O O2 0.533567 0.731895 0.526097
O O3 0.307782 0.466864 0.352428
O O4 0.766763 0.582974 0.290073
O O5 0.352252 0.164412 0.866499
O O6 0.046595 0.885627 0.731646
O O7 0.885112 0.069151 0.984785
O O8 0.581137 0.994982 0.754253
O O9 0.706036 0.798597 0.688961
O O10 0.000000 0.000000 0.500000
O O11 0.175430 0.592599 0.168330
O O12 0.747338 0.290544 0.165524
O O13 0.000000 0.500000 0.000000
O O14 0.500000 0.000000 0.000000
O O15 0.453724 0.299576 0.086427
O O16 0.500000 0.500000 0.000000
#
# Coordination Sequence:
#
# PCOD8036564 Si02
#       7
#     2   2   2   2   2   2   2
#     4  12  23  43  69 102 140 172 233 281 344 407
#     4  12  24  43  71 103 138 176 229 286 343 409
#     4  12  25  40  67 105 139 182 223 284 343 401
#     4  12  21  39  68 102 129 176 225 285 337 393
#     4  12  21  38  67 100 132 171 229 282 331 397
#     4  12  23  41  68  97 136 182 224 273 345 393
#     4  12  23  42  69 103 138 177 227 288 343 402
#
# _framework density 24.385583
#
# number of rings (size 3 to 8) (size 9 to 14) (size 15 to 20)
#    0.000    0.000   10.000    0.857    0.000    0.000 
#    0.000    0.000    3.143    4.286    0.000    0.000 
#    0.000    0.000    0.000    0.000    0.000    0.000 
#
# Total GULP energy -173448.298804 kJ/mol
# GULP energy per Si atom -12389.164200 kJ/mol
# Density = 2.433008 g / cm^3
# Si number density = 24.385583 Si / 1000 Ang^3
#
#
#
# Elastic Constant Matrix: (Units=GPa)
#
#
# Indices 1 2 3 4 5 6 
#
# 1 73.4236 40.8200 40.4027 1.3330 2.2286 29.0068
# 2 40.8200 180.9440 47.9460 7.0784 13.2180 35.8019
# 3 40.4027 47.9460 129.8346 12.1440 13.6897 16.1645
# 4 1.3330 7.0784 12.1440 42.7854 3.8594 18.5404
# 5 2.2286 13.2180 13.6897 3.8594 31.4139 1.0301
# 6 29.0068 35.8019 16.1645 18.5404 1.0301 53.1796
#
#
#
# Elastic Compliance Matrix: (Units=1/GPa)
#
#
# Indices 1 2 3 4 5 6 
#
# 1 0.021810 -0.001552 -0.005484 0.005914 0.001139 -0.011268
# 2 -0.001552 0.007175 -0.001558 0.001188 -0.002249 -0.003881
# 3 -0.005484 -0.001558 0.010353 -0.003109 -0.003152 0.002038
# 4 0.005914 0.001188 -0.003109 0.029966 -0.002804 -0.013474
# 5 0.001139 -0.002249 -0.003152 -0.002804 0.034346 0.002164
# 6 -0.011268 -0.003881 0.002038 -0.013474 0.002164 0.031600
#
#
# Mechanical properties :
#
#
# Convention : Reuss Voigt Hill
#
# Bulk Modulus (GPa) = 45.14438 71.39327 58.26882
# Shear Modulus (GPa) = 31.28512 42.47801 36.88157
#
# Velocity S-wave (km/s) = 3.58569 4.17817 3.89322
# Velocity P-wave (km/s) = 5.97460 7.25373 6.64501
#
# Compressibility (1/GPa) = 0.02215115
#
# Stress axis : x y z
#
# Youngs Moduli (GPa) = 45.85061 139.37008 96.58753
#
# Poissons Ratio (x) = 0.21630 0.52970
# Poissons Ratio (y) = 0.07116 0.15044
# Poissons Ratio (z) = 0.25145 0.21707
#
# Static dielectric constant tensor:
#      x y z
#    x 4.295490 0.375830 0.260170 
#    y 0.375830 5.513310 -0.363310 
#    z 0.260170 -0.363310 6.754250 
# 
# 
# High freq. dielectric constant tensor:
#      x y z
#    x 1.941860 0.018230 0.022410 
#    y 0.018230 2.004220 -0.006060 
#    z 0.022410 -0.006060 1.957350 
# 
# From -- ./inp_files/392815.got.cif
#   From: 2010.06.25/outbox.cif.g09.slc.cpg/sg2_197_cif.got.tgz:392815.got - 2010.06.27 13:26:56.
