data_PCOD8036436
_publ_section_title
;
Structure prediction by ZEFSAII (Michael W. Deem and Ramdas Pophale) SiO2 
 PCOD8036436
Probable space group: P -1
;
_chemical_formula_sum "Si O2"
_cell_formula_units_Z 16
_cell_length_a 12.070669
_cell_length_b 8.614005
_cell_length_c 9.563840
_cell_angle_alpha 105.089036
_cell_angle_beta 88.782789
_cell_angle_gamma 130.731740
_cell_volume 712.393782
_symmetry_space_group_name_H-M "P -1"
_symmetry_group_IT_number 2
_symmetry_cell_setting 'triclinic'
loop_
_space_group_symop_operation_xyz
x,y,z
-x,-y,-z
loop_
_atom_site_type_symbol
_atom_site_label
_atom_site_fract_x
_atom_site_fract_y
_atom_site_fract_z
Si Si1 0.811381 0.008798 0.195486
Si Si2 0.839958 0.147801 0.769068
Si Si3 0.679435 0.820262 0.446966
Si Si4 0.130124 0.305017 0.911323
Si Si5 0.120101 0.471057 0.231280
Si Si6 0.596807 0.248529 0.513982
Si Si7 0.658529 0.442968 0.274842
Si Si8 0.601196 0.944828 0.952870
O O1 0.974111 0.244983 0.243422
O O2 0.748443 0.969454 0.343123
O O3 0.822976 0.834219 0.110563
O O4 0.694053 0.982475 0.093145
O O5 0.922271 0.384496 0.760893
O O6 0.952149 0.150199 0.859907
O O7 0.776583 0.972015 0.610246
O O8 0.710040 0.091616 0.856681
O O9 0.506290 0.697233 0.441019
O O10 0.690533 0.640142 0.398363
O O11 0.206506 0.465473 0.813232
O O12 0.178411 0.440108 0.082970
O O13 0.252594 0.591368 0.366439
O O14 0.642407 0.289101 0.357784
O O15 0.500000 0.000000 0.500000
O O16 0.507907 0.305502 0.153199
O O17 0.500000 0.000000 0.000000
#
# Coordination Sequence:
#
# PCOD8036436 Si02
#       8
#     2   2   2   2   2   2   2   2
#     4  11  29  45  72 109 142 190 236 301 351 421
#     4  12  26  47  73 102 145 191 236 296 352 431
#     4  11  27  46  69 107 145 187 243 288 355 428
#     4  11  27  47  73 107 144 186 247 288 356 429
#     4  12  26  45  72 104 145 190 233 298 359 413
#     4  12  26  46  70 107 144 186 239 290 352 425
#     4  11  27  45  74 102 142 196 227 299 358 415
#     4  12  27  46  74 105 144 184 242 297 356 424
#
# _framework density 22.459489000000001
#
# number of rings (size 3 to 8) (size 9 to 14) (size 15 to 20)
#    0.000    0.500    3.750    1.875   12.250    2.500 
#    0.000    0.000    0.000    0.000    0.000    0.000 
#    0.000    0.000    0.000    0.000    0.000    0.000 
#
# Total GULP energy -198477.436694 kJ/mol
# GULP energy per Si atom -12404.839793 kJ/mol
# Density = 2.240837 g / cm^3
# Si number density = 22.459489 Si / 1000 Ang^3
#
#
#
# Elastic Constant Matrix: (Units=GPa)
#
#
# Indices 1 2 3 4 5 6 
#
# 1 92.4359 33.1616 46.6341 11.0987 10.6508 15.2729
# 2 33.1616 129.2847 61.9860 -7.5012 5.9553 13.9636
# 3 46.6341 61.9860 141.4802 5.0693 12.2205 15.5247
# 4 11.0987 -7.5012 5.0693 27.6987 17.2429 4.6913
# 5 10.6508 5.9553 12.2205 17.2429 32.5624 -4.7305
# 6 15.2729 13.9636 15.5247 4.6913 -4.7305 28.6803
#
#
#
# Elastic Compliance Matrix: (Units=1/GPa)
#
#
# Indices 1 2 3 4 5 6 
#
# 1 0.014539 -0.001806 -0.003160 -0.003655 -0.002014 -0.004887
# 2 -0.001806 0.011198 -0.003631 0.008542 -0.005315 -0.004799
# 3 -0.003160 -0.003631 0.010217 0.000647 -0.002865 -0.002658
# 4 -0.003655 0.008542 0.000647 0.067682 -0.039373 -0.020128
# 5 -0.002014 -0.005315 -0.002865 -0.039373 0.057332 0.021108
# 6 -0.004887 -0.004799 -0.002658 -0.020128 0.021108 0.048018
#
#
# Mechanical properties :
#
#
# Convention : Reuss Voigt Hill
#
# Bulk Modulus (GPa) = 53.30686 71.86268 62.58477
# Shear Modulus (GPa) = 21.51169 32.54957 27.03063
#
# Velocity S-wave (km/s) = 3.09819 3.81104 3.47295
# Velocity P-wave (km/s) = 6.04852 7.17157 6.63385
#
# Compressibility (1/GPa) = 0.01875931
#
# Stress axis : x y z
#
# Youngs Moduli (GPa) = 68.78245 89.30383 97.87990
#
# Poissons Ratio (x) = 0.16125 0.30929
# Poissons Ratio (y) = 0.12419 0.35543
# Poissons Ratio (z) = 0.21735 0.32429
#
# Static dielectric constant tensor:
#      x y z
#    x 4.021440 0.161170 -0.073110 
#    y 0.161170 4.331460 -0.091850 
#    z -0.073110 -0.091850 4.303790 
# 
# 
# High freq. dielectric constant tensor:
#      x y z
#    x 1.885450 0.007200 -0.004270 
#    y 0.007200 1.898820 -0.001320 
#    z -0.004270 -0.001320 1.902480 
# 
# From -- ./inp_files/207814.got.cif
#   From: 2010.06.25/outbox.cif.g09.slc.cpg/sg2_104_cif.got.tgz:207814.got - 2010.06.27 13:26:56.
