data_PCOD8036965
_publ_section_title
;
Structure prediction by ZEFSAII (Michael W. Deem and Ramdas Pophale) SiO2 
 PCOD8036965
Probable space group: P -1
;
_chemical_formula_sum "Si O2"
_cell_formula_units_Z 16
_cell_length_a 9.454532
_cell_length_b 8.386754
_cell_length_c 17.306807
_cell_angle_alpha 94.422575
_cell_angle_beta 97.586876
_cell_angle_gamma 31.284022
_cell_volume 704.670747
_symmetry_space_group_name_H-M "P -1"
_symmetry_group_IT_number 2
_symmetry_cell_setting 'triclinic'
loop_
_space_group_symop_operation_xyz
x,y,z
-x,-y,-z
loop_
_atom_site_type_symbol
_atom_site_label
_atom_site_fract_x
_atom_site_fract_y
_atom_site_fract_z
Si Si1 0.230015 0.201288 0.950485
Si Si2 0.712179 0.489422 0.423586
Si Si3 0.392523 0.222365 0.809923
Si Si4 0.080356 0.637479 0.399545
Si Si5 0.774131 0.174448 0.049321
Si Si6 0.921922 0.901614 0.810922
Si Si7 0.175489 0.865956 0.345470
Si Si8 0.543147 0.979375 0.355699
O O1 0.251734 0.251577 0.867966
O O2 0.222106 0.016981 0.937852
O O3 0.000000 0.500000 0.000000
O O4 0.500000 0.000000 0.000000
O O5 0.842910 0.363055 0.512608
O O6 0.913554 0.213283 0.368112
O O7 0.641462 0.734724 0.401750
O O8 0.431898 0.659005 0.410768
O O9 0.135342 0.573462 0.776362
O O10 0.485857 0.023804 0.737776
O O11 0.670673 0.058032 0.848062
O O12 0.247233 0.317078 0.378999
O O13 0.130405 0.719720 0.339688
O O14 0.757025 0.914604 0.386288
O O15 0.870046 0.181252 0.131305
O O16 0.500000 0.500000 0.000000
O O17 0.000000 0.000000 0.000000
O O18 0.766945 0.142590 0.739799
#
# Coordination Sequence:
#
# PCOD8036965 Si02
#       8
#     2   2   2   2   2   2   2   2
#     4  12  26  47  74 106 137 176 221 275 339 407
#     4  12  23  46  68  98 134 191 233 284 347 410
#     4  12  25  46  72  98 142 183 227 282 339 410
#     4  12  26  41  69 100 142 176 237 297 339 405
#     4  12  26  46  73 105 137 175 222 275 337 407
#     4  12  24  46  70  99 139 185 228 280 337 409
#     4  12  24  44  68 100 138 183 235 282 349 405
#     4  12  24  44  66 102 139 181 233 283 351 404
#
# _framework density 22.705639999999999
#
# number of rings (size 3 to 8) (size 9 to 14) (size 15 to 20)
#    0.000    0.000    2.500    9.000    1.750    0.000 
#    2.250    0.000    0.000    0.000    0.000    0.000 
#    0.000    0.000    0.000    0.000    0.000    0.000 
#
# Total GULP energy -198342.695096 kJ/mol
# GULP energy per Si atom -12396.418444 kJ/mol
# Density = 2.265396 g / cm^3
# Si number density = 22.705640 Si / 1000 Ang^3
#
#
#
# Elastic Constant Matrix: (Units=GPa)
#
#
# Indices 1 2 3 4 5 6 
#
# 1 137.6467 38.6440 25.6065 -13.3216 -6.9930 -0.2040
# 2 38.6440 108.5983 19.9857 2.0732 -0.6559 -8.7421
# 3 25.6065 19.9857 99.7566 -7.6155 -2.2107 7.1807
# 4 -13.3216 2.0732 -7.6155 35.5154 -6.8057 1.3865
# 5 -6.9930 -0.6559 -2.2107 -6.8057 36.6804 -2.2521
# 6 -0.2040 -8.7421 7.1807 1.3865 -2.2521 34.8186
#
#
#
# Elastic Compliance Matrix: (Units=1/GPa)
#
#
# Indices 1 2 3 4 5 6 
#
# 1 0.008809 -0.002985 -0.001306 0.003636 0.002195 -0.000431
# 2 -0.002985 0.010905 -0.001846 -0.002417 -0.000740 0.003150
# 3 -0.001306 -0.001846 0.011116 0.002232 0.000630 -0.002812
# 4 0.003636 -0.002417 0.002232 0.031460 0.006506 -0.001878
# 5 0.002195 -0.000740 0.000630 0.006506 0.028994 0.001313
# 6 -0.000431 0.003150 -0.002812 -0.001878 0.001313 0.030248
#
#
# Mechanical properties :
#
#
# Convention : Reuss Voigt Hill
#
# Bulk Modulus (GPa) = 53.89058 57.16379 55.52718
# Shear Modulus (GPa) = 35.71628 38.85393 37.28510
#
# Velocity S-wave (km/s) = 3.97043 4.14116 4.05669
# Velocity P-wave (km/s) = 6.69365 6.93515 6.81547
#
# Compressibility (1/GPa) = 0.01855612
#
# Stress axis : x y z
#
# Youngs Moduli (GPa) = 113.52376 91.69715 89.95864
#
# Poissons Ratio (x) = 0.27372 0.11747
# Poissons Ratio (y) = 0.33888 0.16609
# Poissons Ratio (z) = 0.14824 0.16930
#
# Static dielectric constant tensor:
#      x y z
#    x 4.221080 -0.108490 -0.046200 
#    y -0.108490 4.202120 0.020160 
#    z -0.046200 0.020160 3.569990 
# 
# 
# High freq. dielectric constant tensor:
#      x y z
#    x 1.909650 -0.008930 -0.002120 
#    y -0.008930 1.912880 -0.002700 
#    z -0.002120 -0.002700 1.899870 
# 
# From -- ./inp_files/329733.got.cif
#   From: 2010.06.25/outbox.cif.g09.slc.cpg/sg2_165_cif.got.tgz:329733.got - 2010.06.27 13:26:56.
