data_PCOD8036421
_publ_section_title
;
Structure prediction by ZEFSAII (Michael W. Deem and Ramdas Pophale) SiO2 
 PCOD8036421
Probable space group: P -1
;
_chemical_formula_sum "Si O2"
_cell_formula_units_Z 16
_cell_length_a 15.213747
_cell_length_b 8.903044
_cell_length_c 14.896283
_cell_angle_alpha 78.950337
_cell_angle_beta 27.013911
_cell_angle_gamma 95.621410
_cell_volume 717.693216
_symmetry_space_group_name_H-M "P -1"
_symmetry_group_IT_number 2
_symmetry_cell_setting 'triclinic'
loop_
_space_group_symop_operation_xyz
x,y,z
-x,-y,-z
loop_
_atom_site_type_symbol
_atom_site_label
_atom_site_fract_x
_atom_site_fract_y
_atom_site_fract_z
Si Si1 0.731807 0.210139 0.282369
Si Si2 0.737952 0.949727 0.726094
Si Si3 0.243045 0.680230 0.309028
Si Si4 0.233246 0.135227 0.485229
Si Si5 0.260566 0.636022 0.926416
Si Si6 0.895946 0.764048 0.938304
Si Si7 0.562433 0.405551 0.529426
Si Si8 0.868535 0.584459 0.401403
O O1 0.829915 0.333961 0.088140
O O2 0.680648 0.312288 0.391835
O O3 0.935898 0.196440 0.135247
O O4 0.500000 0.000000 0.500000
O O5 0.664950 0.872358 0.700804
O O6 0.778171 0.148470 0.681255
O O7 0.506603 0.772760 0.012745
O O8 0.000000 0.000000 0.500000
O O9 0.255489 0.606877 0.403987
O O10 0.000000 0.500000 0.500000
O O11 0.449862 0.215296 0.349755
O O12 0.132979 0.260715 0.557392
O O13 0.012434 0.925099 0.739199
O O14 0.193050 0.426064 0.013182
O O15 0.140855 0.662897 0.118001
O O16 0.681554 0.759032 0.178599
O O17 0.500000 0.500000 0.500000
O O18 0.737129 0.555068 0.429924
#
# Coordination Sequence:
#
# PCOD8036421 Si02
#       8
#     2   2   2   2   2   2   2   2
#     4  12  25  43  67  99 139 191 237 296 354 409
#     4  11  27  48  78 108 149 183 235 298 362 437
#     4  11  26  51  75 110 145 189 237 295 365 431
#     4  12  27  44  69 110 134 185 238 285 353 427
#     4  12  24  47  67 100 143 187 239 293 353 414
#     4  12  25  43  69  95 142 182 237 293 347 416
#     4  12  25  45  68 101 141 189 239 289 351 416
#     4  12  26  44  75 101 141 189 233 292 353 422
#
# _framework density 22.293648999999998
#
# number of rings (size 3 to 8) (size 9 to 14) (size 15 to 20)
#    0.000    0.250    5.000    3.375    3.500    4.500 
#    0.000    0.000    0.000    0.000    0.000    0.000 
#    0.000    0.000    0.000    0.000    0.000    0.000 
#
# Total GULP energy -198404.479435 kJ/mol
# GULP energy per Si atom -12400.279965 kJ/mol
# Density = 2.224291 g / cm^3
# Si number density = 22.293649 Si / 1000 Ang^3
#
#
#
# Elastic Constant Matrix: (Units=GPa)
#
#
# Indices 1 2 3 4 5 6 
#
# 1 80.1001 27.1821 28.3394 1.5438 6.2146 1.5710
# 2 27.1821 97.0622 57.9898 -3.3805 12.9678 6.4566
# 3 28.3394 57.9898 158.4035 11.9913 13.1961 -0.0829
# 4 1.5438 -3.3805 11.9913 37.3496 4.3394 -0.1248
# 5 6.2146 12.9678 13.1961 4.3394 44.8026 -1.9546
# 6 1.5710 6.4566 -0.0829 -0.1248 -1.9546 33.5559
#
#
#
# Elastic Compliance Matrix: (Units=1/GPa)
#
#
# Indices 1 2 3 4 5 6 
#
# 1 0.014049 -0.003073 -0.001307 -0.000365 -0.000644 -0.000109
# 2 -0.003073 0.014763 -0.004872 0.003350 -0.002861 -0.002863
# 3 -0.001307 -0.004872 0.008614 -0.003079 -0.000605 0.000973
# 4 -0.000365 0.003350 -0.003079 0.028403 -0.002793 -0.000692
# 5 -0.000644 -0.002861 -0.000605 -0.002793 0.023772 0.001953
# 6 -0.000109 -0.002863 0.000973 -0.000692 0.001953 0.030471
#
#
# Mechanical properties :
#
#
# Convention : Reuss Voigt Hill
#
# Bulk Modulus (GPa) = 52.84623 62.50982 57.67803
# Shear Modulus (GPa) = 34.51070 37.94527 36.22798
#
# Velocity S-wave (km/s) = 3.93874 4.13009 4.03555
# Velocity P-wave (km/s) = 6.66641 7.13047 6.90234
#
# Compressibility (1/GPa) = 0.01892282
#
# Stress axis : x y z
#
# Youngs Moduli (GPa) = 71.18073 67.73620 116.08545
#
# Poissons Ratio (x) = 0.20814 0.15176
# Poissons Ratio (y) = 0.21872 0.56553
# Poissons Ratio (z) = 0.09306 0.32999
#
# Static dielectric constant tensor:
#      x y z
#    x 4.094920 0.094160 -0.001600 
#    y 0.094160 4.005210 0.036510 
#    z -0.001600 0.036510 4.312150 
# 
# 
# High freq. dielectric constant tensor:
#      x y z
#    x 1.880550 0.001690 -0.001900 
#    y 0.001690 1.880750 0.008030 
#    z -0.001900 0.008030 1.900250 
# 
# From -- ./inp_files/315646.got.cif
#   From: 2010.06.25/outbox.cif.g09.slc.cpg/sg2_158_cif.got.tgz:315646.got - 2010.06.27 13:26:56.
