data_PCOD8036086
_publ_section_title
;
Structure prediction by ZEFSAII (Michael W. Deem and Ramdas Pophale) SiO2 
 PCOD8036086
Probable space group: P -1
;
_chemical_formula_sum "Si O2"
_cell_formula_units_Z 10
_cell_length_a 14.522443
_cell_length_b 17.769671
_cell_length_c 9.377577
_cell_angle_alpha 32.636705
_cell_angle_beta 136.010362
_cell_angle_gamma 158.082514
_cell_volume 463.655931
_symmetry_space_group_name_H-M "P -1"
_symmetry_group_IT_number 2
_symmetry_cell_setting 'triclinic'
loop_
_space_group_symop_operation_xyz
x,y,z
-x,-y,-z
loop_
_atom_site_type_symbol
_atom_site_label
_atom_site_fract_x
_atom_site_fract_y
_atom_site_fract_z
Si Si1 0.723601 0.282872 0.378406
Si Si2 0.630306 0.507726 0.822509
Si Si3 0.297632 0.727641 0.298815
Si Si4 0.292528 0.407383 0.747945
Si Si5 0.869289 0.864271 0.274769
O O1 0.683923 0.211460 0.613532
O O2 0.001284 0.482794 0.309074
O O3 0.500000 0.000000 0.500000
O O4 0.708771 0.434372 0.096888
O O5 0.548823 0.542542 0.801295
O O6 0.868097 0.785963 0.551243
O O7 0.389011 0.272962 0.816212
O O8 0.378093 0.640627 0.504142
O O9 0.500000 0.000000 0.000000
O O10 0.120504 0.240840 0.675426
O O11 0.118414 0.190052 0.030063
#
# Coordination Sequence:
#
# PCOD8036086 Si02
#       5
#     2   2   2   2   2
#     4  11  26  44  66  96 135 174 219 266 327 390
#     4   9  18  35  63  92 118 167 212 262 317 374
#     4  11  27  45  63  98 138 172 213 275 324 387
#     4   9  18  37  62  89 127 163 213 262 315 379
#     4   8  17  33  65  94 124 160 212 269 318 372
#
# _framework density 21.567716000000001
#
# number of rings (size 3 to 8) (size 9 to 14) (size 15 to 20)
#    1.200    1.200    0.000    1.200    2.800    6.400 
#    0.000    2.000    0.000    0.000    0.000    0.000 
#    0.000    0.000    0.000    0.000    0.000    0.000 
#
# Total GULP energy -123957.319847 kJ/mol
# GULP energy per Si atom -12395.731985 kJ/mol
# Density = 2.151863 g / cm^3
# Si number density = 21.567716 Si / 1000 Ang^3
#
#
#
# Elastic Constant Matrix: (Units=GPa)
#
#
# Indices 1 2 3 4 5 6 
#
# 1 97.6914 37.1544 62.3836 -16.7101 12.1111 22.6272
# 2 37.1544 83.1412 46.4641 -9.9876 -2.5727 3.0808
# 3 62.3836 46.4641 183.7661 -28.6383 -19.2843 17.7983
# 4 -16.7101 -9.9876 -28.6383 30.9474 6.5187 6.5349
# 5 12.1111 -2.5727 -19.2843 6.5187 40.0168 -4.4803
# 6 22.6272 3.0808 17.7983 6.5349 -4.4803 21.9326
#
#
#
# Elastic Compliance Matrix: (Units=1/GPa)
#
#
# Indices 1 2 3 4 5 6 
#
# 1 0.030953 -0.008509 -0.002886 0.023760 -0.019596 -0.039478
# 2 -0.008509 0.016440 -0.002650 -0.004992 0.004400 0.011006
# 3 -0.002886 -0.002650 0.008894 0.006150 0.003428 -0.005000
# 4 0.023760 -0.004992 0.006150 0.064690 -0.020948 -0.052356
# 5 -0.019596 0.004400 0.003428 -0.020948 0.039758 0.031180
# 6 -0.039478 0.011006 -0.005000 -0.052356 0.031180 0.110803
#
#
# Mechanical properties :
#
#
# Convention : Reuss Voigt Hill
#
# Bulk Modulus (GPa) = 35.46583 72.95587 54.21085
# Shear Modulus (GPa) = 16.17974 33.15248 24.66611
#
# Velocity S-wave (km/s) = 2.74192 3.92488 3.38547
# Velocity P-wave (km/s) = 5.14818 7.37831 6.36173
#
# Compressibility (1/GPa) = 0.02819616
#
# Stress axis : x y z
#
# Youngs Moduli (GPa) = 32.30705 60.82747 112.43367
#
# Poissons Ratio (x) = 0.51755 0.32453
# Poissons Ratio (y) = 0.27489 0.29800
# Poissons Ratio (z) = 0.09325 0.16122
#
# Static dielectric constant tensor:
#      x y z
#    x 3.810960 0.160300 -0.127630 
#    y 0.160300 3.584010 -0.016260 
#    z -0.127630 -0.016260 3.848740 
# 
# 
# High freq. dielectric constant tensor:
#      x y z
#    x 1.837080 0.004920 -0.013310 
#    y 0.004920 1.828340 -0.006320 
#    z -0.013310 -0.006320 1.854350 
# 
# From -- ./inp_files/304404.got.cif
#   From: 2010.06.25/outbox.cif.g09.slc.cpg/sg2_153_cif.got.tgz:304404.got - 2010.06.27 13:26:56.
