data_PCOD8036280
_publ_section_title
;
Structure prediction by ZEFSAII (Michael W. Deem and Ramdas Pophale) SiO2 
 PCOD8036280
Probable space group: P -1
;
_chemical_formula_sum "Si O2"
_cell_formula_units_Z 16
_cell_length_a 5.592896
_cell_length_b 17.188347
_cell_length_c 14.167468
_cell_angle_alpha 140.757716
_cell_angle_beta 55.384590
_cell_angle_gamma 125.470975
_cell_volume 682.815710
_symmetry_space_group_name_H-M "P -1"
_symmetry_group_IT_number 2
_symmetry_cell_setting 'triclinic'
loop_
_space_group_symop_operation_xyz
x,y,z
-x,-y,-z
loop_
_atom_site_type_symbol
_atom_site_label
_atom_site_fract_x
_atom_site_fract_y
_atom_site_fract_z
Si Si1 0.340495 0.740346 0.747730
Si Si2 0.345556 0.538079 0.424992
Si Si3 0.940658 0.627747 0.092869
Si Si4 0.721219 0.089252 0.409347
Si Si5 0.963206 0.880347 0.830134
Si Si6 0.854320 0.107059 0.597243
Si Si7 0.638022 0.357600 0.685306
Si Si8 0.162014 0.584312 0.807967
O O1 0.506362 0.650447 0.567699
O O2 0.606024 0.829280 0.836568
O O3 0.090241 0.659194 0.802158
O O4 0.142673 0.794844 0.767072
O O5 0.418088 0.588994 0.352310
O O6 0.488807 0.417759 0.285828
O O7 0.000000 0.500000 0.500000
O O8 0.580248 0.607509 0.153801
O O9 0.066160 0.752589 0.245423
O O10 0.000000 0.500000 0.000000
O O11 0.092589 0.658081 0.984647
O O12 0.942861 0.124341 0.482777
O O13 0.564802 0.205422 0.548314
O O14 0.884099 0.076663 0.264178
O O15 0.498986 0.951832 0.355794
O O16 0.000000 0.000000 0.000000
O O17 0.000000 0.000000 0.500000
O O18 0.972962 0.435129 0.715175
#
# Coordination Sequence:
#
# PCOD8036280 Si02
#       8
#     2   2   2   2   2   2   2   2
#     4  12  27  48  74 112 150 204 256 318 394 472
#     4  12  24  46  72 109 153 201 251 316 390 474
#     4  12  26  47  76 109 153 196 254 325 389 453
#     4  11  26  47  75 103 143 202 255 313 376 473
#     4  12  29  49  77 108 151 202 263 322 389 466
#     4  11  26  49  73 106 145 198 257 312 383 462
#     4  12  24  46  74 107 151 199 256 308 388 468
#     4  12  27  43  73 112 157 194 249 329 394 459
#
# _framework density 23.432386000000001
#
# number of rings (size 3 to 8) (size 9 to 14) (size 15 to 20)
#    0.000    0.250    5.000    3.375    5.250    1.000 
#    0.000    0.000    0.000    0.000    0.000    0.000 
#    0.000    0.000    0.000    0.000    0.000    0.000 
#
# Total GULP energy -198231.407376 kJ/mol
# GULP energy per Si atom -12389.462961 kJ/mol
# Density = 2.337905 g / cm^3
# Si number density = 23.432386 Si / 1000 Ang^3
#
#
#
# Elastic Constant Matrix: (Units=GPa)
#
#
# Indices 1 2 3 4 5 6 
#
# 1 99.4849 43.6594 43.5571 -8.6673 12.4269 -6.8921
# 2 43.6594 113.1707 60.4533 -10.6385 5.4952 -12.8095
# 3 43.5571 60.4533 177.0402 -17.9514 15.8460 -8.9611
# 4 -8.6673 -10.6385 -17.9514 49.1831 2.0734 9.5821
# 5 12.4269 5.4952 15.8460 2.0734 38.9054 -5.8993
# 6 -6.8921 -12.8095 -8.9611 9.5821 -5.8993 47.4960
#
#
#
# Elastic Compliance Matrix: (Units=1/GPa)
#
#
# Indices 1 2 3 4 5 6 
#
# 1 0.012888 -0.003962 -0.001445 0.001025 -0.003031 -0.000054
# 2 -0.003962 0.012288 -0.003179 0.000319 0.001144 0.002217
# 3 -0.001445 -0.003179 0.007475 0.001947 -0.002288 -0.000334
# 4 0.001025 0.000319 0.001947 0.022249 -0.002997 -0.004259
# 5 -0.003031 0.001144 -0.002288 -0.002997 0.028138 0.003537
# 6 -0.000054 0.002217 -0.000334 -0.004259 0.003537 0.022880
#
#
# Mechanical properties :
#
#
# Convention : Reuss Voigt Hill
#
# Bulk Modulus (GPa) = 64.60958 76.11503 70.36231
# Shear Modulus (GPa) = 38.98637 43.25197 41.11917
#
# Velocity S-wave (km/s) = 4.08337 4.30096 4.19358
# Velocity P-wave (km/s) = 7.06148 7.56424 7.31718
#
# Compressibility (1/GPa) = 0.01547758
#
# Stress axis : x y z
#
# Youngs Moduli (GPa) = 77.59386 81.37741 133.78096
#
# Poissons Ratio (x) = 0.32245 0.19334
# Poissons Ratio (y) = 0.30746 0.42529
# Poissons Ratio (z) = 0.11214 0.25870
#
# Static dielectric constant tensor:
#      x y z
#    x 4.483880 -0.137370 0.137300 
#    y -0.137370 5.318580 0.119620 
#    z 0.137300 0.119620 4.527970 
# 
# 
# High freq. dielectric constant tensor:
#      x y z
#    x 1.930850 -0.004890 0.014480 
#    y -0.004890 1.942480 -0.006090 
#    z 0.014480 -0.006090 1.931410 
# 
# From -- ./inp_files/485248.got.cif
#   From: 2010.06.25/outbox.cif.g09.slc.cpg/sg2_243_cif.got.tgz:485248.got - 2010.06.27 13:26:56.
