data_PCOD8036340
_publ_section_title
;
Structure prediction by ZEFSAII (Michael W. Deem and Ramdas Pophale) SiO2 
 PCOD8036340
Probable space group: P -1
;
_chemical_formula_sum "Si O2"
_cell_formula_units_Z 10
_cell_length_a 18.841649
_cell_length_b 9.328103
_cell_length_c 6.566430
_cell_angle_alpha 57.134573
_cell_angle_beta 50.664873
_cell_angle_gamma 26.365390
_cell_volume 395.341800
_symmetry_space_group_name_H-M "P -1"
_symmetry_group_IT_number 2
_symmetry_cell_setting 'triclinic'
loop_
_space_group_symop_operation_xyz
x,y,z
-x,-y,-z
loop_
_atom_site_type_symbol
_atom_site_label
_atom_site_fract_x
_atom_site_fract_y
_atom_site_fract_z
Si Si1 0.021418 0.683720 0.092229
Si Si2 0.653811 0.648355 0.392259
Si Si3 0.515416 0.180844 0.806851
Si Si4 0.746854 0.250173 0.847548
Si Si5 0.180443 0.104624 0.348810
O O1 0.037331 0.452348 0.229756
O O2 0.920747 0.878297 0.341060
O O3 0.218709 0.442747 0.914094
O O4 0.920279 0.929709 0.900745
O O5 0.558139 0.662048 0.406957
O O6 0.770519 0.380049 0.563430
O O7 0.500000 0.000000 0.500000
O O8 0.709150 0.948109 0.658276
O O9 0.410053 0.463428 0.938464
O O10 0.500000 0.000000 0.000000
O O11 0.705918 0.161993 0.830464
#
# Coordination Sequence:
#
# PCOD8036340 Si02
#       5
#     2   2   2   2   2
#     4  11  26  48  74 109 149 190 245 300 365 428
#     4  12  26  48  76 106 147 196 243 296 366 435
#     4  12  25  49  74 105 147 195 243 295 362 437
#     4  12  26  45  77 110 146 192 247 297 363 431
#     4  11  26  49  75 107 149 189 246 303 360 430
#
# _framework density 25.294564999999999
#
# number of rings (size 3 to 8) (size 9 to 14) (size 15 to 20)
#    0.000    0.400    4.000    3.000    0.000   14.400 
#    0.000    0.000    0.000    0.000    0.000    0.000 
#    0.000    0.000    0.000    0.000    0.000    0.000 
#
# Total GULP energy -123907.944815 kJ/mol
# GULP energy per Si atom -12390.794481 kJ/mol
# Density = 2.523699 g / cm^3
# Si number density = 25.294565 Si / 1000 Ang^3
#
#
#
# Elastic Constant Matrix: (Units=GPa)
#
#
# Indices 1 2 3 4 5 6 
#
# 1 110.3891 69.9686 58.1043 18.7602 21.9891 6.1309
# 2 69.9686 142.6898 80.6791 -3.9620 16.1464 -4.0896
# 3 58.1043 80.6791 134.2812 4.1349 21.7651 -10.1403
# 4 18.7602 -3.9620 4.1349 54.2494 -3.7981 12.0186
# 5 21.9891 16.1464 21.7651 -3.7981 39.5352 9.2388
# 6 6.1309 -4.0896 -10.1403 12.0186 9.2388 36.2433
#
#
#
# Elastic Compliance Matrix: (Units=1/GPa)
#
#
# Indices 1 2 3 4 5 6 
#
# 1 0.016542 -0.006384 -0.002223 -0.006302 -0.005843 -0.000561
# 2 -0.006384 0.013213 -0.005649 0.003900 0.001818 -0.000767
# 3 -0.002223 -0.005649 0.013122 -0.002216 -0.005170 0.005463
# 4 -0.006302 0.003900 -0.002216 0.023543 0.007455 -0.008821
# 5 -0.005843 0.001818 -0.005170 0.007455 0.034027 -0.011399
# 6 -0.000561 -0.000767 0.005463 -0.008821 -0.011399 0.034959
#
#
# Mechanical properties :
#
#
# Convention : Reuss Voigt Hill
#
# Bulk Modulus (GPa) = 69.61826 89.42933 79.52379
# Shear Modulus (GPa) = 29.63723 37.91281 33.77502
#
# Velocity S-wave (km/s) = 3.42670 3.87570 3.65810
# Velocity P-wave (km/s) = 6.57565 7.44715 7.02492
#
# Compressibility (1/GPa) = 0.01436405
#
# Stress axis : x y z
#
# Youngs Moduli (GPa) = 60.45345 75.68083 76.20883
#
# Poissons Ratio (x) = 0.48315 0.16943
# Poissons Ratio (y) = 0.38594 0.43051
# Poissons Ratio (z) = 0.13440 0.42753
#
# Static dielectric constant tensor:
#      x y z
#    x 4.413800 -0.045970 0.392550 
#    y -0.045970 4.779300 -0.179900 
#    z 0.392550 -0.179900 4.640770 
# 
# 
# High freq. dielectric constant tensor:
#      x y z
#    x 1.985450 -0.002510 0.019690 
#    y -0.002510 2.036350 -0.005670 
#    z 0.019690 -0.005670 2.012040 
# 
# From -- ./inp_files/16851.got.cif
#   From: 2010.06.25/outbox.cif.g09.slc.cpg/sg2_9_cif.got.tgz:16851.got - 2010.06.27 13:26:56.
