data_PCOD8036329
_publ_section_title
;
Structure prediction by ZEFSAII (Michael W. Deem and Ramdas Pophale) SiO2 
 PCOD8036329
Probable space group: P -1
;
_chemical_formula_sum "Si O2"
_cell_formula_units_Z 16
_cell_length_a 20.649502
_cell_length_b 8.255549
_cell_length_c 9.685171
_cell_angle_alpha 121.025532
_cell_angle_beta 57.120584
_cell_angle_gamma 150.009884
_cell_volume 689.050104
_symmetry_space_group_name_H-M "P -1"
_symmetry_group_IT_number 2
_symmetry_cell_setting 'triclinic'
loop_
_space_group_symop_operation_xyz
x,y,z
-x,-y,-z
loop_
_atom_site_type_symbol
_atom_site_label
_atom_site_fract_x
_atom_site_fract_y
_atom_site_fract_z
Si Si1 0.736094 0.707297 0.509625
Si Si2 0.097647 0.668583 0.837616
Si Si3 0.385966 0.356752 0.883855
Si Si4 0.119393 0.255668 0.080335
Si Si5 0.914201 0.390995 0.679169
Si Si6 0.371503 0.597305 0.780263
Si Si7 0.469602 0.725039 0.221258
Si Si8 0.047184 0.156568 0.662334
O O1 0.669304 0.613517 0.396868
O O2 0.635467 0.407987 0.602824
O O3 0.855779 0.807743 0.374030
O O4 0.788358 0.998197 0.657063
O O5 0.129428 0.512715 0.707068
O O6 0.019151 0.600398 0.772231
O O7 0.233978 0.047981 0.873756
O O8 0.000000 0.500000 0.000000
O O9 0.454897 0.624008 0.799638
O O10 0.443091 0.259080 0.791589
O O11 0.394136 0.478331 0.073191
O O12 0.148989 0.528237 0.215531
O O13 0.250848 0.435202 0.940241
O O14 0.076280 0.059465 0.184268
O O15 0.000000 0.000000 0.000000
O O16 0.000000 0.500000 0.500000
O O17 0.449598 0.934862 0.779754
O O18 0.000000 0.000000 0.500000
#
# Coordination Sequence:
#
# PCOD8036329 Si02
#       8
#     2   2   2   2   2   2   2   2
#     4  12  25  46  73 105 149 191 237 299 366 435
#     4  12  24  40  71 104 137 183 232 292 356 428
#     4  11  26  48  73 105 140 192 250 296 361 429
#     4  12  24  42  70 105 141 185 232 296 364 432
#     4  12  23  43  67 105 147 180 227 292 364 425
#     4  12  26  48  75 106 145 189 248 297 361 436
#     4  11  28  49  73 103 146 194 247 302 355 429
#     4  12  24  43  67 108 147 181 230 294 368 430
#
# _framework density 23.220374
#
# number of rings (size 3 to 8) (size 9 to 14) (size 15 to 20)
#    0.000    0.250    3.750    5.250    7.000    0.500 
#    0.000    0.000    0.000    0.000    0.000    0.000 
#    0.000    0.000    0.000    0.000    0.000    0.000 
#
# Total GULP energy -198341.264487 kJ/mol
# GULP energy per Si atom -12396.329030 kJ/mol
# Density = 2.316752 g / cm^3
# Si number density = 23.220374 Si / 1000 Ang^3
#
#
#
# Elastic Constant Matrix: (Units=GPa)
#
#
# Indices 1 2 3 4 5 6 
#
# 1 117.2865 42.7595 33.9275 7.3068 16.4164 -26.3059
# 2 42.7595 118.4897 46.5185 -4.2944 1.5614 -15.2100
# 3 33.9275 46.5185 115.7217 -8.0122 23.8569 4.6266
# 4 7.3068 -4.2944 -8.0122 43.7068 -9.5612 4.7542
# 5 16.4164 1.5614 23.8569 -9.5612 45.9635 9.3062
# 6 -26.3059 -15.2100 4.6266 4.7542 9.3062 35.7830
#
#
#
# Elastic Compliance Matrix: (Units=1/GPa)
#
#
# Indices 1 2 3 4 5 6 
#
# 1 0.014567 -0.002766 -0.002517 -0.006224 -0.007664 0.012679
# 2 -0.002766 0.011492 -0.004366 0.001067 0.002557 0.002609
# 3 -0.002517 -0.004366 0.012273 0.001849 -0.004029 -0.004491
# 4 -0.006224 0.001067 0.001849 0.027468 0.009039 -0.010362
# 5 -0.007664 0.002557 -0.004029 0.009039 0.031073 -0.013308
# 6 0.012679 0.002609 -0.004491 -0.010362 -0.013308 0.043794
#
#
# Mechanical properties :
#
#
# Convention : Reuss Voigt Hill
#
# Bulk Modulus (GPa) = 52.53906 66.43432 59.48669
# Shear Modulus (GPa) = 30.06461 40.31017 35.18739
#
# Velocity S-wave (km/s) = 3.60217 4.17103 3.89699
# Velocity P-wave (km/s) = 6.32268 7.20202 6.77663
#
# Compressibility (1/GPa) = 0.01903346
#
# Stress axis : x y z
#
# Youngs Moduli (GPa) = 68.65032 87.01938 81.48221
#
# Poissons Ratio (x) = 0.24067 0.20507
# Poissons Ratio (y) = 0.18987 0.35578
# Poissons Ratio (z) = 0.17277 0.37995
#
# Static dielectric constant tensor:
#      x y z
#    x 4.193300 -0.314120 0.283850 
#    y -0.314120 4.650790 0.128720 
#    z 0.283850 0.128720 4.195760 
# 
# 
# High freq. dielectric constant tensor:
#      x y z
#    x 1.920610 -0.018440 0.008160 
#    y -0.018440 1.917790 0.009000 
#    z 0.008160 0.009000 1.939270 
# 
# From -- ./inp_files/245433.got.cif
#   From: 2010.06.25/outbox.cif.g09.slc.cpg/sg2_123_cif.got.tgz:245433.got - 2010.06.27 13:26:56.
