data_PCOD8036123
_publ_section_title
;
Structure prediction by ZEFSAII (Michael W. Deem and Ramdas Pophale) SiO2 
 PCOD8036123
Probable space group: P -1
;
_chemical_formula_sum "Si O2"
_cell_formula_units_Z 16
_cell_length_a 5.100637
_cell_length_b 20.577648
_cell_length_c 8.211053
_cell_angle_alpha 66.968099
_cell_angle_beta 67.162427
_cell_angle_gamma 57.749620
_cell_volume 652.715391
_symmetry_space_group_name_H-M "P -1"
_symmetry_group_IT_number 2
_symmetry_cell_setting 'triclinic'
loop_
_space_group_symop_operation_xyz
x,y,z
-x,-y,-z
loop_
_atom_site_type_symbol
_atom_site_label
_atom_site_fract_x
_atom_site_fract_y
_atom_site_fract_z
Si Si1 0.663896 0.589889 0.665247
Si Si2 0.423789 0.912160 0.768590
Si Si3 0.699360 0.262195 0.561703
Si Si4 0.364419 0.244755 0.969837
Si Si5 0.258608 0.559060 0.374332
Si Si6 0.574454 0.830270 0.469604
Si Si7 0.687793 0.007065 0.794860
Si Si8 0.365821 0.664056 0.991422
O O1 0.356635 0.651222 0.574467
O O2 0.773669 0.496911 0.704165
O O3 0.938618 0.609718 0.504065
O O4 0.604692 0.605244 0.856764
O O5 0.535689 0.860661 0.631525
O O6 0.628623 0.960651 0.702113
O O7 0.055266 0.973248 0.786079
O O8 0.497205 0.850262 0.960223
O O9 0.446284 0.268084 0.753438
O O10 0.627923 0.218569 0.466706
O O11 0.047793 0.220468 0.597760
O O12 0.514895 0.271716 0.055378
O O13 0.986181 0.289942 0.041038
O O14 0.500000 0.500000 0.500000
O O15 0.379242 0.616208 0.200828
O O16 0.442011 0.901692 0.304584
O O17 0.500000 0.000000 0.000000
#
# Coordination Sequence:
#
# PCOD8036123 Si02
#       8
#     2   2   2   2   2   2   2   2
#     4  11  26  45  70 103 137 184 227 290 339 418
#     4  12  24  43  67  98 138 174 230 283 336 409
#     4  12  24  44  69  97 138 176 231 277 346 404
#     4  12  25  45  69 103 137 183 229 286 338 412
#     4  11  26  46  72 101 140 181 232 280 352 407
#     4  12  25  42  68 100 131 183 224 282 342 406
#     4  12  24  43  66  97 135 179 225 280 345 402
#     4  12  26  46  71 103 141 181 235 280 348 405
#
# _framework density 24.512982999999998
#
# number of rings (size 3 to 8) (size 9 to 14) (size 15 to 20)
#    0.000    0.250    1.250    8.250    5.250    0.500 
#    0.000    0.000    0.000    0.000    0.000    0.000 
#    0.000    0.000    0.000    0.000    0.000    0.000 
#
# Total GULP energy -198467.879861 kJ/mol
# GULP energy per Si atom -12404.242491 kJ/mol
# Density = 2.445719 g / cm^3
# Si number density = 24.512983 Si / 1000 Ang^3
#
#
#
# Elastic Constant Matrix: (Units=GPa)
#
#
# Indices 1 2 3 4 5 6 
#
# 1 92.4909 38.4876 11.1533 -10.5182 -0.0347 -13.0437
# 2 38.4876 83.7833 9.9544 -8.3314 -6.8758 -21.8046
# 3 11.1533 9.9544 71.8255 3.6282 3.5288 -25.2835
# 4 -10.5182 -8.3314 3.6282 47.9962 0.9965 5.0099
# 5 -0.0347 -6.8758 3.5288 0.9965 26.9945 -1.5689
# 6 -13.0437 -21.8046 -25.2835 5.0099 -1.5689 32.6886
#
#
#
# Elastic Compliance Matrix: (Units=1/GPa)
#
#
# Indices 1 2 3 4 5 6 
#
# 1 0.013730 -0.006051 -0.001316 0.002084 -0.001426 0.000037
# 2 -0.006051 0.017851 0.002221 0.000313 0.004900 0.011398
# 3 -0.001316 0.002221 0.019946 -0.003147 -0.000949 0.016821
# 4 0.002084 0.000313 -0.003147 0.022098 -0.000601 -0.004809
# 5 -0.001426 0.004900 -0.000949 -0.000601 0.038664 0.003912
# 6 0.000037 0.011398 0.016821 -0.004809 0.003912 0.052145
#
#
# Mechanical properties :
#
#
# Convention : Reuss Voigt Hill
#
# Bulk Modulus (GPa) = 24.25057 40.81003 32.53030
# Shear Modulus (GPa) = 26.52938 34.10284 30.31611
#
# Velocity S-wave (km/s) = 3.29334 3.73395 3.52054
# Velocity P-wave (km/s) = 4.93719 5.93922 5.46123
#
# Compressibility (1/GPa) = 0.04123614
#
# Stress axis : x y z
#
# Youngs Moduli (GPa) = 72.83207 56.01948 50.13586
#
# Poissons Ratio (x) = 0.33898 0.06596
# Poissons Ratio (y) = 0.44072 -0.11137
# Poissons Ratio (z) = 0.09582 -0.12444
#
# Static dielectric constant tensor:
#      x y z
#    x 4.228750 0.777230 -0.080800 
#    y 0.777230 4.086710 -0.056520 
#    z -0.080800 -0.056520 4.363400 
# 
# 
# High freq. dielectric constant tensor:
#      x y z
#    x 1.978860 0.000540 0.006180 
#    y 0.000540 1.990800 -0.002330 
#    z 0.006180 -0.002330 1.980860 
# 
# From -- ./inp_files/141232.got.cif
#   From: 2010.06.25/outbox.cif.g09.slc.cpg/sg2_71_cif.got.tgz:141232.got - 2010.06.27 13:26:56.
