data_PCOD8036675
_publ_section_title
;
Structure prediction by ZEFSAII (Michael W. Deem and Ramdas Pophale) SiO2 
 PCOD8036675
Probable space group: P -1
;
_chemical_formula_sum "Si O2"
_cell_formula_units_Z 16
_cell_length_a 14.909887
_cell_length_b 9.170030
_cell_length_c 11.395058
_cell_angle_alpha 67.193220
_cell_angle_beta 66.665066
_cell_angle_gamma 28.808099
_cell_volume 686.447328
_symmetry_space_group_name_H-M "P -1"
_symmetry_group_IT_number 2
_symmetry_cell_setting 'triclinic'
loop_
_space_group_symop_operation_xyz
x,y,z
-x,-y,-z
loop_
_atom_site_type_symbol
_atom_site_label
_atom_site_fract_x
_atom_site_fract_y
_atom_site_fract_z
Si Si1 0.996047 0.646471 0.180025
Si Si2 0.415601 0.272007 0.902575
Si Si3 0.060838 0.164847 0.096373
Si Si4 0.760795 0.974883 0.755689
Si Si5 0.584719 0.109506 0.282387
Si Si6 0.758488 0.404399 0.874689
Si Si7 0.617427 0.449701 0.539945
Si Si8 0.761830 0.543232 0.301992
O O1 0.081680 0.364548 0.270376
O O2 0.107282 0.627939 0.200440
O O3 0.768722 0.963747 0.208020
O O4 0.039068 0.604346 0.030606
O O5 0.267632 0.424275 0.834523
O O6 0.560518 0.168497 0.779653
O O7 0.317079 0.509740 0.980783
O O8 0.500000 0.000000 0.000000
O O9 0.246559 0.994284 0.104624
O O10 0.975915 0.292243 0.239709
O O11 0.098518 0.935482 0.110013
O O12 0.759878 0.142184 0.633493
O O13 0.416760 0.359085 0.197868
O O14 0.516042 0.260631 0.397776
O O15 0.644794 0.841177 0.335766
O O16 0.500000 0.500000 0.500000
O O17 0.741654 0.403227 0.417769
#
# Coordination Sequence:
#
# PCOD8036675 Si02
#       8
#     2   2   2   2   2   2   2   2
#     4  12  26  45  77 114 152 189 244 306 384 440
#     4  12  22  41  76 107 149 191 234 304 376 436
#     4  12  26  44  73 114 151 188 243 312 375 441
#     4  12  24  47  71 107 143 198 248 302 367 434
#     4  12  27  50  75 110 147 200 247 305 369 446
#     4  12  26  44  73 117 154 190 238 304 382 445
#     4  12  29  50  75 105 148 201 257 304 358 444
#     4  12  25  48  74 100 152 196 242 301 368 434
#
# _framework density 23.308416000000001
#
# number of rings (size 3 to 8) (size 9 to 14) (size 15 to 20)
#    0.000    0.000    7.500    1.875    3.500    1.500 
#    0.000    0.625    0.000    0.000    0.000    0.000 
#    0.000    0.000    0.000    0.000    0.000    0.000 
#
# Total GULP energy -198220.955216 kJ/mol
# GULP energy per Si atom -12388.809701 kJ/mol
# Density = 2.325537 g / cm^3
# Si number density = 23.308416 Si / 1000 Ang^3
#
#
#
# Elastic Constant Matrix: (Units=GPa)
#
#
# Indices 1 2 3 4 5 6 
#
# 1 86.9096 22.3436 27.6672 3.4176 8.9730 -7.8039
# 2 22.3436 102.0601 39.7145 -6.4668 0.3334 12.7431
# 3 27.6672 39.7145 101.5107 1.5251 -11.1755 5.7914
# 4 3.4176 -6.4668 1.5251 38.3446 5.1426 -2.1040
# 5 8.9730 0.3334 -11.1755 5.1426 48.3103 4.2245
# 6 -7.8039 12.7431 5.7914 -2.1040 4.2245 46.7282
#
#
#
# Elastic Compliance Matrix: (Units=1/GPa)
#
#
# Indices 1 2 3 4 5 6 
#
# 1 0.013923 -0.002162 -0.003545 -0.000778 -0.003627 0.003647
# 2 -0.002162 0.012446 -0.004212 0.002377 -0.000643 -0.003068
# 3 -0.003545 -0.004212 0.013012 -0.001529 0.003990 -0.001486
# 4 -0.000778 0.002377 -0.001529 0.027088 -0.003189 0.000919
# 5 -0.003627 -0.000643 0.003990 -0.003189 0.022915 -0.003140
# 6 0.003647 -0.003068 -0.001486 0.000919 -0.003140 0.023355
#
#
# Mechanical properties :
#
#
# Convention : Reuss Voigt Hill
#
# Bulk Modulus (GPa) = 51.16388 52.21454 51.68921
# Shear Modulus (GPa) = 35.94773 40.06031 38.00402
#
# Velocity S-wave (km/s) = 3.93143 4.15023 4.04231
# Velocity P-wave (km/s) = 6.52738 6.73914 6.63410
#
# Compressibility (1/GPa) = 0.01954504
#
# Stress axis : x y z
#
# Youngs Moduli (GPa) = 71.82398 80.34687 76.85149
#
# Poissons Ratio (x) = 0.17367 0.27242
# Poissons Ratio (y) = 0.15525 0.32368
# Poissons Ratio (z) = 0.25460 0.33840
#
# Static dielectric constant tensor:
#      x y z
#    x 5.033300 -0.157430 0.085160 
#    y -0.157430 4.302740 0.135810 
#    z 0.085160 0.135810 4.231220 
# 
# 
# High freq. dielectric constant tensor:
#      x y z
#    x 1.964180 -0.011560 0.002730 
#    y -0.011560 1.931690 -0.006020 
#    z 0.002730 -0.006020 1.897260 
# 
# From -- ./inp_files/399201.got.cif
#   From: 2010.06.25/outbox.cif.g09.slc.cpg/sg2_200_cif.got.tgz:399201.got - 2010.06.27 13:26:56.
