data_PCOD8036222
_publ_section_title
;
Structure prediction by ZEFSAII (Michael W. Deem and Ramdas Pophale) SiO2 
 PCOD8036222
Probable space group: P -1
;
_chemical_formula_sum "Si O2"
_cell_formula_units_Z 16
_cell_length_a 17.397843
_cell_length_b 5.376379
_cell_length_c 7.937702
_cell_angle_alpha 80.746709
_cell_angle_beta 81.445095
_cell_angle_gamma 52.924263
_cell_volume 583.397722
_symmetry_space_group_name_H-M "P -1"
_symmetry_group_IT_number 2
_symmetry_cell_setting 'triclinic'
loop_
_space_group_symop_operation_xyz
x,y,z
-x,-y,-z
loop_
_atom_site_type_symbol
_atom_site_label
_atom_site_fract_x
_atom_site_fract_y
_atom_site_fract_z
Si Si1 0.110143 0.727445 0.457123
Si Si2 0.901388 0.526431 0.850175
Si Si3 0.389435 0.030221 0.939472
Si Si4 0.295166 0.761926 0.861353
Si Si5 0.575887 0.811573 0.755770
Si Si6 0.255049 0.833213 0.303974
Si Si7 0.105676 0.367826 0.791067
Si Si8 0.604031 0.181342 0.485173
O O1 0.121959 0.640792 0.263101
O O2 0.184747 0.810502 0.455947
O O3 0.143082 0.447939 0.607119
O O4 0.000000 0.000000 0.500000
O O5 0.002490 0.452509 0.769604
O O6 0.816015 0.892853 0.831365
O O7 0.904832 0.435716 0.056659
O O8 0.328261 0.407417 0.883917
O O9 0.327221 0.890750 0.990528
O O10 0.476793 0.837634 0.792540
O O11 0.437636 0.955228 0.117102
O O12 0.347220 0.843937 0.700690
O O13 0.180221 0.995489 0.842545
O O14 0.675342 0.473410 0.802012
O O15 0.589395 0.909671 0.555382
O O16 0.323158 0.876903 0.385475
O O17 0.500000 0.500000 0.500000
#
# Coordination Sequence:
#
# PCOD8036222 Si02
#       8
#     2   2   2   2   2   2   2   2
#     4  12  27  48  76 110 153 204 260 331 396 473
#     4  11  26  51  72 112 153 201 260 327 396 475
#     4  11  28  47  75 111 154 203 259 322 390 465
#     4  12  27  48  75 113 154 204 260 325 389 471
#     4  11  26  46  76 104 150 203 254 320 389 470
#     4  12  26  47  78 106 152 205 255 321 405 470
#     4  11  26  47  77 110 155 204 264 326 393 478
#     4  12  27  47  75 109 153 200 263 326 395 474
#
# _framework density 27.425547000000002
#
# number of rings (size 3 to 8) (size 9 to 14) (size 15 to 20)
#    0.000    0.500    2.500    4.125   10.500    2.500 
#    0.000    0.000    0.000    0.000    0.000    0.000 
#    0.000    0.000    0.000    0.000    0.000    0.000 
#
# Total GULP energy -198274.595461 kJ/mol
# GULP energy per Si atom -12392.162216 kJ/mol
# Density = 2.736313 g / cm^3
# Si number density = 27.425547 Si / 1000 Ang^3
#
#
#
# Elastic Constant Matrix: (Units=GPa)
#
#
# Indices 1 2 3 4 5 6 
#
# 1 128.3041 42.9781 5.5940 -10.0813 -9.1601 -24.9884
# 2 42.9781 137.9509 -9.4356 -2.7390 -4.5751 -26.3666
# 3 5.5940 -9.4356 79.7365 -1.9255 -3.8965 2.7870
# 4 -10.0813 -2.7390 -1.9255 33.0411 -5.7325 0.8682
# 5 -9.1601 -4.5751 -3.8965 -5.7325 37.5433 -1.1803
# 6 -24.9884 -26.3666 2.7870 0.8682 -1.1803 48.7934
#
#
#
# Elastic Compliance Matrix: (Units=1/GPa)
#
#
# Indices 1 2 3 4 5 6 
#
# 1 0.009755 -0.002214 -0.000879 0.003094 0.002613 0.003858
# 2 -0.002214 0.008717 0.001105 0.000153 0.000771 0.003530
# 3 -0.000879 0.001105 0.012840 0.000823 0.001361 -0.000568
# 4 0.003094 0.000153 0.000823 0.032248 0.005820 0.001187
# 5 0.002613 0.000771 0.001361 0.005820 0.028468 0.002262
# 6 0.003858 0.003530 -0.000568 0.001187 0.002262 0.024444
#
#
# Mechanical properties :
#
#
# Convention : Reuss Voigt Hill
#
# Bulk Modulus (GPa) = 36.58067 47.14051 41.86059
# Shear Modulus (GPa) = 38.59209 44.33256 41.46233
#
# Velocity S-wave (km/s) = 3.75528 4.02490 3.89242
# Velocity P-wave (km/s) = 5.67186 6.23102 5.95800
#
# Compressibility (1/GPa) = 0.02733684
#
# Stress axis : x y z
#
# Youngs Moduli (GPa) = 102.51386 114.71216 77.88217
#
# Poissons Ratio (x) = 0.25395 0.06844
# Poissons Ratio (y) = 0.22694 -0.08605
# Poissons Ratio (z) = 0.09009 -0.12674
#
# Static dielectric constant tensor:
#      x y z
#    x 5.094940 -0.227010 -0.101950 
#    y -0.227010 4.929860 -0.029870 
#    z -0.101950 -0.029870 5.293060 
# 
# 
# High freq. dielectric constant tensor:
#      x y z
#    x 2.119300 -0.026590 -0.008420 
#    y -0.026590 2.095320 0.000270 
#    z -0.008420 0.000270 2.130140 
# 
# From -- ./inp_files/117115.got.cif
#   From: 2010.06.25/outbox.cif.g09.slc.cpg/sg2_59_cif.got.tgz:117115.got - 2010.06.27 13:26:56.
