data_PCOD8036667
_publ_section_title
;
Structure prediction by ZEFSAII (Michael W. Deem and Ramdas Pophale) SiO2 
 PCOD8036667
Probable space group: P -1
;
_chemical_formula_sum "Si O2"
_cell_formula_units_Z 16
_cell_length_a 11.191428
_cell_length_b 17.774085
_cell_length_c 21.064557
_cell_angle_alpha 19.583742
_cell_angle_beta 38.148206
_cell_angle_gamma 29.683001
_cell_volume 682.353761
_symmetry_space_group_name_H-M "P -1"
_symmetry_group_IT_number 2
_symmetry_cell_setting 'triclinic'
loop_
_space_group_symop_operation_xyz
x,y,z
-x,-y,-z
loop_
_atom_site_type_symbol
_atom_site_label
_atom_site_fract_x
_atom_site_fract_y
_atom_site_fract_z
Si Si1 0.784406 0.821134 0.666098
Si Si2 0.479496 0.097088 0.156559
Si Si3 0.463314 0.744825 0.780076
Si Si4 0.222487 0.253948 0.893829
Si Si5 0.387918 0.371755 0.610737
Si Si6 0.050068 0.888845 0.252084
Si Si7 0.976945 0.299222 0.711873
Si Si8 0.535627 0.389717 0.258750
O O1 0.648634 0.861387 0.756112
O O2 0.671891 0.771791 0.691188
O O3 0.075864 0.546444 0.764999
O O4 0.738223 0.115530 0.435250
O O5 0.419427 0.943049 0.252407
O O6 0.388820 0.404780 0.925910
O O7 0.775273 0.908199 0.186817
O O8 0.455694 0.690589 0.753319
O O9 0.500000 0.500000 0.000000
O O10 0.201178 0.036296 0.676361
O O11 0.220747 0.346309 0.748964
O O12 0.500000 0.000000 0.000000
O O13 0.074917 0.131568 0.066007
O O14 0.500000 0.500000 0.500000
O O15 0.251282 0.579322 0.443375
O O16 0.059675 0.881029 0.178020
O O17 0.741318 0.475296 0.714665
O O18 0.000000 0.500000 0.500000
#
# Coordination Sequence:
#
# PCOD8036667 Si02
#       8
#     2   2   2   2   2   2   2   2
#     4  12  25  45  70 108 148 189 237 298 368 432
#     4  12  25  45  70 108 148 189 237 298 368 432
#     4  12  22  41  70 107 151 187 225 299 367 430
#     4  12  27  47  74 101 136 194 250 294 354 430
#     4  12  27  47  74 101 136 194 250 294 354 430
#     4  12  22  46  69 102 151 178 238 298 352 434
#     4  12  22  41  70 107 151 187 225 299 367 430
#     4  12  24  40  67 106 153 188 230 288 370 434
#
# _framework density 23.448248
#
# number of rings (size 3 to 8) (size 9 to 14) (size 15 to 20)
#    0.000    0.000    7.500    2.250    1.750    0.000 
#    0.000    1.250    2.750    0.000    0.000    0.000 
#    0.000    0.000    0.000    0.000    0.000    0.000 
#
# Total GULP energy -198330.724328 kJ/mol
# GULP energy per Si atom -12395.670271 kJ/mol
# Density = 2.339488 g / cm^3
# Si number density = 23.448248 Si / 1000 Ang^3
#
#
#
# Elastic Constant Matrix: (Units=GPa)
#
#
# Indices 1 2 3 4 5 6 
#
# 1 72.5427 19.9040 28.9714 -12.1633 -11.8471 2.6830
# 2 19.9040 116.7235 48.5298 -14.0971 12.3975 5.1903
# 3 28.9714 48.5298 179.4700 -4.3213 -8.5845 7.3143
# 4 -12.1633 -14.0971 -4.3213 41.8216 5.0464 5.9839
# 5 -11.8471 12.3975 -8.5845 5.0464 24.9444 -5.8417
# 6 2.6830 5.1903 7.3143 5.9839 -5.8417 26.9685
#
#
#
# Elastic Compliance Matrix: (Units=1/GPa)
#
#
# Indices 1 2 3 4 5 6 
#
# 1 0.017013 -0.002876 -0.001515 0.002714 0.008562 0.000524
# 2 -0.002876 0.012248 -0.003047 0.004916 -0.010580 -0.004627
# 3 -0.001515 -0.003047 0.006777 -0.001152 0.003331 -0.000124
# 4 0.002714 0.004916 -0.001152 0.028728 -0.009551 -0.009347
# 5 0.008562 -0.010580 0.003331 -0.009551 0.055890 0.014507
# 6 0.000524 -0.004627 -0.000124 -0.009347 0.014507 0.043169
#
#
# Mechanical properties :
#
#
# Convention : Reuss Voigt Hill
#
# Bulk Modulus (GPa) = 47.25479 62.61630 54.93555
# Shear Modulus (GPa) = 26.91735 36.83564 31.87650
#
# Velocity S-wave (km/s) = 3.39181 3.96780 3.69106
# Velocity P-wave (km/s) = 5.96119 6.91037 6.45326
#
# Compressibility (1/GPa) = 0.02116188
#
# Stress axis : x y z
#
# Youngs Moduli (GPa) = 58.77804 81.64917 147.55746
#
# Poissons Ratio (x) = 0.23483 0.22357
# Poissons Ratio (y) = 0.16905 0.44955
# Poissons Ratio (z) = 0.08906 0.24875
#
# Static dielectric constant tensor:
#      x y z
#    x 4.560910 0.534970 0.091170 
#    y 0.534970 5.235280 0.266580 
#    z 0.091170 0.266580 5.051200 
# 
# 
# High freq. dielectric constant tensor:
#      x y z
#    x 1.899570 0.020090 -0.004160 
#    y 0.020090 1.934790 -0.003050 
#    z -0.004160 -0.003050 1.956360 
# 
# From -- ./inp_files/472488.got.cif
#   From: 2010.06.25/outbox.cif.g09.slc.cpg/sg2_237_cif.got.tgz:472488.got - 2010.06.27 13:26:56.
