data_PCOD8036702
_publ_section_title
;
Structure prediction by ZEFSAII (Michael W. Deem and Ramdas Pophale) SiO2 
 PCOD8036702
Probable space group: P -1
;
_chemical_formula_sum "Si O2"
_cell_formula_units_Z 16
_cell_length_a 9.509275
_cell_length_b 9.814257
_cell_length_c 14.597139
_cell_angle_alpha 69.273877
_cell_angle_beta 81.136321
_cell_angle_gamma 134.619887
_cell_volume 722.200479
_symmetry_space_group_name_H-M "P -1"
_symmetry_group_IT_number 2
_symmetry_cell_setting 'triclinic'
loop_
_space_group_symop_operation_xyz
x,y,z
-x,-y,-z
loop_
_atom_site_type_symbol
_atom_site_label
_atom_site_fract_x
_atom_site_fract_y
_atom_site_fract_z
Si Si1 0.581572 0.907934 0.997205
Si Si2 0.484774 0.715876 0.738655
Si Si3 0.101289 0.163748 0.361945
Si Si4 0.834469 0.255988 0.635661
Si Si5 0.397166 0.679473 0.258830
Si Si6 0.160867 0.487343 0.998555
Si Si7 0.154033 0.027685 0.754075
Si Si8 0.076884 0.285049 0.755078
O O1 0.561954 0.808203 0.119695
O O2 0.399237 0.691396 0.991183
O O3 0.500000 0.000000 0.000000
O O4 0.864608 0.143228 0.882783
O O5 0.667094 0.730751 0.728711
O O6 0.337875 0.575319 0.691058
O O7 0.635675 0.995365 0.658910
O O8 0.272098 0.531444 0.880377
O O9 0.165042 0.379092 0.338423
O O10 0.894811 0.007839 0.341096
O O11 0.000000 0.000000 0.500000
O O12 0.693760 0.232519 0.732717
O O13 0.000000 0.500000 0.500000
O O14 0.016446 0.296482 0.658151
O O15 0.553394 0.755007 0.312664
O O16 0.985337 0.218832 0.122134
O O17 0.000000 0.500000 0.000000
O O18 0.085674 0.119547 0.788290
#
# Coordination Sequence:
#
# PCOD8036702 Si02
#       8
#     2   2   2   2   2   2   2   2
#     4  12  22  43  68 104 146 183 229 294 363 434
#     4  12  25  48  72 105 146 188 243 297 364 433
#     4  12  27  47  72 103 143 192 246 297 354 423
#     4  12  27  48  72 102 144 191 247 302 354 424
#     4  12  26  44  73 107 140 188 236 298 364 423
#     4  12  25  43  74 110 149 188 234 298 371 440
#     4  12  26  46  75 107 145 189 238 297 366 433
#     4  12  26  44  75 106 144 190 238 296 365 434
#
# _framework density 22.154513000000001
#
# number of rings (size 3 to 8) (size 9 to 14) (size 15 to 20)
#    0.000    0.000    6.250    3.750    1.750    5.000 
#    0.000    0.000    0.000    0.000    0.000    0.000 
#    0.000    0.000    0.000    0.000    0.000    0.000 
#
# Total GULP energy -198441.658971 kJ/mol
# GULP energy per Si atom -12402.603686 kJ/mol
# Density = 2.210409 g / cm^3
# Si number density = 22.154513 Si / 1000 Ang^3
#
#
#
# Elastic Constant Matrix: (Units=GPa)
#
#
# Indices 1 2 3 4 5 6 
#
# 1 105.3833 46.1812 12.0632 6.8102 11.4728 -1.1226
# 2 46.1812 165.0673 24.6585 -8.1360 16.2079 9.8594
# 3 12.0632 24.6585 94.9146 4.4158 25.3227 4.3819
# 4 6.8102 -8.1360 4.4158 22.6593 -5.8418 9.0905
# 5 11.4728 16.2079 25.3227 -5.8418 32.7565 0.6389
# 6 -1.1226 9.8594 4.3819 9.0905 0.6389 51.2683
#
#
#
# Elastic Compliance Matrix: (Units=1/GPa)
#
#
# Indices 1 2 3 4 5 6 
#
# 1 0.011867 -0.003482 0.000769 -0.006939 -0.004308 0.002148
# 2 -0.003482 0.007689 -0.001554 0.004908 -0.000463 -0.002286
# 3 0.000769 -0.001554 0.014272 -0.006778 -0.011751 0.000444
# 4 -0.006939 0.004908 -0.006778 0.057757 0.015756 -0.010954
# 5 -0.004308 -0.000463 -0.011751 0.015756 0.044206 -0.002346
# 6 0.002148 -0.002286 0.000444 -0.010954 -0.002346 0.021926
#
#
# Mechanical properties :
#
#
# Convention : Reuss Voigt Hill
#
# Bulk Modulus (GPa) = 39.53599 59.01901 49.27750
# Shear Modulus (GPa) = 28.62344 40.16763 34.39554
#
# Velocity S-wave (km/s) = 3.59833 4.26263 3.94449
# Velocity P-wave (km/s) = 5.92860 7.13612 6.56020
#
# Compressibility (1/GPa) = 0.02529341
#
# Stress axis : x y z
#
# Youngs Moduli (GPa) = 84.26392 130.06341 70.06911
#
# Poissons Ratio (x) = 0.45294 -0.05391
# Poissons Ratio (y) = 0.29345 0.10889
# Poissons Ratio (z) = -0.06483 0.20212
#
# Static dielectric constant tensor:
#      x y z
#    x 4.203620 -0.055790 0.135150 
#    y -0.055790 4.422210 -0.160560 
#    z 0.135150 -0.160560 3.397990 
# 
# 
# High freq. dielectric constant tensor:
#      x y z
#    x 1.880250 0.000270 0.003780 
#    y 0.000270 1.896910 -0.000490 
#    z 0.003780 -0.000490 1.863460 
# 
# From -- ./inp_files/242185.got.cif
#   From: 2010.06.25/outbox.cif.g09.slc.cpg/sg2_122_cif.got.tgz:242185.got - 2010.06.27 13:26:56.
