data_PCOD8036110
_publ_section_title
;
Structure prediction by ZEFSAII (Michael W. Deem and Ramdas Pophale) SiO2 
 PCOD8036110
Probable space group: P -1
;
_chemical_formula_sum "Si O2"
_cell_formula_units_Z 14
_cell_length_a 11.986561
_cell_length_b 8.840872
_cell_length_c 8.705671
_cell_angle_alpha 65.493186
_cell_angle_beta 79.950031
_cell_angle_gamma 44.645695
_cell_volume 579.304923
_symmetry_space_group_name_H-M "P -1"
_symmetry_group_IT_number 2
_symmetry_cell_setting 'triclinic'
loop_
_space_group_symop_operation_xyz
x,y,z
-x,-y,-z
loop_
_atom_site_type_symbol
_atom_site_label
_atom_site_fract_x
_atom_site_fract_y
_atom_site_fract_z
Si Si1 0.613106 0.830800 0.902536
Si Si2 0.149327 0.948714 0.037755
Si Si3 0.898497 0.478792 0.429840
Si Si4 0.325226 0.001539 0.737869
Si Si5 0.642383 0.118196 0.566561
Si Si6 0.050696 0.620086 0.878780
Si Si7 0.294908 0.617893 0.392153
O O1 0.514217 0.812445 0.818089
O O2 0.675642 0.931374 0.755929
O O3 0.759903 0.560689 0.042743
O O4 0.500000 0.000000 0.000000
O O5 0.073849 0.125191 0.123716
O O6 0.294071 0.687982 0.187803
O O7 0.223728 0.976433 0.871316
O O8 0.000000 0.000000 0.000000
O O9 0.986528 0.332243 0.313913
O O10 0.857296 0.348863 0.577474
O O11 0.000000 0.500000 0.500000
O O12 0.737120 0.748809 0.310513
O O13 0.292229 0.996302 0.569848
O O14 0.451144 0.346367 0.505391
O O15 0.722648 0.208561 0.559527
O O16 0.000000 0.500000 0.000000
#
# Coordination Sequence:
#
# PCOD8036110 Si02
#       7
#     2   2   2   2   2   2   2
#     4  12  23  48  79 109 146 190 254 304 362 449
#     4  12  29  49  69 108 152 197 243 304 376 445
#     4  12  27  46  76 108 144 196 252 304 366 448
#     4  12  26  47  75 111 141 199 257 300 366 442
#     4  11  26  44  78 108 146 192 244 317 369 430
#     4  12  26  47  75 106 149 197 245 305 371 437
#     4  11  26  49  69 106 152 188 244 306 381 437
#
# _framework density 24.166893000000002
#
# number of rings (size 3 to 8) (size 9 to 14) (size 15 to 20)
#    0.000    0.286    4.286    3.000    8.000    2.286 
#    0.000    0.000    0.000    0.000    0.000    0.000 
#    0.000    0.000    0.000    0.000    0.000    0.000 
#
# Total GULP energy -173543.625380 kJ/mol
# GULP energy per Si atom -12395.973241 kJ/mol
# Density = 2.411189 g / cm^3
# Si number density = 24.166893 Si / 1000 Ang^3
#
#
#
# Elastic Constant Matrix: (Units=GPa)
#
#
# Indices 1 2 3 4 5 6 
#
# 1 151.8809 9.0354 42.0041 8.8957 -13.8703 14.7978
# 2 9.0354 40.2326 29.8826 22.6928 -20.7377 6.1702
# 3 42.0041 29.8826 146.0299 21.5273 -13.9373 5.6959
# 4 8.8957 22.6928 21.5273 43.3505 -7.2865 5.7847
# 5 -13.8703 -20.7377 -13.9373 -7.2865 46.6822 -2.9109
# 6 14.7978 6.1702 5.6959 5.7847 -2.9109 30.8982
#
#
#
# Elastic Compliance Matrix: (Units=1/GPa)
#
#
# Indices 1 2 3 4 5 6 
#
# 1 0.007623 0.001876 -0.002142 -0.000681 0.002147 -0.003301
# 2 0.001876 0.049826 -0.005947 -0.019987 0.017525 -0.004359
# 3 -0.002142 -0.005947 0.008727 -0.001009 -0.000785 0.000720
# 4 -0.000681 -0.019987 -0.001009 0.033752 -0.004253 -0.002216
# 5 0.002147 0.017525 -0.000785 -0.004253 0.028892 -0.000865
# 6 -0.003301 -0.004359 0.000720 -0.002216 -0.000865 0.035016
#
#
# Mechanical properties :
#
#
# Convention : Reuss Voigt Hill
#
# Bulk Modulus (GPa) = 18.60471 55.55418 37.07944
# Shear Modulus (GPa) = 25.74945 41.33428 33.54186
#
# Velocity S-wave (km/s) = 3.26772 4.14015 3.72953
# Velocity P-wave (km/s) = 4.68534 6.77437 5.82428
#
# Compressibility (1/GPa) = 0.05374983
#
# Stress axis : x y z
#
# Youngs Moduli (GPa) = 131.19040 20.06970 114.58968
#
# Poissons Ratio (x) = -0.03766 0.24550
# Poissons Ratio (y) = -0.24615 0.68143
# Poissons Ratio (z) = 0.28107 0.11935
#
# Static dielectric constant tensor:
#      x y z
#    x 4.742300 -0.316600 0.265620 
#    y -0.316600 4.626770 -0.204420 
#    z 0.265620 -0.204420 4.481460 
# 
# 
# High freq. dielectric constant tensor:
#      x y z
#    x 1.973500 -0.002350 0.014200 
#    y -0.002350 1.957210 -0.006010 
#    z 0.014200 -0.006010 1.975390 
# 
# From -- ./inp_files/156619.got.cif
#   From: 2010.06.25/outbox.cif.g09.slc.cpg/sg2_79_cif.got.tgz:156619.got - 2010.06.27 13:26:56.
