data_PCOD8036422
_publ_section_title
;
Structure prediction by ZEFSAII (Michael W. Deem and Ramdas Pophale) SiO2 
 PCOD8036422
Probable space group: P -1
;
_chemical_formula_sum "Si O2"
_cell_formula_units_Z 12
_cell_length_a 15.794193
_cell_length_b 15.364965
_cell_length_c 6.945247
_cell_angle_alpha 45.562045
_cell_angle_beta 51.938862
_cell_angle_gamma 26.837951
_cell_volume 543.133715
_symmetry_space_group_name_H-M "P -1"
_symmetry_group_IT_number 2
_symmetry_cell_setting 'triclinic'
loop_
_space_group_symop_operation_xyz
x,y,z
-x,-y,-z
loop_
_atom_site_type_symbol
_atom_site_label
_atom_site_fract_x
_atom_site_fract_y
_atom_site_fract_z
Si Si1 0.132154 0.481577 0.420845
Si Si2 0.205606 0.276774 0.994270
Si Si3 0.271712 0.958795 0.228878
Si Si4 0.424944 0.173912 0.196616
Si Si5 0.301159 0.746521 0.848989
Si Si6 0.954013 0.895329 0.033717
O O1 0.264103 0.398213 0.187202
O O2 0.000000 0.500000 0.500000
O O3 0.006632 0.710245 0.316809
O O4 0.257843 0.309196 0.683818
O O5 0.358040 0.167540 0.108798
O O6 0.197561 0.141858 0.169333
O O7 0.000000 0.500000 0.000000
O O8 0.346207 0.791586 0.535725
O O9 0.429102 0.857389 0.015742
O O10 0.108918 0.049515 0.186686
O O11 0.500000 0.000000 0.500000
O O12 0.216842 0.897969 0.914945
O O13 0.500000 0.500000 0.000000
O O14 0.143610 0.796430 0.932629
#
# Coordination Sequence:
#
# PCOD8036422 Si02
#       6
#     2   2   2   2   2   2
#     4  12  23  45  73 109 148 187 232 302 369 439
#     4  12  24  41  70 104 147 191 233 286 376 434
#     4  12  26  45  73 105 147 189 244 298 361 438
#     4  12  26  41  68 111 150 190 234 294 366 441
#     4  11  29  51  76 102 142 196 253 306 348 422
#     4  11  26  51  76 104 147 189 247 299 365 430
#
# _framework density 22.094006
#
# number of rings (size 3 to 8) (size 9 to 14) (size 15 to 20)
#    0.000    0.333    5.000    2.000    7.000    0.667 
#    3.000    0.000    0.000    0.000    0.000    0.000 
#    0.000    0.000    0.000    0.000    0.000    0.000 
#
# Total GULP energy -148815.436928 kJ/mol
# GULP energy per Si atom -12401.286411 kJ/mol
# Density = 2.204372 g / cm^3
# Si number density = 22.094006 Si / 1000 Ang^3
#
#
#
# Elastic Constant Matrix: (Units=GPa)
#
#
# Indices 1 2 3 4 5 6 
#
# 1 144.0002 64.7040 63.8096 -11.6808 14.2180 6.8164
# 2 64.7040 144.8307 61.5992 -2.2532 -5.9037 1.0417
# 3 63.8096 61.5992 178.2381 -15.2174 7.7093 -0.6680
# 4 -11.6808 -2.2532 -15.2174 43.6234 -3.5015 -4.3870
# 5 14.2180 -5.9037 7.7093 -3.5015 46.1555 -1.8867
# 6 6.8164 1.0417 -0.6680 -4.3870 -1.8867 36.1207
#
#
#
# Elastic Compliance Matrix: (Units=1/GPa)
#
#
# Indices 1 2 3 4 5 6 
#
# 1 0.010033 -0.003699 -0.002068 0.001334 -0.003192 -0.001830
# 2 -0.003699 0.009577 -0.002185 -0.001004 0.002670 0.000399
# 3 -0.002068 -0.002185 0.007301 0.001904 -0.000685 0.000784
# 4 0.001334 -0.001004 0.001904 0.024264 0.001099 0.002817
# 5 -0.003192 0.002670 -0.000685 0.001099 0.023265 0.001861
# 6 -0.001830 0.000399 0.000784 0.002817 0.001861 0.028473
#
#
# Mechanical properties :
#
#
# Convention : Reuss Voigt Hill
#
# Bulk Modulus (GPa) = 90.85785 94.14385 92.50085
# Shear Modulus (GPa) = 40.82095 43.64366 42.23230
#
# Velocity S-wave (km/s) = 4.30304 4.44933 4.37679
# Velocity P-wave (km/s) = 8.11793 8.31255 8.21581
#
# Compressibility (1/GPa) = 0.01100620
#
# Stress axis : x y z
#
# Youngs Moduli (GPa) = 99.67201 104.41907 136.96072
#
# Poissons Ratio (x) = 0.38622 0.28330
# Poissons Ratio (y) = 0.36866 0.29929
# Poissons Ratio (z) = 0.20617 0.22818
#
# Static dielectric constant tensor:
#      x y z
#    x 3.282360 -1.016870 -0.627330 
#    y -1.016870 3.339800 -1.034850 
#    z -0.627330 -1.034850 3.138110 
# 
# 
# High freq. dielectric constant tensor:
#      x y z
#    x 1.879860 0.002840 0.012370 
#    y 0.002840 1.883680 0.002880 
#    z 0.012370 0.002880 1.874580 
# 
# From -- ./inp_files/97477.got.cif
#   From: 2010.06.25/outbox.cif.g09.slc.cpg/sg2_49_cif.got.tgz:97477.got - 2010.06.27 13:26:56.
