data_PCOD8036817
_publ_section_title
;
Structure prediction by ZEFSAII (Michael W. Deem and Ramdas Pophale) SiO2 
 PCOD8036817
Probable space group: P -1
;
_chemical_formula_sum "Si O2"
_cell_formula_units_Z 14
_cell_length_a 24.558631
_cell_length_b 5.092661
_cell_length_c 11.501826
_cell_angle_alpha 103.128956
_cell_angle_beta 29.332490
_cell_angle_gamma 90.051980
_cell_volume 624.959553
_symmetry_space_group_name_H-M "P -1"
_symmetry_group_IT_number 2
_symmetry_cell_setting 'triclinic'
loop_
_space_group_symop_operation_xyz
x,y,z
-x,-y,-z
loop_
_atom_site_type_symbol
_atom_site_label
_atom_site_fract_x
_atom_site_fract_y
_atom_site_fract_z
Si Si1 0.947444 0.336462 0.667785
Si Si2 0.379677 0.632158 0.318112
Si Si3 0.890715 0.761036 0.443135
Si Si4 0.875270 0.196470 0.318155
Si Si5 0.567923 0.847693 0.637856
Si Si6 0.335752 0.377898 0.812956
Si Si7 0.657254 0.051363 0.048720
O O1 0.000000 0.500000 0.500000
O O2 0.979226 0.374085 0.747141
O O3 0.804477 0.476759 0.941847
O O4 0.000000 0.000000 0.500000
O O5 0.250286 0.764082 0.506386
O O6 0.377525 0.378464 0.381116
O O7 0.385334 0.895823 0.410651
O O8 0.500000 0.500000 0.000000
O O9 0.873901 0.518755 0.369077
O O10 0.877263 0.045851 0.422660
O O11 0.796371 0.863925 0.735770
O O12 0.000000 0.000000 0.000000
O O13 0.597355 0.698304 0.441959
O O14 0.420231 0.975706 0.922335
O O15 0.373160 0.606984 0.836535
O O16 0.372614 0.085137 0.792729
#
# Coordination Sequence:
#
# PCOD8036817 Si02
#       7
#     2   2   2   2   2   2   2
#     4  12  23  42  65 102 135 175 214 261 323 409
#     4  12  26  49  69  97 130 177 234 275 327 392
#     4  12  24  44  70  94 135 178 216 267 337 390
#     4  12  28  45  69  99 132 173 229 286 327 382
#     4  12  26  43  72  96 133 174 216 281 334 380
#     4  12  24  41  66 102 139 168 215 267 333 402
#     4  12  23  44  67 101 133 175 217 263 330 415
#
# _framework density 22.401450000000001
#
# number of rings (size 3 to 8) (size 9 to 14) (size 15 to 20)
#    0.000    0.000    2.857    7.714    4.000    0.000 
#    0.000    0.000    0.000    0.000    0.000    0.000 
#    0.000    0.000    0.000    0.000    0.000    0.000 
#
# Total GULP energy -173661.761535 kJ/mol
# GULP energy per Si atom -12404.411538 kJ/mol
# Density = 2.235046 g / cm^3
# Si number density = 22.401450 Si / 1000 Ang^3
#
#
#
# Elastic Constant Matrix: (Units=GPa)
#
#
# Indices 1 2 3 4 5 6 
#
# 1 141.5685 23.9727 19.7711 0.4212 -24.5031 -1.7068
# 2 23.9727 111.9812 14.5142 -5.0480 -2.0754 -3.1798
# 3 19.7711 14.5142 89.8183 -3.9552 -0.5346 -1.4029
# 4 0.4212 -5.0480 -3.9552 31.5091 0.4901 11.4343
# 5 -24.5031 -2.0754 -0.5346 0.4901 41.2495 2.0279
# 6 -1.7068 -3.1798 -1.4029 11.4343 2.0279 55.0365
#
#
#
# Elastic Compliance Matrix: (Units=1/GPa)
#
#
# Indices 1 2 3 4 5 6 
#
# 1 0.008396 -0.001527 -0.001600 -0.000666 0.004893 0.000090
# 2 -0.001527 0.009461 -0.001134 0.001324 -0.000472 0.000213
# 3 -0.001600 -0.001134 0.011722 0.001348 -0.000869 -0.000064
# 4 -0.000666 0.001324 0.001348 0.034712 -0.000375 -0.007108
# 5 0.004893 -0.000472 -0.000869 -0.000375 0.027159 -0.000821
# 6 0.000090 0.000213 -0.000064 -0.007108 -0.000821 0.019690
#
#
# Mechanical properties :
#
#
# Convention : Reuss Voigt Hill
#
# Bulk Modulus (GPa) = 47.48999 51.09824 49.29412
# Shear Modulus (GPa) = 39.46915 44.56634 42.01775
#
# Velocity S-wave (km/s) = 4.20206 4.46515 4.33560
# Velocity P-wave (km/s) = 6.69243 7.03159 6.86410
#
# Compressibility (1/GPa) = 0.02105707
#
# Stress axis : x y z
#
# Youngs Moduli (GPa) = 119.10828 105.69860 85.30780
#
# Poissons Ratio (x) = 0.16137 0.13651
# Poissons Ratio (y) = 0.18185 0.09673
# Poissons Ratio (z) = 0.19060 0.11986
#
# Static dielectric constant tensor:
#      x y z
#    x 3.225970 0.362000 1.142830 
#    y 0.362000 4.034150 -0.455270 
#    z 1.142830 -0.455270 2.213450 
# 
# 
# High freq. dielectric constant tensor:
#      x y z
#    x 1.904350 -0.000470 -0.014630 
#    y -0.000470 1.899510 -0.000850 
#    z -0.014630 -0.000850 1.886340 
# 
# From -- ./inp_files/340447.got.cif
#   From: 2010.06.25/outbox.cif.g09.slc.cpg/sg2_171_cif.got.tgz:340447.got - 2010.06.27 13:26:56.
