data_PCOD8036510
_publ_section_title
;
Structure prediction by ZEFSAII (Michael W. Deem and Ramdas Pophale) SiO2 
 PCOD8036510
Probable space group: P -1
;
_chemical_formula_sum "Si O2"
_cell_formula_units_Z 10
_cell_length_a 5.093326
_cell_length_b 15.396068
_cell_length_c 15.201502
_cell_angle_alpha 18.625813
_cell_angle_beta 91.452815
_cell_angle_gamma 91.696851
_cell_volume 380.546682
_symmetry_space_group_name_H-M "P -1"
_symmetry_group_IT_number 2
_symmetry_cell_setting 'triclinic'
loop_
_space_group_symop_operation_xyz
x,y,z
-x,-y,-z
loop_
_atom_site_type_symbol
_atom_site_label
_atom_site_fract_x
_atom_site_fract_y
_atom_site_fract_z
Si Si1 0.153165 0.043525 0.151998
Si Si2 0.663221 0.675391 0.534176
Si Si3 0.464900 0.272663 0.790402
Si Si4 0.027740 0.555567 0.092004
Si Si5 0.314016 0.744222 0.751276
O O1 0.389153 0.832577 0.374405
O O2 0.885135 0.871575 0.305550
O O3 0.192321 0.212528 0.898735
O O4 0.149166 0.265988 0.016014
O O5 0.660771 0.384376 0.761706
O O6 0.732744 0.592493 0.714122
O O7 0.500000 0.500000 0.500000
O O8 0.500000 0.000000 0.000000
O O9 0.858684 0.304804 0.290565
O O10 0.126510 0.760504 0.819537
O O11 0.500000 0.000000 0.500000
O O12 0.500000 0.500000 0.000000
#
# Coordination Sequence:
#
# PCOD8036510 Si02
#       5
#     2   2   2   2   2
#     4  12  29  53  88 124 169 224 286 348 421 506
#     4  12  29  53  88 124 169 224 286 348 421 506
#     4  12  28  56  84 127 172 223 282 352 422 502
#     4  11  30  50  84 124 168 220 286 344 420 505
#     4  11  30  53  83 120 172 218 280 348 422 502
#
# _framework density 26.277985000000001
#
# number of rings (size 3 to 8) (size 9 to 14) (size 15 to 20)
#    0.000    0.400    2.000    2.400   14.000    3.200 
#    0.000    3.000    0.000    0.000    0.000    0.000 
#    0.000    0.000    0.000    0.000    0.000    0.000 
#
# Total GULP energy -123907.575573 kJ/mol
# GULP energy per Si atom -12390.757557 kJ/mol
# Density = 2.621818 g / cm^3
# Si number density = 26.277985 Si / 1000 Ang^3
#
#
#
# Elastic Constant Matrix: (Units=GPa)
#
#
# Indices 1 2 3 4 5 6 
#
# 1 84.1489 21.0542 27.0756 -18.8549 -8.9133 -14.5284
# 2 21.0542 160.1081 54.5513 -10.9303 -16.8303 -25.7285
# 3 27.0756 54.5513 149.0868 -33.1964 -26.8194 -8.4214
# 4 -18.8549 -10.9303 -33.1964 20.7943 6.4514 2.0964
# 5 -8.9133 -16.8303 -26.8194 6.4514 65.3893 0.8538
# 6 -14.5284 -25.7285 -8.4214 2.0964 0.8538 46.3172
#
#
#
# Elastic Compliance Matrix: (Units=1/GPa)
#
#
# Indices 1 2 3 4 5 6 
#
# 1 0.015894 -0.000687 0.001138 0.015172 0.000906 0.004108
# 2 -0.000687 0.007847 -0.002698 -0.001463 0.000915 0.003702
# 3 0.001138 -0.002698 0.011940 0.017852 0.002594 0.000173
# 4 0.015172 -0.001463 0.017852 0.089206 0.000171 0.003151
# 5 0.000906 0.000915 0.002594 0.000171 0.016687 0.000949
# 6 0.004108 0.003702 0.000173 0.003151 0.000949 0.024806
#
#
# Mechanical properties :
#
#
# Convention : Reuss Voigt Hill
#
# Bulk Modulus (GPa) = 32.06547 66.52290 49.29418
# Shear Modulus (GPa) = 27.58325 45.87769 36.73047
#
# Velocity S-wave (km/s) = 3.24338 4.18288 3.74273
# Velocity P-wave (km/s) = 5.12395 6.97845 6.12183
#
# Compressibility (1/GPa) = 0.03118620
#
# Stress axis : x y z
#
# Youngs Moduli (GPa) = 62.91654 127.44195 83.75508
#
# Poissons Ratio (x) = 0.08752 -0.09532
# Poissons Ratio (y) = 0.04321 0.22601
# Poissons Ratio (z) = -0.07161 0.34390
#
# Static dielectric constant tensor:
#      x y z
#    x 5.013030 0.074190 -0.245260 
#    y 0.074190 7.244610 0.892190 
#    z -0.245260 0.892190 5.269470 
# 
# 
# High freq. dielectric constant tensor:
#      x y z
#    x 2.050460 -0.003700 -0.020900 
#    y -0.003700 2.076250 -0.004150 
#    z -0.020900 -0.004150 2.075520 
# 
# From -- ./inp_files/483174.got.cif
#   From: 2010.06.25/outbox.cif.g09.slc.cpg/sg2_242_cif.got.tgz:483174.got - 2010.06.27 13:26:56.
