data_PCOD8036747
_publ_section_title
;
Structure prediction by ZEFSAII (Michael W. Deem and Ramdas Pophale) SiO2 
 PCOD8036747
Probable space group: P -1
;
_chemical_formula_sum "Si O2"
_cell_formula_units_Z 16
_cell_length_a 14.307978
_cell_length_b 9.440193
_cell_length_c 11.798938
_cell_angle_alpha 65.182167
_cell_angle_beta 55.652989
_cell_angle_gamma 111.540276
_cell_volume 706.988338
_symmetry_space_group_name_H-M "P -1"
_symmetry_group_IT_number 2
_symmetry_cell_setting 'triclinic'
loop_
_space_group_symop_operation_xyz
x,y,z
-x,-y,-z
loop_
_atom_site_type_symbol
_atom_site_label
_atom_site_fract_x
_atom_site_fract_y
_atom_site_fract_z
Si Si1 0.551715 0.312401 0.184716
Si Si2 0.810760 0.398527 0.852247
Si Si3 0.917714 0.032620 0.130887
Si Si4 0.628232 0.889042 0.235708
Si Si5 0.212447 0.745468 0.540670
Si Si6 0.702723 0.391668 0.283581
Si Si7 0.679416 0.301309 0.742672
Si Si8 0.568507 0.509845 0.683517
O O1 0.590298 0.243207 0.292026
O O2 0.536842 0.477520 0.171789
O O3 0.361329 0.052535 0.334249
O O4 0.726441 0.471207 0.926911
O O5 0.839826 0.442038 0.681592
O O6 0.006164 0.589629 0.719076
O O7 0.656099 0.090218 0.092392
O O8 0.820148 0.062265 0.114674
O O9 0.764078 0.794170 0.402782
O O10 0.101699 0.299291 0.983443
O O11 0.000000 0.000000 0.000000
O O12 0.440866 0.673326 0.514955
O O13 0.588363 0.713187 0.227750
O O14 0.231774 0.692611 0.669921
O O15 0.244977 0.654172 0.449628
O O16 0.624302 0.421607 0.748445
O O17 0.500000 0.000000 0.000000
#
# Coordination Sequence:
#
# PCOD8036747 Si02
#       8
#     2   2   2   2   2   2   2   2
#     4  12  27  43  68 107 153 175 222 291 365 416
#     4  12  27  46  75 103 134 192 241 284 339 410
#     4  12  23  39  67 106 144 181 233 290 345 409
#     4  12  22  45  70 100 142 188 235 282 339 417
#     4  12  25  48  72 105 138 188 240 282 338 419
#     4  12  23  42  70 105 144 185 225 279 352 424
#     4  12  23  52  78  95 132 190 247 286 332 410
#     4  12  25  43  71 105 142 183 228 292 355 406
#
# _framework density 22.631207
#
# number of rings (size 3 to 8) (size 9 to 14) (size 15 to 20)
#    0.000    0.000    8.750    1.875    1.750    1.000 
#    0.000    0.625    0.000    0.000    0.000    0.000 
#    0.000    0.000    0.000    0.000    0.000    0.000 
#
# Total GULP energy -198397.656867 kJ/mol
# GULP energy per Si atom -12399.853554 kJ/mol
# Density = 2.257970 g / cm^3
# Si number density = 22.631207 Si / 1000 Ang^3
#
#
#
# Elastic Constant Matrix: (Units=GPa)
#
#
# Indices 1 2 3 4 5 6 
#
# 1 109.6792 42.9046 38.5463 -8.9349 -4.2294 2.9193
# 2 42.9046 116.6544 34.7661 5.8269 -16.2959 2.5828
# 3 38.5463 34.7661 82.2822 -2.7590 -20.2613 -0.7315
# 4 -8.9349 5.8269 -2.7590 20.9130 5.9986 -7.8180
# 5 -4.2294 -16.2959 -20.2613 5.9986 40.8534 2.3152
# 6 2.9193 2.5828 -0.7315 -7.8180 2.3152 36.8169
#
#
#
# Elastic Compliance Matrix: (Units=1/GPa)
#
#
# Indices 1 2 3 4 5 6 
#
# 1 0.012974 -0.004241 -0.005008 0.007601 -0.004007 0.001035
# 2 -0.004241 0.011841 -0.002197 -0.007584 0.004445 -0.002428
# 3 -0.005008 -0.002197 0.017186 -0.001298 0.007310 0.000157
# 4 0.007601 -0.007584 -0.001298 0.061834 -0.012746 0.013836
# 5 -0.004007 0.004445 0.007310 -0.012746 0.031591 -0.004542
# 6 0.001035 -0.002428 0.000157 0.013836 -0.004542 0.030476
#
#
# Mechanical properties :
#
#
# Convention : Reuss Voigt Hill
#
# Bulk Modulus (GPa) = 52.33872 60.11664 56.22768
# Shear Modulus (GPa) = 25.61936 32.54322 29.08129
#
# Velocity S-wave (km/s) = 3.36823 3.79618 3.58859
# Velocity P-wave (km/s) = 6.18899 6.77023 6.48612
#
# Compressibility (1/GPa) = 0.01910632
#
# Stress axis : x y z
#
# Youngs Moduli (GPa) = 77.07738 84.45431 58.18729
#
# Poissons Ratio (x) = 0.35821 0.29143
# Poissons Ratio (y) = 0.32692 0.12785
# Poissons Ratio (z) = 0.38604 0.18557
#
# Static dielectric constant tensor:
#      x y z
#    x 4.364180 0.261750 0.003090 
#    y 0.261750 4.319820 0.501950 
#    z 0.003090 0.501950 5.880270 
# 
# 
# High freq. dielectric constant tensor:
#      x y z
#    x 1.900500 0.008660 -0.017100 
#    y 0.008660 1.892130 0.000470 
#    z -0.017100 0.000470 1.880120 
# 
# From -- ./inp_files/273815.got.cif
#   From: 2010.06.25/outbox.cif.g09.slc.cpg/sg2_137_cif.got.tgz:273815.got - 2010.06.27 13:26:56.
