data_PCOD8036496
_publ_section_title
;
Structure prediction by ZEFSAII (Michael W. Deem and Ramdas Pophale) SiO2 
 PCOD8036496
Probable space group: P -1
;
_chemical_formula_sum "Si O2"
_cell_formula_units_Z 16
_cell_length_a 6.178700
_cell_length_b 8.645491
_cell_length_c 17.732006
_cell_angle_alpha 66.121707
_cell_angle_beta 50.811123
_cell_angle_gamma 79.145333
_cell_volume 668.262633
_symmetry_space_group_name_H-M "P -1"
_symmetry_group_IT_number 2
_symmetry_cell_setting 'triclinic'
loop_
_space_group_symop_operation_xyz
x,y,z
-x,-y,-z
loop_
_atom_site_type_symbol
_atom_site_label
_atom_site_fract_x
_atom_site_fract_y
_atom_site_fract_z
Si Si1 0.693402 0.063983 0.591958
Si Si2 0.777983 0.437769 0.319946
Si Si3 0.713667 0.580003 0.146387
Si Si4 0.833158 0.771970 0.322338
Si Si5 0.674130 0.344222 0.006539
Si Si6 0.665876 0.740586 0.769053
Si Si7 0.725206 0.844159 0.497396
Si Si8 0.646134 0.163548 0.897117
O O1 0.673974 0.894641 0.679457
O O2 0.607217 0.012628 0.531635
O O3 0.472160 0.186207 0.647760
O O4 0.002807 0.165811 0.504243
O O5 0.738119 0.558825 0.234551
O O6 0.847596 0.567506 0.349871
O O7 0.489268 0.322471 0.419540
O O8 0.023014 0.315683 0.276840
O O9 0.540245 0.415874 0.183693
O O10 0.561504 0.748681 0.130203
O O11 0.020531 0.602156 0.035026
O O12 0.871124 0.849161 0.382774
O O13 0.079172 0.877792 0.201070
O O14 0.478891 0.211810 0.128670
O O15 0.500000 0.500000 0.000000
O O16 0.747685 0.281924 0.920326
O O17 0.500000 0.000000 0.000000
#
# Coordination Sequence:
#
# PCOD8036496 Si02
#       8
#     2   2   2   2   2   2   2   2
#     4  11  29  47  75 111 145 194 248 299 376 433
#     4  12  26  48  77 108 149 190 251 302 362 439
#     4  12  23  47  74 102 152 187 249 292 362 430
#     4  12  27  50  72 109 148 195 245 305 363 439
#     4  12  24  45  72 108 140 192 247 293 355 439
#     4  12  26  45  77 109 145 197 244 303 362 435
#     4  11  28  49  75 108 150 190 247 307 368 437
#     4  12  30  46  70 110 151 187 241 305 364 430
#
# _framework density 23.942679999999999
#
# number of rings (size 3 to 8) (size 9 to 14) (size 15 to 20)
#    0.000    0.250    6.250    1.125   10.500    1.000 
#    0.000    0.000    0.000    0.000    0.000    0.000 
#    0.000    0.000    0.000    0.000    0.000    0.000 
#
# Total GULP energy -198331.159506 kJ/mol
# GULP energy per Si atom -12395.697469 kJ/mol
# Density = 2.388819 g / cm^3
# Si number density = 23.942680 Si / 1000 Ang^3
#
#
#
# Elastic Constant Matrix: (Units=GPa)
#
#
# Indices 1 2 3 4 5 6 
#
# 1 60.1176 24.6022 47.0914 5.4946 -8.1104 13.0587
# 2 24.6022 67.6272 47.6967 3.9341 -4.4191 2.2861
# 3 47.0914 47.6967 183.1826 11.6065 -13.6686 6.9526
# 4 5.4946 3.9341 11.6065 46.5781 4.8419 -1.2694
# 5 -8.1104 -4.4191 -13.6686 4.8419 53.8859 0.7308
# 6 13.0587 2.2861 6.9526 -1.2694 0.7308 33.1873
#
#
#
# Elastic Compliance Matrix: (Units=1/GPa)
#
#
# Indices 1 2 3 4 5 6 
#
# 1 0.024531 -0.005341 -0.004292 -0.001860 0.002448 -0.008510
# 2 -0.005341 0.019291 -0.003722 -0.000010 -0.000186 0.001556
# 3 -0.004292 -0.003722 0.007680 -0.001200 0.001101 0.000266
# 4 -0.001860 -0.000010 -0.001200 0.022312 -0.002616 0.001895
# 5 0.002448 -0.000186 0.001101 -0.002616 0.019448 -0.001709
# 6 -0.008510 0.001556 0.000266 0.001895 -0.001709 0.033428
#
#
# Mechanical properties :
#
#
# Convention : Reuss Voigt Hill
#
# Bulk Modulus (GPa) = 40.33773 61.07866 50.70819
# Shear Modulus (GPa) = 30.92834 39.49941 35.21387
#
# Velocity S-wave (km/s) = 3.59801 4.06612 3.83921
# Velocity P-wave (km/s) = 5.84338 6.90001 6.39356
#
# Compressibility (1/GPa) = 0.02479069
#
# Stress axis : x y z
#
# Youngs Moduli (GPa) = 40.76526 51.83751 130.21403
#
# Poissons Ratio (x) = 0.27687 0.55888
# Poissons Ratio (y) = 0.21773 0.48469
# Poissons Ratio (z) = 0.17496 0.19295
#
# Static dielectric constant tensor:
#      x y z
#    x 4.668240 0.161030 0.057880 
#    y 0.161030 4.196640 0.268290 
#    z 0.057880 0.268290 4.892340 
# 
# 
# High freq. dielectric constant tensor:
#      x y z
#    x 1.964150 0.009510 -0.009980 
#    y 0.009510 1.936150 0.010360 
#    z -0.009980 0.010360 1.976960 
# 
# From -- ./inp_files/548014.got.cif
#   From: 2010.06.25/outbox.cif.g09.slc.cpg/sg2_275_cif.got.tgz:548014.got - 2010.06.27 13:26:56.
