data_PCOD8036417
_publ_section_title
;
Structure prediction by ZEFSAII (Michael W. Deem and Ramdas Pophale) SiO2 
 PCOD8036417
Probable space group: P -1
;
_chemical_formula_sum "Si O2"
_cell_formula_units_Z 10
_cell_length_a 11.043312
_cell_length_b 4.747365
_cell_length_c 8.872243
_cell_angle_alpha 98.303839
_cell_angle_beta 41.847323
_cell_angle_gamma 97.901368
_cell_volume 306.750292
_symmetry_space_group_name_H-M "P -1"
_symmetry_group_IT_number 2
_symmetry_cell_setting 'triclinic'
loop_
_space_group_symop_operation_xyz
x,y,z
-x,-y,-z
loop_
_atom_site_type_symbol
_atom_site_label
_atom_site_fract_x
_atom_site_fract_y
_atom_site_fract_z
Si Si1 0.839140 0.636852 0.031280
Si Si2 0.322185 0.332042 0.212669
Si Si3 0.851921 0.933969 0.336109
Si Si4 0.445064 0.618877 0.399971
Si Si5 0.129471 0.789167 0.272279
O O1 0.640453 0.706701 0.151063
O O2 0.839844 0.644088 0.217127
O O3 0.875272 0.323156 0.908030
O O4 0.977230 0.872925 0.858900
O O5 0.340752 0.352356 0.383652
O O6 0.150073 0.519092 0.341337
O O7 0.500000 0.500000 0.000000
O O8 0.697476 0.988023 0.856962
O O9 0.671423 0.102570 0.481834
O O10 0.915209 0.907577 0.463983
O O11 0.500000 0.500000 0.500000
#
# Coordination Sequence:
#
# PCOD8036417 Si02
#       5
#     2   2   2   2   2
#     4  11  26  50  80 115 165 213 263 331 404 477
#     4  12  27  50  85 115 165 212 267 334 406 479
#     4  11  27  49  81 119 162 213 267 336 398 482
#     4  12  30  49  81 122 159 214 273 333 400 487
#     4  12  25  50  82 116 157 219 264 326 410 476
#
# _framework density 32.599806000000001
#
# number of rings (size 3 to 8) (size 9 to 14) (size 15 to 20)
#    0.000    0.400    4.000    1.800    8.400    4.800 
#    0.000    0.000    0.000    0.000    0.000    0.000 
#    0.000    0.000    0.000    0.000    0.000    0.000 
#
# Total GULP energy -123980.700600 kJ/mol
# GULP energy per Si atom -12398.070060 kJ/mol
# Density = 3.252561 g / cm^3
# Si number density = 32.599806 Si / 1000 Ang^3
#
#
#
# Elastic Constant Matrix: (Units=GPa)
#
#
# Indices 1 2 3 4 5 6 
#
# 1 262.9098 74.3795 40.1402 -24.7343 5.7257 2.7203
# 2 74.3795 169.6936 -0.9305 3.8769 14.3413 1.7272
# 3 40.1402 -0.9305 58.6585 -9.0057 -24.5561 5.6643
# 4 -24.7343 3.8769 -9.0057 16.0626 4.8173 -7.8791
# 5 5.7257 14.3413 -24.5561 4.8173 54.9905 4.4908
# 6 2.7203 1.7272 5.6643 -7.8791 4.4908 96.3794
#
#
#
# Elastic Compliance Matrix: (Units=1/GPa)
#
#
# Indices 1 2 3 4 5 6 
#
# 1 0.006061 -0.002676 -0.003982 0.008993 -0.002578 0.000966
# 2 -0.002676 0.007260 0.000865 -0.005427 -0.000711 -0.000516
# 3 -0.003982 0.000865 0.025213 0.003627 0.011262 -0.001613
# 4 0.008993 -0.005427 0.003627 0.084550 -0.005865 0.006816
# 5 -0.002578 -0.000711 0.011262 -0.005865 0.024361 -0.002191
# 6 0.000966 -0.000516 -0.001613 0.006816 -0.002191 0.011112
#
#
# Mechanical properties :
#
#
# Convention : Reuss Voigt Hill
#
# Bulk Modulus (GPa) = 37.10617 79.82670 58.46643
# Shear Modulus (GPa) = 27.91358 58.66467 43.28913
#
# Velocity S-wave (km/s) = 2.92935 4.24670 3.64798
# Velocity P-wave (km/s) = 4.78001 6.97036 5.97639
#
# Compressibility (1/GPa) = 0.02694970
#
# Stress axis : x y z
#
# Youngs Moduli (GPa) = 164.99727 137.74344 39.66141
#
# Poissons Ratio (x) = 0.36857 0.15792
# Poissons Ratio (y) = 0.44149 -0.03432
# Poissons Ratio (z) = 0.65695 -0.11918
#
# Static dielectric constant tensor:
#      x y z
#    x 8.344080 0.091680 0.131750 
#    y 0.091680 6.155000 -0.354710 
#    z 0.131750 -0.354710 7.856170 
# 
# 
# High freq. dielectric constant tensor:
#      x y z
#    x 2.422780 0.010530 -0.017240 
#    y 0.010530 2.354480 -0.023740 
#    z -0.017240 -0.023740 2.400050 
# 
# From -- ./inp_files/47764.got.cif
#   From: 2010.06.25/outbox.cif.g09.slc.cpg/sg2_24_cif.got.tgz:47764.got - 2010.06.27 13:26:56.
