data_PCOD8036295
_publ_section_title
;
Structure prediction by ZEFSAII (Michael W. Deem and Ramdas Pophale) SiO2 
 PCOD8036295
Probable space group: P -1
;
_chemical_formula_sum "Si O2"
_cell_formula_units_Z 16
_cell_length_a 13.845745
_cell_length_b 12.297545
_cell_length_c 9.229336
_cell_angle_alpha 125.036064
_cell_angle_beta 70.089153
_cell_angle_gamma 63.764714
_cell_volume 678.044818
_symmetry_space_group_name_H-M "P -1"
_symmetry_group_IT_number 2
_symmetry_cell_setting 'triclinic'
loop_
_space_group_symop_operation_xyz
x,y,z
-x,-y,-z
loop_
_atom_site_type_symbol
_atom_site_label
_atom_site_fract_x
_atom_site_fract_y
_atom_site_fract_z
Si Si1 0.484985 0.824412 0.221284
Si Si2 0.646011 0.414483 0.659973
Si Si3 0.729193 0.450373 0.334064
Si Si4 0.422092 0.792788 0.537413
Si Si5 0.085814 0.271376 0.722293
Si Si6 0.972873 0.708507 0.803465
Si Si7 0.126111 0.488317 0.262447
Si Si8 0.023260 0.045393 0.677830
O O1 0.459358 0.851559 0.429456
O O2 0.299100 0.079079 0.438199
O O3 0.519168 0.643845 0.997510
O O4 0.654156 0.739258 0.032489
O O5 0.685266 0.429834 0.492724
O O6 0.527231 0.409111 0.695362
O O7 0.831426 0.191560 0.483488
O O8 0.546409 0.701221 0.541251
O O9 0.867113 0.425836 0.269148
O O10 0.830164 0.241098 0.011745
O O11 0.210884 0.011288 0.863232
O O12 0.082219 0.140040 0.719855
O O13 0.973707 0.342482 0.694745
O O14 0.000000 0.500000 0.000000
O O15 0.926640 0.606571 0.772228
O O16 0.051650 0.652565 0.560758
O O17 0.000000 0.000000 0.500000
#
# Coordination Sequence:
#
# PCOD8036295 Si02
#       8
#     2   2   2   2   2   2   2   2
#     4  12  26  48  75 112 147 193 249 310 369 449
#     4  12  25  46  71 111 151 194 247 309 371 447
#     4  12  25  45  73 107 152 197 247 302 376 442
#     4  12  26  44  73 107 151 194 246 304 375 440
#     4  12  27  48  78 110 149 199 252 307 375 451
#     4  11  26  49  71 110 150 194 246 315 364 450
#     4  11  26  47  77 106 148 196 251 302 378 439
#     4  12  26  45  76 113 156 198 249 314 373 445
#
# _framework density 23.597259999999999
#
# number of rings (size 3 to 8) (size 9 to 14) (size 15 to 20)
#    0.000    0.250    3.750    4.875    3.500    4.000 
#    0.000    2.500    0.000    0.000    0.000    0.000 
#    0.000    0.000    0.000    0.000    0.000    0.000 
#
# Total GULP energy -198395.739138 kJ/mol
# GULP energy per Si atom -12399.733696 kJ/mol
# Density = 2.354355 g / cm^3
# Si number density = 23.597260 Si / 1000 Ang^3
#
#
#
# Elastic Constant Matrix: (Units=GPa)
#
#
# Indices 1 2 3 4 5 6 
#
# 1 108.0127 17.2793 38.4810 5.9309 -10.0538 -25.6634
# 2 17.2793 62.2988 48.4176 -0.6318 -0.0248 -21.5432
# 3 38.4810 48.4176 138.3842 -1.0779 -12.2724 -15.5145
# 4 5.9309 -0.6318 -1.0779 42.6353 -5.5622 -3.0859
# 5 -10.0538 -0.0248 -12.2724 -5.5622 44.5140 4.5757
# 6 -25.6634 -21.5432 -15.5145 -3.0859 4.5757 41.0154
#
#
#
# Elastic Compliance Matrix: (Units=1/GPa)
#
#
# Indices 1 2 3 4 5 6 
#
# 1 0.011860 0.001320 -0.002911 -0.001075 0.001042 0.006815
# 2 0.001320 0.026458 -0.008575 0.000431 -0.003218 0.011870
# 3 -0.002911 -0.008575 0.011013 0.000736 0.002713 -0.002408
# 4 -0.001075 0.000431 0.000736 0.024095 0.002835 0.001329
# 5 0.001042 -0.003218 0.002713 0.002835 0.024056 -0.002482
# 6 0.006815 0.011870 -0.002408 0.001329 -0.002482 0.034347
#
#
# Mechanical properties :
#
#
# Convention : Reuss Voigt Hill
#
# Bulk Modulus (GPa) = 34.48731 57.45015 45.96873
# Shear Modulus (GPa) = 30.89709 39.26747 35.08228
#
# Velocity S-wave (km/s) = 3.62242 4.08373 3.85997
# Velocity P-wave (km/s) = 5.66944 6.82896 6.27604
#
# Compressibility (1/GPa) = 0.02899618
#
# Stress axis : x y z
#
# Youngs Moduli (GPa) = 84.32003 37.79547 90.80504
#
# Poissons Ratio (x) = -0.04988 0.26437
# Poissons Ratio (y) = -0.11127 0.77868
# Poissons Ratio (z) = 0.24549 0.32411
#
# Static dielectric constant tensor:
#      x y z
#    x 4.371470 -0.268800 0.059960 
#    y -0.268800 4.402050 -0.169370 
#    z 0.059960 -0.169370 4.531290 
# 
# 
# High freq. dielectric constant tensor:
#      x y z
#    x 1.947760 -0.012400 0.000140 
#    y -0.012400 1.934380 -0.008170 
#    z 0.000140 -0.008170 1.944670 
# 
# From -- ./inp_files/308307.got.cif
#   From: 2010.06.25/outbox.cif.g09.slc.cpg/sg2_155_cif.got.tgz:308307.got - 2010.06.27 13:26:56.
