data_PCOD8036403
_publ_section_title
;
Structure prediction by ZEFSAII (Michael W. Deem and Ramdas Pophale) SiO2 
 PCOD8036403
Probable space group: P -1
;
_chemical_formula_sum "Si O2"
_cell_formula_units_Z 12
_cell_length_a 8.813329
_cell_length_b 9.647526
_cell_length_c 9.491908
_cell_angle_alpha 42.294420
_cell_angle_beta 100.716779
_cell_angle_gamma 94.640119
_cell_volume 531.672804
_symmetry_space_group_name_H-M "P -1"
_symmetry_group_IT_number 2
_symmetry_cell_setting 'triclinic'
loop_
_space_group_symop_operation_xyz
x,y,z
-x,-y,-z
loop_
_atom_site_type_symbol
_atom_site_label
_atom_site_fract_x
_atom_site_fract_y
_atom_site_fract_z
Si Si1 0.370198 0.712204 0.915886
Si Si2 0.371009 0.642741 0.287378
Si Si3 0.868137 0.636089 0.450349
Si Si4 0.178663 0.057519 0.019941
Si Si5 0.853618 0.916411 0.475275
Si Si6 0.699781 0.723664 0.855457
O O1 0.517377 0.783156 0.802772
O O2 0.247583 0.906704 0.757964
O O3 0.427033 0.660520 0.123408
O O4 0.287596 0.527749 0.961407
O O5 0.500000 0.500000 0.500000
O O6 0.226928 0.510244 0.363061
O O7 0.309657 0.862590 0.183875
O O8 0.937447 0.772236 0.479404
O O9 0.000000 0.500000 0.500000
O O10 0.772060 0.781328 0.210925
O O11 0.193160 0.178079 0.080805
O O12 0.000000 0.000000 0.000000
O O13 0.748704 0.807858 0.650402
O O14 0.000000 0.000000 0.500000
#
# Coordination Sequence:
#
# PCOD8036403 Si02
#       6
#     2   2   2   2   2   2
#     4  11  26  50  72 109 150 197 247 304 373 447
#     4  12  27  46  75 107 147 197 251 304 372 440
#     4  12  26  46  71 106 147 189 248 303 364 445
#     4  12  26  47  75 110 149 197 250 310 374 442
#     4  12  27  45  76 109 147 194 244 306 376 442
#     4  11  27  46  76 106 150 193 246 306 371 444
#
# _framework density 22.570274999999999
#
# number of rings (size 3 to 8) (size 9 to 14) (size 15 to 20)
#    0.000    0.333    5.000    2.500    4.667    4.667 
#    0.000    0.000    0.000    0.000    0.000    0.000 
#    0.000    0.000    0.000    0.000    0.000    0.000 
#
# Total GULP energy -148690.483048 kJ/mol
# GULP energy per Si atom -12390.873587 kJ/mol
# Density = 2.251890 g / cm^3
# Si number density = 22.570275 Si / 1000 Ang^3
#
#
#
# Elastic Constant Matrix: (Units=GPa)
#
#
# Indices 1 2 3 4 5 6 
#
# 1 114.5268 58.5037 50.5700 -7.3824 6.7960 -14.6643
# 2 58.5037 191.4807 58.4148 7.2221 14.6941 -13.7655
# 3 50.5700 58.4148 131.0268 1.5783 2.5859 -12.6198
# 4 -7.3824 7.2221 1.5783 35.0686 -0.8028 -2.1825
# 5 6.7960 14.6941 2.5859 -0.8028 27.7693 -0.0256
# 6 -14.6643 -13.7655 -12.6198 -2.1825 -0.0256 40.2414
#
#
#
# Elastic Compliance Matrix: (Units=1/GPa)
#
#
# Indices 1 2 3 4 5 6 
#
# 1 0.012119 -0.002534 -0.003305 0.003362 -0.001218 0.002695
# 2 -0.002534 0.006946 -0.001967 -0.001897 -0.002926 0.000731
# 3 -0.003305 -0.001967 0.009889 -0.000641 0.000911 0.001190
# 4 0.003362 -0.001897 -0.000641 0.029792 0.001104 0.001992
# 5 -0.001218 -0.002926 0.000911 0.001104 0.037803 -0.001075
# 6 0.002695 0.000731 0.001190 0.001992 -0.001075 0.026562
#
#
# Mechanical properties :
#
#
# Convention : Reuss Voigt Hill
#
# Bulk Modulus (GPa) = 74.95592 85.77902 80.36747
# Shear Modulus (GPa) = 34.92327 38.58558 36.75443
#
# Velocity S-wave (km/s) = 3.93786 4.13919 4.03978
# Velocity P-wave (km/s) = 7.34559 7.80587 7.57923
#
# Compressibility (1/GPa) = 0.01334118
#
# Stress axis : x y z
#
# Youngs Moduli (GPa) = 82.51276 143.97616 101.12407
#
# Poissons Ratio (x) = 0.36489 0.33417
# Poissons Ratio (y) = 0.20912 0.19895
# Poissons Ratio (z) = 0.27266 0.28326
#
# Static dielectric constant tensor:
#      x y z
#    x 3.713360 -0.030340 0.054490 
#    y -0.030340 4.414410 -0.312720 
#    z 0.054490 -0.312720 4.128830 
# 
# 
# High freq. dielectric constant tensor:
#      x y z
#    x 1.892820 -0.005790 -0.016430 
#    y -0.005790 1.912170 -0.007120 
#    z -0.016430 -0.007120 1.896510 
# 
# From -- ./inp_files/72526.got.cif
#   From: 2010.06.25/outbox.cif.g09.slc.cpg/sg2_37_cif.got.tgz:72526.got - 2010.06.27 13:26:56.
