data_PCOD8036598
_publ_section_title
;
Structure prediction by ZEFSAII (Michael W. Deem and Ramdas Pophale) SiO2 
 PCOD8036598
Probable space group: P -1
;
_chemical_formula_sum "Si O2"
_cell_formula_units_Z 16
_cell_length_a 16.761780
_cell_length_b 11.301311
_cell_length_c 8.392513
_cell_angle_alpha 56.128756
_cell_angle_beta 56.965078
_cell_angle_gamma 32.709532
_cell_volume 702.935726
_symmetry_space_group_name_H-M "P -1"
_symmetry_group_IT_number 2
_symmetry_cell_setting 'triclinic'
loop_
_space_group_symop_operation_xyz
x,y,z
-x,-y,-z
loop_
_atom_site_type_symbol
_atom_site_label
_atom_site_fract_x
_atom_site_fract_y
_atom_site_fract_z
Si Si1 0.859151 0.018505 0.908522
Si Si2 0.415235 0.660943 0.825882
Si Si3 0.893145 0.309450 0.587595
Si Si4 0.380387 0.075792 0.192856
Si Si5 0.144606 0.591909 0.082720
Si Si6 0.417259 0.294369 0.534179
Si Si7 0.667230 0.412868 0.306197
Si Si8 0.795586 0.000806 0.656335
O O1 0.895314 0.134796 0.714799
O O2 0.776109 0.033268 0.843932
O O3 0.759612 0.134326 0.090929
O O4 0.003972 0.758452 0.991534
O O5 0.483173 0.738334 0.677409
O O6 0.452669 0.534964 0.712386
O O7 0.500000 0.500000 0.000000
O O8 0.906285 0.342532 0.729570
O O9 0.744775 0.546987 0.485236
O O10 0.029364 0.225143 0.407179
O O11 0.235606 0.341834 0.152529
O O12 0.476183 0.962752 0.340383
O O13 0.315876 0.993027 0.286369
O O14 0.500000 0.000000 0.000000
O O15 0.239523 0.619887 0.911216
O O16 0.402737 0.390541 0.648848
O O17 0.762304 0.189884 0.468063
#
# Coordination Sequence:
#
# PCOD8036598 Si02
#       8
#     2   2   2   2   2   2   2   2
#     4  12  24  43  75 111 144 184 246 306 358 422
#     4  12  23  38  69 115 142 178 237 304 368 409
#     4  12  24  46  75 110 140 185 246 307 359 424
#     4  12  30  49  71 104 150 197 238 293 365 441
#     4  12  26  46  71 102 157 190 234 300 364 431
#     4  12  25  43  73 106 143 187 242 296 361 426
#     4  12  21  42  75 101 140 187 244 307 352 419
#     4  12  26  45  77 106 140 192 247 296 366 429
#
# _framework density 22.761682
#
# number of rings (size 3 to 8) (size 9 to 14) (size 15 to 20)
#    0.000    0.000    7.500    2.625    1.750    2.500 
#    0.000    0.000    0.000    0.000    0.000    0.000 
#    0.000    0.000    0.000    0.000    0.000    0.000 
#
# Total GULP energy -198301.945449 kJ/mol
# GULP energy per Si atom -12393.871591 kJ/mol
# Density = 2.270988 g / cm^3
# Si number density = 22.761682 Si / 1000 Ang^3
#
#
#
# Elastic Constant Matrix: (Units=GPa)
#
#
# Indices 1 2 3 4 5 6 
#
# 1 71.5900 18.7442 19.9124 -8.1171 15.5462 -17.7768
# 2 18.7442 83.9736 16.7399 -26.4032 4.5721 -14.5141
# 3 19.9124 16.7399 92.8720 -5.6748 4.9240 -10.2723
# 4 -8.1171 -26.4032 -5.6748 51.8707 -14.7403 8.6315
# 5 15.5462 4.5721 4.9240 -14.7403 47.5711 1.8814
# 6 -17.7768 -14.5141 -10.2723 8.6315 1.8814 36.9196
#
#
#
# Elastic Compliance Matrix: (Units=1/GPa)
#
#
# Indices 1 2 3 4 5 6 
#
# 1 0.018458 -0.002473 -0.002397 -0.001786 -0.006416 0.007993
# 2 -0.002473 0.015452 -0.001603 0.007335 0.001657 0.002639
# 3 -0.002397 -0.001603 0.011750 -0.000290 -0.000431 0.001575
# 4 -0.001786 0.007335 -0.000290 0.025738 0.008061 -0.004485
# 5 -0.006416 0.001657 -0.000431 0.008061 0.025729 -0.005753
# 6 0.007993 0.002639 0.001575 -0.004485 -0.005753 0.033752
#
#
# Mechanical properties :
#
#
# Convention : Reuss Voigt Hill
#
# Bulk Modulus (GPa) = 30.56720 39.91430 35.24075
# Shear Modulus (GPa) = 32.31467 40.14156 36.22812
#
# Velocity S-wave (km/s) = 3.77197 4.20403 3.99385
# Velocity P-wave (km/s) = 5.69463 6.41397 6.06497
#
# Compressibility (1/GPa) = 0.03271481
#
# Stress axis : x y z
#
# Youngs Moduli (GPa) = 54.17685 64.71591 85.10940
#
# Poissons Ratio (x) = 0.16004 0.20398
# Poissons Ratio (y) = 0.13398 0.13641
# Poissons Ratio (z) = 0.12984 0.10373
#
# Static dielectric constant tensor:
#      x y z
#    x 4.277440 0.151720 0.147850 
#    y 0.151720 5.144930 0.227640 
#    z 0.147850 0.227640 4.302860 
# 
# 
# High freq. dielectric constant tensor:
#      x y z
#    x 1.885800 -0.024640 0.016620 
#    y -0.024640 1.901630 0.005690 
#    z 0.016620 0.005690 1.913970 
# 
# From -- ./inp_files/186055.got.cif
#   From: 2010.06.25/outbox.cif.g09.slc.cpg/sg2_94_cif.got.tgz:186055.got - 2010.06.27 13:26:56.
