data_PCOD8036782
_publ_section_title
;
Structure prediction by ZEFSAII (Michael W. Deem and Ramdas Pophale) SiO2 
 PCOD8036782
Probable space group: P -1
;
_chemical_formula_sum "Si O2"
_cell_formula_units_Z 16
_cell_length_a 11.780315
_cell_length_b 7.904973
_cell_length_c 21.974011
_cell_angle_alpha 77.213312
_cell_angle_beta 159.776745
_cell_angle_gamma 105.629782
_cell_volume 678.148055
_symmetry_space_group_name_H-M "P -1"
_symmetry_group_IT_number 2
_symmetry_cell_setting 'triclinic'
loop_
_space_group_symop_operation_xyz
x,y,z
-x,-y,-z
loop_
_atom_site_type_symbol
_atom_site_label
_atom_site_fract_x
_atom_site_fract_y
_atom_site_fract_z
Si Si1 0.465498 0.284353 0.815550
Si Si2 0.858272 0.448547 0.690550
Si Si3 0.793530 0.606154 0.016425
Si Si4 0.248302 0.845022 0.914070
Si Si5 0.749078 0.133955 0.858115
Si Si6 0.166312 0.994659 0.496820
Si Si7 0.695040 0.038941 0.655703
Si Si8 0.806761 0.286248 0.236636
O O1 0.554902 0.498178 0.851896
O O2 0.728150 0.231169 0.903846
O O3 0.088919 0.193483 0.613741
O O4 0.519890 0.229636 0.915704
O O5 0.500000 0.500000 0.500000
O O6 0.857419 0.244384 0.720327
O O7 0.032676 0.503643 0.706828
O O8 0.061746 0.522078 0.851025
O O9 0.572392 0.732332 0.929944
O O10 0.112904 0.726803 0.136226
O O11 0.112561 0.739763 0.792863
O O12 0.966657 0.914401 0.805859
O O13 0.500000 0.000000 0.000000
O O14 0.368420 0.034928 0.658756
O O15 0.000000 0.000000 0.000000
O O16 0.448735 0.980369 0.591600
O O17 0.983442 0.159639 0.376814
O O18 0.500000 0.000000 0.500000
#
# Coordination Sequence:
#
# PCOD8036782 Si02
#       8
#     2   2   2   2   2   2   2   2
#     4  12  27  46  75 106 143 189 244 296 362 424
#     4  12  23  42  67 108 150 191 230 295 359 429
#     4  12  27  46  74 106 144 195 239 301 364 427
#     4  12  23  41  70 106 146 186 232 295 353 437
#     4  12  27  54  76  99 141 192 250 298 360 430
#     4  12  25  47  73 108 142 189 238 304 353 434
#     4  12  23  39  67 103 149 185 243 278 364 422
#     4  12  24  42  70 110 151 182 236 295 374 423
#
# _framework density 23.593667
#
# number of rings (size 3 to 8) (size 9 to 14) (size 15 to 20)
#    0.000    0.000    6.250    3.375    3.500    0.000 
#    0.000    3.750    0.000    0.000    0.000    0.000 
#    0.000    0.000    0.000    0.000    0.000    0.000 
#
# Total GULP energy -198215.076106 kJ/mol
# GULP energy per Si atom -12388.442257 kJ/mol
# Density = 2.353997 g / cm^3
# Si number density = 23.593667 Si / 1000 Ang^3
#
#
#
# Elastic Constant Matrix: (Units=GPa)
#
#
# Indices 1 2 3 4 5 6 
#
# 1 84.9279 16.4978 27.2595 1.1101 8.2314 -15.5439
# 2 16.4978 64.1222 37.4150 12.4458 1.5337 -3.8096
# 3 27.2595 37.4150 139.7413 6.5540 0.2710 -11.9813
# 4 1.1101 12.4458 6.5540 41.6568 -0.3192 5.4740
# 5 8.2314 1.5337 0.2710 -0.3192 45.0753 -1.2565
# 6 -15.5439 -3.8096 -11.9813 5.4740 -1.2565 36.3781
#
#
#
# Elastic Compliance Matrix: (Units=1/GPa)
#
#
# Indices 1 2 3 4 5 6 
#
# 1 0.013900 -0.002218 -0.001670 -0.000133 -0.002312 0.005097
# 2 -0.002218 0.019902 -0.004617 -0.005214 -0.000270 0.000391
# 3 -0.001670 -0.004617 0.008879 -0.000202 0.000457 0.001773
# 4 -0.000133 -0.005214 -0.000202 0.026206 0.000260 -0.004604
# 5 -0.002312 -0.000270 0.000457 0.000260 0.022612 -0.000124
# 6 0.005097 0.000391 0.001773 -0.004604 -0.000124 0.030981
#
#
# Mechanical properties :
#
#
# Convention : Reuss Voigt Hill
#
# Bulk Modulus (GPa) = 38.95583 50.12622 44.54103
# Shear Modulus (GPa) = 33.77313 38.46331 36.11822
#
# Velocity S-wave (km/s) = 3.78755 4.04200 3.91684
# Velocity P-wave (km/s) = 5.97281 6.56319 6.27494
#
# Compressibility (1/GPa) = 0.02567010
#
# Stress axis : x y z
#
# Youngs Moduli (GPa) = 71.94092 50.24675 112.62833
#
# Poissons Ratio (x) = 0.11145 0.18808
# Poissons Ratio (y) = 0.15957 0.52004
# Poissons Ratio (z) = 0.12014 0.23201
#
# Static dielectric constant tensor:
#      x y z
#    x 4.166640 0.087850 -0.071360 
#    y 0.087850 4.388850 0.476120 
#    z -0.071360 0.476120 4.378300 
# 
# 
# High freq. dielectric constant tensor:
#      x y z
#    x 1.943510 0.007860 0.002260 
#    y 0.007860 1.944750 0.018540 
#    z 0.002260 0.018540 1.936800 
# 
# From -- ./inp_files/594102.got.cif
#   From: 2010.06.25/outbox.cif.g09.slc.cpg/sg2_298_cif.got.tgz:594102.got - 2010.06.27 13:26:56.
