data_PCOD8036912
_publ_section_title
;
Structure prediction by ZEFSAII (Michael W. Deem and Ramdas Pophale) SiO2 
 PCOD8036912
Probable space group: P -1
;
_chemical_formula_sum "Si O2"
_cell_formula_units_Z 14
_cell_length_a 11.400511
_cell_length_b 11.707306
_cell_length_c 5.108704
_cell_angle_alpha 112.852860
_cell_angle_beta 117.128606
_cell_angle_gamma 77.639875
_cell_volume 558.638763
_symmetry_space_group_name_H-M "P -1"
_symmetry_group_IT_number 2
_symmetry_cell_setting 'triclinic'
loop_
_space_group_symop_operation_xyz
x,y,z
-x,-y,-z
loop_
_atom_site_type_symbol
_atom_site_label
_atom_site_fract_x
_atom_site_fract_y
_atom_site_fract_z
Si Si1 0.331500 0.459727 0.688021
Si Si2 0.573968 0.665823 0.820056
Si Si3 0.696709 0.258971 0.200758
Si Si4 0.052110 0.372597 0.322392
Si Si5 0.347575 0.976538 0.349232
Si Si6 0.978416 0.239158 0.629644
Si Si7 0.757932 0.890727 0.141987
O O1 0.420372 0.429454 0.498689
O O2 0.280217 0.603658 0.767789
O O3 0.209458 0.370809 0.468498
O O4 0.419087 0.421194 0.993173
O O5 0.432356 0.740828 0.743932
O O6 0.690874 0.761134 0.018751
O O7 0.824233 0.207112 0.451183
O O8 0.675857 0.167719 0.854884
O O9 0.000000 0.500000 0.500000
O O10 0.009179 0.268159 0.385037
O O11 0.995666 0.351001 0.954272
O O12 0.500000 0.000000 0.500000
O O13 0.293428 0.007230 0.610290
O O14 0.273843 0.064451 0.141438
O O15 0.082416 0.127035 0.708771
#
# Coordination Sequence:
#
# PCOD8036912 Si02
#       7
#     2   2   2   2   2   2   2
#     4  12  25  46  75 112 148 193 241 301 369 443
#     4  12  26  47  77 109 149 191 243 306 368 438
#     4  12  30  46  74 113 152 192 246 306 371 429
#     4  12  23  44  73 107 150 197 236 286 373 453
#     4  12  28  50  79 103 145 197 250 306 357 435
#     4  12  27  45  75 110 148 193 243 302 364 437
#     4  12  25  50  78 105 140 200 254 292 364 434
#
# _framework density 25.060918000000001
#
# number of rings (size 3 to 8) (size 9 to 14) (size 15 to 20)
#    0.000    0.000    5.714    3.429    2.000    4.571 
#    0.000    0.000    0.000    0.000    0.000    0.000 
#    0.000    0.000    0.000    0.000    0.000    0.000 
#
# Total GULP energy -173665.872272 kJ/mol
# GULP energy per Si atom -12404.705162 kJ/mol
# Density = 2.500388 g / cm^3
# Si number density = 25.060918 Si / 1000 Ang^3
#
#
#
# Elastic Constant Matrix: (Units=GPa)
#
#
# Indices 1 2 3 4 5 6 
#
# 1 117.9696 23.9047 56.1700 -8.4862 7.0760 -33.1900
# 2 23.9047 76.6695 26.8629 1.1456 5.1565 -14.3873
# 3 56.1700 26.8629 140.3082 8.9722 1.9598 -14.6817
# 4 -8.4862 1.1456 8.9722 48.1189 -8.4603 0.2904
# 5 7.0760 5.1565 1.9598 -8.4603 50.9896 -11.5108
# 6 -33.1900 -14.3873 -14.6817 0.2904 -11.5108 49.9999
#
#
#
# Elastic Compliance Matrix: (Units=1/GPa)
#
#
# Indices 1 2 3 4 5 6 
#
# 1 0.013050 -0.001264 -0.004453 0.003230 0.000631 0.007118
# 2 -0.001264 0.014684 -0.001998 -0.000338 -0.000692 0.002643
# 3 -0.004453 -0.001998 0.009371 -0.002504 -0.000135 -0.000796
# 4 0.003230 -0.000338 -0.002504 0.022497 0.003883 0.002075
# 5 0.000631 -0.000692 -0.000135 0.003883 0.021391 0.005082
# 6 0.007118 0.002643 -0.000796 0.002075 0.005082 0.026410
#
#
# Mechanical properties :
#
#
# Convention : Reuss Voigt Hill
#
# Bulk Modulus (GPa) = 46.13217 60.98027 53.55622
# Shear Modulus (GPa) = 38.44455 45.02233 41.73344
#
# Velocity S-wave (km/s) = 3.92094 4.24313 4.08521
# Velocity P-wave (km/s) = 6.24070 6.95638 6.60823
#
# Compressibility (1/GPa) = 0.02167685
#
# Stress axis : x y z
#
# Youngs Moduli (GPa) = 76.62724 68.09927 106.71107
#
# Poissons Ratio (x) = 0.08605 0.47519
# Poissons Ratio (y) = 0.09683 0.21318
# Poissons Ratio (z) = 0.34122 0.13605
#
# Static dielectric constant tensor:
#      x y z
#    x 4.833060 -0.174230 0.139560 
#    y -0.174230 4.784650 -0.524790 
#    z 0.139560 -0.524790 5.305030 
# 
# 
# High freq. dielectric constant tensor:
#      x y z
#    x 2.014900 -0.011680 0.003510 
#    y -0.011680 1.991530 0.001640 
#    z 0.003510 0.001640 2.011150 
# 
# From -- ./inp_files/72444.got.cif
#   From: 2010.06.25/outbox.cif.g09.slc.cpg/sg2_37_cif.got.tgz:72444.got - 2010.06.27 13:26:56.
