data_PCOD8036741
_publ_section_title
;
Structure prediction by ZEFSAII (Michael W. Deem and Ramdas Pophale) SiO2 
 PCOD8036741
Probable space group: P -1
;
_chemical_formula_sum "Si O2"
_cell_formula_units_Z 14
_cell_length_a 9.351663
_cell_length_b 12.529498
_cell_length_c 16.167125
_cell_angle_alpha 26.952135
_cell_angle_beta 72.035665
_cell_angle_gamma 89.837742
_cell_volume 633.553419
_symmetry_space_group_name_H-M "P -1"
_symmetry_group_IT_number 2
_symmetry_cell_setting 'triclinic'
loop_
_space_group_symop_operation_xyz
x,y,z
-x,-y,-z
loop_
_atom_site_type_symbol
_atom_site_label
_atom_site_fract_x
_atom_site_fract_y
_atom_site_fract_z
Si Si1 0.627832 0.313069 0.042939
Si Si2 0.341974 0.892445 0.259732
Si Si3 0.984732 0.719621 0.169885
Si Si4 0.067113 0.007604 0.275384
Si Si5 0.172693 0.596227 0.340637
Si Si6 0.755578 0.936129 0.623807
Si Si7 0.000618 0.413040 0.926737
O O1 0.448043 0.159526 0.243301
O O2 0.556524 0.133393 0.092377
O O3 0.721067 0.662103 0.768510
O O4 0.785102 0.292853 0.068188
O O5 0.215394 0.596351 0.545620
O O6 0.361909 0.806794 0.221154
O O7 0.245203 0.058297 0.160227
O O8 0.994568 0.712779 0.074828
O O9 0.168965 0.769998 0.143641
O O10 0.000000 0.000000 0.000000
O O11 0.094638 0.970587 0.392531
O O12 0.066476 0.288744 0.069828
O O13 0.865713 0.702654 0.483815
O O14 0.000000 0.500000 0.500000
O O15 0.851724 0.221538 0.348824
#
# Coordination Sequence:
#
# PCOD8036741 Si02
#       7
#     2   2   2   2   2   2   2
#     4  10  22  38  61  87 115 156 191 247 282 343
#     4   9  17  37  55  78 126 148 183 243 293 328
#     4  10  17  31  59  86 112 155 192 228 288 351
#     4   9  18  34  59  86 111 154 188 239 283 347
#     4   8  14  30  54  79 113 150 185 231 286 336
#     4  10  21  44  59  79 126 151 191 242 296 328
#     4  12  20  36  65  88 111 154 205 226 292 347
#
# _framework density 22.097584999999999
#
# number of rings (size 3 to 8) (size 9 to 14) (size 15 to 20)
#    0.000    2.571    4.286    3.000    0.000    0.571 
#    0.000   12.857    0.000    0.000    0.000    0.000 
#    0.000    0.000    0.000    0.000    0.000    0.000 
#
# Total GULP energy -173481.263564 kJ/mol
# GULP energy per Si atom -12391.518826 kJ/mol
# Density = 2.204729 g / cm^3
# Si number density = 22.097585 Si / 1000 Ang^3
#
#
#
# Elastic Constant Matrix: (Units=GPa)
#
#
# Indices 1 2 3 4 5 6 
#
# 1 81.7039 8.7318 66.4553 -4.1506 13.2340 -11.2062
# 2 8.7318 42.8874 34.5182 -14.7588 -11.1752 9.2654
# 3 66.4553 34.5182 116.2762 -32.5433 20.9446 -1.7631
# 4 -4.1506 -14.7588 -32.5433 27.6697 8.7543 -3.8635
# 5 13.2340 -11.1752 20.9446 8.7543 34.5922 -5.5680
# 6 -11.2062 9.2654 -1.7631 -3.8635 -5.5680 28.5373
#
#
#
# Elastic Compliance Matrix: (Units=1/GPa)
#
#
# Indices 1 2 3 4 5 6 
#
# 1 0.056083 0.033513 -0.072410 -0.074754 0.053248 0.006937
# 2 0.033513 0.070018 -0.068718 -0.060368 0.065191 -0.009272
# 3 -0.072410 -0.068718 0.127642 0.136174 -0.106331 -0.000548
# 4 -0.074754 -0.060368 0.136174 0.191502 -0.121681 0.000843
# 5 0.053248 0.065191 -0.106331 -0.121681 0.124945 0.001079
# 6 0.006937 -0.009272 -0.000548 0.000843 0.001079 0.041067
#
#
# Mechanical properties :
#
#
# Convention : Reuss Voigt Hill
#
# Bulk Modulus (GPa) = 25.96667 51.14201 38.55434
# Shear Modulus (GPa) = 5.95716 26.90399 16.43057
#
# Velocity S-wave (km/s) = 1.64368 3.49307 2.72976
# Velocity P-wave (km/s) = 3.92157 6.28193 5.23647
#
# Compressibility (1/GPa) = 0.03851091
#
# Stress axis : x y z
#
# Youngs Moduli (GPa) = 17.83069 14.28209 7.83441
#
# Poissons Ratio (x) = -0.47863 0.56729
# Poissons Ratio (y) = -0.59755 0.53837
# Poissons Ratio (z) = 1.29113 0.98144
#
# Static dielectric constant tensor:
#      x y z
#    x 3.979300 0.410950 -0.166880 
#    y 0.410950 4.277110 -0.559190 
#    z -0.166880 -0.559190 4.006100 
# 
# 
# High freq. dielectric constant tensor:
#      x y z
#    x 1.845550 0.012580 -0.001910 
#    y 0.012580 1.869950 -0.027690 
#    z -0.001910 -0.027690 1.857330 
# 
# From -- ./inp_files/590000.got.cif
#   From: 2010.06.25/outbox.cif.g09.slc.cpg/sg2_295_cif.got.tgz:590000.got - 2010.06.27 13:26:56.
