data_PCOD8036082
_publ_section_title
;
Structure prediction by ZEFSAII (Michael W. Deem and Ramdas Pophale) SiO2 
 PCOD8036082
Probable space group: P -1
;
_chemical_formula_sum "Si O2"
_cell_formula_units_Z 14
_cell_length_a 20.309267
_cell_length_b 10.760594
_cell_length_c 5.154862
_cell_angle_alpha 72.144575
_cell_angle_beta 67.516309
_cell_angle_gamma 34.965375
_cell_volume 596.478423
_symmetry_space_group_name_H-M "P -1"
_symmetry_group_IT_number 2
_symmetry_cell_setting 'triclinic'
loop_
_space_group_symop_operation_xyz
x,y,z
-x,-y,-z
loop_
_atom_site_type_symbol
_atom_site_label
_atom_site_fract_x
_atom_site_fract_y
_atom_site_fract_z
Si Si1 0.604503 0.360237 0.132661
Si Si2 0.131463 0.268661 0.395127
Si Si3 0.147195 0.084449 0.985928
Si Si4 0.038957 0.863676 0.775718
Si Si5 0.692596 0.608639 0.409668
Si Si6 0.327813 0.190893 0.182557
Si Si7 0.494588 0.283747 0.604826
O O1 0.593071 0.244388 0.394282
O O2 0.592162 0.515117 0.196614
O O3 0.737296 0.168753 0.940871
O O4 0.500000 0.500000 0.000000
O O5 0.170092 0.102414 0.649077
O O6 0.208169 0.284942 0.300779
O O7 0.000000 0.500000 0.500000
O O8 0.138497 0.212755 0.123521
O O9 0.027212 0.177744 0.107471
O O10 0.179103 0.635350 0.702219
O O11 0.000000 0.000000 0.500000
O O12 0.000000 0.000000 0.000000
O O13 0.688106 0.677894 0.655089
O O14 0.593345 0.639099 0.538373
O O15 0.653396 0.770557 0.148580
O O16 0.440574 0.932930 0.219609
#
# Coordination Sequence:
#
# PCOD8036082 Si02
#       7
#     2   2   2   2   2   2   2
#     4  11  26  43  73  99 140 182 239 288 339 411
#     4  12  24  44  71 100 138 179 231 279 348 409
#     4  12  25  45  70 102 136 179 230 289 341 401
#     4  12  26  46  71 102 140 181 233 282 345 412
#     4  12  27  45  72 102 142 182 229 282 351 415
#     4  12  25  46  69 104 141 181 230 285 346 414
#     4  11  26  45  68 104 136 188 232 286 346 409
#
# _framework density 23.471094000000001
#
# number of rings (size 3 to 8) (size 9 to 14) (size 15 to 20)
#    0.000    0.286    1.429    7.286    8.000    0.000 
#    0.000    0.000    0.000    0.000    0.000    0.000 
#    0.000    0.000    0.000    0.000    0.000    0.000 
#
# Total GULP energy -173636.478675 kJ/mol
# GULP energy per Si atom -12402.605620 kJ/mol
# Density = 2.341767 g / cm^3
# Si number density = 23.471094 Si / 1000 Ang^3
#
#
#
# Elastic Constant Matrix: (Units=GPa)
#
#
# Indices 1 2 3 4 5 6 
#
# 1 152.0776 27.6528 0.7856 12.3842 12.3201 -2.1736
# 2 27.6528 126.5198 -8.1258 6.7840 1.3404 -13.5749
# 3 0.7856 -8.1258 70.7188 -7.6260 11.6062 8.0292
# 4 12.3842 6.7840 -7.6260 35.4003 -3.7116 1.8120
# 5 12.3201 1.3404 11.6062 -3.7116 29.6065 5.4350
# 6 -2.1736 -13.5749 8.0292 1.8120 5.4350 45.3429
#
#
#
# Elastic Compliance Matrix: (Units=1/GPa)
#
#
# Indices 1 2 3 4 5 6 
#
# 1 0.007326 -0.001374 -0.000023 -0.002684 -0.003398 0.000459
# 2 -0.001374 0.008592 0.000702 -0.001218 -0.000707 0.002516
# 3 -0.000023 0.000702 0.015642 0.002777 -0.005435 -0.002020
# 4 -0.002684 -0.001218 0.002777 0.030623 0.004425 -0.002739
# 5 -0.003398 -0.000707 -0.005435 0.004425 0.038684 -0.004226
# 6 0.000459 0.002516 -0.002020 -0.002739 -0.004226 0.023803
#
#
# Mechanical properties :
#
#
# Convention : Reuss Voigt Hill
#
# Bulk Modulus (GPa) = 33.14556 43.32681 38.23618
# Shear Modulus (GPa) = 36.73328 44.00353 40.36841
#
# Velocity S-wave (km/s) = 3.96035 4.33459 4.15169
# Velocity P-wave (km/s) = 5.92158 6.59934 6.26962
#
# Compressibility (1/GPa) = 0.03016995
#
# Stress axis : x y z
#
# Youngs Moduli (GPa) = 136.50217 116.38930 63.92956
#
# Poissons Ratio (x) = 0.15986 0.00147
# Poissons Ratio (y) = 0.18749 -0.04485
# Poissons Ratio (z) = 0.00315 -0.08166
#
# Static dielectric constant tensor:
#      x y z
#    x 4.957460 0.068170 -0.263410 
#    y 0.068170 4.336800 -0.105400 
#    z -0.263410 -0.105400 4.449330 
# 
# 
# High freq. dielectric constant tensor:
#      x y z
#    x 1.953160 -0.007970 0.002430 
#    y -0.007970 1.945220 -0.000360 
#    z 0.002430 -0.000360 1.928820 
# 
# From -- ./inp_files/106672.got.cif
#   From: 2010.06.25/outbox.cif.g09.slc.cpg/sg2_54_cif.got.tgz:106672.got - 2010.06.27 13:26:56.
