data_PCOD8036547
_publ_section_title
;
Structure prediction by ZEFSAII (Michael W. Deem and Ramdas Pophale) SiO2 
 PCOD8036547
Probable space group: P -1
;
_chemical_formula_sum "Si O2"
_cell_formula_units_Z 16
_cell_length_a 13.852780
_cell_length_b 9.436109
_cell_length_c 14.547102
_cell_angle_alpha 112.688695
_cell_angle_beta 74.155932
_cell_angle_gamma 48.191559
_cell_volume 832.902699
_symmetry_space_group_name_H-M "P -1"
_symmetry_group_IT_number 2
_symmetry_cell_setting 'triclinic'
loop_
_space_group_symop_operation_xyz
x,y,z
-x,-y,-z
loop_
_atom_site_type_symbol
_atom_site_label
_atom_site_fract_x
_atom_site_fract_y
_atom_site_fract_z
Si Si1 0.070275 0.249788 0.765475
Si Si2 0.350895 0.844716 0.128663
Si Si3 0.742044 0.461740 0.937898
Si Si4 0.244587 0.754641 0.468036
Si Si5 0.871704 0.056506 0.658737
Si Si6 0.074484 0.244152 0.129911
Si Si7 0.286690 0.884328 0.792856
Si Si8 0.950144 0.089605 0.139999
O O1 0.840437 0.499640 0.913579
O O2 0.056268 0.426402 0.757270
O O3 0.182819 0.972257 0.606910
O O4 0.195306 0.110881 0.791987
O O5 0.173871 0.040727 0.297691
O O6 0.253656 0.019593 0.100986
O O7 0.500000 0.500000 0.000000
O O8 0.499581 0.788901 0.106503
O O9 0.761456 0.349835 0.806646
O O10 0.856925 0.211225 0.923361
O O11 0.213691 0.856265 0.398658
O O12 0.475964 0.400859 0.335495
O O13 0.112574 0.775587 0.525023
O O14 0.918016 0.315609 0.218157
O O15 0.176851 0.075877 0.963179
O O16 0.242100 0.762864 0.748333
O O17 0.000000 0.000000 0.000000
#
# Coordination Sequence:
#
# PCOD8036547 Si02
#       8
#     2   2   2   2   2   2   2   2
#     4  10  22  36  52  82 122 138 172 234 277 317
#     4  10  17  31  58  80 105 139 185 227 259 322
#     4   9  17  33  53  82 108 140 182 224 269 317
#     4  10  20  36  57  80 107 150 189 210 270 330
#     4   9  18  32  57  80 104 139 189 231 245 323
#     4  11  20  35  57  85 111 138 178 237 283 299
#     4  10  20  36  60  78 105 149 190 216 260 338
#     4   9  18  30  53  82 105 136 182 224 261 316
#
# _framework density 19.209928000000001
#
# number of rings (size 3 to 8) (size 9 to 14) (size 15 to 20)
#    0.000    2.250    2.500    2.250    1.750    0.500 
#    0.000    1.250    0.000    0.000    0.000    0.000 
#    0.000    0.000    0.000    0.000    0.000    0.000 
#
# Total GULP energy -198266.772531 kJ/mol
# GULP energy per Si atom -12391.673283 kJ/mol
# Density = 1.916621 g / cm^3
# Si number density = 19.209928 Si / 1000 Ang^3
#
#
#
# Elastic Constant Matrix: (Units=GPa)
#
#
# Indices 1 2 3 4 5 6 
#
# 1 59.4782 26.2655 16.4360 4.3902 -19.7002 -10.7147
# 2 26.2655 108.6063 21.6962 -10.0563 -3.7941 -14.9188
# 3 16.4360 21.6962 49.1389 -4.7408 -14.8778 -13.4236
# 4 4.3902 -10.0563 -4.7408 24.6935 -4.9282 2.6136
# 5 -19.7002 -3.7941 -14.8778 -4.9282 26.0807 4.5537
# 6 -10.7147 -14.9188 -13.4236 2.6136 4.5537 33.8905
#
#
#
# Elastic Compliance Matrix: (Units=1/GPa)
#
#
# Indices 1 2 3 4 5 6 
#
# 1 0.025986 -0.005453 -0.000459 -0.003878 0.017209 0.003620
# 2 -0.005453 0.011790 -0.003615 0.004017 -0.004105 0.002276
# 3 -0.000459 -0.003615 0.029590 0.006708 0.015997 0.007317
# 4 -0.003878 0.004017 0.006708 0.046409 0.010566 -0.001799
# 5 0.017209 -0.004105 0.015997 0.010566 0.061715 0.000863
# 6 0.003620 0.002276 0.007317 -0.001799 0.000863 0.034574
#
#
# Mechanical properties :
#
#
# Convention : Reuss Voigt Hill
#
# Bulk Modulus (GPa) = 20.69936 38.44653 29.57295
# Shear Modulus (GPa) = 20.38971 27.12133 23.75552
#
# Velocity S-wave (km/s) = 3.26147 3.76152 3.52039
# Velocity P-wave (km/s) = 4.99817 6.23881 5.65263
#
# Compressibility (1/GPa) = 0.04831066
#
# Stress axis : x y z
#
# Youngs Moduli (GPa) = 38.48212 84.81954 33.79577
#
# Poissons Ratio (x) = 0.46256 0.01551
# Poissons Ratio (y) = 0.20986 0.12217
# Poissons Ratio (z) = 0.01766 0.30662
#
# Static dielectric constant tensor:
#      x y z
#    x 4.034200 -0.027900 -0.530850 
#    y -0.027900 3.557550 -0.318530 
#    z -0.530850 -0.318530 3.388000 
# 
# 
# High freq. dielectric constant tensor:
#      x y z
#    x 1.752190 -0.019500 -0.028810 
#    y -0.019500 1.753590 -0.027740 
#    z -0.028810 -0.027740 1.705370 
# 
# From -- ./inp_files/306749.got.cif
#   From: 2010.06.25/outbox.cif.g09.slc.cpg/sg2_154_cif.got.tgz:306749.got - 2010.06.27 13:26:56.
