data_PCOD8036578
_publ_section_title
;
Structure prediction by ZEFSAII (Michael W. Deem and Ramdas Pophale) SiO2 
 PCOD8036578
Probable space group: P -1
;
_chemical_formula_sum "Si O2"
_cell_formula_units_Z 14
_cell_length_a 11.145257
_cell_length_b 9.397482
_cell_length_c 16.322630
_cell_angle_alpha 57.522043
_cell_angle_beta 35.721463
_cell_angle_gamma 41.587847
_cell_volume 651.553798
_symmetry_space_group_name_H-M "P -1"
_symmetry_group_IT_number 2
_symmetry_cell_setting 'triclinic'
loop_
_space_group_symop_operation_xyz
x,y,z
-x,-y,-z
loop_
_atom_site_type_symbol
_atom_site_label
_atom_site_fract_x
_atom_site_fract_y
_atom_site_fract_z
Si Si1 0.464870 0.183016 0.519707
Si Si2 0.258376 0.815141 0.868513
Si Si3 0.912774 0.413623 0.504959
Si Si4 0.030127 0.938524 0.781762
Si Si5 0.417103 0.655010 0.180561
Si Si6 0.756390 0.749712 0.043875
Si Si7 0.530530 0.989624 0.711077
O O1 0.217940 0.419918 0.550157
O O2 0.404678 0.163070 0.653064
O O3 0.735789 0.155423 0.385388
O O4 0.500000 0.000000 0.500000
O O5 0.336967 0.581406 0.918356
O O6 0.196923 0.882195 0.787977
O O7 0.495680 0.809261 0.768440
O O8 0.000000 0.000000 0.000000
O O9 0.695116 0.397842 0.666103
O O10 0.000000 0.500000 0.500000
O O11 0.148889 0.170885 0.413960
O O12 0.805546 0.197768 0.810567
O O13 0.880155 0.837805 0.895328
O O14 0.524560 0.779328 0.112688
O O15 0.622522 0.880987 0.161667
O O16 0.000000 0.500000 0.000000
#
# Coordination Sequence:
#
# PCOD8036578 Si02
#       7
#     2   2   2   2   2   2   2
#     4  12  21  40  70 103 134 174 220 282 342 396
#     4  12  23  43  69 102 134 178 230 281 334 400
#     4  12  21  41  69 102 137 171 218 286 337 393
#     4  12  23  43  71  96 133 181 226 273 346 396
#     4  12  24  44  71  92 140 185 219 281 338 400
#     4  12  26  51  67  93 144 186 224 281 334 405
#     4  12  25  42  72 105 134 174 229 279 340 402
#
# _framework density 21.487096000000001
#
# number of rings (size 3 to 8) (size 9 to 14) (size 15 to 20)
#    0.000    0.000   10.000    0.429    0.000    1.143 
#    7.714    1.429    0.000    0.000    0.000    0.000 
#    0.000    0.000    0.000    0.000    0.000    0.000 
#
# Total GULP energy -173527.647120 kJ/mol
# GULP energy per Si atom -12394.831937 kJ/mol
# Density = 2.143819 g / cm^3
# Si number density = 21.487096 Si / 1000 Ang^3
#
#
#
# Elastic Constant Matrix: (Units=GPa)
#
#
# Indices 1 2 3 4 5 6 
#
# 1 64.1988 53.4851 19.7927 3.9343 -15.4168 -0.2905
# 2 53.4851 142.7939 33.2367 7.1947 4.4390 -25.7841
# 3 19.7927 33.2367 100.2567 -8.2308 -18.3583 15.8265
# 4 3.9343 7.1947 -8.2308 36.5099 -1.2742 -7.4978
# 5 -15.4168 4.4390 -18.3583 -1.2742 24.1779 -4.4173
# 6 -0.2905 -25.7841 15.8265 -7.4978 -4.4173 42.0946
#
#
#
# Elastic Compliance Matrix: (Units=1/GPa)
#
#
# Indices 1 2 3 4 5 6 
#
# 1 0.034115 -0.016377 0.005012 -0.000205 0.026930 -0.008891
# 2 -0.016377 0.017660 -0.007799 -0.001730 -0.017600 0.011481
# 3 0.005012 -0.007799 0.016019 0.003391 0.015409 -0.008544
# 4 -0.000205 -0.001730 0.003391 0.029391 0.004935 0.003417
# 5 0.026930 -0.017600 0.015409 0.004935 0.072275 -0.007924
# 6 -0.008891 0.011481 -0.008544 0.003417 -0.007924 0.033717
#
#
# Mechanical properties :
#
#
# Convention : Reuss Voigt Hill
#
# Bulk Modulus (GPa) = 33.93635 57.80871 45.87253
# Shear Modulus (GPa) = 19.89450 33.93882 26.91666
#
# Velocity S-wave (km/s) = 3.04613 3.97860 3.54318
# Velocity P-wave (km/s) = 5.31037 6.93311 6.17527
#
# Compressibility (1/GPa) = 0.02946693
#
# Stress axis : x y z
#
# Youngs Moduli (GPa) = 29.31289 56.62542 62.42612
#
# Poissons Ratio (x) = 0.92735 -0.31290
# Poissons Ratio (y) = 0.48006 0.48684
# Poissons Ratio (z) = -0.14692 0.44160
#
# Static dielectric constant tensor:
#      x y z
#    x 3.749220 -0.141990 -0.399050 
#    y -0.141990 4.179470 -0.049590 
#    z -0.399050 -0.049590 6.015210 
# 
# 
# High freq. dielectric constant tensor:
#      x y z
#    x 1.822810 -0.022790 -0.019210 
#    y -0.022790 1.850360 -0.003220 
#    z -0.019210 -0.003220 1.860010 
# 
# From -- ./inp_files/380855.got.cif
#   From: 2010.06.25/outbox.cif.g09.slc.cpg/sg2_191_cif.got.tgz:380855.got - 2010.06.27 13:26:56.
