data_PCOD8036809
_publ_section_title
;
Structure prediction by ZEFSAII (Michael W. Deem and Ramdas Pophale) SiO2 
 PCOD8036809
Probable space group: P -1
;
_chemical_formula_sum "Si O2"
_cell_formula_units_Z 16
_cell_length_a 6.406177
_cell_length_b 19.000068
_cell_length_c 14.577972
_cell_angle_alpha 143.350068
_cell_angle_beta 42.717025
_cell_angle_gamma 116.902687
_cell_volume 676.166027
_symmetry_space_group_name_H-M "P -1"
_symmetry_group_IT_number 2
_symmetry_cell_setting 'triclinic'
loop_
_space_group_symop_operation_xyz
x,y,z
-x,-y,-z
loop_
_atom_site_type_symbol
_atom_site_label
_atom_site_fract_x
_atom_site_fract_y
_atom_site_fract_z
Si Si1 0.493216 0.832798 0.008749
Si Si2 0.232133 0.791759 0.719958
Si Si3 0.137662 0.687498 0.456607
Si Si4 0.856590 0.568635 0.840034
Si Si5 0.193229 0.757466 0.202114
Si Si6 0.781740 0.893374 0.648098
Si Si7 0.170874 0.401821 0.918058
Si Si8 0.386295 0.649937 0.701245
O O1 0.348401 0.825421 0.148330
O O2 0.258603 0.961123 0.171072
O O3 0.521960 0.714180 0.808974
O O4 0.846669 0.848700 0.924019
O O5 0.286635 0.704220 0.522534
O O6 0.417932 0.890119 0.740311
O O7 0.433913 0.711385 0.655275
O O8 0.981997 0.575120 0.404461
O O9 0.442097 0.627175 0.228135
O O10 0.905391 0.816873 0.622751
O O11 0.998489 0.673494 0.864680
O O12 0.467783 0.627144 0.010063
O O13 0.972162 0.544078 0.881701
O O14 0.040823 0.842590 0.428512
O O15 0.901350 0.725769 0.213099
O O16 0.000000 0.500000 0.000000
O O17 0.500000 0.500000 0.500000
#
# Coordination Sequence:
#
# PCOD8036809 Si02
#       8
#     2   2   2   2   2   2   2   2
#     4  12  28  50  73 104 146 194 236 296 356 429
#     4  12  27  47  73 104 141 193 242 294 355 423
#     4  12  26  43  73 110 144 189 238 298 356 424
#     4  12  24  44  73 108 149 182 240 305 361 416
#     4  12  24  47  74 108 142 189 239 297 362 422
#     4  12  27  49  73 106 145 188 247 291 354 431
#     4  12  23  41  72 106 146 186 236 297 364 418
#     4  12  28  47  73 107 145 188 241 295 360 429
#
# _framework density 23.662825000000002
#
# number of rings (size 3 to 8) (size 9 to 14) (size 15 to 20)
#    0.000    0.000    6.250    4.125    3.500    4.000 
#    0.000    1.250    0.000    0.000    0.000    0.000 
#    0.000    0.000    0.000    0.000    0.000    0.000 
#
# Total GULP energy -198310.429881 kJ/mol
# GULP energy per Si atom -12394.401868 kJ/mol
# Density = 2.360897 g / cm^3
# Si number density = 23.662825 Si / 1000 Ang^3
#
#
#
# Elastic Constant Matrix: (Units=GPa)
#
#
# Indices 1 2 3 4 5 6 
#
# 1 85.3025 38.6715 26.1998 3.1811 4.9644 -2.8527
# 2 38.6715 115.9478 54.4286 1.5260 -0.6966 -5.9892
# 3 26.1998 54.4286 95.2247 16.7339 1.9408 -1.6859
# 4 3.1811 1.5260 16.7339 39.0455 -5.2312 0.4371
# 5 4.9644 -0.6966 1.9408 -5.2312 37.5533 -4.7721
# 6 -2.8527 -5.9892 -1.6859 0.4371 -4.7721 36.8148
#
#
#
# Elastic Compliance Matrix: (Units=1/GPa)
#
#
# Indices 1 2 3 4 5 6 
#
# 1 0.014134 -0.004043 -0.001423 -0.000646 -0.001944 0.000128
# 2 -0.004043 0.013346 -0.007059 0.003054 0.001792 0.001731
# 3 -0.001423 -0.007059 0.016140 -0.006760 -0.001804 -0.000673
# 4 -0.000646 0.003054 -0.006760 0.029052 0.004587 0.000387
# 5 -0.001944 0.001792 -0.001804 0.004587 0.028115 0.003648
# 6 0.000128 0.001731 -0.000673 0.000387 0.003648 0.027892
#
#
# Mechanical properties :
#
#
# Convention : Reuss Voigt Hill
#
# Bulk Modulus (GPa) = 53.84327 59.45274 56.64800
# Shear Modulus (GPa) = 31.26582 34.49439 32.88010
#
# Velocity S-wave (km/s) = 3.63892 3.82219 3.73168
# Velocity P-wave (km/s) = 6.36077 6.68269 6.52372
#
# Compressibility (1/GPa) = 0.01857242
#
# Stress axis : x y z
#
# Youngs Moduli (GPa) = 70.75027 74.92612 61.95659
#
# Poissons Ratio (x) = 0.30291 0.08815
# Poissons Ratio (y) = 0.28603 0.43734
# Poissons Ratio (z) = 0.10066 0.52889
#
# Static dielectric constant tensor:
#      x y z
#    x 4.282140 0.463080 -0.162230 
#    y 0.463080 4.909360 -0.371030 
#    z -0.162230 -0.371030 4.185430 
# 
# 
# High freq. dielectric constant tensor:
#      x y z
#    x 1.940280 0.012590 -0.007200 
#    y 0.012590 1.957260 -0.019440 
#    z -0.007200 -0.019440 1.933220 
# 
# From -- ./inp_files/364148.got.cif
#   From: 2010.06.25/outbox.cif.g09.slc.cpg/sg2_183_cif.got.tgz:364148.got - 2010.06.27 13:26:56.
