data_PCOD8036088
_publ_section_title
;
Structure prediction by ZEFSAII (Michael W. Deem and Ramdas Pophale) SiO2 
 PCOD8036088
Probable space group: P -1
;
_chemical_formula_sum "Si O2"
_cell_formula_units_Z 16
_cell_length_a 5.079156
_cell_length_b 25.161291
_cell_length_c 18.028519
_cell_angle_alpha 159.212256
_cell_angle_beta 57.040263
_cell_angle_gamma 122.931618
_cell_volume 681.344917
_symmetry_space_group_name_H-M "P -1"
_symmetry_group_IT_number 2
_symmetry_cell_setting 'triclinic'
loop_
_space_group_symop_operation_xyz
x,y,z
-x,-y,-z
loop_
_atom_site_type_symbol
_atom_site_label
_atom_site_fract_x
_atom_site_fract_y
_atom_site_fract_z
Si Si1 0.189936 0.302877 0.092228
Si Si2 0.158520 0.955002 0.627044
Si Si3 0.177749 0.458429 0.039485
Si Si4 0.491019 0.455183 0.750577
Si Si5 0.303885 0.148578 0.313392
Si Si6 0.165149 0.119963 0.574615
Si Si7 0.698562 0.885003 0.893145
Si Si8 0.521001 0.652990 0.739633
O O1 0.269752 0.133169 0.846893
O O2 0.424507 0.417837 0.158454
O O3 0.252643 0.352045 0.231364
O O4 0.825673 0.309452 0.135157
O O5 0.462173 0.870076 0.455937
O O6 0.018307 0.884316 0.633462
O O7 0.916212 0.921607 0.552482
O O8 0.255260 0.511460 0.180148
O O9 0.878485 0.539919 0.162795
O O10 0.500000 0.500000 0.000000
O O11 0.062328 0.281301 0.821462
O O12 0.529201 0.285227 0.495678
O O13 0.285709 0.203864 0.303152
O O14 0.410188 0.982166 0.075783
O O15 0.000000 0.000000 0.500000
O O16 0.703074 0.773984 0.815544
O O17 0.000000 0.000000 0.000000
O O18 0.500000 0.500000 0.500000
#
# Coordination Sequence:
#
# PCOD8036088 Si02
#       8
#     2   2   2   2   2   2   2   2
#     4  12  25  45  67 102 135 179 234 276 344 403
#     4  12  24  44  71 100 138 178 229 280 340 410
#     4  12  25  46  68 103 138 179 226 283 347 419
#     4  12  26  44  72  99 141 179 230 281 345 410
#     4  11  26  44  67 105 133 189 227 285 341 400
#     4  12  25  44  71 101 136 177 225 281 348 404
#     4  11  26  44  71  98 144 178 239 284 336 408
#     4  12  26  45  69  98 139 183 227 285 340 397
#
# _framework density 23.482968
#
# number of rings (size 3 to 8) (size 9 to 14) (size 15 to 20)
#    0.000    0.250    1.250    7.875    7.000    0.000 
#    0.000    0.000    0.000    0.000    0.000    0.000 
#    0.000    0.000    0.000    0.000    0.000    0.000 
#
# Total GULP energy -198431.824551 kJ/mol
# GULP energy per Si atom -12401.989034 kJ/mol
# Density = 2.342952 g / cm^3
# Si number density = 23.482968 Si / 1000 Ang^3
#
#
#
# Elastic Constant Matrix: (Units=GPa)
#
#
# Indices 1 2 3 4 5 6 
#
# 1 74.1943 -0.2898 3.7074 -8.3329 9.1720 6.2588
# 2 -0.2898 118.1590 9.2908 -2.7920 7.1576 7.9832
# 3 3.7074 9.2908 118.1298 6.3029 28.2279 -4.7138
# 4 -8.3329 -2.7920 6.3029 36.6926 3.4664 2.5608
# 5 9.1720 7.1576 28.2279 3.4664 40.4380 -6.2703
# 6 6.2588 7.9832 -4.7138 2.5608 -6.2703 34.4070
#
#
#
# Elastic Compliance Matrix: (Units=1/GPa)
#
#
# Indices 1 2 3 4 5 6 
#
# 1 0.014832 0.000663 0.000202 0.004094 -0.004588 -0.003965
# 2 0.000663 0.008826 -0.000426 0.001265 -0.001938 -0.002674
# 3 0.000202 -0.000426 0.010229 -0.001104 -0.006973 0.000275
# 4 0.004094 0.001265 -0.001104 0.029078 -0.003493 -0.003990
# 5 -0.004588 -0.001938 -0.006973 -0.003493 0.032284 0.006472
# 6 -0.003965 -0.002674 0.000275 -0.003990 0.006472 0.031920
#
#
# Mechanical properties :
#
#
# Convention : Reuss Voigt Hill
#
# Bulk Modulus (GPa) = 28.76420 37.32221 33.04320
# Shear Modulus (GPa) = 36.26381 42.15917 39.21149
#
# Velocity S-wave (km/s) = 3.93397 4.24170 4.09073
# Velocity P-wave (km/s) = 5.73676 6.31801 6.03439
#
# Compressibility (1/GPa) = 0.03476544
#
# Stress axis : x y z
#
# Youngs Moduli (GPa) = 67.42103 113.29781 97.76499
#
# Poissons Ratio (x) = -0.07513 -0.01976
# Poissons Ratio (y) = -0.04471 0.04165
# Poissons Ratio (z) = -0.01363 0.04827
#
# Static dielectric constant tensor:
#      x y z
#    x 3.589600 0.081600 -0.331630 
#    y 0.081600 4.354130 0.114190 
#    z -0.331630 0.114190 4.087450 
# 
# 
# High freq. dielectric constant tensor:
#      x y z
#    x 1.928650 0.000900 0.007110 
#    y 0.000900 1.945080 0.002710 
#    z 0.007110 0.002710 1.946520 
# 
# From -- ./inp_files/551444.got.cif
#   From: 2010.06.25/outbox.cif.g09.slc.cpg/sg2_276_cif.got.tgz:551444.got - 2010.06.27 13:26:56.
