data_PCOD8036138
_publ_section_title
;
Structure prediction by ZEFSAII (Michael W. Deem and Ramdas Pophale) SiO2 
 PCOD8036138
Probable space group: P -1
;
_chemical_formula_sum "Si O2"
_cell_formula_units_Z 16
_cell_length_a 14.924094
_cell_length_b 9.405220
_cell_length_c 9.023140
_cell_angle_alpha 67.223571
_cell_angle_beta 69.533460
_cell_angle_gamma 38.173338
_cell_volume 719.444108
_symmetry_space_group_name_H-M "P -1"
_symmetry_group_IT_number 2
_symmetry_cell_setting 'triclinic'
loop_
_space_group_symop_operation_xyz
x,y,z
-x,-y,-z
loop_
_atom_site_type_symbol
_atom_site_label
_atom_site_fract_x
_atom_site_fract_y
_atom_site_fract_z
Si Si1 0.216873 0.717632 0.172701
Si Si2 0.460608 0.280021 0.702454
Si Si3 0.971046 0.781257 0.342003
Si Si4 0.261874 0.994883 0.157544
Si Si5 0.992447 0.446437 0.292330
Si Si6 0.324748 0.132816 0.803198
Si Si7 0.488994 0.283667 0.337644
Si Si8 0.299949 0.714804 0.802453
O O1 0.339231 0.449207 0.266321
O O2 0.063486 0.821595 0.241703
O O3 0.220681 0.867189 0.208952
O O4 0.233068 0.732474 0.984639
O O5 0.420592 0.151850 0.812126
O O6 0.459159 0.310705 0.516856
O O7 0.331879 0.536012 0.745784
O O8 0.619025 0.131242 0.731914
O O9 0.992182 0.697527 0.529598
O O10 0.011825 0.597141 0.277639
O O11 0.804479 0.033011 0.315801
O O12 0.117170 0.265365 0.172817
O O13 0.325538 0.986956 0.972208
O O14 0.836325 0.611318 0.241263
O O15 0.401115 0.985425 0.666065
O O16 0.549238 0.379049 0.218744
#
# Coordination Sequence:
#
# PCOD8036138 Si02
#       8
#     2   2   2   2   2   2   2   2
#     4  12  26  44  72 103 135 181 222 281 340 398
#     4  12  28  42  73 103 133 182 228 280 334 401
#     4  11  26  45  72 100 135 180 225 278 338 401
#     4  12  26  45  70 102 140 175 227 281 334 402
#     4  11  26  46  70 100 138 177 225 279 336 404
#     4  12  26  47  69 101 138 182 223 280 339 399
#     4  12  24  47  70  97 141 176 227 280 338 398
#     4  12  24  47  70  98 140 177 227 279 337 398
#
# _framework density 22.239393
#
# number of rings (size 3 to 8) (size 9 to 14) (size 15 to 20)
#    0.000    0.250    3.750    4.500    8.750    0.500 
#    0.000    0.000    0.000    0.000    0.000    0.000 
#    0.000    0.000    0.000    0.000    0.000    0.000 
#
# Total GULP energy -198544.310535 kJ/mol
# GULP energy per Si atom -12409.019408 kJ/mol
# Density = 2.218878 g / cm^3
# Si number density = 22.239393 Si / 1000 Ang^3
#
#
#
# Elastic Constant Matrix: (Units=GPa)
#
#
# Indices 1 2 3 4 5 6 
#
# 1 108.6984 36.3479 25.2457 8.2491 -9.0054 15.8595
# 2 36.3479 112.4820 23.6236 6.0160 6.7805 13.3477
# 3 25.2457 23.6236 76.1967 -2.6848 -2.9617 9.0082
# 4 8.2491 6.0160 -2.6848 35.2925 -3.6032 9.4258
# 5 -9.0054 6.7805 -2.9617 -3.6032 17.5953 1.6861
# 6 15.8595 13.3477 9.0082 9.4258 1.6861 32.6262
#
#
#
# Elastic Compliance Matrix: (Units=1/GPa)
#
#
# Indices 1 2 3 4 5 6 
#
# 1 0.012096 -0.003373 -0.002209 -0.000568 0.007396 -0.004108
# 2 -0.003373 0.011158 -0.002486 -0.001597 -0.006634 -0.001435
# 3 -0.002209 -0.002486 0.015260 0.003316 0.003387 -0.003256
# 4 -0.000568 -0.001597 0.003316 0.032476 0.008473 -0.009807
# 5 0.007396 -0.006634 0.003387 0.008473 0.066217 -0.007686
# 6 -0.004108 -0.001435 -0.003256 -0.009807 -0.007686 0.037363
#
#
# Mechanical properties :
#
#
# Convention : Reuss Voigt Hill
#
# Bulk Modulus (GPa) = 44.68698 51.97906 48.33302
# Shear Modulus (GPa) = 25.23140 31.24678 28.23909
#
# Velocity S-wave (km/s) = 3.37194 3.75243 3.56726
# Velocity P-wave (km/s) = 5.94115 6.49596 6.22474
#
# Compressibility (1/GPa) = 0.02237788
#
# Stress axis : x y z
#
# Youngs Moduli (GPa) = 82.67298 89.62211 65.53068
#
# Poissons Ratio (x) = 0.30228 0.14474
# Poissons Ratio (y) = 0.27884 0.16294
# Poissons Ratio (z) = 0.18261 0.22284
#
# Static dielectric constant tensor:
#      x y z
#    x 4.095790 0.008490 -0.000880 
#    y 0.008490 4.063980 0.026710 
#    z -0.000880 0.026710 3.885690 
# 
# 
# High freq. dielectric constant tensor:
#      x y z
#    x 1.882920 -0.000050 0.000220 
#    y -0.000050 1.888090 0.000470 
#    z 0.000220 0.000470 1.881120 
# 
# From -- ./inp_files/184125.got.cif
#   From: 2010.06.25/outbox.cif.g09.slc.cpg/sg2_93_cif.got.tgz:184125.got - 2010.06.27 13:26:56.
