data_PCOD8036514
_publ_section_title
;
Structure prediction by ZEFSAII (Michael W. Deem and Ramdas Pophale) SiO2 
 PCOD8036514
Probable space group: P -1
;
_chemical_formula_sum "Si O2"
_cell_formula_units_Z 16
_cell_length_a 12.139606
_cell_length_b 7.739735
_cell_length_c 9.066617
_cell_angle_alpha 114.658826
_cell_angle_beta 111.104249
_cell_angle_gamma 77.888083
_cell_volume 720.477146
_symmetry_space_group_name_H-M "P -1"
_symmetry_group_IT_number 2
_symmetry_cell_setting 'triclinic'
loop_
_space_group_symop_operation_xyz
x,y,z
-x,-y,-z
loop_
_atom_site_type_symbol
_atom_site_label
_atom_site_fract_x
_atom_site_fract_y
_atom_site_fract_z
Si Si1 0.752437 0.114963 0.809810
Si Si2 0.717789 0.156677 0.463689
Si Si3 0.135155 0.626466 0.859377
Si Si4 0.464642 0.093715 0.363612
Si Si5 0.272335 0.399517 0.386862
Si Si6 0.095574 0.330140 0.528057
Si Si7 0.097058 0.931358 0.708467
Si Si8 0.103665 0.196389 0.066053
O O1 0.744435 0.107379 0.628280
O O2 0.635187 0.034421 0.800057
O O3 0.870338 0.990406 0.881929
O O4 0.766954 0.329719 0.953170
O O5 0.585724 0.104482 0.333090
O O6 0.732732 0.376905 0.519434
O O7 0.811936 0.031257 0.366690
O O8 0.150310 0.404273 0.735659
O O9 0.156869 0.763489 0.779427
O O10 0.004835 0.670703 0.877393
O O11 0.406932 0.309822 0.433229
O O12 0.500000 0.000000 0.500000
O O13 0.197974 0.301797 0.445518
O O14 0.214708 0.330763 0.180342
O O15 0.000000 0.500000 0.500000
O O16 0.027708 0.134971 0.442331
O O17 0.079695 0.128656 0.863131
#
# Coordination Sequence:
#
# PCOD8036514 Si02
#       8
#     2   2   2   2   2   2   2   2
#     4   9  20  34  57  80 110 152 185 229 277 330
#     4  11  20  37  57  85 115 140 192 242 276 319
#     4  10  17  34  56  80 114 156 185 217 275 349
#     4   9  21  38  60  81 108 150 194 232 277 335
#     4  11  19  35  63  84 109 150 189 229 280 337
#     4  10  17  31  57  87 113 143 189 222 275 342
#     4  10  18  31  57  84 114 145 187 228 267 336
#     4  10  19  34  59  82 113 157 188 213 282 348
#
# _framework density 22.207504
#
# number of rings (size 3 to 8) (size 9 to 14) (size 15 to 20)
#    0.000    2.000    5.000    1.875    1.750    0.000 
#    0.000   10.625    8.250    1.500    0.000    0.000 
#    0.000    0.000    0.000    0.000    0.000    0.000 
#
# Total GULP energy -198252.257224 kJ/mol
# GULP energy per Si atom -12390.766077 kJ/mol
# Density = 2.215696 g / cm^3
# Si number density = 22.207504 Si / 1000 Ang^3
#
#
#
# Elastic Constant Matrix: (Units=GPa)
#
#
# Indices 1 2 3 4 5 6 
#
# 1 132.1346 19.0859 54.8583 2.9197 -4.7109 14.7989
# 2 19.0859 32.6028 15.2375 9.9891 2.4656 1.2693
# 3 54.8583 15.2375 143.4201 24.9641 2.5940 7.7202
# 4 2.9197 9.9891 24.9641 19.9460 2.8349 0.9059
# 5 -4.7109 2.4656 2.5940 2.8349 26.0590 -2.0621
# 6 14.7989 1.2693 7.7202 0.9059 -2.0621 25.0027
#
#
#
# Elastic Compliance Matrix: (Units=1/GPa)
#
#
# Indices 1 2 3 4 5 6 
#
# 1 0.010789 -0.006374 -0.004473 0.007167 0.001840 -0.004789
# 2 -0.006374 0.040174 0.001806 -0.021142 -0.002697 0.001719
# 3 -0.004473 0.001806 0.010929 -0.013827 -0.000592 -0.000367
# 4 0.007167 -0.021142 -0.013827 0.077632 -0.003934 -0.002036
# 5 0.001840 -0.002697 -0.000592 -0.003934 0.039658 0.002644
# 6 -0.004789 0.001719 -0.000367 -0.002036 0.002644 0.043148
#
#
# Mechanical properties :
#
#
# Convention : Reuss Voigt Hill
#
# Bulk Modulus (GPa) = 22.82549 54.05787 38.44168
# Shear Modulus (GPa) = 19.60663 28.79993 24.20328
#
# Velocity S-wave (km/s) = 2.97456 3.60510 3.30490
# Velocity P-wave (km/s) = 4.70084 6.45941 5.64898
#
# Compressibility (1/GPa) = 0.04381066
#
# Stress axis : x y z
#
# Youngs Moduli (GPa) = 92.68437 24.89154 91.50248
#
# Poissons Ratio (x) = 0.15867 0.40926
# Poissons Ratio (y) = 0.59080 -0.16526
# Poissons Ratio (z) = 0.41454 -0.04496
#
# Static dielectric constant tensor:
#      x y z
#    x 4.385350 0.132990 0.425580 
#    y 0.132990 3.823030 0.384610 
#    z 0.425580 0.384610 4.684780 
# 
# 
# High freq. dielectric constant tensor:
#      x y z
#    x 1.862160 0.009310 0.014450 
#    y 0.009310 1.851100 0.018990 
#    z 0.014450 0.018990 1.873440 
# 
# From -- ./inp_files/241071.got.cif
#   From: 2010.06.25/outbox.cif.g09.slc.cpg/sg2_121_cif.got.tgz:241071.got - 2010.06.27 13:26:56.
