data_PCOD8036025
_publ_section_title
;
Structure prediction by ZEFSAII (Michael W. Deem and Ramdas Pophale) SiO2 
 PCOD8036025
Probable space group: P -1
;
_chemical_formula_sum "Si O2"
_cell_formula_units_Z 14
_cell_length_a 13.773749
_cell_length_b 5.474231
_cell_length_c 10.808456
_cell_angle_alpha 105.925342
_cell_angle_beta 46.316921
_cell_angle_gamma 95.296071
_cell_volume 561.175506
_symmetry_space_group_name_H-M "P -1"
_symmetry_group_IT_number 2
_symmetry_cell_setting 'triclinic'
loop_
_space_group_symop_operation_xyz
x,y,z
-x,-y,-z
loop_
_atom_site_type_symbol
_atom_site_label
_atom_site_fract_x
_atom_site_fract_y
_atom_site_fract_z
Si Si1 0.787159 0.909794 0.773721
Si Si2 0.234421 0.034284 0.467770
Si Si3 0.629984 0.480772 0.967426
Si Si4 0.894801 0.519859 0.208734
Si Si5 0.374191 0.721331 0.627296
Si Si6 0.960119 0.336261 0.394417
Si Si7 0.494818 0.124178 0.703075
O O1 0.818331 0.813418 0.590252
O O2 0.927064 0.920503 0.726854
O O3 0.719895 0.685780 0.865541
O O4 0.702850 0.193178 0.883327
O O5 0.177495 0.190604 0.661921
O O6 0.187229 0.751877 0.469393
O O7 0.398206 0.994310 0.302286
O O8 0.581113 0.592138 0.160835
O O9 0.500000 0.500000 0.000000
O O10 0.774521 0.359754 0.253820
O O11 0.972163 0.434566 0.256930
O O12 0.000000 0.500000 0.000000
O O13 0.500000 0.500000 0.500000
O O14 0.398353 0.867018 0.500183
O O15 0.383017 0.932972 0.756089
O O16 0.000000 0.500000 0.500000
#
# Coordination Sequence:
#
# PCOD8036025 Si02
#       7
#     2   2   2   2   2   2   2
#     4  12  28  47  79 124 163 215 265 342 429 500
#     4  12  25  49  81 112 161 215 275 337 426 501
#     4  12  28  46  79 122 163 203 275 353 415 495
#     4  12  29  50  82 121 167 218 283 350 416 502
#     4  11  25  49  78 109 156 220 284 335 421 504
#     4  12  27  51  81 116 162 219 275 339 419 514
#     4  11  26  47  79 112 156 218 274 345 418 497
#
# _framework density 24.947631000000001
#
# number of rings (size 3 to 8) (size 9 to 14) (size 15 to 20)
#    0.000    0.286    5.714    1.714    6.000    2.857 
#    0.000    0.000    0.000    0.000    0.000    0.000 
#    0.000    0.000    0.000    0.000    0.000    0.000 
#
# Total GULP energy -173472.606770 kJ/mol
# GULP energy per Si atom -12390.900484 kJ/mol
# Density = 2.489085 g / cm^3
# Si number density = 24.947631 Si / 1000 Ang^3
#
#
#
# Elastic Constant Matrix: (Units=GPa)
#
#
# Indices 1 2 3 4 5 6 
#
# 1 158.5304 66.5317 66.7968 5.7432 -3.5571 11.7463
# 2 66.5317 123.3668 51.2419 5.9872 -4.3567 20.5840
# 3 66.7968 51.2419 130.0964 7.8657 1.4626 13.4032
# 4 5.7432 5.9872 7.8657 49.9909 -0.7234 -0.6837
# 5 -3.5571 -4.3567 1.4626 -0.7234 30.6062 1.8304
# 6 11.7463 20.5840 13.4032 -0.6837 1.8304 54.7769
#
#
#
# Elastic Compliance Matrix: (Units=1/GPa)
#
#
# Indices 1 2 3 4 5 6 
#
# 1 0.009230 -0.003585 -0.003346 -0.000092 0.000710 0.000162
# 2 -0.003585 0.011635 -0.002405 -0.000623 0.001524 -0.003074
# 3 -0.003346 -0.002405 0.010522 -0.001013 -0.001203 -0.000926
# 4 -0.000092 -0.000623 -0.001013 0.020264 0.000384 0.000742
# 5 0.000710 0.001524 -0.001203 0.000384 0.033131 -0.001533
# 6 0.000162 -0.003074 -0.000926 0.000742 -0.001533 0.019663
#
#
# Mechanical properties :
#
#
# Convention : Reuss Voigt Hill
#
# Bulk Modulus (GPa) = 78.64766 86.79270 82.72018
# Shear Modulus (GPa) = 39.26044 42.23636 40.74840
#
# Velocity S-wave (km/s) = 3.97131 4.11907 4.04587
# Velocity P-wave (km/s) = 7.25410 7.58207 7.41990
#
# Compressibility (1/GPa) = 0.01271494
#
# Stress axis : x y z
#
# Youngs Moduli (GPa) = 108.34665 85.94607 95.04036
#
# Poissons Ratio (x) = 0.30814 0.31799
# Poissons Ratio (y) = 0.38845 0.22855
# Poissons Ratio (z) = 0.36251 0.20668
#
# Static dielectric constant tensor:
#      x y z
#    x 3.964020 -0.454400 0.772570 
#    y -0.454400 4.454420 0.490160 
#    z 0.772570 0.490160 4.161710 
# 
# 
# High freq. dielectric constant tensor:
#      x y z
#    x 2.019540 -0.000590 -0.004340 
#    y -0.000590 1.998800 0.009860 
#    z -0.004340 0.009860 1.989040 
# 
# From -- ./inp_files/442112.got.cif
#   From: 2010.06.25/outbox.cif.g09.slc.cpg/sg2_222_cif.got.tgz:442112.got - 2010.06.27 13:26:56.
