data_PCOD8036767
_publ_section_title
;
Structure prediction by ZEFSAII (Michael W. Deem and Ramdas Pophale) SiO2 
 PCOD8036767
Probable space group: P -1
;
_chemical_formula_sum "Si O2"
_cell_formula_units_Z 16
_cell_length_a 11.489531
_cell_length_b 9.536033
_cell_length_c 17.658714
_cell_angle_alpha 51.379967
_cell_angle_beta 29.332503
_cell_angle_gamma 58.635536
_cell_volume 739.102362
_symmetry_space_group_name_H-M "P -1"
_symmetry_group_IT_number 2
_symmetry_cell_setting 'triclinic'
loop_
_space_group_symop_operation_xyz
x,y,z
-x,-y,-z
loop_
_atom_site_type_symbol
_atom_site_label
_atom_site_fract_x
_atom_site_fract_y
_atom_site_fract_z
Si Si1 0.554894 0.805383 0.010320
Si Si2 0.024387 0.691880 0.572846
Si Si3 0.926697 0.174004 0.340405
Si Si4 0.662793 0.811240 0.620563
Si Si5 0.862718 0.503005 0.156090
Si Si6 0.714421 0.376789 0.901366
Si Si7 0.577446 0.450440 0.699878
Si Si8 0.148244 0.826086 0.965316
O O1 0.788861 0.823489 0.820488
O O2 0.332462 0.727087 0.114883
O O3 0.585677 0.667348 0.108387
O O4 0.500000 0.000000 0.000000
O O5 0.789741 0.773529 0.641910
O O6 0.956457 0.498313 0.713291
O O7 0.141298 0.805763 0.538669
O O8 0.210580 0.669847 0.406811
O O9 0.859411 0.326201 0.268997
O O10 0.801679 0.985774 0.445369
O O11 0.679025 0.638076 0.615619
O O12 0.386114 0.856963 0.769360
O O13 0.584704 0.518911 0.291297
O O14 0.000000 0.500000 0.000000
O O15 0.970908 0.671412 0.084515
O O16 0.500000 0.500000 0.000000
O O17 0.755101 0.228802 0.990280
O O18 0.000000 0.000000 0.000000
#
# Coordination Sequence:
#
# PCOD8036767 Si02
#       8
#     2   2   2   2   2   2   2   2
#     4  12  25  43  72 107 139 189 241 290 354 428
#     4  12  25  45  75 108 142 182 243 303 355 414
#     4  12  26  45  73 104 142 189 235 294 363 426
#     4  12  25  47  72 108 145 182 239 306 358 417
#     4  12  25  51  71  97 145 196 237 285 361 435
#     4  12  22  47  76 101 145 195 242 291 356 426
#     4  12  27  46  73 103 147 187 234 300 357 424
#     4  12  27  46  75 107 145 193 241 296 359 432
#
# _framework density 21.647881999999999
#
# number of rings (size 3 to 8) (size 9 to 14) (size 15 to 20)
#    0.000    0.000    7.500    1.500    5.250    2.000 
#    0.000    0.000    0.000    0.000    0.000    0.000 
#    0.000    0.000    0.000    0.000    0.000    0.000 
#
# Total GULP energy -198416.322753 kJ/mol
# GULP energy per Si atom -12401.020172 kJ/mol
# Density = 2.159861 g / cm^3
# Si number density = 21.647882 Si / 1000 Ang^3
#
#
#
# Elastic Constant Matrix: (Units=GPa)
#
#
# Indices 1 2 3 4 5 6 
#
# 1 125.2584 53.9931 25.0904 -9.3553 1.4831 -10.8853
# 2 53.9931 137.8933 44.1678 -14.2423 4.4909 -2.6831
# 3 25.0904 44.1678 100.9342 -16.0265 -0.5527 3.1199
# 4 -9.3553 -14.2423 -16.0265 44.8297 1.9279 -0.1224
# 5 1.4831 4.4909 -0.5527 1.9279 31.1614 -0.1522
# 6 -10.8853 -2.6831 3.1199 -0.1224 -0.1522 33.8316
#
#
#
# Elastic Compliance Matrix: (Units=1/GPa)
#
#
# Indices 1 2 3 4 5 6 
#
# 1 0.009985 -0.003479 -0.000951 0.000648 -0.000016 0.003027
# 2 -0.003479 0.009829 -0.003236 0.001299 -0.001389 -0.000043
# 3 -0.000951 -0.003236 0.012102 0.003073 0.000528 -0.001665
# 4 0.000648 0.001299 0.003073 0.024024 -0.001649 0.000108
# 5 -0.000016 -0.001389 0.000528 -0.001649 0.032403 -0.000024
# 6 0.003027 -0.000043 -0.001665 0.000108 -0.000024 0.030682
#
#
# Mechanical properties :
#
#
# Convention : Reuss Voigt Hill
#
# Bulk Modulus (GPa) = 60.29596 67.84316 64.06956
# Shear Modulus (GPa) = 35.74315 38.02018 36.88166
#
# Velocity S-wave (km/s) = 4.06780 4.19537 4.13208
# Velocity P-wave (km/s) = 7.06938 7.40781 7.24057
#
# Compressibility (1/GPa) = 0.01658486
#
# Stress axis : x y z
#
# Youngs Moduli (GPa) = 100.14912 101.73514 82.62950
#
# Poissons Ratio (x) = 0.35393 0.07854
# Poissons Ratio (y) = 0.34842 0.26742
# Poissons Ratio (z) = 0.09520 0.32926
#
# Static dielectric constant tensor:
#      x y z
#    x 4.030410 -0.150230 -0.213590 
#    y -0.150230 4.166950 0.289730 
#    z -0.213590 0.289730 4.639340 
# 
# 
# High freq. dielectric constant tensor:
#      x y z
#    x 1.858310 0.003940 -0.004490 
#    y 0.003940 1.851250 -0.009870 
#    z -0.004490 -0.009870 1.855270 
# 
# From -- ./inp_files/188320.got.cif
#   From: 2010.06.25/outbox.cif.g09.slc.cpg/sg2_95_cif.got.tgz:188320.got - 2010.06.27 13:26:56.
