data_PCOD8036434
_publ_section_title
;
Structure prediction by ZEFSAII (Michael W. Deem and Ramdas Pophale) SiO2 
 PCOD8036434
Probable space group: P -1
;
_chemical_formula_sum "Si O2"
_cell_formula_units_Z 14
_cell_length_a 19.837251
_cell_length_b 13.937776
_cell_length_c 11.345837
_cell_angle_alpha 159.285639
_cell_angle_beta 138.450903
_cell_angle_gamma 33.663007
_cell_volume 607.746257
_symmetry_space_group_name_H-M "P -1"
_symmetry_group_IT_number 2
_symmetry_cell_setting 'triclinic'
loop_
_space_group_symop_operation_xyz
x,y,z
-x,-y,-z
loop_
_atom_site_type_symbol
_atom_site_label
_atom_site_fract_x
_atom_site_fract_y
_atom_site_fract_z
Si Si1 0.918101 0.035260 0.323788
Si Si2 0.790336 0.313553 0.088858
Si Si3 0.568015 0.179761 0.301331
Si Si4 0.759598 0.789921 0.929573
Si Si5 0.412909 0.115898 0.387122
Si Si6 0.564140 0.373694 0.785009
Si Si7 0.992975 0.232238 0.111726
O O1 0.854387 0.399238 0.606423
O O2 0.000000 0.000000 0.500000
O O3 0.818097 0.971303 0.161060
O O4 0.999245 0.766363 0.018620
O O5 0.704956 0.684156 0.451634
O O6 0.862845 0.287420 0.035096
O O7 0.704018 0.182834 0.798015
O O8 0.889138 0.115834 0.093198
O O9 0.500000 0.500000 0.500000
O O10 0.571465 0.265408 0.537805
O O11 0.500000 0.000000 0.000000
O O12 0.709250 0.930567 0.156130
O O13 0.636250 0.909364 0.832079
O O14 0.480957 0.303061 0.675039
O O15 0.507971 0.762125 0.162087
O O16 0.000000 0.500000 0.500000
#
# Coordination Sequence:
#
# PCOD8036434 Si02
#       7
#     2   2   2   2   2   2   2
#     4  12  28  48  75 106 138 190 247 295 356 421
#     4  11  27  45  72 104 142 187 241 297 354 426
#     4  12  23  43  66 103 140 184 226 282 354 425
#     4  12  24  46  74  99 147 185 230 293 361 427
#     4  12  24  46  72 105 141 187 230 287 362 427
#     4  12  26  43  72 107 143 182 240 289 352 433
#     4  11  27  49  74 101 145 194 241 300 364 415
#
# _framework density 23.035928999999999
#
# number of rings (size 3 to 8) (size 9 to 14) (size 15 to 20)
#    0.000    0.286    4.286    3.857    8.000    1.143 
#    0.000    0.000    0.000    0.000    0.000    0.000 
#    0.000    0.000    0.000    0.000    0.000    0.000 
#
# Total GULP energy -173639.701930 kJ/mol
# GULP energy per Si atom -12402.835852 kJ/mol
# Density = 2.298350 g / cm^3
# Si number density = 23.035929 Si / 1000 Ang^3
#
#
#
# Elastic Constant Matrix: (Units=GPa)
#
#
# Indices 1 2 3 4 5 6 
#
# 1 153.5394 53.4118 56.3603 -4.5498 -16.3876 -16.6078
# 2 53.4118 96.7764 30.7519 -8.7114 0.8468 -15.6272
# 3 56.3603 30.7519 121.4072 -2.5905 -7.5425 -5.6996
# 4 -4.5498 -8.7114 -2.5905 30.7465 -2.4984 3.1146
# 5 -16.3876 0.8468 -7.5425 -2.4984 56.0801 -2.6600
# 6 -16.6078 -15.6272 -5.6996 3.1146 -2.6600 40.3734
#
#
#
# Elastic Compliance Matrix: (Units=1/GPa)
#
#
# Indices 1 2 3 4 5 6 
#
# 1 0.009549 -0.003938 -0.003179 0.000020 0.002524 0.002120
# 2 -0.003938 0.013769 -0.001531 0.002761 -0.001290 0.003195
# 3 -0.003179 -0.001531 0.010107 0.000028 0.000434 -0.000447
# 4 0.000020 0.002761 0.000028 0.033569 0.001396 -0.001417
# 5 0.002524 -0.001290 0.000434 0.001396 0.018791 0.001730
# 6 0.002120 0.003195 -0.000447 -0.001417 0.001730 0.027038
#
#
# Mechanical properties :
#
#
# Convention : Reuss Voigt Hill
#
# Bulk Modulus (GPa) = 61.99789 72.53010 67.26400
# Shear Modulus (GPa) = 36.90223 40.85326 38.87775
#
# Velocity S-wave (km/s) = 4.00677 4.21581 4.11262
# Velocity P-wave (km/s) = 6.95540 7.43313 7.19823
#
# Compressibility (1/GPa) = 0.01612958
#
# Stress axis : x y z
#
# Youngs Moduli (GPa) = 104.72328 72.62819 98.94516
#
# Poissons Ratio (x) = 0.28602 0.31451
# Poissons Ratio (y) = 0.41241 0.15145
# Poissons Ratio (z) = 0.33288 0.11117
#
# Static dielectric constant tensor:
#      x y z
#    x 2.896320 0.042500 -1.124800 
#    y 0.042500 4.218320 -0.048050 
#    z -1.124800 -0.048050 3.661160 
# 
# 
# High freq. dielectric constant tensor:
#      x y z
#    x 1.928920 -0.001620 -0.012900 
#    y -0.001620 1.909610 -0.009030 
#    z -0.012900 -0.009030 1.924510 
# 
# From -- ./inp_files/28168.got.cif
#   From: 2010.06.25/outbox.cif.g09.slc.cpg/sg2_15_cif.got.tgz:28168.got - 2010.06.27 13:26:56.
