data_PCOD8036945
_publ_section_title
;
Structure prediction by ZEFSAII (Michael W. Deem and Ramdas Pophale) SiO2 
 PCOD8036945
Probable space group: P -1
;
_chemical_formula_sum "Si O2"
_cell_formula_units_Z 16
_cell_length_a 9.849021
_cell_length_b 12.078295
_cell_length_c 8.769230
_cell_angle_alpha 96.302513
_cell_angle_beta 96.367342
_cell_angle_gamma 41.994714
_cell_volume 693.060918
_symmetry_space_group_name_H-M "P -1"
_symmetry_group_IT_number 2
_symmetry_cell_setting 'triclinic'
loop_
_space_group_symop_operation_xyz
x,y,z
-x,-y,-z
loop_
_atom_site_type_symbol
_atom_site_label
_atom_site_fract_x
_atom_site_fract_y
_atom_site_fract_z
Si Si1 0.310589 0.637176 0.392711
Si Si2 0.212995 0.303145 0.659369
Si Si3 0.276353 0.126758 0.926720
Si Si4 0.218504 0.922730 0.984512
Si Si5 0.574435 0.556772 0.919673
Si Si6 0.057818 0.592505 0.858054
Si Si7 0.954025 0.773914 0.579152
Si Si8 0.363025 0.854986 0.327522
O O1 0.500000 0.500000 0.500000
O O2 0.316643 0.551713 0.235528
O O3 0.299433 0.771858 0.362616
O O4 0.114136 0.729329 0.478664
O O5 0.282214 0.162225 0.758694
O O6 0.051367 0.479524 0.750910
O O7 0.113999 0.307099 0.499226
O O8 0.401827 0.264928 0.622785
O O9 0.186556 0.055535 0.906268
O O10 0.134329 0.291466 0.036545
O O11 0.500000 0.000000 0.000000
O O12 0.374059 0.750629 0.883000
O O13 0.331636 0.883175 0.148196
O O14 0.000000 0.000000 0.000000
O O15 0.500000 0.500000 0.000000
O O16 0.735071 0.526979 0.037592
O O17 0.042886 0.703713 0.750829
O O18 0.767573 0.971338 0.581578
#
# Coordination Sequence:
#
# PCOD8036945 Si02
#       8
#     2   2   2   2   2   2   2   2
#     4  12  28  46  72 109 145 187 239 290 361 431
#     4  12  25  46  71 105 141 187 246 296 360 422
#     4  12  24  44  70 106 139 187 242 297 352 423
#     4  12  26  43  77 104 141 185 240 291 365 418
#     4  12  23  45  74 103 142 188 235 294 354 424
#     4  12  24  46  72 102 148 189 239 298 354 423
#     4  12  27  45  73 104 144 194 236 294 364 427
#     4  12  25  49  71 102 147 188 235 302 355 427
#
# _framework density 23.085993999999999
#
# number of rings (size 3 to 8) (size 9 to 14) (size 15 to 20)
#    0.000    0.000    5.000    4.500    3.500    2.000 
#    0.000    1.250    0.000    0.000    0.000    0.000 
#    0.000    0.000    0.000    0.000    0.000    0.000 
#
# Total GULP energy -198512.479485 kJ/mol
# GULP energy per Si atom -12407.029968 kJ/mol
# Density = 2.303345 g / cm^3
# Si number density = 23.085994 Si / 1000 Ang^3
#
#
#
# Elastic Constant Matrix: (Units=GPa)
#
#
# Indices 1 2 3 4 5 6 
#
# 1 112.0768 22.0311 17.6648 7.2038 3.4304 -9.8419
# 2 22.0311 111.8655 12.3697 17.4950 8.9238 -3.4622
# 3 17.6648 12.3697 83.6772 4.7685 -0.1616 -1.1438
# 4 7.2038 17.4950 4.7685 40.3542 3.3809 -2.3205
# 5 3.4304 8.9238 -0.1616 3.3809 37.2289 4.3534
# 6 -9.8419 -3.4622 -1.1438 -2.3205 4.3534 42.8113
#
#
#
# Elastic Compliance Matrix: (Units=1/GPa)
#
#
# Indices 1 2 3 4 5 6 
#
# 1 0.009747 -0.001490 -0.001770 -0.000702 -0.000731 0.002109
# 2 -0.001490 0.010108 -0.000960 -0.003810 -0.001996 0.000446
# 3 -0.001770 -0.000960 0.012510 -0.000806 0.000550 -0.000250
# 4 -0.000702 -0.003810 -0.000806 0.026851 -0.001596 0.001127
# 5 -0.000731 -0.001996 0.000550 -0.001596 0.027933 -0.003242
# 6 0.002109 0.000446 -0.000250 0.001127 -0.003242 0.024263
#
#
# Mechanical properties :
#
#
# Convention : Reuss Voigt Hill
#
# Bulk Modulus (GPa) = 41.79971 45.75010 43.77491
# Shear Modulus (GPa) = 39.11498 41.11583 40.11540
#
# Velocity S-wave (km/s) = 4.12067 4.22475 4.17304
# Velocity P-wave (km/s) = 6.38634 6.60744 6.49783
#
# Compressibility (1/GPa) = 0.02392361
#
# Stress axis : x y z
#
# Youngs Moduli (GPa) = 102.59418 98.93308 79.93683
#
# Poissons Ratio (x) = 0.14746 0.14148
# Poissons Ratio (y) = 0.15291 0.07676
# Poissons Ratio (z) = 0.18158 0.09500
#
# Static dielectric constant tensor:
#      x y z
#    x -0.403600 -1.146910 -1.500130 
#    y -1.146910 4.420350 -0.302330 
#    z -1.500130 -0.302330 3.936790 
# 
# 
# High freq. dielectric constant tensor:
#      x y z
#    x 1.918790 0.000410 -0.003670 
#    y 0.000410 1.931520 0.004680 
#    z -0.003670 0.004680 1.911280 
# 
# From -- ./inp_files/188655.got.cif
#   From: 2010.06.25/outbox.cif.g09.slc.cpg/sg2_95_cif.got.tgz:188655.got - 2010.06.27 13:26:56.
