data_PCOD8036349
_publ_section_title
;
Structure prediction by ZEFSAII (Michael W. Deem and Ramdas Pophale) SiO2 
 PCOD8036349
Probable space group: P -1
;
_chemical_formula_sum "Si O2"
_cell_formula_units_Z 8
_cell_length_a 5.420772
_cell_length_b 12.104550
_cell_length_c 6.987060
_cell_angle_alpha 51.341684
_cell_angle_beta 77.939156
_cell_angle_gamma 62.418352
_cell_volume 315.178283
_symmetry_space_group_name_H-M "P -1"
_symmetry_group_IT_number 2
_symmetry_cell_setting 'triclinic'
loop_
_space_group_symop_operation_xyz
x,y,z
-x,-y,-z
loop_
_atom_site_type_symbol
_atom_site_label
_atom_site_fract_x
_atom_site_fract_y
_atom_site_fract_z
Si Si1 0.335204 0.178271 0.618174
Si Si2 0.441167 0.365038 0.058985
Si Si3 0.694172 0.120511 0.981056
Si Si4 0.814747 0.456147 0.435518
O O1 0.399896 0.254131 0.339519
O O2 0.493510 0.213101 0.735373
O O3 0.992197 0.265796 0.599280
O O4 0.437447 0.991813 0.782138
O O5 0.500000 0.500000 0.000000
O O6 0.689416 0.246687 0.004189
O O7 0.177503 0.459322 0.858500
O O8 0.000000 0.000000 0.000000
O O9 0.500000 0.500000 0.500000
O O10 0.000000 0.500000 0.500000
#
# Coordination Sequence:
#
# PCOD8036349 Si02
#       4
#     2   2   2   2
#     4  11  26  48  76 114 155 211 265 326 399 475
#     4  12  27  48  81 119 157 206 269 331 399 477
#     4  11  26  51  78 108 163 209 262 328 399 478
#     4  12  25  49  80 114 162 210 264 330 407 476
#
# _framework density 25.382459999999998
#
# number of rings (size 3 to 8) (size 9 to 14) (size 15 to 20)
#    0.000    0.500    2.500    4.500    3.500    1.000 
#    9.000    0.000    0.000    0.000    0.000    0.000 
#    0.000    0.000    0.000    0.000    0.000    0.000 
#
# Total GULP energy -99123.547428 kJ/mol
# GULP energy per Si atom -12390.443429 kJ/mol
# Density = 2.532469 g / cm^3
# Si number density = 25.382460 Si / 1000 Ang^3
#
#
#
# Elastic Constant Matrix: (Units=GPa)
#
#
# Indices 1 2 3 4 5 6 
#
# 1 133.3253 63.3379 61.6887 8.2687 28.2690 -8.9168
# 2 63.3379 195.6089 62.5724 7.1923 16.6896 7.4161
# 3 61.6887 62.5724 213.9171 -7.5236 34.4694 0.5238
# 4 8.2687 7.1923 -7.5236 40.6353 2.2323 6.7395
# 5 28.2690 16.6896 34.4694 2.2323 34.9760 -6.0677
# 6 -8.9168 7.4161 0.5238 6.7395 -6.0677 58.6555
#
#
#
# Elastic Compliance Matrix: (Units=1/GPa)
#
#
# Indices 1 2 3 4 5 6 
#
# 1 0.010844 -0.002521 -0.001560 -0.002011 -0.005613 0.001632
# 2 -0.002521 0.006364 -0.001152 -0.000643 -0.000014 -0.001105
# 3 -0.001560 -0.001152 0.006290 0.002087 -0.004673 -0.000871
# 4 -0.002011 -0.000643 0.002087 0.026232 -0.002407 -0.003506
# 5 -0.005613 -0.000014 -0.004673 -0.002407 0.038491 0.003449
# 6 0.001632 -0.001105 -0.000871 -0.003506 0.003449 0.018204
#
#
# Mechanical properties :
#
#
# Convention : Reuss Voigt Hill
#
# Bulk Modulus (GPa) = 76.73853 102.00549 89.37201
# Shear Modulus (GPa) = 41.24211 50.53684 45.88948
#
# Velocity S-wave (km/s) = 4.03529 4.46692 4.25658
# Velocity P-wave (km/s) = 7.21179 8.17797 7.71003
#
# Compressibility (1/GPa) = 0.01303126
#
# Stress axis : x y z
#
# Youngs Moduli (GPa) = 92.21754 157.13692 158.98259
#
# Poissons Ratio (x) = 0.39618 0.24802
# Poissons Ratio (y) = 0.23250 0.18315
# Poissons Ratio (z) = 0.14386 0.18102
#
# Static dielectric constant tensor:
#      x y z
#    x 4.354100 -0.041520 0.292890 
#    y -0.041520 5.306520 -0.684150 
#    z 0.292890 -0.684150 5.747380 
# 
# 
# High freq. dielectric constant tensor:
#      x y z
#    x 1.996340 0.002030 0.003240 
#    y 0.002030 2.031920 -0.027350 
#    z 0.003240 -0.027350 2.050240 
# 
# From -- ./inp_files/1379.got.cif
#   From: 2010.06.25/outbox.cif.g09.slc.cpg/sg2_1_cif.got.tgz:1379.got - 2010.06.27 13:26:56.
