data_PCOD8036623
_publ_section_title
;
Structure prediction by ZEFSAII (Michael W. Deem and Ramdas Pophale) SiO2 
 PCOD8036623
Probable space group: P -1
;
_chemical_formula_sum "Si O2"
_cell_formula_units_Z 16
_cell_length_a 11.890366
_cell_length_b 8.311650
_cell_length_c 15.263711
_cell_angle_alpha 78.736559
_cell_angle_beta 153.116318
_cell_angle_gamma 95.307619
_cell_volume 657.519678
_symmetry_space_group_name_H-M "P -1"
_symmetry_group_IT_number 2
_symmetry_cell_setting 'triclinic'
loop_
_space_group_symop_operation_xyz
x,y,z
-x,-y,-z
loop_
_atom_site_type_symbol
_atom_site_label
_atom_site_fract_x
_atom_site_fract_y
_atom_site_fract_z
Si Si1 0.718301 0.862167 0.486904
Si Si2 0.497246 0.337105 0.769616
Si Si3 0.810432 0.133210 0.409036
Si Si4 0.287339 0.281034 0.970617
Si Si5 0.788586 0.612076 0.902539
Si Si6 0.758250 0.974328 0.779736
Si Si7 0.910583 0.054783 0.138357
Si Si8 0.842005 0.638881 0.314381
O O1 0.724912 0.701792 0.445246
O O2 0.000160 0.856517 0.722135
O O3 0.640281 0.032995 0.359628
O O4 0.482738 0.877873 0.388208
O O5 0.551522 0.516539 0.758787
O O6 0.423632 0.317868 0.822612
O O7 0.745111 0.194035 0.946371
O O8 0.991008 0.217735 0.587028
O O9 0.594610 0.263669 0.193712
O O10 0.000000 0.000000 0.500000
O O11 0.206144 0.400843 0.816899
O O12 0.229985 0.098533 0.925347
O O13 0.136456 0.357830 0.945846
O O14 0.698563 0.788966 0.774854
O O15 0.000000 0.500000 0.000000
O O16 0.823770 0.002632 0.721347
O O17 0.000000 0.000000 0.000000
O O18 0.000000 0.500000 0.500000
#
# Coordination Sequence:
#
# PCOD8036623 Si02
#       8
#     2   2   2   2   2   2   2   2
#     4  12  24  43  72 104 141 185 241 295 353 430
#     4  12  26  45  70 106 148 187 232 306 361 428
#     4  12  23  44  72 106 141 186 244 300 351 434
#     4  12  26  47  78 104 143 200 243 298 372 425
#     4  12  24  45  76 103 144 190 234 297 365 432
#     4  12  21  46  74 102 145 185 238 300 360 429
#     4  12  24  43  75 109 137 187 245 295 366 432
#     4  12  29  47  70 105 151 192 245 300 362 436
#
# _framework density 24.333870999999998
#
# number of rings (size 3 to 8) (size 9 to 14) (size 15 to 20)
#    0.000    0.000    8.750    1.125    1.750    4.000 
#    0.000    0.625    0.000    0.000    0.000    0.000 
#    0.000    0.000    0.000    0.000    0.000    0.000 
#
# Total GULP energy -198239.388205 kJ/mol
# GULP energy per Si atom -12389.961763 kJ/mol
# Density = 2.427849 g / cm^3
# Si number density = 24.333871 Si / 1000 Ang^3
#
#
#
# Elastic Constant Matrix: (Units=GPa)
#
#
# Indices 1 2 3 4 5 6 
#
# 1 121.9599 15.6646 32.4692 4.3667 -1.3558 -13.0805
# 2 15.6646 93.2133 16.7260 24.5287 -5.9852 8.4236
# 3 32.4692 16.7260 93.2956 13.8951 -9.9073 -11.3447
# 4 4.3667 24.5287 13.8951 41.1471 -2.2021 3.4716
# 5 -1.3558 -5.9852 -9.9073 -2.2021 38.0542 3.9618
# 6 -13.0805 8.4236 -11.3447 3.4716 3.9618 45.8545
#
#
#
# Elastic Compliance Matrix: (Units=1/GPa)
#
#
# Indices 1 2 3 4 5 6 
#
# 1 0.009373 -0.001478 -0.002908 0.000633 -0.000853 0.002252
# 2 -0.001478 0.013393 -0.000971 -0.007180 0.001669 -0.002723
# 3 -0.002908 -0.000971 0.013041 -0.003595 0.002658 0.002618
# 4 0.000633 -0.007180 -0.003595 0.029861 -0.000144 -0.001638
# 5 -0.000853 0.001669 0.002658 -0.000144 0.027429 -0.002251
# 6 0.002252 -0.002723 0.002618 -0.001638 -0.002251 0.023917
#
#
# Mechanical properties :
#
#
# Convention : Reuss Voigt Hill
#
# Bulk Modulus (GPa) = 39.85292 48.68761 44.27027
# Shear Modulus (GPa) = 36.73988 41.25175 38.99582
#
# Velocity S-wave (km/s) = 3.88986 4.12180 4.00751
# Velocity P-wave (km/s) = 6.04879 6.53482 6.29649
#
# Compressibility (1/GPa) = 0.02509226
#
# Stress axis : x y z
#
# Youngs Moduli (GPa) = 106.69149 74.66349 76.68226
#
# Poissons Ratio (x) = 0.11036 0.22300
# Poissons Ratio (y) = 0.15770 0.07448
# Poissons Ratio (z) = 0.31027 0.07252
#
# Static dielectric constant tensor:
#      x y z
#    x 4.407750 -0.338870 -0.218560 
#    y -0.338870 4.459650 0.256170 
#    z -0.218560 0.256170 4.139830 
# 
# 
# High freq. dielectric constant tensor:
#      x y z
#    x 1.979740 -0.001770 0.006240 
#    y -0.001770 1.965530 0.021050 
#    z 0.006240 0.021050 1.951880 
# 
# From -- ./inp_files/515558.got.cif
#   From: 2010.06.25/outbox.cif.g09.slc.cpg/sg2_258_cif.got.tgz:515558.got - 2010.06.27 13:26:56.
