data_PCOD8036313
_publ_section_title
;
Structure prediction by ZEFSAII (Michael W. Deem and Ramdas Pophale) SiO2 
 PCOD8036313
Probable space group: P -1
;
_chemical_formula_sum "Si O2"
_cell_formula_units_Z 16
_cell_length_a 11.618152
_cell_length_b 14.013762
_cell_length_c 14.754344
_cell_angle_alpha 141.597515
_cell_angle_beta 148.243753
_cell_angle_gamma 58.813210
_cell_volume 699.646833
_symmetry_space_group_name_H-M "P -1"
_symmetry_group_IT_number 2
_symmetry_cell_setting 'triclinic'
loop_
_space_group_symop_operation_xyz
x,y,z
-x,-y,-z
loop_
_atom_site_type_symbol
_atom_site_label
_atom_site_fract_x
_atom_site_fract_y
_atom_site_fract_z
Si Si1 0.378840 0.611518 0.727898
Si Si2 0.939923 0.864224 0.281005
Si Si3 0.196999 0.161278 0.559976
Si Si4 0.159339 0.624455 0.277019
Si Si5 0.696777 0.743747 0.661823
Si Si6 0.957253 0.901959 0.787782
Si Si7 0.722462 0.286493 0.074320
Si Si8 0.006143 0.417643 0.667306
O O1 0.265307 0.420405 0.465321
O O2 0.288784 0.600907 0.763155
O O3 0.250324 0.701842 0.646764
O O4 0.669610 0.707731 0.986247
O O5 0.142674 0.800016 0.384149
O O6 0.000000 0.000000 0.500000
O O7 0.982092 0.969413 0.294204
O O8 0.160857 0.310268 0.700643
O O9 0.181489 0.190742 0.465314
O O10 0.448111 0.164252 0.764723
O O11 0.441161 0.670864 0.488277
O O12 0.055568 0.536991 0.240094
O O13 0.000000 0.500000 0.000000
O O14 0.734372 0.851378 0.673304
O O15 0.902852 0.888157 0.972829
O O16 0.147383 0.830344 0.895681
O O17 0.849167 0.410822 0.167209
#
# Coordination Sequence:
#
# PCOD8036313 Si02
#       8
#     2   2   2   2   2   2   2   2
#     4  12  24  46  77 104 151 189 241 309 360 437
#     4  12  25  48  70 110 141 187 246 297 357 434
#     4  12  26  44  79 109 143 191 247 306 366 420
#     4  12  27  47  71 104 152 193 241 301 362 441
#     4  11  26  48  70 103 154 190 231 308 369 420
#     4  11  26  50  75 107 146 193 245 305 359 439
#     4  12  24  48  79 110 145 187 253 306 357 431
#     4  12  26  43  76 111 140 198 245 298 375 425
#
# _framework density 22.868680000000001
#
# number of rings (size 3 to 8) (size 9 to 14) (size 15 to 20)
#    0.000    0.250    6.250    2.250    3.500    2.000 
#    0.000    3.125    0.000    0.000    0.000    0.000 
#    0.000    0.000    0.000    0.000    0.000    0.000 
#
# Total GULP energy -198278.666183 kJ/mol
# GULP energy per Si atom -12392.416636 kJ/mol
# Density = 2.281663 g / cm^3
# Si number density = 22.868680 Si / 1000 Ang^3
#
#
#
# Elastic Constant Matrix: (Units=GPa)
#
#
# Indices 1 2 3 4 5 6 
#
# 1 160.0530 33.3028 48.1713 -0.8109 -6.8518 14.9967
# 2 33.3028 89.4863 33.6832 3.8094 -6.7521 3.6910
# 3 48.1713 33.6832 93.1082 -0.3147 -6.3120 3.8751
# 4 -0.8109 3.8094 -0.3147 40.1222 3.2619 -5.7014
# 5 -6.8518 -6.7521 -6.3120 3.2619 37.0698 2.2247
# 6 14.9967 3.6910 3.8751 -5.7014 2.2247 36.3275
#
#
#
# Elastic Compliance Matrix: (Units=1/GPa)
#
#
# Indices 1 2 3 4 5 6 
#
# 1 0.007865 -0.001476 -0.003364 -0.000192 0.000798 -0.002817
# 2 -0.001476 0.013437 -0.003960 -0.001570 0.001679 -0.000683
# 3 -0.003364 -0.003960 0.013969 0.000380 0.000984 0.000301
# 4 -0.000192 -0.001570 0.000380 0.025931 -0.002805 0.004440
# 5 0.000798 0.001679 0.000984 -0.002805 0.028010 -0.002761
# 6 -0.002817 -0.000683 0.000301 0.004440 -0.002761 0.029593
#
#
# Mechanical properties :
#
#
# Convention : Reuss Voigt Hill
#
# Bulk Modulus (GPa) = 56.59602 63.66248 60.12925
# Shear Modulus (GPa) = 35.13824 37.86991 36.50407
#
# Velocity S-wave (km/s) = 3.92410 4.07378 3.99964
# Velocity P-wave (km/s) = 6.73301 7.07293 6.90506
#
# Compressibility (1/GPa) = 0.01766909
#
# Stress axis : x y z
#
# Youngs Moduli (GPa) = 127.14978 74.42370 71.58729
#
# Poissons Ratio (x) = 0.10985 0.24084
# Poissons Ratio (y) = 0.18767 0.28351
# Poissons Ratio (z) = 0.42778 0.29474
#
# Static dielectric constant tensor:
#      x y z
#    x 3.619430 -0.775790 -1.043430 
#    y -0.775790 3.441590 -0.964050 
#    z -1.043430 -0.964050 2.659800 
# 
# 
# High freq. dielectric constant tensor:
#      x y z
#    x 1.922030 -0.002750 0.003080 
#    y -0.002750 1.897990 0.002060 
#    z 0.003080 0.002060 1.901870 
# 
# From -- ./inp_files/522547.got.cif
#   From: 2010.06.25/outbox.cif.g09.slc.cpg/sg2_262_cif.got.tgz:522547.got - 2010.06.27 13:26:56.
