data_PCOD8036563
_publ_section_title
;
Structure prediction by ZEFSAII (Michael W. Deem and Ramdas Pophale) SiO2 
 PCOD8036563
Probable space group: P -1
;
_chemical_formula_sum "Si O2"
_cell_formula_units_Z 14
_cell_length_a 5.011313
_cell_length_b 12.878641
_cell_length_c 11.458146
_cell_angle_alpha 54.120438
_cell_angle_beta 83.401942
_cell_angle_gamma 79.728560
_cell_volume 589.524780
_symmetry_space_group_name_H-M "P -1"
_symmetry_group_IT_number 2
_symmetry_cell_setting 'triclinic'
loop_
_space_group_symop_operation_xyz
x,y,z
-x,-y,-z
loop_
_atom_site_type_symbol
_atom_site_label
_atom_site_fract_x
_atom_site_fract_y
_atom_site_fract_z
Si Si1 0.843320 0.076908 0.231820
Si Si2 0.330903 0.234737 0.136942
Si Si3 0.352036 0.434629 0.807321
Si Si4 0.280859 0.917655 0.023582
Si Si5 0.107927 0.228434 0.570165
Si Si6 0.789310 0.597277 0.755738
Si Si7 0.434879 0.700461 0.333191
O O1 0.587257 0.163257 0.251610
O O2 0.125158 0.130475 0.196420
O O3 0.900963 0.923858 0.352698
O O4 0.692088 0.113471 0.092431
O O5 0.190505 0.352075 0.146786
O O6 0.392869 0.297993 0.965676
O O7 0.512023 0.537372 0.794909
O O8 0.451139 0.422683 0.672776
O O9 0.034024 0.485235 0.790262
O O10 0.280521 0.794960 0.184248
O O11 0.500000 0.000000 0.000000
O O12 0.000000 0.000000 0.000000
O O13 0.213580 0.282713 0.410552
O O14 0.314350 0.246041 0.652790
O O15 0.810107 0.311074 0.556039
#
# Coordination Sequence:
#
# PCOD8036563 Si02
#       7
#     2   2   2   2   2   2   2
#     4  12  24  41  71 107 135 171 222 280 349 403
#     4  12  26  45  74 101 130 178 234 288 332 381
#     4  12  26  46  73  98 131 180 235 286 330 382
#     4  12  21  38  66 102 138 175 211 281 345 393
#     4  12  27  44  68 104 143 181 212 270 350 421
#     4  12  28  49  67  95 141 185 232 275 323 403
#     4  12  24  41  70 103 137 175 223 276 342 406
#
# _framework density 23.747941999999998
#
# number of rings (size 3 to 8) (size 9 to 14) (size 15 to 20)
#    0.000    0.000    4.286    6.000    2.000    4.571 
#    0.000    0.000    0.000    0.000    0.000    0.000 
#    0.000    0.000    0.000    0.000    0.000    0.000 
#
# Total GULP energy -173537.916294 kJ/mol
# GULP energy per Si atom -12395.565450 kJ/mol
# Density = 2.369389 g / cm^3
# Si number density = 23.747942 Si / 1000 Ang^3
#
#
#
# Elastic Constant Matrix: (Units=GPa)
#
#
# Indices 1 2 3 4 5 6 
#
# 1 132.7277 29.0913 20.1358 -8.9158 -19.4649 5.6650
# 2 29.0913 88.9601 17.6747 -2.8995 -8.0323 4.7146
# 3 20.1358 17.6747 70.7451 -7.8183 -6.0767 8.8908
# 4 -8.9158 -2.8995 -7.8183 35.2652 -0.1186 -4.8399
# 5 -19.4649 -8.0323 -6.0767 -0.1186 22.9760 -7.7638
# 6 5.6650 4.7146 8.8908 -4.8399 -7.7638 52.8362
#
#
#
# Elastic Compliance Matrix: (Units=1/GPa)
#
#
# Indices 1 2 3 4 5 6 
#
# 1 0.009347 -0.002114 -0.001387 0.001993 0.007038 0.000637
# 2 -0.002114 0.012583 -0.002355 -0.000046 0.001909 -0.000224
# 3 -0.001387 -0.002355 0.015782 0.002710 0.001575 -0.001817
# 4 0.001993 -0.000046 0.002710 0.029821 0.003410 0.002567
# 5 0.007038 0.001909 0.001575 0.003410 0.052919 0.006898
# 6 0.000637 -0.000224 -0.001817 0.002567 0.006898 0.020433
#
#
# Mechanical properties :
#
#
# Convention : Reuss Voigt Hill
#
# Bulk Modulus (GPa) = 38.46399 47.35961 42.91180
# Shear Modulus (GPa) = 31.00515 37.25089 34.12802
#
# Velocity S-wave (km/s) = 3.61722 3.96484 3.79501
# Velocity P-wave (km/s) = 5.80324 6.39890 6.10834
#
# Compressibility (1/GPa) = 0.02599834
#
# Stress axis : x y z
#
# Youngs Moduli (GPa) = 106.98698 79.47240 63.36464
#
# Poissons Ratio (x) = 0.16803 0.08791
# Poissons Ratio (y) = 0.22620 0.14922
# Poissons Ratio (z) = 0.14843 0.18715
#
# Static dielectric constant tensor:
#      x y z
#    x 4.340650 -0.277590 -0.112830 
#    y -0.277590 4.378510 0.132740 
#    z -0.112830 0.132740 4.233370 
# 
# 
# High freq. dielectric constant tensor:
#      x y z
#    x 1.962280 -0.016370 0.001640 
#    y -0.016370 1.954780 -0.004170 
#    z 0.001640 -0.004170 1.935890 
# 
# From -- ./inp_files/363828.got.cif
#   From: 2010.06.25/outbox.cif.g09.slc.cpg/sg2_182_cif.got.tgz:363828.got - 2010.06.27 13:26:56.
