data_PCOD8036781
_publ_section_title
;
Structure prediction by ZEFSAII (Michael W. Deem and Ramdas Pophale) SiO2 
 PCOD8036781
Probable space group: P -1
;
_chemical_formula_sum "Si O2"
_cell_formula_units_Z 16
_cell_length_a 8.992536
_cell_length_b 12.283238
_cell_length_c 9.072665
_cell_angle_alpha 83.402100
_cell_angle_beta 133.849794
_cell_angle_gamma 109.094014
_cell_volume 673.704061
_symmetry_space_group_name_H-M "P -1"
_symmetry_group_IT_number 2
_symmetry_cell_setting 'triclinic'
loop_
_space_group_symop_operation_xyz
x,y,z
-x,-y,-z
loop_
_atom_site_type_symbol
_atom_site_label
_atom_site_fract_x
_atom_site_fract_y
_atom_site_fract_z
Si Si1 0.211575 0.038106 0.037284
Si Si2 0.302439 0.607831 0.027125
Si Si3 0.787128 0.653672 0.327650
Si Si4 0.732581 0.403960 0.340116
Si Si5 0.756750 0.639365 0.963067
Si Si6 0.003747 0.095741 0.604840
Si Si7 0.810183 0.205781 0.889321
Si Si8 0.656855 0.177458 0.470310
O O1 0.413608 0.135390 0.242378
O O2 0.259449 0.918493 0.055860
O O3 0.176208 0.094884 0.850961
O O4 0.000000 0.000000 0.000000
O O5 0.550943 0.628007 0.242783
O O6 0.214300 0.698392 0.032481
O O7 0.285102 0.624684 0.839010
O O8 0.171954 0.473580 0.006050
O O9 0.874578 0.544711 0.447616
O O10 0.763496 0.658397 0.137379
O O11 0.930232 0.782786 0.460321
O O12 0.811309 0.306972 0.492788
O O13 0.492681 0.381107 0.253345
O O14 0.933060 0.752889 0.990800
O O15 0.768575 0.080972 0.520145
O O16 0.000000 0.000000 0.500000
O O17 0.651837 0.189341 0.640975
#
# Coordination Sequence:
#
# PCOD8036781 Si02
#       8
#     2   2   2   2   2   2   2   2
#     4  12  26  47  66  92 138 182 220 275 340 391
#     4   9  20  35  69  99 130 173 221 277 331 389
#     4   9  18  42  65  94 133 173 214 274 334 393
#     4   9  20  40  71  93 130 177 218 268 339 394
#     4   9  17  41  64  95 135 176 214 274 336 390
#     4  12  28  45  69 100 134 172 231 281 324 398
#     4  12  23  39  65  99 137 175 224 275 326 402
#     4  12  26  44  69 101 131 182 227 268 338 406
#
# _framework density 23.749298
#
# number of rings (size 3 to 8) (size 9 to 14) (size 15 to 20)
#    0.000    1.500    2.500    4.500    3.500    1.000 
#    0.000    3.750    0.000    0.000    0.000    0.000 
#    0.000    0.000    0.000    0.000    0.000    0.000 
#
# Total GULP energy -198330.046377 kJ/mol
# GULP energy per Si atom -12395.627899 kJ/mol
# Density = 2.369524 g / cm^3
# Si number density = 23.749298 Si / 1000 Ang^3
#
#
#
# Elastic Constant Matrix: (Units=GPa)
#
#
# Indices 1 2 3 4 5 6 
#
# 1 62.8460 35.0520 28.1887 10.8307 -6.7440 -7.4704
# 2 35.0520 170.2489 39.0965 4.9785 5.1893 0.5602
# 3 28.1887 39.0965 96.3662 1.9962 5.1155 -5.3952
# 4 10.8307 4.9785 1.9962 41.1528 0.0288 -1.5152
# 5 -6.7440 5.1893 5.1155 0.0288 9.4973 3.3429
# 6 -7.4704 0.5602 -5.3952 -1.5152 3.3429 35.7691
#
#
#
# Elastic Compliance Matrix: (Units=1/GPa)
#
#
# Indices 1 2 3 4 5 6 
#
# 1 0.024803 -0.004134 -0.006563 -0.005656 0.022759 0.001888
# 2 -0.004134 0.007232 -0.001454 0.000264 -0.005881 -0.000635
# 3 -0.006563 -0.001454 0.013593 0.001321 -0.011848 0.001866
# 4 -0.005656 0.000264 0.001321 0.025717 -0.005156 0.000585
# 5 0.022759 -0.005881 -0.011848 -0.005156 0.134490 -0.009729
# 6 0.001888 -0.000635 0.001866 0.000585 -0.009729 0.029577
#
#
# Mechanical properties :
#
#
# Convention : Reuss Voigt Hill
#
# Bulk Modulus (GPa) = 46.89122 59.34838 53.11980
# Shear Modulus (GPa) = 18.73900 32.42542 25.58221
#
# Velocity S-wave (km/s) = 2.81202 3.69903 3.28560
# Velocity P-wave (km/s) = 5.50730 6.57933 6.06704
#
# Compressibility (1/GPa) = 0.02132595
#
# Stress axis : x y z
#
# Youngs Moduli (GPa) = 40.31783 138.26743 73.56809
#
# Poissons Ratio (x) = 0.57158 0.48286
# Poissons Ratio (y) = 0.16667 0.10695
# Poissons Ratio (z) = 0.26462 0.20101
#
# Static dielectric constant tensor:
#      x y z
#    x 4.707070 0.332380 0.843220 
#    y 0.332380 5.144790 0.134300 
#    z 0.843220 0.134300 4.522990 
# 
# 
# High freq. dielectric constant tensor:
#      x y z
#    x 1.929680 -0.002400 0.029950 
#    y -0.002400 1.976150 -0.002810 
#    z 0.029950 -0.002810 1.918200 
# 
# From -- ./inp_files/188067.got.cif
#   From: 2010.06.25/outbox.cif.g09.slc.cpg/sg2_95_cif.got.tgz:188067.got - 2010.06.27 13:26:56.
