data_PCOD8036664
_publ_section_title
;
Structure prediction by ZEFSAII (Michael W. Deem and Ramdas Pophale) SiO2 
 PCOD8036664
Probable space group: P -1
;
_chemical_formula_sum "Si O2"
_cell_formula_units_Z 12
_cell_length_a 9.965832
_cell_length_b 4.989338
_cell_length_c 12.405180
_cell_angle_alpha 115.430023
_cell_angle_beta 110.118880
_cell_angle_gamma 86.442109
_cell_volume 520.392234
_symmetry_space_group_name_H-M "P -1"
_symmetry_group_IT_number 2
_symmetry_cell_setting 'triclinic'
loop_
_space_group_symop_operation_xyz
x,y,z
-x,-y,-z
loop_
_atom_site_type_symbol
_atom_site_label
_atom_site_fract_x
_atom_site_fract_y
_atom_site_fract_z
Si Si1 0.731623 0.279073 0.313930
Si Si2 0.670328 0.564674 0.560724
Si Si3 0.132708 0.322038 0.762481
Si Si4 0.440678 0.204433 0.108411
Si Si5 0.746470 0.321396 0.941468
Si Si6 0.814911 0.214258 0.709740
O O1 0.747926 0.381497 0.459447
O O2 0.840756 0.482543 0.303726
O O3 0.568046 0.316891 0.243592
O O4 0.762712 0.937480 0.251573
O O5 0.500000 0.500000 0.500000
O O6 0.733094 0.472297 0.676532
O O7 0.711306 0.913211 0.613536
O O8 0.968106 0.182366 0.691868
O O9 0.158346 0.531887 0.910102
O O10 0.388177 0.493850 0.087705
O O11 0.311478 0.016010 0.102266
O O12 0.500000 0.000000 0.000000
O O13 0.841794 0.301981 0.857348
#
# Coordination Sequence:
#
# PCOD8036664 Si02
#       6
#     2   2   2   2   2   2
#     4  12  25  42  70  98 134 173 222 276 320 390
#     4  12  27  49  68  97 131 174 226 270 327 392
#     4  12  25  43  67 102 133 173 221 269 333 389
#     4  12  22  41  67 101 132 168 219 274 329 378
#     4  12  23  43  68  99 137 171 221 273 326 389
#     4  12  27  45  69  96 136 180 215 267 331 396
#
# _framework density 23.059528
#
# number of rings (size 3 to 8) (size 9 to 14) (size 15 to 20)
#    0.000    0.000    3.333    7.500    0.000    4.000 
#    0.000    5.000    0.000    0.000    0.000    0.000 
#    0.000    0.000    0.000    0.000    0.000    0.000 
#
# Total GULP energy -148911.039317 kJ/mol
# GULP energy per Si atom -12409.253276 kJ/mol
# Density = 2.300704 g / cm^3
# Si number density = 23.059528 Si / 1000 Ang^3
#
#
#
# Elastic Constant Matrix: (Units=GPa)
#
#
# Indices 1 2 3 4 5 6 
#
# 1 94.2625 25.9262 43.5431 3.9300 1.0144 16.1041
# 2 25.9262 96.9174 21.4721 2.5663 2.0676 16.9271
# 3 43.5431 21.4721 87.6711 -2.8550 -14.8002 21.6287
# 4 3.9300 2.5663 -2.8550 37.3267 3.0195 -0.8317
# 5 1.0144 2.0676 -14.8002 3.0195 44.7175 -6.3388
# 6 16.1041 16.9271 21.6287 -0.8317 -6.3388 37.3998
#
#
#
# Elastic Compliance Matrix: (Units=1/GPa)
#
#
# Indices 1 2 3 4 5 6 
#
# 1 0.014768 -0.001978 -0.006871 -0.001772 -0.002679 -0.001984
# 2 -0.001978 0.011872 -0.001178 -0.000674 -0.001429 -0.004098
# 3 -0.006871 -0.001178 0.017417 0.001600 0.005060 -0.005687
# 4 -0.001772 -0.000674 0.001600 0.027252 -0.001161 0.000552
# 5 -0.002679 -0.001429 0.005060 -0.001161 0.024672 0.003030
# 6 -0.001984 -0.004098 -0.005687 0.000552 0.003030 0.033262
#
#
# Mechanical properties :
#
#
# Convention : Reuss Voigt Hill
#
# Bulk Modulus (GPa) = 41.65938 51.19264 46.42601
# Shear Modulus (GPa) = 31.78691 36.41611 34.10151
#
# Velocity S-wave (km/s) = 3.71681 3.97825 3.84975
# Velocity P-wave (km/s) = 6.04357 6.58410 6.31962
#
# Compressibility (1/GPa) = 0.02400420
#
# Stress axis : x y z
#
# Youngs Moduli (GPa) = 67.71285 84.23117 57.41596
#
# Poissons Ratio (x) = 0.16659 0.39451
# Poissons Ratio (y) = 0.13392 0.06762
# Poissons Ratio (z) = 0.46526 0.09919
#
# Static dielectric constant tensor:
#      x y z
#    x 4.122870 0.176100 -0.101010 
#    y 0.176100 4.352340 -0.047280 
#    z -0.101010 -0.047280 4.278870 
# 
# 
# High freq. dielectric constant tensor:
#      x y z
#    x 1.913200 0.008600 -0.011100 
#    y 0.008600 1.922800 -0.001290 
#    z -0.011100 -0.001290 1.919920 
# 
# From -- ./inp_files/26245.got.cif
#   From: 2010.06.25/outbox.cif.g09.slc.cpg/sg2_14_cif.got.tgz:26245.got - 2010.06.27 13:26:56.
