data_PCOD8036786
_publ_section_title
;
Structure prediction by ZEFSAII (Michael W. Deem and Ramdas Pophale) SiO2 
 PCOD8036786
Probable space group: P -1
;
_chemical_formula_sum "Si O2"
_cell_formula_units_Z 14
_cell_length_a 14.787957
_cell_length_b 4.883140
_cell_length_c 26.863762
_cell_angle_alpha 57.613651
_cell_angle_beta 158.909126
_cell_angle_gamma 121.845110
_cell_volume 586.995373
_symmetry_space_group_name_H-M "P -1"
_symmetry_group_IT_number 2
_symmetry_cell_setting 'triclinic'
loop_
_space_group_symop_operation_xyz
x,y,z
-x,-y,-z
loop_
_atom_site_type_symbol
_atom_site_label
_atom_site_fract_x
_atom_site_fract_y
_atom_site_fract_z
Si Si1 0.292784 0.188315 0.350872
Si Si2 0.412905 0.530946 0.615563
Si Si3 0.075176 0.076720 0.418315
Si Si4 0.588687 0.307487 0.983737
Si Si5 0.957073 0.462758 0.737403
Si Si6 0.813363 0.202783 0.916236
Si Si7 0.478607 0.986657 0.856020
O O1 0.369158 0.324754 0.323377
O O2 0.280255 0.485644 0.354011
O O3 0.500000 0.000000 0.500000
O O4 0.049056 0.912114 0.248372
O O5 0.178556 0.330557 0.488217
O O6 0.564256 0.310132 0.750871
O O7 0.284550 0.819613 0.548808
O O8 0.032141 0.263076 0.326280
O O9 0.800150 0.897937 0.310538
O O10 0.406247 0.599325 0.867786
O O11 0.607568 0.198920 0.946712
O O12 0.840537 0.471750 0.121386
O O13 0.500000 0.000000 0.000000
O O14 0.686294 0.005305 0.916971
O O15 0.000000 0.500000 0.000000
O O16 0.000000 0.000000 0.000000
#
# Coordination Sequence:
#
# PCOD8036786 Si02
#       7
#     2   2   2   2   2   2   2
#     4  12  23  40  65 103 144 191 234 288 372 421
#     4  12  27  45  74 104 142 195 244 300 362 423
#     4  12  24  45  73 107 145 185 243 301 359 441
#     4  12  26  44  72 111 150 193 236 292 378 437
#     4  12  24  39  66 104 152 185 229 297 357 440
#     4  12  30  55  75 104 145 190 253 308 357 438
#     4  12  28  48  75 109 147 197 245 303 365 426
#
# _framework density 23.850275
#
# number of rings (size 3 to 8) (size 9 to 14) (size 15 to 20)
#    0.000    0.000    4.286    5.143    8.000    1.143 
#    0.000    0.000    0.000    0.000    0.000    0.000 
#    0.000    0.000    0.000    0.000    0.000    0.000 
#
# Total GULP energy -173452.303591 kJ/mol
# GULP energy per Si atom -12389.450256 kJ/mol
# Density = 2.379599 g / cm^3
# Si number density = 23.850275 Si / 1000 Ang^3
#
#
#
# Elastic Constant Matrix: (Units=GPa)
#
#
# Indices 1 2 3 4 5 6 
#
# 1 93.1027 28.6386 42.1918 3.8490 3.4423 -17.4652
# 2 28.6386 95.1173 32.8588 10.2543 -8.6388 -15.4567
# 3 42.1918 32.8588 118.0457 8.5124 -11.5766 6.0879
# 4 3.8490 10.2543 8.5124 46.1647 -4.1348 0.4579
# 5 3.4423 -8.6388 -11.5766 -4.1348 35.7583 5.0343
# 6 -17.4652 -15.4567 6.0879 0.4579 5.0343 34.4323
#
#
#
# Elastic Compliance Matrix: (Units=1/GPa)
#
#
# Indices 1 2 3 4 5 6 
#
# 1 0.016022 -0.001591 -0.006255 -0.000397 -0.005307 0.009300
# 2 -0.001591 0.013340 -0.003145 -0.002188 0.001320 0.005573
# 3 -0.006255 -0.003145 0.012488 -0.000572 0.004875 -0.007498
# 4 -0.000397 -0.002188 -0.000572 0.022497 0.002165 -0.001698
# 5 -0.005307 0.001320 0.004875 0.002165 0.031697 -0.007624
# 6 0.009300 0.005573 -0.007498 -0.001698 -0.007624 0.038725
#
#
# Mechanical properties :
#
#
# Convention : Reuss Voigt Hill
#
# Bulk Modulus (GPa) = 50.33115 57.07155 53.70135
# Shear Modulus (GPa) = 30.60447 36.77615 33.69031
#
# Velocity S-wave (km/s) = 3.58605 3.93104 3.76250
# Velocity P-wave (km/s) = 6.18831 6.67721 6.43740
#
# Compressibility (1/GPa) = 0.01986841
#
# Stress axis : x y z
#
# Youngs Moduli (GPa) = 62.41357 74.96103 80.07434
#
# Poissons Ratio (x) = 0.11928 0.50088
# Poissons Ratio (y) = 0.09931 0.25182
# Poissons Ratio (z) = 0.39041 0.23574
#
# Static dielectric constant tensor:
#      x y z
#    x 4.033090 0.324100 0.215960 
#    y 0.324100 3.387650 -0.414310 
#    z 0.215960 -0.414310 4.145790 
# 
# 
# High freq. dielectric constant tensor:
#      x y z
#    x 1.949610 -0.021540 0.005510 
#    y -0.021540 1.947390 0.003640 
#    z 0.005510 0.003640 1.967360 
# 
# From -- ./inp_files/619060.got.cif
#   From: 2010.06.25/outbox.cif.g09.slc.cpg/sg2_310_cif.got.tgz:619060.got - 2010.06.27 13:26:56.
