data_PCOD8036884
_publ_section_title
;
Structure prediction by ZEFSAII (Michael W. Deem and Ramdas Pophale) SiO2 
 PCOD8036884
Probable space group: P -1
;
_chemical_formula_sum "Si O2"
_cell_formula_units_Z 14
_cell_length_a 11.519496
_cell_length_b 17.408548
_cell_length_c 17.562677
_cell_angle_alpha 149.693246
_cell_angle_beta 149.417879
_cell_angle_gamma 22.152659
_cell_volume 634.453256
_symmetry_space_group_name_H-M "P -1"
_symmetry_group_IT_number 2
_symmetry_cell_setting 'triclinic'
loop_
_space_group_symop_operation_xyz
x,y,z
-x,-y,-z
loop_
_atom_site_type_symbol
_atom_site_label
_atom_site_fract_x
_atom_site_fract_y
_atom_site_fract_z
Si Si1 0.168293 0.893808 0.926483
Si Si2 0.134737 0.703293 0.442072
Si Si3 0.846479 0.721769 0.139161
Si Si4 0.217267 0.245900 0.575822
Si Si5 0.227182 0.519904 0.607037
Si Si6 0.076654 0.856552 0.276943
Si Si7 0.675880 0.283693 0.868271
O O1 0.243659 0.678635 0.789928
O O2 0.482677 0.852527 0.068501
O O3 0.926935 0.059692 0.865006
O O4 0.000000 0.000000 0.000000
O O5 0.500000 0.500000 0.500000
O O6 0.061965 0.686465 0.300207
O O7 0.874972 0.731167 0.368704
O O8 0.088250 0.901772 0.605618
O O9 0.835551 0.853757 0.179815
O O10 0.000000 0.500000 0.000000
O O11 0.353484 0.345493 0.718162
O O12 0.885861 0.388043 0.463230
O O13 0.500000 0.000000 0.500000
O O14 0.589761 0.283099 0.607077
O O15 0.000000 0.500000 0.500000
O O16 0.144329 0.760065 0.146949
O O17 0.500000 0.500000 0.000000
#
# Coordination Sequence:
#
# PCOD8036884 Si02
#       7
#     2   2   2   2   2   2   2
#     4  12  27  47  74 108 148 192 248 311 376 434
#     4  12  28  50  77 106 149 200 252 301 371 451
#     4  12  29  49  74 109 154 195 244 309 381 440
#     4  12  23  46  76 106 145 192 250 311 361 438
#     4  12  23  43  76 107 145 189 246 304 369 435
#     4  12  26  49  74 109 148 198 251 303 372 456
#     4  12  27  44  73 113 148 191 251 308 374 437
#
# _framework density 22.066241999999999
#
# number of rings (size 3 to 8) (size 9 to 14) (size 15 to 20)
#    0.000    0.000    5.714    3.000    6.000    1.714 
#    0.000    0.000    0.000    0.000    0.000    0.000 
#    0.000    0.000    0.000    0.000    0.000    0.000 
#
# Total GULP energy -173525.201559 kJ/mol
# GULP energy per Si atom -12394.657254 kJ/mol
# Density = 2.201602 g / cm^3
# Si number density = 22.066242 Si / 1000 Ang^3
#
#
#
# Elastic Constant Matrix: (Units=GPa)
#
#
# Indices 1 2 3 4 5 6 
#
# 1 169.0116 38.1928 56.7619 -0.1698 3.4544 -11.1712
# 2 38.1928 143.1504 43.8414 3.5365 -1.3844 -1.9455
# 3 56.7619 43.8414 124.2974 10.7268 -0.3112 -8.5505
# 4 -0.1698 3.5365 10.7268 41.9131 -1.2601 0.1576
# 5 3.4544 -1.3844 -0.3112 -1.2601 51.1944 -4.9837
# 6 -11.1712 -1.9455 -8.5505 0.1576 -4.9837 35.9641
#
#
#
# Elastic Compliance Matrix: (Units=1/GPa)
#
#
# Indices 1 2 3 4 5 6 
#
# 1 0.007234 -0.001044 -0.002910 0.000845 -0.000373 0.001443
# 2 -0.001044 0.007986 -0.002363 -0.000065 0.000229 -0.000422
# 3 -0.002910 -0.002363 0.010529 -0.002504 0.000283 0.001522
# 4 0.000845 -0.000065 -0.002504 0.024525 0.000493 -0.000375
# 5 -0.000373 0.000229 0.000283 0.000493 0.019843 0.002711
# 6 0.001443 -0.000422 0.001522 -0.000375 0.002711 0.028970
#
#
# Mechanical properties :
#
#
# Convention : Reuss Voigt Hill
#
# Bulk Modulus (GPa) = 76.24507 79.33907 77.79207
# Shear Modulus (GPa) = 43.06957 45.65853 44.36405
#
# Velocity S-wave (km/s) = 4.42275 4.55373 4.48872
# Velocity P-wave (km/s) = 7.79158 7.98008 7.88639
#
# Compressibility (1/GPa) = 0.01311560
#
# Stress axis : x y z
#
# Youngs Moduli (GPa) = 138.24127 125.22082 94.97568
#
# Poissons Ratio (x) = 0.13069 0.27637
# Poissons Ratio (y) = 0.14428 0.22443
# Poissons Ratio (z) = 0.40226 0.29589
#
# Static dielectric constant tensor:
#      x y z
#    x 4.254300 -0.032900 0.096730 
#    y -0.032900 3.987070 0.124200 
#    z 0.096730 0.124200 3.495610 
# 
# 
# High freq. dielectric constant tensor:
#      x y z
#    x 1.886930 0.004150 0.003430 
#    y 0.004150 1.879300 0.001080 
#    z 0.003430 0.001080 1.876000 
# 
# From -- ./inp_files/173302.got.cif
#   From: 2010.06.25/outbox.cif.g09.slc.cpg/sg2_87_cif.got.tgz:173302.got - 2010.06.27 13:26:56.
