data_PCOD8036303
_publ_section_title
;
Structure prediction by ZEFSAII (Michael W. Deem and Ramdas Pophale) SiO2 
 PCOD8036303
Probable space group: P -1
;
_chemical_formula_sum "Si O2"
_cell_formula_units_Z 12
_cell_length_a 24.076929
_cell_length_b 10.757251
_cell_length_c 23.462368
_cell_angle_alpha 23.410965
_cell_angle_beta 11.852992
_cell_angle_gamma 22.902168
_cell_volume 475.723851
_symmetry_space_group_name_H-M "P -1"
_symmetry_group_IT_number 2
_symmetry_cell_setting 'triclinic'
loop_
_space_group_symop_operation_xyz
x,y,z
-x,-y,-z
loop_
_atom_site_type_symbol
_atom_site_label
_atom_site_fract_x
_atom_site_fract_y
_atom_site_fract_z
Si Si1 0.325550 0.752408 0.914661
Si Si2 0.105310 0.324596 0.134905
Si Si3 0.536630 0.623762 0.634933
Si Si4 0.448679 0.288917 0.087405
Si Si5 0.260504 0.743318 0.562272
Si Si6 0.254949 0.837610 0.655444
O O1 0.457289 0.564995 0.803963
O O2 0.516829 0.961973 0.660080
O O3 0.287653 0.506288 0.105466
O O4 0.015381 0.979011 0.112930
O O5 0.858838 0.402719 0.397234
O O6 0.940147 0.440572 0.191679
O O7 0.334541 0.514740 0.838970
O O8 0.259252 0.939041 0.136452
O O9 0.500000 0.000000 0.500000
O O10 0.251845 0.072952 0.398527
O O11 0.500000 0.500000 0.000000
O O12 0.141398 0.814453 0.715406
O O13 0.586848 0.521434 0.328306
#
# Coordination Sequence:
#
# PCOD8036303 Si02
#       6
#     2   2   2   2   2   2
#     4  12  28  48  76 113 156 199 262 305 385 453
#     4  12  27  49  79 112 153 203 257 313 379 456
#     4  12  28  50  79 111 155 207 259 317 377 446
#     4  12  27  50  79 116 158 204 247 319 390 462
#     4  11  26  47  79 112 155 198 258 317 392 445
#     4  11  27  46  77 114 152 198 254 324 379 455
#
# _framework density 25.224719
#
# number of rings (size 3 to 8) (size 9 to 14) (size 15 to 20)
#    0.000    0.333    3.333    3.500    7.000    4.000 
#    0.000    0.000    0.000    0.000    0.000    0.000 
#    0.000    0.000    0.000    0.000    0.000    0.000 
#
# Total GULP energy -148837.627362 kJ/mol
# GULP energy per Si atom -12403.135614 kJ/mol
# Density = 2.516731 g / cm^3
# Si number density = 25.224719 Si / 1000 Ang^3
#
#
#
# Elastic Constant Matrix: (Units=GPa)
#
#
# Indices 1 2 3 4 5 6 
#
# 1 123.0759 35.9642 16.5646 -21.9476 2.3576 10.7550
# 2 35.9642 129.5388 50.5140 6.2178 -2.0619 22.0205
# 3 16.5646 50.5140 122.4206 5.8000 -15.0367 8.8034
# 4 -21.9476 6.2178 5.8000 50.6523 4.6242 12.7656
# 5 2.3576 -2.0619 -15.0367 4.6242 31.3644 2.3160
# 6 10.7550 22.0205 8.8034 12.7656 2.3160 43.5233
#
#
#
# Elastic Compliance Matrix: (Units=1/GPa)
#
#
# Indices 1 2 3 4 5 6 
#
# 1 0.010202 -0.002400 -0.000694 0.005654 -0.001890 -0.002724
# 2 -0.002400 0.010516 -0.003772 -0.000927 -0.000529 -0.003664
# 3 -0.000694 -0.003772 0.010503 -0.001537 0.005056 0.000137
# 4 0.005654 -0.000927 -0.001537 0.024807 -0.004314 -0.007664
# 5 -0.001890 -0.000529 0.005056 -0.004314 0.035116 -0.000891
# 6 -0.002724 -0.003664 0.000137 -0.007664 -0.000891 0.027771
#
#
# Mechanical properties :
#
#
# Convention : Reuss Voigt Hill
#
# Bulk Modulus (GPa) = 57.18079 64.56900 60.87490
# Shear Modulus (GPa) = 36.10689 43.24083 39.67386
#
# Velocity S-wave (km/s) = 3.78750 4.14481 3.97018
# Velocity P-wave (km/s) = 6.46874 6.96843 6.72323
#
# Compressibility (1/GPa) = 0.01748839
#
# Stress axis : x y z
#
# Youngs Moduli (GPa) = 98.01683 95.09373 95.21226
#
# Poissons Ratio (x) = 0.22824 0.06610
# Poissons Ratio (y) = 0.23526 0.35914
# Poissons Ratio (z) = 0.06804 0.35869
#
# Static dielectric constant tensor:
#      x y z
#    x 4.728820 0.315490 -0.085600 
#    y 0.315490 4.700390 0.162830 
#    z -0.085600 0.162830 4.501570 
# 
# 
# High freq. dielectric constant tensor:
#      x y z
#    x 2.016410 0.015680 -0.000870 
#    y 0.015680 2.006690 0.010280 
#    z -0.000870 0.010280 2.018660 
# 
# From -- ./inp_files/621224.got.cif
#   From: 2010.06.25/outbox.cif.g09.slc.cpg/sg2_311_cif.got.tgz:621224.got - 2010.06.27 13:26:56.
