data_PCOD8036570
_publ_section_title
;
Structure prediction by ZEFSAII (Michael W. Deem and Ramdas Pophale) SiO2 
 PCOD8036570
Probable space group: P -1
;
_chemical_formula_sum "Si O2"
_cell_formula_units_Z 16
_cell_length_a 25.201267
_cell_length_b 13.993081
_cell_length_c 9.632784
_cell_angle_alpha 49.913949
_cell_angle_beta 141.465942
_cell_angle_gamma 158.286687
_cell_volume 730.658528
_symmetry_space_group_name_H-M "P -1"
_symmetry_group_IT_number 2
_symmetry_cell_setting 'triclinic'
loop_
_space_group_symop_operation_xyz
x,y,z
-x,-y,-z
loop_
_atom_site_type_symbol
_atom_site_label
_atom_site_fract_x
_atom_site_fract_y
_atom_site_fract_z
Si Si1 0.075719 0.367973 0.102046
Si Si2 0.507289 0.862364 0.138282
Si Si3 0.102247 0.266919 0.971473
Si Si4 0.876801 0.730424 0.439976
Si Si5 0.539546 0.775709 0.002507
Si Si6 0.337345 0.884457 0.273972
Si Si7 0.071227 0.811507 0.539938
Si Si8 0.171938 0.742322 0.357756
O O1 0.119734 0.324584 0.115379
O O2 0.874722 0.172960 0.852541
O O3 0.132913 0.385662 0.351145
O O4 0.197901 0.654824 0.082040
O O5 0.669619 0.030433 0.415667
O O6 0.312271 0.538948 0.083271
O O7 0.560438 0.900660 0.053635
O O8 0.500000 0.000000 0.000000
O O9 0.978243 0.213279 0.695455
O O10 0.000000 0.000000 0.000000
O O11 0.683292 0.546936 0.166014
O O12 0.971326 0.787575 0.448979
O O13 0.000000 0.000000 0.500000
O O14 0.588501 0.887564 0.843875
O O15 0.699466 0.878834 0.261438
O O16 0.248488 0.778605 0.342070
O O17 0.500000 0.000000 0.500000
O O18 0.991802 0.567754 0.633646
#
# Coordination Sequence:
#
# PCOD8036570 Si02
#       8
#     2   2   2   2   2   2   2   2
#     4  12  24  41  69 100 134 181 224 287 351 408
#     4  12  24  44  71 101 141 185 238 287 354 417
#     4  12  27  48  69  98 143 193 235 288 351 422
#     4  12  26  48  68  96 144 189 230 283 349 426
#     4  12  25  42  72 104 133 183 231 292 347 414
#     4  12  21  39  67 104 139 171 223 284 359 409
#     4  12  24  47  73 101 142 179 235 295 351 416
#     4  12  24  42  69 109 138 175 231 300 352 416
#
# _framework density 21.898053999999998
#
# number of rings (size 3 to 8) (size 9 to 14) (size 15 to 20)
#    0.000    0.000    6.250    4.875    0.000    1.500 
#    2.250    1.250    0.000    0.000    0.000    0.000 
#    0.000    0.000    0.000    0.000    0.000    0.000 
#
# Total GULP energy -198213.919066 kJ/mol
# GULP energy per Si atom -12388.369942 kJ/mol
# Density = 2.184821 g / cm^3
# Si number density = 21.898054 Si / 1000 Ang^3
#
#
#
# Elastic Constant Matrix: (Units=GPa)
#
#
# Indices 1 2 3 4 5 6 
#
# 1 62.6694 25.2438 23.9490 -0.8283 -11.9241 14.6842
# 2 25.2438 90.2484 25.7126 16.5430 2.5406 0.0507
# 3 23.9490 25.7126 139.0864 29.1710 6.6956 11.9644
# 4 -0.8283 16.5430 29.1710 35.1137 3.8759 2.4790
# 5 -11.9241 2.5406 6.6956 3.8759 41.2869 8.4665
# 6 14.6842 0.0507 11.9644 2.4790 8.4665 25.1040
#
#
#
# Elastic Compliance Matrix: (Units=1/GPa)
#
#
# Indices 1 2 3 4 5 6 
#
# 1 0.027836 -0.008475 -0.003789 0.007797 0.012426 -0.019420
# 2 -0.008475 0.014928 -0.000228 -0.007092 -0.004125 0.007127
# 3 -0.003789 -0.000228 0.009686 -0.007766 -0.001705 -0.001057
# 4 0.007797 -0.007092 -0.007766 0.038666 0.001369 -0.005125
# 5 0.012426 -0.004125 -0.001705 0.001369 0.031757 -0.017293
# 6 -0.019420 0.007127 -0.001057 -0.005125 -0.017293 0.058021
#
#
# Mechanical properties :
#
#
# Convention : Reuss Voigt Hill
#
# Bulk Modulus (GPa) = 36.40704 49.09057 42.74881
# Shear Modulus (GPa) = 23.25215 34.77417 29.01316
#
# Velocity S-wave (km/s) = 3.26212 3.98930 3.64389
# Velocity P-wave (km/s) = 5.55431 6.60952 6.10476
#
# Compressibility (1/GPa) = 0.02746721
#
# Stress axis : x y z
#
# Youngs Moduli (GPa) = 35.92463 66.98862 103.23995
#
# Poissons Ratio (x) = 0.56770 0.39120
# Poissons Ratio (y) = 0.30445 0.02350
# Poissons Ratio (z) = 0.13613 0.01525
#
# Static dielectric constant tensor:
#      x y z
#    x 3.894020 0.060500 0.247890 
#    y 0.060500 3.805000 0.577860 
#    z 0.247890 0.577860 3.669560 
# 
# 
# High freq. dielectric constant tensor:
#      x y z
#    x 1.862520 0.010840 -0.007710 
#    y 0.010840 1.840990 0.011040 
#    z -0.007710 0.011040 1.891110 
# 
# From -- ./inp_files/306176.got.cif
#   From: 2010.06.25/outbox.cif.g09.slc.cpg/sg2_154_cif.got.tgz:306176.got - 2010.06.27 13:26:56.
