data_PCOD8036969
_publ_section_title
;
Structure prediction by ZEFSAII (Michael W. Deem and Ramdas Pophale) SiO2 
 PCOD8036969
Probable space group: P -1
;
_chemical_formula_sum "Si O2"
_cell_formula_units_Z 16
_cell_length_a 13.691039
_cell_length_b 21.129672
_cell_length_c 21.693755
_cell_angle_alpha 166.833481
_cell_angle_beta 30.778112
_cell_angle_gamma 151.201715
_cell_volume 687.641397
_symmetry_space_group_name_H-M "P -1"
_symmetry_group_IT_number 2
_symmetry_cell_setting 'triclinic'
loop_
_space_group_symop_operation_xyz
x,y,z
-x,-y,-z
loop_
_atom_site_type_symbol
_atom_site_label
_atom_site_fract_x
_atom_site_fract_y
_atom_site_fract_z
Si Si1 0.615107 0.277889 0.739479
Si Si2 0.573311 0.119304 0.927118
Si Si3 0.053263 0.794933 0.115139
Si Si4 0.951782 0.621220 0.385400
Si Si5 0.016744 0.795018 0.739618
Si Si6 0.656269 0.542364 0.172775
Si Si7 0.529499 0.972453 0.293802
Si Si8 0.688925 0.537591 0.566946
O O1 0.850748 0.418756 0.727088
O O2 0.500000 0.000000 0.500000
O O3 0.618490 0.180054 0.715084
O O4 0.500000 0.500000 0.000000
O O5 0.749391 0.049367 0.802686
O O6 0.434259 0.806837 0.674643
O O7 0.682021 0.392152 0.080474
O O8 0.449070 0.257571 0.171877
O O9 0.865507 0.631429 0.106461
O O10 0.000772 0.037163 0.332932
O O11 0.105309 0.569802 0.827021
O O12 0.779015 0.516525 0.431164
O O13 0.239275 0.904093 0.690602
O O14 0.000000 0.500000 0.500000
O O15 0.847803 0.719846 0.706245
O O16 0.000000 0.000000 0.000000
O O17 0.565127 0.806012 0.479330
O O18 0.475326 0.287579 0.996313
#
# Coordination Sequence:
#
# PCOD8036969 Si02
#       8
#     2   2   2   2   2   2   2   2
#     4  12  24  42  66  98 132 179 228 276 346 414
#     4  12  27  45  74 103 139 194 240 298 355 416
#     4  12  25  47  73 104 141 189 242 296 360 410
#     4  12  26  47  71 102 149 184 236 300 348 428
#     4  12  25  44  69 101 140 185 232 284 349 424
#     4  12  23  46  70 105 142 175 241 298 352 421
#     4  12  24  42  70 100 137 184 225 287 362 415
#     4  12  27  47  68 106 146 185 243 291 352 428
#
# _framework density 23.267941
#
# number of rings (size 3 to 8) (size 9 to 14) (size 15 to 20)
#    0.000    0.000    2.500    8.625    0.000    5.000 
#    0.000    3.750    0.000    0.000    0.000    0.000 
#    0.000    0.000    0.000    0.000    0.000    0.000 
#
# Total GULP energy -198328.660672 kJ/mol
# GULP energy per Si atom -12395.541292 kJ/mol
# Density = 2.321498 g / cm^3
# Si number density = 23.267941 Si / 1000 Ang^3
#
#
#
# Elastic Constant Matrix: (Units=GPa)
#
#
# Indices 1 2 3 4 5 6 
#
# 1 99.7586 47.9636 29.8538 -4.8186 -1.0680 12.1791
# 2 47.9636 122.0366 46.6863 -9.0534 2.9284 3.7138
# 3 29.8538 46.6863 134.3110 0.0805 -1.9386 3.7213
# 4 -4.8186 -9.0534 0.0805 34.5766 -1.4723 1.4658
# 5 -1.0680 2.9284 -1.9386 -1.4723 45.2410 -1.1705
# 6 12.1791 3.7138 3.7213 1.4658 -1.1705 40.5129
#
#
#
# Elastic Compliance Matrix: (Units=1/GPa)
#
#
# Indices 1 2 3 4 5 6 
#
# 1 0.013011 -0.004492 -0.001230 0.000805 0.000483 -0.003402
# 2 -0.004492 0.011260 -0.002943 0.002272 -0.000875 0.000481
# 3 -0.001230 -0.002943 0.008753 -0.000936 0.000503 -0.000116
# 4 0.000805 0.002272 -0.000936 0.029723 0.000762 -0.001418
# 5 0.000483 -0.000875 0.000503 0.000762 0.022231 0.000503
# 6 -0.003402 0.000481 -0.000116 -0.001418 0.000503 0.025739
#
#
# Mechanical properties :
#
#
# Convention : Reuss Voigt Hill
#
# Bulk Modulus (GPa) = 63.71403 67.23482 65.47443
# Shear Modulus (GPa) = 37.51553 39.50627 38.51090
#
# Velocity S-wave (km/s) = 4.01974 4.12501 4.07271
# Velocity P-wave (km/s) = 6.99904 7.18653 7.09341
#
# Compressibility (1/GPa) = 0.01569513
#
# Stress axis : x y z
#
# Youngs Moduli (GPa) = 76.85695 88.80744 114.24859
#
# Poissons Ratio (x) = 0.39888 0.14053
# Poissons Ratio (y) = 0.34521 0.33624
# Poissons Ratio (z) = 0.09454 0.26136
#
# Static dielectric constant tensor:
#      x y z
#    x 4.017450 -0.096370 0.038240 
#    y -0.096370 4.316870 0.010050 
#    z 0.038240 0.010050 4.296510 
# 
# 
# High freq. dielectric constant tensor:
#      x y z
#    x 1.915580 0.002100 0.001810 
#    y 0.002100 1.933430 -0.002400 
#    z 0.001810 -0.002400 1.940680 
# 
# From -- ./inp_files/612393.got.cif
#   From: 2010.06.25/outbox.cif.g09.slc.cpg/sg2_307_cif.got.tgz:612393.got - 2010.06.27 13:26:56.
