data_PCOD8036542
_publ_section_title
;
Structure prediction by ZEFSAII (Michael W. Deem and Ramdas Pophale) SiO2 
 PCOD8036542
Probable space group: P -1
;
_chemical_formula_sum "Si O2"
_cell_formula_units_Z 16
_cell_length_a 9.914134
_cell_length_b 9.853170
_cell_length_c 11.529989
_cell_angle_alpha 103.326760
_cell_angle_beta 83.708480
_cell_angle_gamma 136.319172
_cell_volume 754.192729
_symmetry_space_group_name_H-M "P -1"
_symmetry_group_IT_number 2
_symmetry_cell_setting 'triclinic'
loop_
_space_group_symop_operation_xyz
x,y,z
-x,-y,-z
loop_
_atom_site_type_symbol
_atom_site_label
_atom_site_fract_x
_atom_site_fract_y
_atom_site_fract_z
Si Si1 0.220928 0.719762 0.248102
Si Si2 0.034040 0.799602 0.125765
Si Si3 0.668768 0.663430 0.258985
Si Si4 0.663788 0.980151 0.261659
Si Si5 0.272772 0.235311 0.228397
Si Si6 0.180290 0.227358 0.489641
Si Si7 0.974695 0.713868 0.852351
Si Si8 0.079634 0.708575 0.498767
O O1 0.112441 0.710968 0.148333
O O2 0.137355 0.503152 0.228449
O O3 0.178964 0.779131 0.377672
O O4 0.452439 0.888129 0.239101
O O5 0.866338 0.736991 0.211938
O O6 0.218052 0.041268 0.149949
O O7 0.941376 0.706120 0.990330
O O8 0.480758 0.433344 0.192414
O O9 0.663385 0.662336 0.399300
O O10 0.649487 0.802815 0.236366
O O11 0.754617 0.112006 0.395362
O O12 0.795074 0.123441 0.167561
O O13 0.280693 0.239709 0.368079
O O14 0.103977 0.212690 0.196164
O O15 0.108562 0.330752 0.491895
O O16 0.000000 0.000000 0.500000
O O17 0.000000 0.500000 0.500000
#
# Coordination Sequence:
#
# PCOD8036542 Si02
#       8
#     2   2   2   2   2   2   2   2
#     4  12  26  46  68 101 137 176 221 276 341 397
#     4  12  27  45  70  99 136 175 229 285 319 392
#     4  12  25  43  73 102 132 178 223 274 340 398
#     4  12  25  44  72  99 137 177 219 277 340 401
#     4  12  24  44  71 102 132 177 226 276 332 398
#     4  12  20  43  70  97 136 173 212 277 338 391
#     4  12  25  47  69  96 137 181 225 274 334 392
#     4  12  22  41  71  97 134 176 214 270 343 398
#
# _framework density 21.214737
#
# number of rings (size 3 to 8) (size 9 to 14) (size 15 to 20)
#    0.000    0.000    8.750    1.500    0.000    4.000 
#    0.000    0.000    0.000    0.000    0.000    0.000 
#    0.000    0.000    0.000    0.000    0.000    0.000 
#
# Total GULP energy -198517.836283 kJ/mol
# GULP energy per Si atom -12407.364768 kJ/mol
# Density = 2.116645 g / cm^3
# Si number density = 21.214737 Si / 1000 Ang^3
#
#
#
# Elastic Constant Matrix: (Units=GPa)
#
#
# Indices 1 2 3 4 5 6 
#
# 1 62.2683 12.2272 4.1661 1.2871 2.4188 4.2155
# 2 12.2272 103.3108 -2.8781 4.8755 -1.6716 9.8520
# 3 4.1661 -2.8781 93.4985 -7.4182 1.2095 4.0400
# 4 1.2871 4.8755 -7.4182 25.1031 -5.5712 3.3210
# 5 2.4188 -1.6716 1.2095 -5.5712 17.2723 1.4446
# 6 4.2155 9.8520 4.0400 3.3210 1.4446 38.2655
#
#
#
# Elastic Compliance Matrix: (Units=1/GPa)
#
#
# Indices 1 2 3 4 5 6 
#
# 1 0.016688 -0.001885 -0.000816 -0.001204 -0.002762 -0.001058
# 2 -0.001885 0.010217 0.000391 -0.001226 0.001030 -0.002397
# 3 -0.000816 0.000391 0.011086 0.003589 0.000660 -0.001518
# 4 -0.001204 -0.001226 0.003589 0.045038 0.014693 -0.004394
# 5 -0.002762 0.001030 0.000660 0.014693 0.063385 -0.003699
# 6 -0.001058 -0.002397 -0.001518 -0.004394 -0.003699 0.027548
#
#
# Mechanical properties :
#
#
# Convention : Reuss Voigt Hill
#
# Bulk Modulus (GPa) = 29.96512 31.78979 30.87746
# Shear Modulus (GPa) = 26.35693 32.49901 29.42797
#
# Velocity S-wave (km/s) = 3.52858 3.91820 3.72848
# Velocity P-wave (km/s) = 5.54585 5.95710 5.75515
#
# Compressibility (1/GPa) = 0.03337213
#
# Stress axis : x y z
#
# Youngs Moduli (GPa) = 59.92323 97.88008 90.20755
#
# Poissons Ratio (x) = 0.18448 0.07358
# Poissons Ratio (y) = 0.11294 -0.03531
# Poissons Ratio (z) = 0.04888 -0.03831
#
# Static dielectric constant tensor:
#      x y z
#    x 3.878720 -0.004830 0.023520 
#    y -0.004830 3.968800 0.047740 
#    z 0.023520 0.047740 3.868050 
# 
# 
# High freq. dielectric constant tensor:
#      x y z
#    x 1.827430 -0.004660 0.002250 
#    y -0.004660 1.845190 -0.000020 
#    z 0.002250 -0.000020 1.833960 
# 
# From -- ./inp_files/188871.got.cif
#   From: 2010.06.25/outbox.cif.g09.slc.cpg/sg2_95_cif.got.tgz:188871.got - 2010.06.27 13:26:56.
