data_PCOD8036243
_publ_section_title
;
Structure prediction by ZEFSAII (Michael W. Deem and Ramdas Pophale) SiO2 
 PCOD8036243
Probable space group: P -1
;
_chemical_formula_sum "Si O2"
_cell_formula_units_Z 16
_cell_length_a 9.289403
_cell_length_b 11.797037
_cell_length_c 17.767462
_cell_angle_alpha 151.285441
_cell_angle_beta 51.772850
_cell_angle_gamma 126.268244
_cell_volume 728.684085
_symmetry_space_group_name_H-M "P -1"
_symmetry_group_IT_number 2
_symmetry_cell_setting 'triclinic'
loop_
_space_group_symop_operation_xyz
x,y,z
-x,-y,-z
loop_
_atom_site_type_symbol
_atom_site_label
_atom_site_fract_x
_atom_site_fract_y
_atom_site_fract_z
Si Si1 0.861164 0.133056 0.169834
Si Si2 0.992336 0.952639 0.703191
Si Si3 0.742817 0.754501 0.109537
Si Si4 0.162794 0.536571 0.345897
Si Si5 0.322280 0.682648 0.222097
Si Si6 0.373666 0.208151 0.178903
Si Si7 0.151788 0.068650 0.429484
Si Si8 0.619223 0.442653 0.358365
O O1 0.701389 0.195123 0.201413
O O2 0.965466 0.378304 0.310545
O O3 0.764111 0.985597 0.184249
O O4 0.000000 0.000000 0.000000
O O5 0.122161 0.738880 0.537005
O O6 0.816077 0.900971 0.784200
O O7 0.920948 0.998802 0.669778
O O8 0.116120 0.189885 0.833627
O O9 0.538485 0.675843 0.162424
O O10 0.787305 0.536246 0.916573
O O11 0.222712 0.678600 0.332648
O O12 0.317237 0.365290 0.217917
O O13 0.315573 0.917904 0.311066
O O14 0.489480 0.408298 0.308272
O O15 0.500000 0.000000 0.000000
O O16 0.216191 0.345761 0.581903
O O17 0.000000 0.000000 0.500000
O O18 0.500000 0.500000 0.500000
#
# Coordination Sequence:
#
# PCOD8036243 Si02
#       8
#     2   2   2   2   2   2   2   2
#     4  12  22  42  75 101 137 189 236 286 355 424
#     4  12  26  46  74 107 141 186 242 300 354 416
#     4  11  27  43  73 105 143 188 235 299 357 429
#     4  12  24  47  73 104 143 186 243 288 353 431
#     4  11  26  47  70 105 143 195 235 283 363 434
#     4  12  28  44  71 113 148 179 237 307 361 412
#     4  12  25  46  72 103 144 188 238 288 353 424
#     4  12  25  44  72 105 139 187 236 298 346 414
#
# _framework density 21.957388999999999
#
# number of rings (size 3 to 8) (size 9 to 14) (size 15 to 20)
#    0.000    0.250    6.250    1.875    3.500    3.000 
#    0.000    0.000    0.000    0.000    0.000    0.000 
#    0.000    0.000    0.000    0.000    0.000    0.000 
#
# Total GULP energy -198379.594075 kJ/mol
# GULP energy per Si atom -12398.724630 kJ/mol
# Density = 2.190741 g / cm^3
# Si number density = 21.957389 Si / 1000 Ang^3
#
#
#
# Elastic Constant Matrix: (Units=GPa)
#
#
# Indices 1 2 3 4 5 6 
#
# 1 117.5438 23.0817 40.4368 9.9668 5.4804 -3.8685
# 2 23.0817 105.5573 35.1228 -1.6811 7.2634 2.1520
# 3 40.4368 35.1228 112.8457 -9.4240 -5.6368 6.3742
# 4 9.9668 -1.6811 -9.4240 29.8264 3.8249 -3.4502
# 5 5.4804 7.2634 -5.6368 3.8249 51.4072 11.9723
# 6 -3.8685 2.1520 6.3742 -3.4502 11.9723 40.0586
#
#
#
# Elastic Compliance Matrix: (Units=1/GPa)
#
#
# Indices 1 2 3 4 5 6 
#
# 1 0.010600 -0.000975 -0.004045 -0.004473 -0.001520 0.001789
# 2 -0.000975 0.010852 -0.003125 0.000238 -0.001884 0.000404
# 3 -0.004045 -0.003125 0.011907 0.004340 0.002431 -0.002470
# 4 -0.004473 0.000238 0.004340 0.037050 -0.002490 0.002800
# 5 -0.001520 -0.001884 0.002431 -0.002490 0.022015 -0.007227
# 6 0.001789 0.000404 -0.002470 0.002800 -0.007227 0.027908
#
#
# Mechanical properties :
#
#
# Convention : Reuss Voigt Hill
#
# Bulk Modulus (GPa) = 58.58958 59.24771 58.91864
# Shear Modulus (GPa) = 35.13386 40.07879 37.60632
#
# Velocity S-wave (km/s) = 4.00446 4.27699 4.14296
# Velocity P-wave (km/s) = 6.93701 7.17159 7.05528
#
# Compressibility (1/GPa) = 0.01706788
#
# Stress axis : x y z
#
# Youngs Moduli (GPa) = 94.34367 92.15095 83.98153
#
# Poissons Ratio (x) = 0.08984 0.33973
# Poissons Ratio (y) = 0.09197 0.26246
# Poissons Ratio (z) = 0.38165 0.28799
#
# Static dielectric constant tensor:
#      x y z
#    x 4.476850 -0.217390 -0.185780 
#    y -0.217390 4.044820 0.204930 
#    z -0.185780 0.204930 4.090130 
# 
# 
# High freq. dielectric constant tensor:
#      x y z
#    x 1.873060 0.003470 -0.002030 
#    y 0.003470 1.866420 -0.001860 
#    z -0.002030 -0.001860 1.869400 
# 
# From -- ./inp_files/336835.got.cif
#   From: 2010.06.25/outbox.cif.g09.slc.cpg/sg2_169_cif.got.tgz:336835.got - 2010.06.27 13:26:56.
