data_PCOD8036315
_publ_section_title
;
Structure prediction by ZEFSAII (Michael W. Deem and Ramdas Pophale) SiO2 
 PCOD8036315
Probable space group: P -1
;
_chemical_formula_sum "Si O2"
_cell_formula_units_Z 16
_cell_length_a 10.893133
_cell_length_b 9.463607
_cell_length_c 14.118060
_cell_angle_alpha 78.356992
_cell_angle_beta 75.142789
_cell_angle_gamma 138.284651
_cell_volume 740.783802
_symmetry_space_group_name_H-M "P -1"
_symmetry_group_IT_number 2
_symmetry_cell_setting 'triclinic'
loop_
_space_group_symop_operation_xyz
x,y,z
-x,-y,-z
loop_
_atom_site_type_symbol
_atom_site_label
_atom_site_fract_x
_atom_site_fract_y
_atom_site_fract_z
Si Si1 0.299829 0.703285 0.616129
Si Si2 0.884807 0.435850 0.628003
Si Si3 0.042564 0.172348 0.396558
Si Si4 0.246448 0.004887 0.818024
Si Si5 0.278423 0.456579 0.994391
Si Si6 0.557194 0.719944 0.453450
Si Si7 0.518187 0.420987 0.867720
Si Si8 0.630596 0.186613 0.197354
O O1 0.339272 0.592993 0.564832
O O2 0.332591 0.708450 0.720532
O O3 0.043474 0.527168 0.670879
O O4 0.500000 0.000000 0.500000
O O5 0.858143 0.584235 0.610876
O O6 0.000000 0.500000 0.500000
O O7 0.633512 0.119792 0.728539
O O8 0.231424 0.296362 0.266328
O O9 0.000000 0.000000 0.500000
O O10 0.799443 0.987411 0.422062
O O11 0.418497 0.213451 0.669728
O O12 0.372553 0.168410 0.868471
O O13 0.200697 0.789818 0.852198
O O14 0.991877 0.837553 0.884159
O O15 0.367883 0.422614 0.907512
O O16 0.296733 0.628535 0.919511
O O17 0.440911 0.613444 0.034171
O O18 0.500000 0.500000 0.500000
#
# Coordination Sequence:
#
# PCOD8036315 Si02
#       8
#     2   2   2   2   2   2   2   2
#     4  12  24  44  68 104 143 177 220 284 351 408
#     4  12  24  44  69 103 144 177 221 284 348 417
#     4  12  25  43  73 104 141 181 224 286 354 411
#     4  12  23  48  72  99 136 182 233 287 342 407
#     4  11  28  48  68  98 137 186 237 284 339 405
#     4  12  26  43  71 107 142 179 226 285 354 418
#     4  11  26  48  70  97 142 180 232 289 337 410
#     4  12  26  44  74 102 138 183 231 284 343 416
#
# _framework density 21.598745999999998
#
# number of rings (size 3 to 8) (size 9 to 14) (size 15 to 20)
#    0.000    0.250    6.250    1.500    7.000    1.500 
#    0.000    0.000    0.000    0.000    0.000    0.000 
#    0.000    0.000    0.000    0.000    0.000    0.000 
#
# Total GULP energy -198470.031669 kJ/mol
# GULP energy per Si atom -12404.376979 kJ/mol
# Density = 2.154959 g / cm^3
# Si number density = 21.598746 Si / 1000 Ang^3
#
#
#
# Elastic Constant Matrix: (Units=GPa)
#
#
# Indices 1 2 3 4 5 6 
#
# 1 128.1007 37.9904 52.2590 8.3983 -1.9936 -15.0465
# 2 37.9904 100.3377 39.8418 15.4279 4.0166 -1.9343
# 3 52.2590 39.8418 97.2673 12.8594 2.5574 -14.4712
# 4 8.3983 15.4279 12.8594 32.7062 1.1148 -5.1603
# 5 -1.9936 4.0166 2.5574 1.1148 47.4194 -2.3172
# 6 -15.0465 -1.9343 -14.4712 -5.1603 -2.3172 46.5420
#
#
#
# Elastic Compliance Matrix: (Units=1/GPa)
#
#
# Indices 1 2 3 4 5 6 
#
# 1 0.010545 -0.002262 -0.004522 0.000420 0.000967 0.002004
# 2 -0.002262 0.012997 -0.003793 -0.004325 -0.000982 -0.001899
# 3 -0.004522 -0.003793 0.015017 -0.002504 -0.000486 0.002748
# 4 0.000420 -0.004325 -0.002504 0.033960 -0.000136 0.002936
# 5 0.000967 -0.000982 -0.000486 -0.000136 0.021299 0.001166
# 6 0.002004 -0.001899 0.002748 0.002936 0.001166 0.023293
#
#
# Mechanical properties :
#
#
# Convention : Reuss Voigt Hill
#
# Bulk Modulus (GPa) = 57.45692 65.09866 61.27779
# Shear Modulus (GPa) = 34.70677 38.37447 36.54062
#
# Velocity S-wave (km/s) = 4.01295 4.21966 4.11760
# Velocity P-wave (km/s) = 6.93768 7.34481 7.14414
#
# Compressibility (1/GPa) = 0.01740434
#
# Stress axis : x y z
#
# Youngs Moduli (GPa) = 94.83512 76.94331 66.59215
#
# Poissons Ratio (x) = 0.17402 0.30112
# Poissons Ratio (y) = 0.21448 0.25261
# Poissons Ratio (z) = 0.42883 0.29187
#
# Static dielectric constant tensor:
#      x y z
#    x 4.719150 0.330390 -0.592850 
#    y 0.330390 4.059600 -0.076350 
#    z -0.592850 -0.076350 4.109850 
# 
# 
# High freq. dielectric constant tensor:
#      x y z
#    x 1.866010 0.005980 -0.011800 
#    y 0.005980 1.855290 0.008960 
#    z -0.011800 0.008960 1.844650 
# 
# From -- ./inp_files/471667.got.cif
#   From: 2010.06.25/outbox.cif.g09.slc.cpg/sg2_236_cif.got.tgz:471667.got - 2010.06.27 13:26:56.
