data_PCOD8036696
_publ_section_title
;
Structure prediction by ZEFSAII (Michael W. Deem and Ramdas Pophale) SiO2 
 PCOD8036696
Probable space group: P -1
;
_chemical_formula_sum "Si O2"
_cell_formula_units_Z 14
_cell_length_a 20.532018
_cell_length_b 12.848310
_cell_length_c 21.151760
_cell_angle_alpha 158.797363
_cell_angle_beta 18.730069
_cell_angle_gamma 148.798282
_cell_volume 629.472974
_symmetry_space_group_name_H-M "P -1"
_symmetry_group_IT_number 2
_symmetry_cell_setting 'triclinic'
loop_
_space_group_symop_operation_xyz
x,y,z
-x,-y,-z
loop_
_atom_site_type_symbol
_atom_site_label
_atom_site_fract_x
_atom_site_fract_y
_atom_site_fract_z
Si Si1 0.859579 0.187456 0.137013
Si Si2 0.335838 0.782816 0.286703
Si Si3 0.351834 0.202420 0.800131
Si Si4 0.092398 0.223157 0.368040
Si Si5 0.634022 0.178151 0.205635
Si Si6 0.239946 0.781431 0.507420
Si Si7 0.971657 0.703110 0.391376
O O1 0.751637 0.160684 0.154300
O O2 0.836013 0.528400 0.373455
O O3 0.769845 0.003769 0.167498
O O4 0.108177 0.034468 0.818095
O O5 0.208670 0.921757 0.545330
O O6 0.159631 0.722052 0.366854
O O7 0.461188 0.990085 0.255209
O O8 0.500000 0.500000 0.000000
O O9 0.512587 0.320527 0.764245
O O10 0.500000 0.000000 0.500000
O O11 0.197139 0.484514 0.071221
O O12 0.146899 0.493367 0.433402
O O13 0.155699 0.212399 0.377808
O O14 0.205053 0.922650 0.057640
O O15 0.500000 0.500000 0.500000
O O16 0.000000 0.000000 0.500000
#
# Coordination Sequence:
#
# PCOD8036696 Si02
#       7
#     2   2   2   2   2   2   2
#     4  12  25  50  73 106 144 193 246 299 359 437
#     4  12  23  43  75 109 138 183 244 296 358 427
#     4  12  24  44  76 106 141 195 252 293 354 443
#     4  12  26  45  74 108 147 187 240 305 357 431
#     4  12  29  46  74 110 150 191 238 303 374 432
#     4  12  22  42  79 110 136 183 252 301 351 423
#     4  12  29  48  73 107 152 195 237 306 377 429
#
# _framework density 22.240828
#
# number of rings (size 3 to 8) (size 9 to 14) (size 15 to 20)
#    0.000    0.000    7.143    3.429    2.000    2.857 
#    0.000    2.143    0.000    0.000    0.000    0.000 
#    0.000    0.000    0.000    0.000    0.000    0.000 
#
# Total GULP energy -173603.300545 kJ/mol
# GULP energy per Si atom -12400.235753 kJ/mol
# Density = 2.219021 g / cm^3
# Si number density = 22.240828 Si / 1000 Ang^3
#
#
#
# Elastic Constant Matrix: (Units=GPa)
#
#
# Indices 1 2 3 4 5 6 
#
# 1 80.2089 24.8267 29.3035 -1.0152 17.7933 0.6378
# 2 24.8267 125.4834 44.3615 3.4229 -7.7738 10.6915
# 3 29.3035 44.3615 126.9656 6.1530 7.6841 -12.2458
# 4 -1.0152 3.4229 6.1530 41.2792 -4.9903 2.2971
# 5 17.7933 -7.7738 7.6841 -4.9903 34.0125 -4.2695
# 6 0.6378 10.6915 -12.2458 2.2971 -4.2695 44.4112
#
#
#
# Elastic Compliance Matrix: (Units=1/GPa)
#
#
# Indices 1 2 3 4 5 6 
#
# 1 0.016119 -0.002825 -0.002305 -0.000019 -0.008689 -0.001021
# 2 -0.002825 0.010280 -0.003502 0.000285 0.004284 -0.003003
# 3 -0.002305 -0.003502 0.010163 -0.001685 -0.001686 0.003604
# 4 -0.000019 0.000285 -0.001685 0.025010 0.003944 -0.001448
# 5 -0.008689 0.004284 -0.001686 0.003944 0.036123 0.001898
# 6 -0.001021 -0.003003 0.003604 -0.001448 0.001898 0.024505
#
#
# Mechanical properties :
#
#
# Convention : Reuss Voigt Hill
#
# Bulk Modulus (GPa) = 51.82052 58.84903 55.33478
# Shear Modulus (GPa) = 34.27063 39.55168 36.91116
#
# Velocity S-wave (km/s) = 3.92967 4.22161 4.07825
# Velocity P-wave (km/s) = 6.62873 7.09084 6.86367
#
# Compressibility (1/GPa) = 0.01929737
#
# Stress axis : x y z
#
# Youngs Moduli (GPa) = 62.03745 97.27878 98.39482
#
# Poissons Ratio (x) = 0.27482 0.22680
# Poissons Ratio (y) = 0.17526 0.34462
# Poissons Ratio (z) = 0.14299 0.34071
#
# Static dielectric constant tensor:
#      x y z
#    x 4.910850 0.088680 0.124330 
#    y 0.088680 4.133310 -0.158220 
#    z 0.124330 -0.158220 4.381630 
# 
# 
# High freq. dielectric constant tensor:
#      x y z
#    x 1.892390 0.009570 0.021180 
#    y 0.009570 1.875440 -0.018190 
#    z 0.021180 -0.018190 1.879730 
# 
# From -- ./inp_files/28475.got.cif
#   From: 2010.06.25/outbox.cif.g09.slc.cpg/sg2_15_cif.got.tgz:28475.got - 2010.06.27 13:26:56.
