data_PCOD8036132
_publ_section_title
;
Structure prediction by ZEFSAII (Michael W. Deem and Ramdas Pophale) SiO2 
 PCOD8036132
Probable space group: P -1
;
_chemical_formula_sum "Si O2"
_cell_formula_units_Z 16
_cell_length_a 9.242705
_cell_length_b 8.821963
_cell_length_c 15.228902
_cell_angle_alpha 108.326009
_cell_angle_beta 131.560120
_cell_angle_gamma 101.995314
_cell_volume 714.553212
_symmetry_space_group_name_H-M "P -1"
_symmetry_group_IT_number 2
_symmetry_cell_setting 'triclinic'
loop_
_space_group_symop_operation_xyz
x,y,z
-x,-y,-z
loop_
_atom_site_type_symbol
_atom_site_label
_atom_site_fract_x
_atom_site_fract_y
_atom_site_fract_z
Si Si1 0.038843 0.232524 0.801670
Si Si2 0.367522 0.027673 0.280067
Si Si3 0.653057 0.467957 0.491009
Si Si4 0.804223 0.047946 0.495236
Si Si5 0.780313 0.674350 0.397476
Si Si6 0.481722 0.308176 0.083264
Si Si7 0.838249 0.057243 0.991402
Si Si8 0.946233 0.420463 0.197194
O O1 0.999878 0.404841 0.813934
O O2 0.971713 0.120596 0.661415
O O3 0.311856 0.322773 0.950555
O O4 0.873829 0.074298 0.780356
O O5 0.468070 0.250771 0.339717
O O6 0.556264 0.016128 0.409092
O O7 0.311368 0.927671 0.143446
O O8 0.500000 0.500000 0.500000
O O9 0.764645 0.620612 0.483271
O O10 0.867426 0.483538 0.630468
O O11 0.948089 0.216544 0.508538
O O12 0.727799 0.836159 0.393923
O O13 0.593655 0.485977 0.229798
O O14 0.334427 0.101285 0.035365
O O15 0.681133 0.312784 0.108698
O O16 0.985277 0.271715 0.135353
O O17 0.000000 0.000000 0.000000
#
# Coordination Sequence:
#
# PCOD8036132 Si02
#       8
#     2   2   2   2   2   2   2   2
#     4  12  26  46  72 104 150 186 240 297 359 423
#     4  12  25  45  71 100 144 187 240 298 354 427
#     4  12  26  46  74 103 142 187 242 299 355 424
#     4  11  26  45  71 106 140 187 239 296 360 422
#     4  11  26  45  74 102 142 187 239 296 358 422
#     4  12  26  49  73 104 147 187 240 301 351 434
#     4  12  27  49  69 108 144 188 241 293 362 428
#     4  12  29  46  74 107 141 195 240 291 365 422
#
# _framework density 22.391615999999999
#
# number of rings (size 3 to 8) (size 9 to 14) (size 15 to 20)
#    0.000    0.250    5.000    2.625    7.000    2.500 
#    0.000    0.000    0.000    0.000    0.000    0.000 
#    0.000    0.000    0.000    0.000    0.000    0.000 
#
# Total GULP energy -198444.149481 kJ/mol
# GULP energy per Si atom -12402.759343 kJ/mol
# Density = 2.234065 g / cm^3
# Si number density = 22.391616 Si / 1000 Ang^3
#
#
#
# Elastic Constant Matrix: (Units=GPa)
#
#
# Indices 1 2 3 4 5 6 
#
# 1 96.8870 31.8030 35.1396 -3.4545 3.1263 1.9428
# 2 31.8030 98.8724 36.0777 7.8055 -2.2596 15.2437
# 3 35.1396 36.0777 105.9840 -9.1626 -2.4092 -4.6105
# 4 -3.4545 7.8055 -9.1626 46.5347 -7.5355 -4.6713
# 5 3.1263 -2.2596 -2.4092 -7.5355 42.7327 1.4392
# 6 1.9428 15.2437 -4.6105 -4.6713 1.4392 44.7252
#
#
#
# Elastic Compliance Matrix: (Units=1/GPa)
#
#
# Indices 1 2 3 4 5 6 
#
# 1 0.012479 -0.003017 -0.003066 0.000673 -0.001136 0.000277
# 2 -0.003017 0.013786 -0.004259 -0.003885 0.000207 -0.005419
# 3 -0.003066 -0.004259 0.012364 0.003434 0.001195 0.003180
# 4 0.000673 -0.003885 0.003434 0.023922 0.004022 0.004018
# 5 -0.001136 0.000207 0.001195 0.004022 0.024281 -0.000259
# 6 0.000277 -0.005419 0.003180 0.004018 -0.000259 0.024950
#
#
# Mechanical properties :
#
#
# Convention : Reuss Voigt Hill
#
# Bulk Modulus (GPa) = 55.72918 56.42046 56.07482
# Shear Modulus (GPa) = 36.11507 40.04670 38.08089
#
# Velocity S-wave (km/s) = 4.02043 4.23362 4.12840
# Velocity P-wave (km/s) = 6.81867 7.01070 6.91535
#
# Compressibility (1/GPa) = 0.01794392
#
# Stress axis : x y z
#
# Youngs Moduli (GPa) = 80.13665 72.53953 80.87836
#
# Poissons Ratio (x) = 0.21884 0.24798
# Poissons Ratio (y) = 0.24176 0.34449
# Poissons Ratio (z) = 0.24571 0.30898
#
# Static dielectric constant tensor:
#      x y z
#    x 4.026610 0.093840 0.000520 
#    y 0.093840 4.113220 0.084880 
#    z 0.000520 0.084880 4.217380 
# 
# 
# High freq. dielectric constant tensor:
#      x y z
#    x 1.883940 0.006740 0.001110 
#    y 0.006740 1.892100 0.005200 
#    z 0.001110 0.005200 1.895010 
# 
# From -- ./inp_files/184315.got.cif
#   From: 2010.06.25/outbox.cif.g09.slc.cpg/sg2_93_cif.got.tgz:184315.got - 2010.06.27 13:26:56.
