data_PCOD8036978
_publ_section_title
;
Structure prediction by ZEFSAII (Michael W. Deem and Ramdas Pophale) SiO2 
 PCOD8036978
Probable space group: P -1
;
_chemical_formula_sum "Si O2"
_cell_formula_units_Z 14
_cell_length_a 15.136685
_cell_length_b 9.350510
_cell_length_c 15.263874
_cell_angle_alpha 79.976317
_cell_angle_beta 18.612382
_cell_angle_gamma 71.866841
_cell_volume 600.973029
_symmetry_space_group_name_H-M "P -1"
_symmetry_group_IT_number 2
_symmetry_cell_setting 'triclinic'
loop_
_space_group_symop_operation_xyz
x,y,z
-x,-y,-z
loop_
_atom_site_type_symbol
_atom_site_label
_atom_site_fract_x
_atom_site_fract_y
_atom_site_fract_z
Si Si1 0.572063 0.787887 0.280662
Si Si2 0.788574 0.105096 0.766599
Si Si3 0.731337 0.557415 0.816238
Si Si4 0.680887 0.429777 0.167318
Si Si5 0.386649 0.064225 0.291333
Si Si6 0.833367 0.632844 0.420152
Si Si7 0.886323 0.163571 0.145129
O O1 0.656574 0.602057 0.200124
O O2 0.310645 0.861498 0.591273
O O3 0.455255 0.894055 0.290601
O O4 0.858313 0.804614 0.049338
O O5 0.023534 0.157089 0.590674
O O6 0.475548 0.247409 0.003261
O O7 0.651086 0.018130 0.972377
O O8 0.000000 0.000000 0.500000
O O9 0.000000 0.500000 0.500000
O O10 0.872849 0.490302 0.784895
O O11 0.500000 0.500000 0.000000
O O12 0.375441 0.457295 0.396105
O O13 0.685749 0.322095 0.257353
O O14 0.006838 0.332136 0.818534
O O15 0.401058 0.195693 0.331383
O O16 0.000000 0.000000 0.000000
#
# Coordination Sequence:
#
# PCOD8036978 Si02
#       7
#     2   2   2   2   2   2   2
#     4  12  26  46  70 106 147 181 233 298 357 427
#     4  12  26  46  71 104 146 190 240 304 364 426
#     4  12  23  46  72 103 140 192 246 298 358 421
#     4  12  26  44  71 108 140 190 232 301 358 425
#     4  12  25  47  70 104 143 190 241 297 359 428
#     4  12  24  44  73 101 142 185 249 290 356 429
#     4  12  24  47  75 103 141 188 237 284 359 433
#
# _framework density 23.295553000000002
#
# number of rings (size 3 to 8) (size 9 to 14) (size 15 to 20)
#    0.000    0.000    2.857    7.714    2.000    0.000 
#    0.000    0.000    0.000    0.000    0.000    0.000 
#    0.000    0.000    0.000    0.000    0.000    0.000 
#
# Total GULP energy -173602.866728 kJ/mol
# GULP energy per Si atom -12400.204766 kJ/mol
# Density = 2.324253 g / cm^3
# Si number density = 23.295553 Si / 1000 Ang^3
#
#
#
# Elastic Constant Matrix: (Units=GPa)
#
#
# Indices 1 2 3 4 5 6 
#
# 1 102.6293 61.7700 56.6345 -5.4803 -1.9196 5.5837
# 2 61.7700 147.3772 59.9888 -1.1328 5.7966 2.9171
# 3 56.6345 59.9888 169.8594 -18.1072 15.7628 0.2225
# 4 -5.4803 -1.1328 -18.1072 51.5710 3.2923 -4.9884
# 5 -1.9196 5.7966 15.7628 3.2923 56.8454 -17.3730
# 6 5.5837 2.9171 0.2225 -4.9884 -17.3730 43.8521
#
#
#
# Elastic Compliance Matrix: (Units=1/GPa)
#
#
# Indices 1 2 3 4 5 6 
#
# 1 0.014528 -0.004796 -0.003289 0.000097 0.001623 -0.000860
# 2 -0.004796 0.009561 -0.001811 -0.000929 -0.000703 -0.000400
# 3 -0.003289 -0.001811 0.008121 0.002599 -0.002374 -0.000147
# 4 0.000097 -0.000929 0.002599 0.020555 -0.001237 0.001884
# 5 0.001623 -0.000703 -0.002374 -0.001237 0.020889 0.007987
# 6 -0.000860 -0.000400 -0.000147 0.001884 0.007987 0.026319
#
#
# Mechanical properties :
#
#
# Convention : Reuss Voigt Hill
#
# Bulk Modulus (GPa) = 80.53148 86.29471 83.41310
# Shear Modulus (GPa) = 40.35357 46.55188 43.45273
#
# Velocity S-wave (km/s) = 4.16654 4.47510 4.32357
# Velocity P-wave (km/s) = 7.60205 7.98911 7.79798
#
# Compressibility (1/GPa) = 0.01241750
#
# Stress axis : x y z
#
# Youngs Moduli (GPa) = 68.83242 104.59065 123.13789
#
# Poissons Ratio (x) = 0.50165 0.40503
# Poissons Ratio (y) = 0.33014 0.22297
# Poissons Ratio (z) = 0.22641 0.18939
#
# Static dielectric constant tensor:
#      x y z
#    x 4.684270 -0.273960 -0.316200 
#    y -0.273960 4.389720 0.018530 
#    z -0.316200 0.018530 4.772650 
# 
# 
# High freq. dielectric constant tensor:
#      x y z
#    x 1.935590 0.001550 -0.000010 
#    y 0.001550 1.926940 -0.012290 
#    z -0.000010 -0.012290 1.939230 
# 
# From -- ./inp_files/528441.got.cif
#   From: 2010.06.25/outbox.cif.g09.slc.cpg/sg2_265_cif.got.tgz:528441.got - 2010.06.27 13:26:56.
