data_PCOD8036032
_publ_section_title
;
Structure prediction by ZEFSAII (Michael W. Deem and Ramdas Pophale) SiO2 
 PCOD8036032
Probable space group: P -1
;
_chemical_formula_sum "Si O2"
_cell_formula_units_Z 16
_cell_length_a 13.267250
_cell_length_b 9.819595
_cell_length_c 13.466035
_cell_angle_alpha 73.294719
_cell_angle_beta 143.499628
_cell_angle_gamma 80.481320
_cell_volume 717.832481
_symmetry_space_group_name_H-M "P -1"
_symmetry_group_IT_number 2
_symmetry_cell_setting 'triclinic'
loop_
_space_group_symop_operation_xyz
x,y,z
-x,-y,-z
loop_
_atom_site_type_symbol
_atom_site_label
_atom_site_fract_x
_atom_site_fract_y
_atom_site_fract_z
Si Si1 0.067570 0.856890 0.828614
Si Si2 0.313933 0.334794 0.003411
Si Si3 0.098680 0.715728 0.670310
Si Si4 0.085133 0.530761 0.200701
Si Si5 0.570289 0.622587 0.324705
Si Si6 0.429759 0.056255 0.819258
Si Si7 0.773139 0.816974 0.731917
Si Si8 0.736982 0.270889 0.404239
O O1 0.869991 0.872481 0.717492
O O2 0.160618 0.744027 0.820651
O O3 0.957644 0.077104 0.679356
O O4 0.298911 0.736939 0.106057
O O5 0.227339 0.486996 0.812733
O O6 0.091998 0.454542 0.874731
O O7 0.522083 0.286143 0.241669
O O8 0.383933 0.139527 0.058799
O O9 0.203706 0.754310 0.660195
O O10 0.820104 0.872149 0.405862
O O11 0.287784 0.484168 0.438176
O O12 0.213641 0.349689 0.264877
O O13 0.933811 0.735268 0.975938
O O14 0.581705 0.776397 0.262276
O O15 0.687334 0.454931 0.369393
O O16 0.500000 0.000000 0.000000
O O17 0.500000 0.000000 0.500000
#
# Coordination Sequence:
#
# PCOD8036032 Si02
#       8
#     2   2   2   2   2   2   2   2
#     4  12  25  45  69 105 140 186 235 289 346 426
#     4  12  24  45  73  97 143 190 235 282 349 417
#     4  12  24  44  68 103 147 188 241 279 345 426
#     4  11  26  46  73 106 138 181 232 297 355 421
#     4  12  27  45  68 106 153 175 234 295 348 412
#     4  12  27  41  68 104 145 197 240 285 342 413
#     4  11  25  49  80 101 133 183 238 288 365 426
#     4  12  26  41  72 104 143 194 230 284 348 417
#
# _framework density 22.289324000000001
#
# number of rings (size 3 to 8) (size 9 to 14) (size 15 to 20)
#    0.000    0.250    5.000    3.000    7.000    2.500 
#    0.000    1.250    0.000    0.000    0.000    0.000 
#    0.000    0.000    0.000    0.000    0.000    0.000 
#
# Total GULP energy -198470.018897 kJ/mol
# GULP energy per Si atom -12404.376181 kJ/mol
# Density = 2.223859 g / cm^3
# Si number density = 22.289324 Si / 1000 Ang^3
#
#
#
# Elastic Constant Matrix: (Units=GPa)
#
#
# Indices 1 2 3 4 5 6 
#
# 1 79.7548 30.1872 54.0248 -2.3345 -3.4718 -3.8800
# 2 30.1872 108.2257 47.1153 -16.6394 1.8634 -4.4561
# 3 54.0248 47.1153 168.3461 -2.8935 -6.1622 -14.9859
# 4 -2.3345 -16.6394 -2.8935 42.3635 1.3272 -4.9731
# 5 -3.4718 1.8634 -6.1622 1.3272 40.9826 -4.0908
# 6 -3.8800 -4.4561 -14.9859 -4.9731 -4.0908 27.1951
#
#
#
# Elastic Compliance Matrix: (Units=1/GPa)
#
#
# Indices 1 2 3 4 5 6 
#
# 1 0.016707 -0.002778 -0.004618 -0.000582 0.000806 -0.000601
# 2 -0.002778 0.011750 -0.002282 0.004449 -0.001166 0.000910
# 3 -0.004618 -0.002282 0.008446 -0.000171 0.001367 0.003796
# 4 -0.000582 0.004449 -0.000171 0.025939 -0.000598 0.005205
# 5 0.000806 -0.001166 0.001367 -0.000598 0.025182 0.004356
# 6 -0.000601 0.000910 0.003796 0.005205 0.004356 0.040533
#
#
# Mechanical properties :
#
#
# Convention : Reuss Voigt Hill
#
# Bulk Modulus (GPa) = 56.99139 68.77569 62.88354
# Shear Modulus (GPa) = 32.51797 37.10820 34.81309
#
# Velocity S-wave (km/s) = 3.82370 4.08467 3.95634
# Velocity P-wave (km/s) = 6.71705 7.29170 7.01027
#
# Compressibility (1/GPa) = 0.01754651
#
# Stress axis : x y z
#
# Youngs Moduli (GPa) = 59.85577 85.10695 118.40069
#
# Poissons Ratio (x) = 0.23639 0.54679
# Poissons Ratio (y) = 0.16626 0.27023
# Poissons Ratio (z) = 0.27642 0.19424
#
# Static dielectric constant tensor:
#      x y z
#    x 3.881230 -0.069540 -0.141880 
#    y -0.069540 3.836110 -0.271420 
#    z -0.141880 -0.271420 4.345700 
# 
# 
# High freq. dielectric constant tensor:
#      x y z
#    x 1.867450 0.001510 -0.000580 
#    y 0.001510 1.874600 -0.014980 
#    z -0.000580 -0.014980 1.903430 
# 
# From -- ./inp_files/529712.got.cif
#   From: 2010.06.25/outbox.cif.g09.slc.cpg/sg2_265_cif.got.tgz:529712.got - 2010.06.27 13:26:56.
