data_PCOD8036186
_publ_section_title
;
Structure prediction by ZEFSAII (Michael W. Deem and Ramdas Pophale) SiO2 
 PCOD8036186
Probable space group: P -1
;
_chemical_formula_sum "Si O2"
_cell_formula_units_Z 12
_cell_length_a 5.020413
_cell_length_b 20.283973
_cell_length_c 9.039023
_cell_angle_alpha 140.062322
_cell_angle_beta 57.063607
_cell_angle_gamma 102.763057
_cell_volume 461.964298
_symmetry_space_group_name_H-M "P -1"
_symmetry_group_IT_number 2
_symmetry_cell_setting 'triclinic'
loop_
_space_group_symop_operation_xyz
x,y,z
-x,-y,-z
loop_
_atom_site_type_symbol
_atom_site_label
_atom_site_fract_x
_atom_site_fract_y
_atom_site_fract_z
Si Si1 0.452291 0.617376 0.496382
Si Si2 0.083613 0.262687 0.370083
Si Si3 0.160600 0.624825 0.058271
Si Si4 0.592084 0.036362 0.874349
Si Si5 0.188322 0.097494 0.700633
Si Si6 0.179848 0.332200 0.063928
O O1 0.635484 0.681681 0.655733
O O2 0.260081 0.690087 0.539399
O O3 0.736677 0.504605 0.156312
O O4 0.178395 0.584572 0.618791
O O5 0.993859 0.294496 0.621792
O O6 0.241627 0.128739 0.075649
O O7 0.500449 0.642240 0.931117
O O8 0.861952 0.661492 0.089116
O O9 0.856241 0.100263 0.896607
O O10 0.780408 0.927726 0.529627
O O11 0.500000 0.000000 0.000000
O O12 0.221504 0.214088 0.919537
O O13 0.500000 0.000000 0.500000
#
# Coordination Sequence:
#
# PCOD8036186 Si02
#       6
#     2   2   2   2   2   2
#     4  12  24  46  71 101 142 184 230 285 351 416
#     4  12  25  45  70 103 142 181 231 292 349 414
#     4  12  26  44  72 104 138 186 232 285 347 426
#     4  11  26  46  71 103 138 186 236 289 354 420
#     4  11  26  46  72 100 142 183 233 296 350 416
#     4  12  25  45  70 103 141 179 236 286 349 414
#
# _framework density 25.976035
#
# number of rings (size 3 to 8) (size 9 to 14) (size 15 to 20)
#    0.000    0.333    1.667    7.000    7.000    0.667 
#    0.000    0.000    0.000    0.000    0.000    0.000 
#    0.000    0.000    0.000    0.000    0.000    0.000 
#
# Total GULP energy -148728.960305 kJ/mol
# GULP energy per Si atom -12394.080025 kJ/mol
# Density = 2.591691 g / cm^3
# Si number density = 25.976035 Si / 1000 Ang^3
#
#
#
# Elastic Constant Matrix: (Units=GPa)
#
#
# Indices 1 2 3 4 5 6 
#
# 1 49.1996 5.2084 -18.8771 11.7879 -6.8162 -2.7404
# 2 5.2084 88.8798 29.9047 4.4688 -11.1131 -15.5988
# 3 -18.8771 29.9047 95.4813 -5.4442 -6.6166 14.8947
# 4 11.7879 4.4688 -5.4442 60.3244 -4.7228 -1.5126
# 5 -6.8162 -11.1131 -6.6166 -4.7228 29.9424 3.7445
# 6 -2.7404 -15.5988 14.8947 -1.5126 3.7445 36.0996
#
#
#
# Elastic Compliance Matrix: (Units=1/GPa)
#
#
# Indices 1 2 3 4 5 6 
#
# 1 0.024674 -0.003290 0.006561 -0.003618 0.005649 -0.002993
# 2 -0.003290 0.015669 -0.006857 -0.000729 0.002301 0.009081
# 3 0.006561 -0.006857 0.015660 0.000695 0.003679 -0.009279
# 4 -0.003618 -0.000729 0.000695 0.017539 0.001868 -0.000335
# 5 0.005649 0.002301 0.003679 0.001868 0.037129 -0.003868
# 6 -0.002993 0.009081 -0.009279 -0.000335 -0.003868 0.035613
#
#
# Mechanical properties :
#
#
# Convention : Reuss Voigt Hill
#
# Bulk Modulus (GPa) = 20.47927 29.55920 25.01924
# Shear Modulus (GPa) = 29.45811 39.76158 34.60985
#
# Velocity S-wave (km/s) = 3.37122 3.91666 3.65413
# Velocity P-wave (km/s) = 4.80151 5.64427 5.23986
#
# Compressibility (1/GPa) = 0.04882986
#
# Stress axis : x y z
#
# Youngs Moduli (GPa) = 40.52879 63.82018 63.85765
#
# Poissons Ratio (x) = 0.21000 -0.41896
# Poissons Ratio (y) = 0.13336 0.43786
# Poissons Ratio (z) = -0.26590 0.43760
#
# Static dielectric constant tensor:
#      x y z
#    x 4.827770 0.157310 0.729190 
#    y 0.157310 4.499570 -0.307280 
#    z 0.729190 -0.307280 6.140360 
# 
# 
# High freq. dielectric constant tensor:
#      x y z
#    x 2.039300 -0.001970 -0.005320 
#    y -0.001970 2.035980 -0.005250 
#    z -0.005320 -0.005250 2.064680 
# 
# From -- ./inp_files/23808.got.cif
#   From: 2010.06.25/outbox.cif.g09.slc.cpg/sg2_12_cif.got.tgz:23808.got - 2010.06.27 13:26:56.
