data_PCOD8036453
_publ_section_title
;
Structure prediction by ZEFSAII (Michael W. Deem and Ramdas Pophale) SiO2 
 PCOD8036453
Probable space group: P -1
;
_chemical_formula_sum "Si O2"
_cell_formula_units_Z 16
_cell_length_a 26.697643
_cell_length_b 14.700457
_cell_length_c 17.588718
_cell_angle_alpha 21.693877
_cell_angle_beta 20.781418
_cell_angle_gamma 19.754143
_cell_volume 754.757958
_symmetry_space_group_name_H-M "P -1"
_symmetry_group_IT_number 2
_symmetry_cell_setting 'triclinic'
loop_
_space_group_symop_operation_xyz
x,y,z
-x,-y,-z
loop_
_atom_site_type_symbol
_atom_site_label
_atom_site_fract_x
_atom_site_fract_y
_atom_site_fract_z
Si Si1 0.608880 0.627364 0.718822
Si Si2 0.426125 0.310470 0.456554
Si Si3 0.851163 0.727830 0.586716
Si Si4 0.649144 0.379029 0.323761
Si Si5 0.865610 0.446659 0.197544
Si Si6 0.768985 0.731165 0.954918
Si Si7 0.560509 0.626870 0.096341
Si Si8 0.005783 0.789759 0.472812
O O1 0.635479 0.608637 0.605226
O O2 0.793135 0.439983 0.641184
O O3 0.515446 0.965407 0.615672
O O4 0.500000 0.500000 0.000000
O O5 0.267795 0.500811 0.589453
O O6 0.553613 0.415933 0.207454
O O7 0.000000 0.500000 0.500000
O O8 0.914028 0.763320 0.550873
O O9 0.756099 0.028713 0.441057
O O10 0.733557 0.605499 0.859014
O O11 0.500000 0.500000 0.500000
O O12 0.555826 0.502860 0.280648
O O13 0.771465 0.484652 0.091321
O O14 0.772906 0.670271 0.085848
O O15 0.965267 0.116556 0.280323
O O16 0.000000 0.500000 0.000000
O O17 0.933401 0.729091 0.698500
O O18 0.597286 0.040501 0.942534
#
# Coordination Sequence:
#
# PCOD8036453 Si02
#       8
#     2   2   2   2   2   2   2   2
#     4  11  28  49  73  97 148 189 230 289 355 415
#     4  11  27  47  70 109 134 188 239 283 350 430
#     4  12  29  45  69 106 147 188 230 288 355 424
#     4  12  23  44  71 101 139 186 232 281 347 420
#     4  12  26  44  74 106 139 181 241 297 350 409
#     4  12  24  43  74 102 140 181 231 298 347 406
#     4  12  26  43  74 104 142 181 236 288 350 416
#     4  12  26  47  71 107 139 183 238 293 351 418
#
# _framework density 21.198848999999999
#
# number of rings (size 3 to 8) (size 9 to 14) (size 15 to 20)
#    0.000    0.250    5.000    3.375    7.000    3.500 
#    0.000    0.000    0.000    0.000    0.000    0.000 
#    0.000    0.000    0.000    0.000    0.000    0.000 
#
# Total GULP energy -198511.285452 kJ/mol
# GULP energy per Si atom -12406.955341 kJ/mol
# Density = 2.115060 g / cm^3
# Si number density = 21.198849 Si / 1000 Ang^3
#
#
#
# Elastic Constant Matrix: (Units=GPa)
#
#
# Indices 1 2 3 4 5 6 
#
# 1 92.9195 28.5105 28.2801 -11.6743 -8.4860 -5.2923
# 2 28.5105 127.6475 47.0851 -6.6676 -0.0687 -2.6997
# 3 28.2801 47.0851 121.9531 -3.2388 -15.6661 -2.2232
# 4 -11.6743 -6.6676 -3.2388 39.9190 -0.8974 -2.7723
# 5 -8.4860 -0.0687 -15.6661 -0.8974 48.6884 -5.2059
# 6 -5.2923 -2.6997 -2.2232 -2.7723 -5.2059 37.0012
#
#
#
# Elastic Compliance Matrix: (Units=1/GPa)
#
#
# Indices 1 2 3 4 5 6 
#
# 1 0.012625 -0.001929 -0.001810 0.003410 0.001900 0.002079
# 2 -0.001929 0.009559 -0.003402 0.000730 -0.001396 0.000075
# 3 -0.001810 -0.003402 0.010332 -0.000154 0.003058 0.000532
# 4 0.003410 0.000730 -0.000154 0.026374 0.001320 0.002694
# 5 0.001900 -0.001396 0.003058 0.001320 0.022260 0.003584
# 6 0.002079 0.000075 0.000532 0.002694 0.003584 0.028067
#
#
# Mechanical properties :
#
#
# Convention : Reuss Voigt Hill
#
# Bulk Modulus (GPa) = 54.84451 61.14130 57.99290
# Shear Modulus (GPa) = 38.58722 41.03135 39.80928
#
# Velocity S-wave (km/s) = 4.27107 4.40426 4.33817
# Velocity P-wave (km/s) = 7.08875 7.40052 7.24631
#
# Compressibility (1/GPa) = 0.01823337
#
# Stress axis : x y z
#
# Youngs Moduli (GPa) = 79.20602 104.61664 96.79111
#
# Poissons Ratio (x) = 0.20180 0.17523
# Poissons Ratio (y) = 0.15279 0.32926
# Poissons Ratio (z) = 0.14339 0.35588
#
# Static dielectric constant tensor:
#      x y z
#    x 4.041900 -0.017710 -0.080010 
#    y -0.017710 3.713760 -0.052680 
#    z -0.080010 -0.052680 4.193850 
# 
# 
# High freq. dielectric constant tensor:
#      x y z
#    x 1.844110 -0.003450 -0.003500 
#    y -0.003450 1.833560 -0.007560 
#    z -0.003500 -0.007560 1.852710 
# 
# From -- ./inp_files/124345.got.cif
#   From: 2010.06.25/outbox.cif.g09.slc.cpg/sg2_63_cif.got.tgz:124345.got - 2010.06.27 13:26:56.
