data_PCOD8036820
_publ_section_title
;
Structure prediction by ZEFSAII (Michael W. Deem and Ramdas Pophale) SiO2 
 PCOD8036820
Probable space group: P -1
;
_chemical_formula_sum "Si O2"
_cell_formula_units_Z 12
_cell_length_a 15.864228
_cell_length_b 9.217061
_cell_length_c 15.737058
_cell_angle_alpha 50.786835
_cell_angle_beta 162.183859
_cell_angle_gamma 129.741058
_cell_volume 538.656132
_symmetry_space_group_name_H-M "P -1"
_symmetry_group_IT_number 2
_symmetry_cell_setting 'triclinic'
loop_
_space_group_symop_operation_xyz
x,y,z
-x,-y,-z
loop_
_atom_site_type_symbol
_atom_site_label
_atom_site_fract_x
_atom_site_fract_y
_atom_site_fract_z
Si Si1 0.954322 0.282287 0.555230
Si Si2 0.609275 0.792751 0.873629
Si Si3 0.462256 0.568974 0.171648
Si Si4 0.477202 0.392364 0.428026
Si Si5 0.954032 0.208498 0.396249
Si Si6 0.074721 0.867431 0.045125
O O1 0.719969 0.216726 0.425283
O O2 0.859581 0.185199 0.411718
O O3 0.000000 0.500000 0.500000
O O4 0.247139 0.236364 0.887827
O O5 0.664067 0.631992 0.918256
O O6 0.732379 0.001500 0.883808
O O7 0.447795 0.543190 0.269196
O O8 0.773935 0.634672 0.413462
O O9 0.284506 0.731425 0.914854
O O10 0.500000 0.500000 0.500000
O O11 0.747713 0.297209 0.697352
O O12 0.208172 0.229971 0.234963
O O13 0.000000 0.000000 0.500000
O O14 0.000000 0.000000 0.000000
#
# Coordination Sequence:
#
# PCOD8036820 Si02
#       6
#     2   2   2   2   2   2
#     4  12  23  42  68 100 133 178 233 284 336 409
#     4  12  24  41  74 103 135 180 237 286 344 407
#     4  12  24  45  73  96 139 187 228 284 363 410
#     4  12  28  48  74 107 149 187 235 298 364 429
#     4  12  27  44  68 101 140 181 230 286 349 424
#     4  12  26  46  75 108 140 187 247 294 346 427
#
# _framework density 22.277663
#
# number of rings (size 3 to 8) (size 9 to 14) (size 15 to 20)
#    0.000    0.000    5.000    5.000    2.333    4.000 
#    0.000    0.000    0.000    0.000    0.000    0.000 
#    0.000    0.000    0.000    0.000    0.000    0.000 
#
# Total GULP energy -148846.154906 kJ/mol
# GULP energy per Si atom -12403.846242 kJ/mol
# Density = 2.222696 g / cm^3
# Si number density = 22.277663 Si / 1000 Ang^3
#
#
#
# Elastic Constant Matrix: (Units=GPa)
#
#
# Indices 1 2 3 4 5 6 
#
# 1 135.8846 50.9156 41.8999 -1.2107 -15.7851 -14.9625
# 2 50.9156 93.9668 21.2745 9.5593 -1.4551 -13.9232
# 3 41.8999 21.2745 112.2295 3.2451 -2.2646 -14.5649
# 4 -1.2107 9.5593 3.2451 41.9681 7.2398 9.4827
# 5 -15.7851 -1.4551 -2.2646 7.2398 44.2457 2.5487
# 6 -14.9625 -13.9232 -14.5649 9.4827 2.5487 41.5065
#
#
#
# Elastic Compliance Matrix: (Units=1/GPa)
#
#
# Indices 1 2 3 4 5 6 
#
# 1 0.010597 -0.005033 -0.002872 0.000950 0.003272 0.000706
# 2 -0.005033 0.014416 -0.000240 -0.004148 -0.000882 0.003939
# 3 -0.002872 -0.000240 0.010436 -0.001415 -0.000434 0.002896
# 4 0.000950 -0.004148 -0.001415 0.027286 -0.003900 -0.007539
# 5 0.003272 -0.000882 -0.000434 -0.003900 0.024348 0.000127
# 6 0.000706 0.003939 0.002896 -0.007539 0.000127 0.028399
#
#
# Mechanical properties :
#
#
# Convention : Reuss Voigt Hill
#
# Bulk Modulus (GPa) = 52.19820 63.36234 57.78027
# Shear Modulus (GPa) = 36.19047 40.74347 38.46697
#
# Velocity S-wave (km/s) = 4.03490 4.28120 4.15987
# Velocity P-wave (km/s) = 6.72227 7.27613 7.00467
#
# Compressibility (1/GPa) = 0.01915775
#
# Stress axis : x y z
#
# Youngs Moduli (GPa) = 94.36697 69.36965 95.82132
#
# Poissons Ratio (x) = 0.34914 0.27520
# Poissons Ratio (y) = 0.47496 0.02303
# Poissons Ratio (z) = 0.27102 0.01667
#
# Static dielectric constant tensor:
#      x y z
#    x 3.477790 0.223780 -0.290970 
#    y 0.223780 4.088650 0.118050 
#    z -0.290970 0.118050 3.903200 
# 
# 
# High freq. dielectric constant tensor:
#      x y z
#    x 1.879310 0.009760 -0.000310 
#    y 0.009760 1.882140 0.002740 
#    z -0.000310 0.002740 1.893430 
# 
# From -- ./inp_files/23564.got.cif
#   From: 2010.06.25/outbox.cif.g09.slc.cpg/sg2_12_cif.got.tgz:23564.got - 2010.06.27 13:26:56.
