data_PCOD8036975
_publ_section_title
;
Structure prediction by ZEFSAII (Michael W. Deem and Ramdas Pophale) SiO2 
 PCOD8036975
Probable space group: P -1
;
_chemical_formula_sum "Si O2"
_cell_formula_units_Z 14
_cell_length_a 8.920285
_cell_length_b 10.439655
_cell_length_c 8.423706
_cell_angle_alpha 85.783929
_cell_angle_beta 90.527164
_cell_angle_gamma 128.588011
_cell_volume 610.834433
_symmetry_space_group_name_H-M "P -1"
_symmetry_group_IT_number 2
_symmetry_cell_setting 'triclinic'
loop_
_space_group_symop_operation_xyz
x,y,z
-x,-y,-z
loop_
_atom_site_type_symbol
_atom_site_label
_atom_site_fract_x
_atom_site_fract_y
_atom_site_fract_z
Si Si1 0.831696 0.375766 0.687285
Si Si2 0.588829 0.232478 0.987323
Si Si3 0.081791 0.153074 0.375733
Si Si4 0.175785 0.422100 0.569724
Si Si5 0.913307 0.280961 0.159283
Si Si6 0.757166 0.575309 0.078482
Si Si7 0.788328 0.864262 0.941933
O O1 0.739657 0.411329 0.541391
O O2 0.947146 0.319195 0.614073
O O3 0.990018 0.546495 0.766806
O O4 0.660825 0.233822 0.811307
O O5 0.692850 0.198345 0.123145
O O6 0.634530 0.406707 0.996883
O O7 0.356535 0.096009 0.014737
O O8 0.926046 0.158784 0.278280
O O9 0.208767 0.312869 0.474157
O O10 0.209877 0.148280 0.247342
O O11 0.000000 0.000000 0.500000
O O12 0.283489 0.465419 0.732523
O O13 0.020501 0.319336 0.986756
O O14 0.692456 0.684098 0.026670
O O15 0.000000 0.000000 0.000000
#
# Coordination Sequence:
#
# PCOD8036975 Si02
#       7
#     2   2   2   2   2   2   2
#     4   9  17  31  60  99 123 144 184 253 312 343
#     4  11  19  38  63  94 118 151 211 256 289 354
#     4  10  22  40  60  80 120 169 197 236 303 367
#     4  10  17  31  62  92 126 148 186 243 312 355
#     4   9  17  34  63  91 118 152 199 250 293 353
#     4  10  18  35  63  93 121 156 193 247 304 357
#     4  11  25  42  60  80 120 172 209 244 298 359
#
# _framework density 22.919467000000001
#
# number of rings (size 3 to 8) (size 9 to 14) (size 15 to 20)
#    0.000    2.000    2.857    3.000    0.000    0.000 
#    0.000    7.857    0.000    0.000    0.000    0.000 
#    0.000    0.000    0.000    0.000    0.000    0.000 
#
# Total GULP energy -173494.339643 kJ/mol
# GULP energy per Si atom -12392.452832 kJ/mol
# Density = 2.286730 g / cm^3
# Si number density = 22.919467 Si / 1000 Ang^3
#
#
#
# Elastic Constant Matrix: (Units=GPa)
#
#
# Indices 1 2 3 4 5 6 
#
# 1 106.2092 15.6863 30.3166 -15.1736 -6.2131 21.5226
# 2 15.6863 31.3401 12.2909 -9.3078 -0.1375 -2.1037
# 3 30.3166 12.2909 148.6762 -7.1886 -2.1553 4.1898
# 4 -15.1736 -9.3078 -7.1886 24.5715 -13.9086 0.0655
# 5 -6.2131 -0.1375 -2.1553 -13.9086 37.4846 -1.5994
# 6 21.5226 -2.1037 4.1898 0.0655 -1.5994 31.2950
#
#
#
# Elastic Compliance Matrix: (Units=1/GPa)
#
#
# Indices 1 2 3 4 5 6 
#
# 1 0.014168 -0.004119 -0.001727 0.009802 0.005464 -0.009531
# 2 -0.004119 0.039479 -0.001805 0.014745 0.005084 0.005957
# 3 -0.001727 -0.001805 0.007256 0.000564 0.000338 0.000111
# 4 0.009802 0.014745 0.000564 0.067561 0.026583 -0.004609
# 5 0.005464 0.005084 0.000338 0.026583 0.037416 -0.001605
# 6 -0.009531 0.005957 0.000111 -0.004609 -0.001605 0.038822
#
#
# Mechanical properties :
#
#
# Convention : Reuss Voigt Hill
#
# Bulk Modulus (GPa) = 21.92877 44.75700 33.34288
# Shear Modulus (GPa) = 21.25813 33.86567 27.56190
#
# Velocity S-wave (km/s) = 3.04882 3.84812 3.47155
# Velocity P-wave (km/s) = 4.68852 6.27012 5.53609
#
# Compressibility (1/GPa) = 0.04560219
#
# Stress axis : x y z
#
# Youngs Moduli (GPa) = 70.58167 25.33005 137.80925
#
# Poissons Ratio (x) = 0.10433 0.23796
# Poissons Ratio (y) = 0.29070 0.24875
# Poissons Ratio (z) = 0.12188 0.04572
#
# Static dielectric constant tensor:
#      x y z
#    x 4.740150 0.123560 -0.043510 
#    y 0.123560 4.083900 0.119360 
#    z -0.043510 0.119360 4.454980 
# 
# 
# High freq. dielectric constant tensor:
#      x y z
#    x 1.904720 -0.027770 -0.001770 
#    y -0.027770 1.852350 0.001980 
#    z -0.001770 0.001980 1.918890 
# 
# From -- ./inp_files/177896.got.cif
#   From: 2010.06.25/outbox.cif.g09.slc.cpg/sg2_89_cif.got.tgz:177896.got - 2010.06.27 13:26:56.
