data_PCOD8036729
_publ_section_title
;
Structure prediction by ZEFSAII (Michael W. Deem and Ramdas Pophale) SiO2 
 PCOD8036729
Probable space group: P -1
;
_chemical_formula_sum "Si O2"
_cell_formula_units_Z 16
_cell_length_a 16.669607
_cell_length_b 8.592014
_cell_length_c 11.250007
_cell_angle_alpha 96.688604
_cell_angle_beta 135.415854
_cell_angle_gamma 51.223656
_cell_volume 703.918919
_symmetry_space_group_name_H-M "P -1"
_symmetry_group_IT_number 2
_symmetry_cell_setting 'triclinic'
loop_
_space_group_symop_operation_xyz
x,y,z
-x,-y,-z
loop_
_atom_site_type_symbol
_atom_site_label
_atom_site_fract_x
_atom_site_fract_y
_atom_site_fract_z
Si Si1 0.740444 0.622333 0.082754
Si Si2 0.071789 0.081427 0.023894
Si Si3 0.288443 0.005894 0.854114
Si Si4 0.915676 0.262806 0.446709
Si Si5 0.898017 0.733071 0.707941
Si Si6 0.414025 0.778560 0.719712
Si Si7 0.426780 0.718734 0.217508
Si Si8 0.778089 0.509250 0.568375
O O1 0.800244 0.426200 0.222628
O O2 0.900430 0.500766 0.152243
O O3 0.665223 0.859358 0.087123
O O4 0.575568 0.722143 0.842115
O O5 0.079342 0.217806 0.134175
O O6 0.275847 0.842412 0.168272
O O7 0.935164 0.265723 0.790664
O O8 0.000000 0.000000 0.000000
O O9 0.402436 0.800468 0.852515
O O10 0.328757 0.881777 0.010156
O O11 0.073886 0.221798 0.621948
O O12 0.786048 0.420796 0.438267
O O13 0.000000 0.000000 0.500000
O O14 0.799417 0.672274 0.604425
O O15 0.779083 0.971905 0.519683
O O16 0.455922 0.560125 0.705545
O O17 0.573990 0.689610 0.417166
#
# Coordination Sequence:
#
# PCOD8036729 Si02
#       8
#     2   2   2   2   2   2   2   2
#     4  12  24  43  70 103 145 180 225 281 346 410
#     4  12  28  48  73  98 136 183 239 288 341 401
#     4  12  22  44  68 102 143 180 224 280 346 416
#     4  12  23  40  72 102 141 181 220 277 349 413
#     4  12  26  46  71 102 138 187 233 282 341 404
#     4  12  25  41  70 104 142 179 227 279 345 413
#     4  12  26  46  70 102 139 179 231 287 343 407
#     4  12  26  47  72 101 138 180 232 287 345 410
#
# _framework density 22.729889
#
# number of rings (size 3 to 8) (size 9 to 14) (size 15 to 20)
#    0.000    0.000    3.750    6.750    1.750    3.500 
#    0.000    0.000    0.000    0.000    0.000    0.000 
#    0.000    0.000    0.000    0.000    0.000    0.000 
#
# Total GULP energy -198513.469079 kJ/mol
# GULP energy per Si atom -12407.091817 kJ/mol
# Density = 2.267815 g / cm^3
# Si number density = 22.729889 Si / 1000 Ang^3
#
#
#
# Elastic Constant Matrix: (Units=GPa)
#
#
# Indices 1 2 3 4 5 6 
#
# 1 116.6972 49.6476 25.8017 -0.2223 23.5030 -5.4835
# 2 49.6476 99.3161 1.9503 9.2016 -2.8354 -13.1184
# 3 25.8017 1.9503 67.7281 2.2969 27.1833 -15.0518
# 4 -0.2223 9.2016 2.2969 32.2864 2.9263 2.4336
# 5 23.5030 -2.8354 27.1833 2.9263 40.5027 -7.1742
# 6 -5.4835 -13.1184 -15.0518 2.4336 -7.1742 30.6738
#
#
#
# Elastic Compliance Matrix: (Units=1/GPa)
#
#
# Indices 1 2 3 4 5 6 
#
# 1 0.014079 -0.008148 -0.003201 0.003691 -0.007679 -0.004627
# 2 -0.008148 0.015936 0.002183 -0.005955 0.006292 0.008374
# 3 -0.003201 0.002183 0.022542 -0.001885 -0.011405 0.008905
# 4 0.003691 -0.005955 -0.001885 0.033775 -0.004910 -0.006640
# 5 -0.007679 0.006292 -0.011405 -0.004910 0.038502 0.005116
# 6 -0.004627 0.008374 0.008905 -0.006640 0.005116 0.041448
#
#
# Mechanical properties :
#
#
# Convention : Reuss Voigt Hill
#
# Bulk Modulus (GPa) = 29.21745 48.72672 38.97209
# Shear Modulus (GPa) = 25.50723 34.44872 29.97797
#
# Velocity S-wave (km/s) = 3.35354 3.89725 3.63558
# Velocity P-wave (km/s) = 5.27988 6.46029 5.89968
#
# Compressibility (1/GPa) = 0.03422613
#
# Stress axis : x y z
#
# Youngs Moduli (GPa) = 71.02632 62.74915 44.36172
#
# Poissons Ratio (x) = 0.51126 0.14199
# Poissons Ratio (y) = 0.57870 -0.09682
# Poissons Ratio (z) = 0.22733 -0.13695
#
# Static dielectric constant tensor:
#      x y z
#    x 4.296580 0.039960 0.176820 
#    y 0.039960 4.122340 -0.009000 
#    z 0.176820 -0.009000 4.321330 
# 
# 
# High freq. dielectric constant tensor:
#      x y z
#    x 1.902160 0.007590 0.015840 
#    y 0.007590 1.901910 -0.003190 
#    z 0.015840 -0.003190 1.911310 
# 
# From -- ./inp_files/306274.got.cif
#   From: 2010.06.25/outbox.cif.g09.slc.cpg/sg2_154_cif.got.tgz:306274.got - 2010.06.27 13:26:56.
