data_PCOD8036751
_publ_section_title
;
Structure prediction by ZEFSAII (Michael W. Deem and Ramdas Pophale) SiO2 
 PCOD8036751
Probable space group: P -1
;
_chemical_formula_sum "Si O2"
_cell_formula_units_Z 16
_cell_length_a 9.631658
_cell_length_b 14.024373
_cell_length_c 8.237960
_cell_angle_alpha 119.106749
_cell_angle_beta 81.125988
_cell_angle_gamma 65.765496
_cell_volume 794.277495
_symmetry_space_group_name_H-M "P -1"
_symmetry_group_IT_number 2
_symmetry_cell_setting 'triclinic'
loop_
_space_group_symop_operation_xyz
x,y,z
-x,-y,-z
loop_
_atom_site_type_symbol
_atom_site_label
_atom_site_fract_x
_atom_site_fract_y
_atom_site_fract_z
Si Si1 0.661595 0.407209 0.562414
Si Si2 0.285524 0.396928 0.881761
Si Si3 0.518872 0.167551 0.095748
Si Si4 0.587488 0.322560 0.983264
Si Si5 0.873101 0.319523 0.746736
Si Si6 0.636965 0.593963 0.481258
Si Si7 0.564055 0.001712 0.236344
Si Si8 0.754097 0.828334 0.344858
O O1 0.520391 0.534949 0.796364
O O2 0.821329 0.306596 0.562704
O O3 0.726141 0.452086 0.436541
O O4 0.564932 0.342548 0.460311
O O5 0.265947 0.425225 0.717161
O O6 0.225846 0.299738 0.846215
O O7 0.479518 0.326856 0.851096
O O8 0.160524 0.535898 0.109373
O O9 0.630605 0.204514 0.001286
O O10 0.359065 0.303271 0.314678
O O11 0.620042 0.065861 0.142886
O O12 0.445249 0.111513 0.939652
O O13 0.764681 0.296604 0.874846
O O14 0.069533 0.206345 0.642227
O O15 0.382273 0.115231 0.438359
O O16 0.700181 0.937167 0.303900
#
# Coordination Sequence:
#
# PCOD8036751 Si02
#       8
#     2   2   2   2   2   2   2   2
#     4   9  18  32  56  87 120 148 178 224 291 348
#     4  11  18  36  59  90 113 153 184 220 288 357
#     4  10  20  36  64  79 106 147 206 236 266 332
#     4  10  18  34  61  87 115 146 187 229 284 342
#     4  11  21  36  57  93 122 141 177 243 289 337
#     4  10  17  31  59  87 111 150 188 221 277 352
#     4  10  22  41  60  79 105 159 205 233 271 331
#     4  11  23  39  61  81 114 152 196 235 281 331
#
# _framework density 20.144093999999999
#
# number of rings (size 3 to 8) (size 9 to 14) (size 15 to 20)
#    0.000    1.750    5.000    1.125    0.000    0.000 
#    0.000    4.375    0.000    0.000    0.000    0.000 
#    0.000    0.000    0.000    0.000    0.000    0.000 
#
# Total GULP energy -198340.566594 kJ/mol
# GULP energy per Si atom -12396.285412 kJ/mol
# Density = 2.009824 g / cm^3
# Si number density = 20.144094 Si / 1000 Ang^3
#
#
#
# Elastic Constant Matrix: (Units=GPa)
#
#
# Indices 1 2 3 4 5 6 
#
# 1 76.1112 50.8370 11.5239 1.5538 -5.1125 -16.1871
# 2 50.8370 126.8781 22.4211 -22.3276 -14.7881 -6.1603
# 3 11.5239 22.4211 48.5442 -10.6088 7.5248 -7.7350
# 4 1.5538 -22.3276 -10.6088 28.7563 4.5753 0.8198
# 5 -5.1125 -14.7881 7.5248 4.5753 22.4393 2.3686
# 6 -16.1871 -6.1603 -7.7350 0.8198 2.3686 34.5228
#
#
#
# Elastic Compliance Matrix: (Units=1/GPa)
#
#
# Indices 1 2 3 4 5 6 
#
# 1 0.021874 -0.009773 -0.001440 -0.009555 0.000087 0.008411
# 2 -0.009773 0.014904 -0.004230 0.009454 0.007467 -0.003607
# 3 -0.001440 -0.004230 0.028208 0.009440 -0.015101 0.005702
# 4 -0.009555 0.009454 0.009440 0.047530 -0.008675 -0.001211
# 5 0.000087 0.007467 -0.015101 -0.008675 0.056941 -0.005711
# 6 0.008411 -0.003607 0.005702 -0.001211 -0.005711 0.033965
#
#
# Mechanical properties :
#
#
# Convention : Reuss Voigt Hill
#
# Bulk Modulus (GPa) = 29.32563 46.78861 38.05712
# Shear Modulus (GPa) = 20.35231 28.26044 24.30638
#
# Velocity S-wave (km/s) = 3.18203 3.74961 3.47742
# Velocity P-wave (km/s) = 5.29999 6.48255 5.92087
#
# Compressibility (1/GPa) = 0.03409986
#
# Stress axis : x y z
#
# Youngs Moduli (GPa) = 45.71645 67.09777 35.45133
#
# Poissons Ratio (x) = 0.65574 0.05106
# Poissons Ratio (y) = 0.44678 0.14995
# Poissons Ratio (z) = 0.06584 0.28380
#
# Static dielectric constant tensor:
#      x y z
#    x 3.415500 0.178210 0.363870 
#    y 0.178210 3.883800 -0.264260 
#    z 0.363870 -0.264260 3.615140 
# 
# 
# High freq. dielectric constant tensor:
#      x y z
#    x 1.751100 0.022020 0.031910 
#    y 0.022020 1.792550 -0.028340 
#    z 0.031910 -0.028340 1.773670 
# 
# From -- ./inp_files/170678.got.cif
#   From: 2010.06.25/outbox.cif.g09.slc.cpg/sg2_86_cif.got.tgz:170678.got - 2010.06.27 13:26:56.
