data_PCOD8036609
_publ_section_title
;
Structure prediction by ZEFSAII (Michael W. Deem and Ramdas Pophale) SiO2 
 PCOD8036609
Probable space group: P -1
;
_chemical_formula_sum "Si O2"
_cell_formula_units_Z 14
_cell_length_a 20.516549
_cell_length_b 14.475185
_cell_length_c 11.527739
_cell_angle_alpha 151.261557
_cell_angle_beta 30.842110
_cell_angle_gamma 159.359960
_cell_volume 565.428320
_symmetry_space_group_name_H-M "P -1"
_symmetry_group_IT_number 2
_symmetry_cell_setting 'triclinic'
loop_
_space_group_symop_operation_xyz
x,y,z
-x,-y,-z
loop_
_atom_site_type_symbol
_atom_site_label
_atom_site_fract_x
_atom_site_fract_y
_atom_site_fract_z
Si Si1 0.145459 0.771807 0.655707
Si Si2 0.909975 0.735012 0.610061
Si Si3 0.993128 0.787927 0.134815
Si Si4 0.409343 0.761113 0.782098
Si Si5 0.380290 0.665158 0.202873
Si Si6 0.238542 0.789810 0.859940
Si Si7 0.731826 0.829735 0.287326
O O1 0.315460 0.812000 0.450477
O O2 0.000000 0.500000 0.500000
O O3 0.209029 0.037424 0.786096
O O4 0.044845 0.708759 0.860411
O O5 0.711408 0.532865 0.760557
O O6 0.901007 0.522445 0.326596
O O7 0.921291 0.906214 0.680810
O O8 0.091614 0.949826 0.653110
O O9 0.768507 0.549377 0.232845
O O10 0.092195 0.805353 0.118144
O O11 0.346502 0.833200 0.854498
O O12 0.555759 0.761582 0.521496
O O13 0.500000 0.000000 0.000000
O O14 0.606945 0.944597 0.173461
O O15 0.327011 0.461440 0.952312
#
# Coordination Sequence:
#
# PCOD8036609 Si02
#       7
#     2   2   2   2   2   2   2
#     4  12  21  43  77 110 150 195 246 311 366 431
#     4  12  26  46  78 117 150 194 248 311 379 436
#     4  12  28  47  76 108 159 198 244 309 375 445
#     4  12  29  53  77 109 149 203 254 307 375 447
#     4  12  25  44  79 117 148 192 251 309 370 440
#     4  12  28  49  76 109 154 199 245 312 378 443
#     4  12  26  48  79 113 150 197 257 303 365 449
#
# _framework density 24.759989999999998
#
# number of rings (size 3 to 8) (size 9 to 14) (size 15 to 20)
#    0.000    0.000    5.714    3.857    4.000    1.714 
#    2.571    0.000    0.000    0.000    0.000    0.000 
#    0.000    0.000    0.000    0.000    0.000    0.000 
#
# Total GULP energy -173542.870691 kJ/mol
# GULP energy per Si atom -12395.919335 kJ/mol
# Density = 2.470363 g / cm^3
# Si number density = 24.759990 Si / 1000 Ang^3
#
#
#
# Elastic Constant Matrix: (Units=GPa)
#
#
# Indices 1 2 3 4 5 6 
#
# 1 85.2293 33.4748 49.2444 14.3492 -8.6152 -10.0795
# 2 33.4748 140.8313 41.7482 11.1983 -9.6468 -8.0414
# 3 49.2444 41.7482 77.2404 3.6937 -15.6251 -7.5903
# 4 14.3492 11.1983 3.6937 44.5900 -6.7636 -5.6680
# 5 -8.6152 -9.6468 -15.6251 -6.7636 26.5928 5.1562
# 6 -10.0795 -8.0414 -7.5903 -5.6680 5.1562 29.0431
#
#
#
# Elastic Compliance Matrix: (Units=1/GPa)
#
#
# Indices 1 2 3 4 5 6 
#
# 1 0.020231 -0.000685 -0.012589 -0.005372 -0.003046 0.003034
# 2 -0.000685 0.008639 -0.004088 -0.001514 -0.000029 0.000796
# 3 -0.012589 -0.004088 0.025059 0.004580 0.010306 0.000112
# 4 -0.005372 -0.001514 0.004580 0.025469 0.006344 0.002757
# 5 -0.003046 -0.000029 0.010306 0.006344 0.045279 -0.005172
# 6 0.003034 0.000796 0.000112 0.002757 -0.005172 0.037190
#
#
# Mechanical properties :
#
#
# Convention : Reuss Voigt Hill
#
# Bulk Modulus (GPa) = 52.07003 61.35954 56.71479
# Shear Modulus (GPa) = 24.63124 31.96743 28.29933
#
# Velocity S-wave (km/s) = 3.15747 3.59708 3.38442
# Velocity P-wave (km/s) = 5.86245 6.48748 6.18287
#
# Compressibility (1/GPa) = 0.01920490
#
# Stress axis : x y z
#
# Youngs Moduli (GPa) = 49.42805 115.75155 39.90554
#
# Poissons Ratio (x) = 0.07931 0.50238
# Poissons Ratio (y) = 0.03387 0.16313
# Poissons Ratio (z) = 0.62226 0.47319
#
# Static dielectric constant tensor:
#      x y z
#    x 3.158160 0.144050 0.759810 
#    y 0.144050 4.662310 -0.203110 
#    z 0.759810 -0.203110 4.023880 
# 
# 
# High freq. dielectric constant tensor:
#      x y z
#    x 1.983350 -0.002370 -0.009550 
#    y -0.002370 2.004180 0.003920 
#    z -0.009550 0.003920 1.993920 
# 
# From -- ./inp_files/274150.got.cif
#   From: 2010.06.25/outbox.cif.g09.slc.cpg/sg2_138_cif.got.tgz:274150.got - 2010.06.27 13:26:56.
