data_PCOD8036634
_publ_section_title
;
Structure prediction by ZEFSAII (Michael W. Deem and Ramdas Pophale) SiO2 
 PCOD8036634
Probable space group: P -1
;
_chemical_formula_sum "Si O2"
_cell_formula_units_Z 16
_cell_length_a 8.399187
_cell_length_b 14.877096
_cell_length_c 17.470062
_cell_angle_alpha 141.104432
_cell_angle_beta 147.172284
_cell_angle_gamma 40.794976
_cell_volume 708.206993
_symmetry_space_group_name_H-M "P -1"
_symmetry_group_IT_number 2
_symmetry_cell_setting 'triclinic'
loop_
_space_group_symop_operation_xyz
x,y,z
-x,-y,-z
loop_
_atom_site_type_symbol
_atom_site_label
_atom_site_fract_x
_atom_site_fract_y
_atom_site_fract_z
Si Si1 0.379719 0.376998 0.181821
Si Si2 0.459420 0.320939 0.582745
Si Si3 0.074648 0.393784 0.622104
Si Si4 0.654734 0.214046 0.323769
Si Si5 0.504665 0.213146 0.970415
Si Si6 0.247482 0.427646 0.872198
Si Si7 0.945878 0.948931 0.358354
Si Si8 0.873772 0.734076 0.737368
O O1 0.548987 0.506905 0.324359
O O2 0.570675 0.228049 0.208949
O O3 0.329065 0.306841 0.034392
O O4 0.062770 0.446945 0.144416
O O5 0.285495 0.304873 0.579605
O O6 0.294325 0.258007 0.406658
O O7 0.805772 0.212503 0.662161
O O8 0.202861 0.334317 0.718043
O O9 0.738981 0.369675 0.470734
O O10 0.062749 0.565258 0.722785
O O11 0.373259 0.204457 0.255824
O O12 0.951881 0.075423 0.380166
O O13 0.876522 0.172916 0.103496
O O14 0.382301 0.314119 0.916509
O O15 0.393724 0.068392 0.809718
O O16 0.500000 0.500000 0.000000
O O17 0.000000 0.000000 0.500000
#
# Coordination Sequence:
#
# PCOD8036634 Si02
#       8
#     2   2   2   2   2   2   2   2
#     4  12  23  43  74 106 138 183 238 306 349 405
#     4  12  24  45  78 105 141 184 239 294 352 423
#     4  12  23  40  73 108 136 183 241 295 350 412
#     4  12  25  44  70 101 149 191 230 285 354 429
#     4  12  26  43  74 105 142 184 241 294 353 419
#     4  12  22  37  65 108 141 171 228 299 361 397
#     4  12  28  50  70 100 147 197 232 280 360 434
#     4  12  22  44  72 110 135 184 239 297 351 406
#
# _framework density 22.592265000000001
#
# number of rings (size 3 to 8) (size 9 to 14) (size 15 to 20)
#    0.000    0.000    7.500    3.375    1.750    1.500 
#    0.000    0.000    0.000    0.000    0.000    0.000 
#    0.000    0.000    0.000    0.000    0.000    0.000 
#
# Total GULP energy -198244.722422 kJ/mol
# GULP energy per Si atom -12390.295151 kJ/mol
# Density = 2.254084 g / cm^3
# Si number density = 22.592265 Si / 1000 Ang^3
#
#
#
# Elastic Constant Matrix: (Units=GPa)
#
#
# Indices 1 2 3 4 5 6 
#
# 1 140.0742 48.9688 71.1903 -12.8481 -23.8495 20.7390
# 2 48.9688 118.4150 57.0561 -15.5954 -37.6336 37.3135
# 3 71.1903 57.0561 193.2592 -11.7412 -34.6998 28.8502
# 4 -12.8481 -15.5954 -11.7412 30.8156 13.2117 -7.9056
# 5 -23.8495 -37.6336 -34.6998 13.2117 71.6633 -31.9144
# 6 20.7390 37.3135 28.8502 -7.9056 -31.9144 37.3931
#
#
#
# Elastic Compliance Matrix: (Units=1/GPa)
#
#
# Indices 1 2 3 4 5 6 
#
# 1 0.009516 -0.002228 -0.002638 0.001621 0.000193 -0.000512
# 2 -0.002228 0.013899 -0.001447 0.002571 0.000800 -0.010291
# 3 -0.002638 -0.001447 0.006999 -0.000024 0.001037 -0.001613
# 4 0.001621 0.002571 -0.000024 0.036514 -0.004759 0.000212
# 5 0.000193 0.000800 0.001037 -0.004759 0.023569 0.017404
# 6 -0.000512 -0.010291 -0.001613 0.000212 0.017404 0.053439
#
#
# Mechanical properties :
#
#
# Convention : Reuss Voigt Hill
#
# Bulk Modulus (GPa) = 56.21637 89.57544 72.89591
# Shear Modulus (GPa) = 30.77112 46.27661 38.52386
#
# Velocity S-wave (km/s) = 3.69456 4.53077 4.13386
# Velocity P-wave (km/s) = 6.56786 8.19178 7.42435
#
# Compressibility (1/GPa) = 0.01778841
#
# Stress axis : x y z
#
# Youngs Moduli (GPa) = 105.08574 71.94801 142.88080
#
# Poissons Ratio (x) = 0.16031 0.37693
# Poissons Ratio (y) = 0.23414 0.20668
# Poissons Ratio (z) = 0.27723 0.10407
#
# Static dielectric constant tensor:
#      x y z
#    x 4.208670 0.045400 -0.069750 
#    y 0.045400 4.005260 -0.140650 
#    z -0.069750 -0.140650 4.358360 
# 
# 
# High freq. dielectric constant tensor:
#      x y z
#    x 1.898950 0.018230 -0.001370 
#    y 0.018230 1.876420 -0.014850 
#    z -0.001370 -0.014850 1.904650 
# 
# From -- ./inp_files/561398.got.cif
#   From: 2010.06.25/outbox.cif.g09.slc.cpg/sg2_281_cif.got.tgz:561398.got - 2010.06.27 13:26:56.
