data_PCOD8036044
_publ_section_title
;
Structure prediction by ZEFSAII (Michael W. Deem and Ramdas Pophale) SiO2 
 PCOD8036044
Probable space group: P -1
;
_chemical_formula_sum "Si O2"
_cell_formula_units_Z 12
_cell_length_a 8.879959
_cell_length_b 11.272293
_cell_length_c 8.879385
_cell_angle_alpha 119.830488
_cell_angle_beta 98.618650
_cell_angle_gamma 39.791718
_cell_volume 448.168004
_symmetry_space_group_name_H-M "P -1"
_symmetry_group_IT_number 2
_symmetry_cell_setting 'triclinic'
loop_
_space_group_symop_operation_xyz
x,y,z
-x,-y,-z
loop_
_atom_site_type_symbol
_atom_site_label
_atom_site_fract_x
_atom_site_fract_y
_atom_site_fract_z
Si Si1 0.811486 0.527314 0.414790
Si Si2 0.776226 0.596742 0.124280
Si Si3 0.872468 0.255574 0.488894
Si Si4 0.711770 0.939218 0.353345
Si Si5 0.939793 0.927685 0.130005
Si Si6 0.431811 0.674832 0.900809
O O1 0.884748 0.448084 0.200287
O O2 0.825092 0.372250 0.401262
O O3 0.000000 0.500000 0.500000
O O4 0.520732 0.792205 0.552205
O O5 0.619461 0.849683 0.311351
O O6 0.583876 0.640986 0.032942
O O7 0.000000 0.500000 0.000000
O O8 0.911886 0.069874 0.337142
O O9 0.625632 0.448068 0.682821
O O10 0.132001 0.124808 0.518754
O O11 0.902839 0.815484 0.153270
O O12 0.724041 0.097938 0.075014
O O13 0.229338 0.717196 0.972684
#
# Coordination Sequence:
#
# PCOD8036044 Si02
#       6
#     2   2   2   2   2   2
#     4  12  26  47  77 112 149 204 251 316 385 452
#     4  12  26  49  75 115 151 196 258 321 379 451
#     4  12  25  52  78 110 157 200 259 310 385 458
#     4  12  26  48  77 113 150 199 258 313 383 452
#     4  11  27  48  78 115 156 205 251 318 380 462
#     4  11  25  50  75 114 153 202 259 309 382 453
#
# _framework density 26.775670000000002
#
# number of rings (size 3 to 8) (size 9 to 14) (size 15 to 20)
#    0.000    0.333    5.000    2.500    2.333    4.000 
#    0.000    0.000    0.000    0.000    0.000    0.000 
#    0.000    0.000    0.000    0.000    0.000    0.000 
#
# Total GULP energy -148902.702085 kJ/mol
# GULP energy per Si atom -12408.558507 kJ/mol
# Density = 2.671473 g / cm^3
# Si number density = 26.775670 Si / 1000 Ang^3
#
#
#
# Elastic Constant Matrix: (Units=GPa)
#
#
# Indices 1 2 3 4 5 6 
#
# 1 103.0880 58.9344 39.3264 -10.5214 -4.4398 9.3591
# 2 58.9344 146.1811 43.8828 -23.2135 -5.3608 -12.9007
# 3 39.3264 43.8828 131.2990 -28.6916 -11.9278 -10.5448
# 4 -10.5214 -23.2135 -28.6916 52.3062 -3.0617 -0.8737
# 5 -4.4398 -5.3608 -11.9278 -3.0617 33.1256 3.8572
# 6 9.3591 -12.9007 -10.5448 -0.8737 3.8572 54.4944
#
#
#
# Elastic Compliance Matrix: (Units=1/GPa)
#
#
# Indices 1 2 3 4 5 6 
#
# 1 0.014229 -0.005392 -0.003055 -0.001261 0.000325 -0.004355
# 2 -0.005392 0.010025 -0.000772 0.003025 0.000533 0.003161
# 3 -0.003055 -0.000772 0.010358 0.004960 0.003399 0.002185
# 4 -0.001261 0.003025 0.004960 0.023196 0.004020 0.001980
# 5 0.000325 0.000533 0.003399 0.004020 0.032086 -0.001478
# 6 -0.004355 0.003161 0.002185 0.001980 -0.001478 0.020406
#
#
# Mechanical properties :
#
#
# Convention : Reuss Voigt Hill
#
# Bulk Modulus (GPa) = 61.83335 73.87281 67.85308
# Shear Modulus (GPa) = 37.27720 43.88021 40.57870
#
# Velocity S-wave (km/s) = 3.73527 4.05261 3.89717
# Velocity P-wave (km/s) = 6.46113 7.03901 6.75625
#
# Compressibility (1/GPa) = 0.01617250
#
# Stress axis : x y z
#
# Youngs Moduli (GPa) = 70.27738 99.74665 96.54793
#
# Poissons Ratio (x) = 0.53784 0.29500
# Poissons Ratio (y) = 0.37894 0.07457
# Poissons Ratio (z) = 0.21473 0.07704
#
# Static dielectric constant tensor:
#      x y z
#    x 5.388560 0.191250 0.198080 
#    y 0.191250 5.399100 0.173330 
#    z 0.198080 0.173330 5.640860 
# 
# 
# High freq. dielectric constant tensor:
#      x y z
#    x 2.090770 0.006550 -0.006750 
#    y 0.006550 2.093120 0.001200 
#    z -0.006750 0.001200 2.106460 
# 
# From -- ./inp_files/183876.got.cif
#   From: 2010.06.25/outbox.cif.g09.slc.cpg/sg2_92_cif.got.tgz:183876.got - 2010.06.27 13:26:56.
