data_PCOD8036920
_publ_section_title
;
Structure prediction by ZEFSAII (Michael W. Deem and Ramdas Pophale) SiO2 
 PCOD8036920
Probable space group: P -1
;
_chemical_formula_sum "Si O2"
_cell_formula_units_Z 16
_cell_length_a 9.117910
_cell_length_b 25.591107
_cell_length_c 8.798941
_cell_angle_alpha 30.915339
_cell_angle_beta 55.363365
_cell_angle_gamma 42.892130
_cell_volume 707.230204
_symmetry_space_group_name_H-M "P -1"
_symmetry_group_IT_number 2
_symmetry_cell_setting 'triclinic'
loop_
_space_group_symop_operation_xyz
x,y,z
-x,-y,-z
loop_
_atom_site_type_symbol
_atom_site_label
_atom_site_fract_x
_atom_site_fract_y
_atom_site_fract_z
Si Si1 0.472502 0.776985 0.373962
Si Si2 0.719385 0.376889 0.739745
Si Si3 0.479655 0.884484 0.791449
Si Si4 0.702021 0.376669 0.113626
Si Si5 0.715999 0.971911 0.020617
Si Si6 0.910521 0.628858 0.650232
Si Si7 0.842326 0.764410 0.655495
Si Si8 0.876883 0.117210 0.171696
O O1 0.319797 0.731612 0.548689
O O2 0.699729 0.664064 0.592306
O O3 0.326330 0.894335 0.277559
O O4 0.532434 0.821561 0.080171
O O5 0.500000 0.500000 0.500000
O O6 0.918095 0.374677 0.555347
O O7 0.717464 0.387391 0.897201
O O8 0.728397 0.253271 0.001084
O O9 0.662847 0.775863 0.843366
O O10 0.252413 0.913792 0.790623
O O11 0.500000 0.000000 0.500000
O O12 0.924880 0.339853 0.150774
O O13 0.500000 0.500000 0.000000
O O14 0.934655 0.879233 0.027736
O O15 0.768781 0.907085 0.319035
O O16 0.500000 0.000000 0.000000
O O17 0.826495 0.731015 0.575865
O O18 0.000000 0.500000 0.000000
O O19 0.000000 0.000000 0.500000
#
# Coordination Sequence:
#
# PCOD8036920 Si02
#       8
#     2   2   2   2   2   2   2   2
#     4  12  26  46  75 108 151 192 249 305 380 442
#     4  12  27  49  77 108 152 194 255 311 377 456
#     4  12  29  45  73 114 155 192 246 314 379 448
#     4  12  29  49  75 109 148 196 250 311 371 446
#     4  12  23  44  76 108 148 192 244 309 370 445
#     4  12  27  48  76 108 144 202 250 306 377 454
#     4  12  25  46  73 103 153 188 246 305 373 437
#     4  12  28  45  78 111 149 200 257 307 381 452
#
# _framework density 22.623470000000001
#
# number of rings (size 3 to 8) (size 9 to 14) (size 15 to 20)
#    0.000    0.000    3.750    5.250   10.500    1.000 
#    0.000    2.500    0.000    0.000    0.000    0.000 
#    0.000    0.000    0.000    0.000    0.000    0.000 
#
# Total GULP energy -198349.144920 kJ/mol
# GULP energy per Si atom -12396.821558 kJ/mol
# Density = 2.257198 g / cm^3
# Si number density = 22.623470 Si / 1000 Ang^3
#
#
#
# Elastic Constant Matrix: (Units=GPa)
#
#
# Indices 1 2 3 4 5 6 
#
# 1 113.0781 39.4375 30.1265 -0.5181 13.4863 -9.5880
# 2 39.4375 134.2176 38.7692 7.4834 3.6061 -2.3995
# 3 30.1265 38.7692 135.0358 -3.5606 13.5790 6.8351
# 4 -0.5181 7.4834 -3.5606 48.6614 -1.8406 3.8214
# 5 13.4863 3.6061 13.5790 -1.8406 46.6091 -5.7083
# 6 -9.5880 -2.3995 6.8351 3.8214 -5.7083 39.1296
#
#
#
# Elastic Compliance Matrix: (Units=1/GPa)
#
#
# Indices 1 2 3 4 5 6 
#
# 1 0.010608 -0.002583 -0.001528 0.000131 -0.002127 0.002385
# 2 -0.002583 0.008899 -0.002115 -0.001567 0.000679 0.000534
# 3 -0.001528 -0.002115 0.008726 0.001057 -0.002195 -0.002452
# 4 0.000131 -0.001567 0.001057 0.021060 0.000331 -0.002257
# 5 -0.002127 0.000679 -0.002195 0.000331 0.023067 0.003237
# 6 0.002385 0.000534 -0.002452 -0.002257 0.003237 0.027294
#
#
# Mechanical properties :
#
#
# Convention : Reuss Voigt Hill
#
# Bulk Modulus (GPa) = 63.37062 66.55532 64.96297
# Shear Modulus (GPa) = 42.60100 45.14657 43.87378
#
# Velocity S-wave (km/s) = 4.34411 4.47202 4.40853
# Velocity P-wave (km/s) = 7.29613 7.49319 7.39532
#
# Compressibility (1/GPa) = 0.01578018
#
# Stress axis : x y z
#
# Youngs Moduli (GPa) = 94.26850 112.36865 114.59380
#
# Poissons Ratio (x) = 0.29025 0.17515
# Poissons Ratio (y) = 0.24349 0.24241
# Poissons Ratio (z) = 0.14408 0.23770
#
# Static dielectric constant tensor:
#      x y z
#    x 3.855480 -0.130830 0.179020 
#    y -0.130830 4.085740 0.102530 
#    z 0.179020 0.102530 4.162890 
# 
# 
# High freq. dielectric constant tensor:
#      x y z
#    x 1.891730 -0.003660 0.005140 
#    y -0.003660 1.912310 -0.000160 
#    z 0.005140 -0.000160 1.913020 
# 
# From -- ./inp_files/227235.got.cif
#   From: 2010.06.25/outbox.cif.g09.slc.cpg/sg2_114_cif.got.tgz:227235.got - 2010.06.27 13:26:56.
