data_PCOD8036732
_publ_section_title
;
Structure prediction by ZEFSAII (Michael W. Deem and Ramdas Pophale) SiO2 
 PCOD8036732
Probable space group: P -1
;
_chemical_formula_sum "Si O2"
_cell_formula_units_Z 16
_cell_length_a 11.567519
_cell_length_b 8.274911
_cell_length_c 14.195095
_cell_angle_alpha 140.713692
_cell_angle_beta 58.815171
_cell_angle_gamma 124.075596
_cell_volume 703.403919
_symmetry_space_group_name_H-M "P -1"
_symmetry_group_IT_number 2
_symmetry_cell_setting 'triclinic'
loop_
_space_group_symop_operation_xyz
x,y,z
-x,-y,-z
loop_
_atom_site_type_symbol
_atom_site_label
_atom_site_fract_x
_atom_site_fract_y
_atom_site_fract_z
Si Si1 0.084576 0.951441 0.666736
Si Si2 0.934291 0.681618 0.869397
Si Si3 0.790467 0.708134 0.756091
Si Si4 0.356584 0.853268 0.942142
Si Si5 0.626018 0.379709 0.376200
Si Si6 0.906674 0.730918 0.372524
Si Si7 0.863291 0.560225 0.042326
Si Si8 0.642107 0.210666 0.497854
O O1 0.211925 0.826879 0.538369
O O2 0.926104 0.748667 0.646197
O O3 0.091001 0.200911 0.707370
O O4 0.113021 0.117584 0.826560
O O5 0.828681 0.597874 0.788754
O O6 0.057525 0.541889 0.739215
O O7 0.847077 0.505151 0.912965
O O8 0.000000 0.000000 0.000000
O O9 0.654864 0.502959 0.668913
O O10 0.753476 0.976982 0.919794
O O11 0.382214 0.796730 0.795645
O O12 0.282278 0.579693 0.904725
O O13 0.500000 0.000000 0.000000
O O14 0.500000 0.500000 0.500000
O O15 0.749168 0.658511 0.445495
O O16 0.639683 0.203803 0.382439
O O17 0.000000 0.000000 0.500000
O O18 0.000000 0.500000 0.000000
O O19 0.500000 0.000000 0.500000
#
# Coordination Sequence:
#
# PCOD8036732 Si02
#       8
#     2   2   2   2   2   2   2   2
#     4  12  23  43  74 101 141 179 237 288 351 411
#     4  12  23  41  72 108 142 178 232 301 357 414
#     4  12  25  46  72 108 140 181 239 296 348 421
#     4  12  27  47  73 104 140 186 238 291 355 424
#     4  12  26  48  71 100 142 190 233 288 357 427
#     4  12  24  42  72 104 136 184 238 289 352 421
#     4  12  22  44  72 103 136 182 228 292 349 420
#     4  12  29  48  70 102 148 191 233 288 356 425
#
# _framework density 22.746535000000002
#
# number of rings (size 3 to 8) (size 9 to 14) (size 15 to 20)
#    0.000    0.000    5.000    4.875    3.500    2.000 
#    0.000    1.250    0.000    0.000    0.000    0.000 
#    0.000    0.000    0.000    0.000    0.000    0.000 
#
# Total GULP energy -198233.740624 kJ/mol
# GULP energy per Si atom -12389.608789 kJ/mol
# Density = 2.269476 g / cm^3
# Si number density = 22.746535 Si / 1000 Ang^3
#
#
#
# Elastic Constant Matrix: (Units=GPa)
#
#
# Indices 1 2 3 4 5 6 
#
# 1 111.1365 62.7900 41.9472 -8.5222 9.1674 5.1938
# 2 62.7900 154.1449 52.6724 -13.8498 19.1443 17.8210
# 3 41.9472 52.6724 121.7070 0.7439 2.5205 12.8802
# 4 -8.5222 -13.8498 0.7439 44.0750 -4.2838 4.8745
# 5 9.1674 19.1443 2.5205 -4.2838 43.1665 -0.0220
# 6 5.1938 17.8210 12.8802 4.8745 -0.0220 49.3600
#
#
#
# Elastic Compliance Matrix: (Units=1/GPa)
#
#
# Indices 1 2 3 4 5 6 
#
# 1 0.012364 -0.004084 -0.002567 0.001014 -0.000564 0.000743
# 2 -0.004084 0.009946 -0.002557 0.002374 -0.003160 -0.002730
# 3 -0.002567 -0.002557 0.010342 -0.001229 0.000953 -0.001384
# 4 0.001014 0.002374 -0.001229 0.024102 0.001194 -0.003023
# 5 -0.000564 -0.003160 0.000953 0.001194 0.024751 0.000845
# 6 0.000743 -0.002730 -0.001384 -0.003023 0.000845 0.021827
#
#
# Mechanical properties :
#
#
# Convention : Reuss Voigt Hill
#
# Bulk Modulus (GPa) = 70.24507 77.97861 74.11184
# Shear Modulus (GPa) = 39.52823 42.62554 41.07689
#
# Velocity S-wave (km/s) = 4.17318 4.33359 4.25414
# Velocity P-wave (km/s) = 7.35998 7.70688 7.53543
#
# Compressibility (1/GPa) = 0.01423587
#
# Stress axis : x y z
#
# Youngs Moduli (GPa) = 80.88232 100.54177 96.69283
#
# Poissons Ratio (x) = 0.41061 0.24820
# Poissons Ratio (y) = 0.33032 0.24725
# Poissons Ratio (z) = 0.20762 0.25709
#
# Static dielectric constant tensor:
#      x y z
#    x 3.931040 0.089170 -0.215400 
#    y 0.089170 3.922990 0.191940 
#    z -0.215400 0.191940 3.925040 
# 
# 
# High freq. dielectric constant tensor:
#      x y z
#    x 1.896130 -0.006730 0.004880 
#    y -0.006730 1.903850 -0.003400 
#    z 0.004880 -0.003400 1.913810 
# 
# From -- ./inp_files/516357.got.cif
#   From: 2010.06.25/outbox.cif.g09.slc.cpg/sg2_259_cif.got.tgz:516357.got - 2010.06.27 13:26:56.
