data_PCOD8036942
_publ_section_title
;
Structure prediction by ZEFSAII (Michael W. Deem and Ramdas Pophale) SiO2 
 PCOD8036942
Probable space group: P -1
;
_chemical_formula_sum "Si O2"
_cell_formula_units_Z 14
_cell_length_a 12.027132
_cell_length_b 20.425722
_cell_length_c 8.053488
_cell_angle_alpha 49.682593
_cell_angle_beta 142.136938
_cell_angle_gamma 149.715956
_cell_volume 608.501172
_symmetry_space_group_name_H-M "P -1"
_symmetry_group_IT_number 2
_symmetry_cell_setting 'triclinic'
loop_
_space_group_symop_operation_xyz
x,y,z
-x,-y,-z
loop_
_atom_site_type_symbol
_atom_site_label
_atom_site_fract_x
_atom_site_fract_y
_atom_site_fract_z
Si Si1 0.247245 0.052468 0.817351
Si Si2 0.556405 0.337312 0.310235
Si Si3 0.205709 0.729725 0.101860
Si Si4 0.504225 0.734521 0.996505
Si Si5 0.697349 0.496994 0.680077
Si Si6 0.067531 0.393001 0.568847
Si Si7 0.033701 0.219292 0.026835
O O1 0.531134 0.148009 0.894255
O O2 0.272286 0.120983 0.898508
O O3 0.000000 0.000000 0.500000
O O4 0.189514 0.935594 0.004947
O O5 0.701085 0.298463 0.590933
O O6 0.397490 0.271696 0.052904
O O7 0.793048 0.495394 0.309912
O O8 0.335021 0.281928 0.284197
O O9 0.045580 0.755782 0.942291
O O10 0.997072 0.604154 0.943849
O O11 0.230847 0.686869 0.707049
O O12 0.447325 0.644716 0.219239
O O13 0.500000 0.500000 0.500000
O O14 0.722755 0.520572 0.476706
O O15 0.046871 0.287401 0.773591
#
# Coordination Sequence:
#
# PCOD8036942 Si02
#       7
#     2   2   2   2   2   2   2
#     4  12  28  50  73 101 145 201 245 289 353 432
#     4  12  24  47  76 108 146 183 237 309 367 423
#     4  12  24  49  76 105 145 189 242 306 355 423
#     4  12  25  47  73 105 145 190 238 298 368 422
#     4  12  25  43  76 111 144 185 241 304 366 427
#     4  12  23  45  73 108 145 183 240 302 368 423
#     4  12  27  46  72 104 147 195 240 290 358 435
#
# _framework density 23.007349999999999
#
# number of rings (size 3 to 8) (size 9 to 14) (size 15 to 20)
#    0.000    0.000    5.714    5.143    2.000    1.143 
#    0.000    0.000    0.000    0.000    0.000    0.000 
#    0.000    0.000    0.000    0.000    0.000    0.000 
#
# Total GULP energy -173619.148795 kJ/mol
# GULP energy per Si atom -12401.367771 kJ/mol
# Density = 2.295498 g / cm^3
# Si number density = 23.007350 Si / 1000 Ang^3
#
#
#
# Elastic Constant Matrix: (Units=GPa)
#
#
# Indices 1 2 3 4 5 6 
#
# 1 108.2733 39.9559 34.8353 4.8305 -2.4243 -10.0024
# 2 39.9559 170.4001 44.5781 -20.1003 -14.0861 -16.6531
# 3 34.8353 44.5781 65.6682 -4.7855 -4.6067 -10.3890
# 4 4.8305 -20.1003 -4.7855 42.9217 5.1355 -4.5445
# 5 -2.4243 -14.0861 -4.6067 5.1355 46.7703 3.0912
# 6 -10.0024 -16.6531 -10.3890 -4.5445 3.0912 39.2772
#
#
#
# Elastic Compliance Matrix: (Units=1/GPa)
#
#
# Indices 1 2 3 4 5 6 
#
# 1 0.011677 -0.001638 -0.005182 -0.002574 -0.000157 0.000623
# 2 -0.001638 0.008023 -0.003859 0.003583 0.001408 0.002268
# 3 -0.005182 -0.003859 0.021159 0.001391 0.000317 0.002777
# 4 -0.002574 0.003583 0.001391 0.026138 -0.002079 0.004419
# 5 -0.000157 0.001408 0.000317 -0.002079 0.022145 -0.001343
# 6 0.000623 0.002268 0.002777 0.004419 -0.001343 0.027932
#
#
# Mechanical properties :
#
#
# Convention : Reuss Voigt Hill
#
# Bulk Modulus (GPa) = 51.27933 64.78667 58.03300
# Shear Modulus (GPa) = 34.49912 40.79199 37.64556
#
# Velocity S-wave (km/s) = 3.87652 4.21527 4.04944
# Velocity P-wave (km/s) = 6.50946 7.20497 6.86603
#
# Compressibility (1/GPa) = 0.01950103
#
# Stress axis : x y z
#
# Youngs Moduli (GPa) = 85.64190 124.64653 47.26022
#
# Poissons Ratio (x) = 0.20417 0.24491
# Poissons Ratio (y) = 0.14028 0.18236
# Poissons Ratio (z) = 0.44382 0.48096
#
# Static dielectric constant tensor:
#      x y z
#    x 4.592760 -0.153350 0.011600 
#    y -0.153350 4.339310 0.031530 
#    z 0.011600 0.031530 3.774010 
# 
# 
# High freq. dielectric constant tensor:
#      x y z
#    x 1.925690 0.001030 0.005760 
#    y 0.001030 1.909910 -0.005640 
#    z 0.005760 -0.005640 1.907530 
# 
# From -- ./inp_files/245787.got.cif
#   From: 2010.06.25/outbox.cif.g09.slc.cpg/sg2_123_cif.got.tgz:245787.got - 2010.06.27 13:26:56.
