data_PCOD8036115
_publ_section_title
;
Structure prediction by ZEFSAII (Michael W. Deem and Ramdas Pophale) SiO2 
 PCOD8036115
Probable space group: P -1
;
_chemical_formula_sum "Si O2"
_cell_formula_units_Z 16
_cell_length_a 8.941392
_cell_length_b 5.184651
_cell_length_c 18.271141
_cell_angle_alpha 73.000665
_cell_angle_beta 118.056912
_cell_angle_gamma 124.508279
_cell_volume 615.560359
_symmetry_space_group_name_H-M "P -1"
_symmetry_group_IT_number 2
_symmetry_cell_setting 'triclinic'
loop_
_space_group_symop_operation_xyz
x,y,z
-x,-y,-z
loop_
_atom_site_type_symbol
_atom_site_label
_atom_site_fract_x
_atom_site_fract_y
_atom_site_fract_z
Si Si1 0.724598 0.624740 0.021169
Si Si2 0.200277 0.723262 0.318887
Si Si3 0.308943 0.410644 0.257983
Si Si4 0.940452 0.712976 0.424952
Si Si5 0.724598 0.624740 0.521169
Si Si6 0.059548 0.287024 0.075048
Si Si7 0.799722 0.276737 0.181113
Si Si8 0.691057 0.589356 0.242017
O O1 0.784417 0.373263 0.085909
O O2 0.500000 0.500000 0.000000
O O3 0.763763 0.691313 0.937544
O O4 0.872628 0.943578 0.070514
O O5 0.355032 0.668063 0.310619
O O6 0.215583 0.626737 0.414091
O O7 0.999999 0.500003 0.250000
O O8 0.238401 0.070386 0.303425
O O9 0.142665 0.401744 0.166101
O O10 0.500001 0.500003 0.250000
O O11 0.763763 0.691314 0.437544
O O12 0.857336 0.598255 0.333899
O O13 0.000000 0.500000 0.500000
O O14 0.127372 0.056422 0.429485
O O15 0.500000 0.500000 0.500000
O O16 0.000000 0.500000 0.000000
O O17 0.644965 0.331934 0.189381
O O18 0.761601 0.929614 0.196575
#
# Coordination Sequence:
#
# PCOD8036115 Si02
#       8
#     2   2   2   2   2   2   2   2
#     4  11  26  45  70 101 139 185 231 286 350 415
#     4  12  25  47  72 101 140 184 234 286 348 414
#     4  12  27  46  73 103 140 184 234 289 348 415
#     4  11  26  45  69 101 142 181 230 291 347 413
#     4  11  26  45  70 101 139 185 231 286 350 415
#     4  11  26  45  69 101 142 181 230 291 347 413
#     4  12  25  47  72 101 140 184 234 286 348 414
#     4  12  27  46  73 103 140 184 234 289 348 415
#
# _framework density 25.992574999999999
#
# number of rings (size 3 to 8) (size 9 to 14) (size 15 to 20)
#    0.000    0.500    2.500    4.500   10.500    1.000 
#    0.000    0.000    0.000    0.000    0.000    0.000 
#    0.000    0.000    0.000    0.000    0.000    0.000 
#
# Total GULP energy -198362.674385 kJ/mol
# GULP energy per Si atom -12397.667149 kJ/mol
# Density = 2.593341 g / cm^3
# Si number density = 25.992575 Si / 1000 Ang^3
#
#
#
# Elastic Constant Matrix: (Units=GPa)
#
#
# Indices 1 2 3 4 5 6 
#
# 1 89.7122 28.1288 8.2490 -5.1763 -10.7029 11.7766
# 2 28.1288 68.7107 42.1955 -24.4571 0.7607 9.3112
# 3 8.2490 42.1955 149.2893 -27.9473 -1.6324 -6.4785
# 4 -5.1763 -24.4571 -27.9473 37.8734 -13.5442 5.0040
# 5 -10.7029 0.7607 -1.6324 -13.5442 55.4217 2.7380
# 6 11.7766 9.3112 -6.4785 5.0040 2.7380 56.4671
#
#
#
# Elastic Compliance Matrix: (Units=1/GPa)
#
#
# Indices 1 2 3 4 5 6 
#
# 1 0.013473 -0.005828 0.000841 -0.000056 0.002786 -0.001882
# 2 -0.005828 0.025053 -0.004430 0.013418 0.001912 -0.004706
# 3 0.000841 -0.004430 0.008727 0.004050 0.001414 0.001129
# 4 -0.000056 0.013418 0.004050 0.042654 0.010646 -0.006032
# 5 0.002786 0.001912 0.001414 0.010646 0.021333 -0.002712
# 6 -0.001882 -0.004706 0.001129 -0.006032 -0.002712 0.019674
#
#
# Mechanical properties :
#
#
# Convention : Reuss Voigt Hill
#
# Bulk Modulus (GPa) = 35.18909 51.65099 43.42004
# Shear Modulus (GPa) = 31.40319 45.22837 38.31578
#
# Velocity S-wave (km/s) = 3.47963 4.17592 3.84357
# Velocity P-wave (km/s) = 5.45081 6.57005 6.03643
#
# Compressibility (1/GPa) = 0.02841790
#
# Stress axis : x y z
#
# Youngs Moduli (GPa) = 74.22295 39.91580 114.58906
#
# Poissons Ratio (x) = 0.23262 -0.09636
# Poissons Ratio (y) = 0.43256 0.50768
# Poissons Ratio (z) = -0.06242 0.17684
#
# Static dielectric constant tensor:
#      x y z
#    x 7.870990 -1.288360 -1.747940 
#    y -1.288360 5.227990 0.793770 
#    z -1.747940 0.793770 5.527050 
# 
# 
# High freq. dielectric constant tensor:
#      x y z
#    x 2.080040 0.004080 -0.011210 
#    y 0.004080 2.020450 -0.014280 
#    z -0.011210 -0.014280 2.055770 
# 
# From -- ./inp_files/47942.got.cif
#   From: 2010.06.25/outbox.cif.g09.slc.cpg/sg2_24_cif.got.tgz:47942.got - 2010.06.27 13:26:56.
