data_PCOD8036090
_publ_section_title
;
Structure prediction by ZEFSAII (Michael W. Deem and Ramdas Pophale) SiO2 
 PCOD8036090
Probable space group: P -1
;
_chemical_formula_sum "Si O2"
_cell_formula_units_Z 10
_cell_length_a 12.835839
_cell_length_b 9.370392
_cell_length_c 10.732725
_cell_angle_alpha 69.957972
_cell_angle_beta 33.827739
_cell_angle_gamma 48.285542
_cell_volume 462.858423
_symmetry_space_group_name_H-M "P -1"
_symmetry_group_IT_number 2
_symmetry_cell_setting 'triclinic'
loop_
_space_group_symop_operation_xyz
x,y,z
-x,-y,-z
loop_
_atom_site_type_symbol
_atom_site_label
_atom_site_fract_x
_atom_site_fract_y
_atom_site_fract_z
Si Si1 0.406992 0.671998 0.217207
Si Si2 0.676397 0.026381 0.253003
Si Si3 0.295344 0.663365 0.762801
Si Si4 0.524103 0.836887 0.863270
Si Si5 0.132706 0.134414 0.367602
O O1 0.632682 0.468175 0.143186
O O2 0.191887 0.670054 0.389416
O O3 0.233642 0.909766 0.387561
O O4 0.554747 0.653395 0.953103
O O5 0.678214 0.172032 0.295640
O O6 0.539820 0.148264 0.221286
O O7 0.500000 0.000000 0.500000
O O8 0.990338 0.791098 0.990698
O O9 0.500000 0.500000 0.500000
O O10 0.799608 0.772668 0.628601
O O11 0.282857 0.074882 0.102553
#
# Coordination Sequence:
#
# PCOD8036090 Si02
#       5
#     2   2   2   2   2
#     4   9  18  36  63  92 118 167 212 255 313 379
#     4  11  27  44  62  98 136 167 214 271 319 382
#     4  11  26  44  68  94 130 175 215 262 326 384
#     4   9  18  36  61  87 127 162 205 263 312 370
#     4   8  17  32  65  94 121 158 211 263 316 366
#
# _framework density 21.604880000000001
#
# number of rings (size 3 to 8) (size 9 to 14) (size 15 to 20)
#    1.200    1.200    0.000    1.200    2.800    4.800 
#    0.000    2.000    0.000    0.000    0.000    0.000 
#    0.000    0.000    0.000    0.000    0.000    0.000 
#
# Total GULP energy -123957.480791 kJ/mol
# GULP energy per Si atom -12395.748079 kJ/mol
# Density = 2.155571 g / cm^3
# Si number density = 21.604880 Si / 1000 Ang^3
#
#
#
# Elastic Constant Matrix: (Units=GPa)
#
#
# Indices 1 2 3 4 5 6 
#
# 1 106.2904 27.0292 69.1592 -11.6282 -20.7445 -12.5399
# 2 27.0292 83.7172 52.1628 -18.5023 0.1531 -25.2055
# 3 69.1592 52.1628 125.2839 -15.9370 -20.8598 -0.0068
# 4 -11.6282 -18.5023 -15.9370 28.8947 8.3336 5.3374
# 5 -20.7445 0.1531 -20.8598 8.3336 37.4178 -2.4028
# 6 -12.5399 -25.2055 -0.0068 5.3374 -2.4028 29.6676
#
#
#
# Elastic Compliance Matrix: (Units=1/GPa)
#
#
# Indices 1 2 3 4 5 6 
#
# 1 0.017565 0.004800 -0.010894 0.000751 0.004229 0.011708
# 2 0.004800 0.028888 -0.014458 0.009728 -0.006122 0.024323
# 3 -0.010894 -0.014458 0.020720 -0.000518 0.004631 -0.016415
# 4 0.000751 0.009728 -0.000518 0.043642 -0.009635 -0.000049
# 5 0.004229 -0.006122 0.004631 -0.009635 0.033891 0.001066
# 6 0.011708 0.024323 -0.016415 -0.000049 0.001066 0.059411
#
#
# Mechanical properties :
#
#
# Convention : Reuss Voigt Hill
#
# Bulk Modulus (GPa) = 38.36052 67.99931 53.17992
# Shear Modulus (GPa) = 19.69190 30.32539 25.00865
#
# Velocity S-wave (km/s) = 3.02231 3.75058 3.40596
# Velocity P-wave (km/s) = 5.47478 7.09212 6.33527
#
# Compressibility (1/GPa) = 0.02606847
#
# Stress axis : x y z
#
# Youngs Moduli (GPa) = 56.93152 34.61656 48.26293
#
# Poissons Ratio (x) = -0.16617 0.52580
# Poissons Ratio (y) = -0.27328 0.69778
# Poissons Ratio (z) = 0.62023 0.50048
#
# Static dielectric constant tensor:
#      x y z
#    x 3.790150 -0.046420 -0.243660 
#    y -0.046420 3.706890 -0.071540 
#    z -0.243660 -0.071540 3.777900 
# 
# 
# High freq. dielectric constant tensor:
#      x y z
#    x 1.846630 0.003120 -0.019060 
#    y 0.003120 1.831030 -0.003740 
#    z -0.019060 -0.003740 1.845730 
# 
# From -- ./inp_files/451196.got.cif
#   From: 2010.06.25/outbox.cif.g09.slc.cpg/sg2_226_cif.got.tgz:451196.got - 2010.06.27 13:26:56.
