data_PCOD8036485
_publ_section_title
;
Structure prediction by ZEFSAII (Michael W. Deem and Ramdas Pophale) SiO2 
 PCOD8036485
Probable space group: P -1
;
_chemical_formula_sum "Si O2"
_cell_formula_units_Z 10
_cell_length_a 4.953435
_cell_length_b 9.863600
_cell_length_c 12.177754
_cell_angle_alpha 46.708903
_cell_angle_beta 85.128611
_cell_angle_gamma 104.679892
_cell_volume 389.644432
_symmetry_space_group_name_H-M "P -1"
_symmetry_group_IT_number 2
_symmetry_cell_setting 'triclinic'
loop_
_space_group_symop_operation_xyz
x,y,z
-x,-y,-z
loop_
_atom_site_type_symbol
_atom_site_label
_atom_site_fract_x
_atom_site_fract_y
_atom_site_fract_z
Si Si1 0.648134 0.499060 0.881379
Si Si2 0.452883 0.954723 0.899398
Si Si3 0.394305 0.585380 0.618327
Si Si4 0.115741 0.194455 0.691197
Si Si5 0.159246 0.850082 0.580671
O O1 0.466795 0.540078 0.764281
O O2 0.985506 0.683840 0.774014
O O3 0.500000 0.500000 0.000000
O O4 0.669844 0.286191 0.982557
O O5 0.194247 0.014700 0.834015
O O6 0.757304 0.090840 0.745818
O O7 0.500000 0.000000 0.000000
O O8 0.213521 0.378172 0.673008
O O9 0.718626 0.725087 0.475211
O O10 0.177053 0.704473 0.559871
O O11 0.500000 0.000000 0.500000
O O12 0.000000 0.000000 0.500000
#
# Coordination Sequence:
#
# PCOD8036485 Si02
#       5
#     2   2   2   2   2
#     4  12  30  49  78 117 157 201 258 326 386 458
#     4  12  26  50  79 116 160 195 259 317 400 448
#     4  11  27  51  78 113 157 197 276 303 388 463
#     4  11  28  46  84 114 149 211 248 328 377 468
#     4  12  28  50  77 106 155 209 255 311 382 467
#
# _framework density 25.664425999999999
#
# number of rings (size 3 to 8) (size 9 to 14) (size 15 to 20)
#    0.000    0.400    4.000    1.800   11.200    2.400 
#    0.000    0.000    0.000    0.000    0.000    0.000 
#    0.000    0.000    0.000    0.000    0.000    0.000 
#
# Total GULP energy -123941.458319 kJ/mol
# GULP energy per Si atom -12394.145832 kJ/mol
# Density = 2.560601 g / cm^3
# Si number density = 25.664426 Si / 1000 Ang^3
#
#
#
# Elastic Constant Matrix: (Units=GPa)
#
#
# Indices 1 2 3 4 5 6 
#
# 1 119.7771 49.4165 41.0415 -14.3408 -24.5600 -35.5747
# 2 49.4165 171.1377 93.4171 -21.9313 3.1748 -49.8853
# 3 41.0415 93.4171 156.5319 -14.1262 -33.9632 -17.8854
# 4 -14.3408 -21.9313 -14.1262 64.5963 3.2583 4.3128
# 5 -24.5600 3.1748 -33.9632 3.2583 57.3804 -11.7930
# 6 -35.5747 -49.8853 -17.8854 4.3128 -11.7930 44.4644
#
#
#
# Elastic Compliance Matrix: (Units=1/GPa)
#
#
# Indices 1 2 3 4 5 6 
#
# 1 0.014501 -0.000085 -0.000111 0.001810 0.008844 0.013632
# 2 -0.000085 0.013276 -0.007037 0.002355 -0.002804 0.011024
# 3 -0.000111 -0.007037 0.012039 -0.000064 0.007220 -0.001221
# 4 0.001810 0.002355 -0.000064 0.016491 0.000187 0.002515
# 5 0.008844 -0.002804 0.007220 0.000187 0.028591 0.014399
# 6 0.013632 0.011024 -0.001221 0.002515 0.014399 0.048849
#
#
# Mechanical properties :
#
#
# Convention : Reuss Voigt Hill
#
# Bulk Modulus (GPa) = 39.44933 90.57745 65.01339
# Shear Modulus (GPa) = 31.91554 50.85967 41.38760
#
# Velocity S-wave (km/s) = 3.53026 4.45648 4.02013
# Velocity P-wave (km/s) = 5.65876 7.86447 6.85096
#
# Compressibility (1/GPa) = 0.02534897
#
# Stress axis : x y z
#
# Youngs Moduli (GPa) = 68.96036 75.32134 83.06457
#
# Poissons Ratio (x) = 0.00639 0.00926
# Poissons Ratio (y) = 0.00585 0.58455
# Poissons Ratio (z) = 0.00769 0.53006
#
# Static dielectric constant tensor:
#      x y z
#    x 4.732200 -0.078560 -0.227690 
#    y -0.078560 4.351630 -0.378220 
#    z -0.227690 -0.378220 5.054250 
# 
# 
# High freq. dielectric constant tensor:
#      x y z
#    x 2.037160 -0.022980 -0.014130 
#    y -0.022980 2.043640 -0.016620 
#    z -0.014130 -0.016620 2.042970 
# 
# From -- ./inp_files/37982.got.cif
#   From: 2010.06.25/outbox.cif.g09.slc.cpg/sg2_19_cif.got.tgz:37982.got - 2010.06.27 13:26:56.
