data_PCOD8036990
_publ_section_title
;
Structure prediction by ZEFSAII (Michael W. Deem and Ramdas Pophale) SiO2 
 PCOD8036990
Probable space group: P -1
;
_chemical_formula_sum "Si O2"
_cell_formula_units_Z 14
_cell_length_a 7.547995
_cell_length_b 9.612788
_cell_length_c 16.410327
_cell_angle_alpha 127.156367
_cell_angle_beta 51.082714
_cell_angle_gamma 98.475575
_cell_volume 684.706308
_symmetry_space_group_name_H-M "P -1"
_symmetry_group_IT_number 2
_symmetry_cell_setting 'triclinic'
loop_
_space_group_symop_operation_xyz
x,y,z
-x,-y,-z
loop_
_atom_site_type_symbol
_atom_site_label
_atom_site_fract_x
_atom_site_fract_y
_atom_site_fract_z
Si Si1 0.519600 0.457302 0.169532
Si Si2 0.236825 0.624344 0.086234
Si Si3 0.880196 0.941496 0.725997
Si Si4 0.943620 0.155862 0.185718
Si Si5 0.919293 0.200149 0.552726
Si Si6 0.616583 0.125126 0.135494
Si Si7 0.045205 0.503030 0.244884
O O1 0.376847 0.679524 0.311002
O O2 0.595817 0.330897 0.183296
O O3 0.329454 0.388184 0.149063
O O4 0.758002 0.419259 0.028089
O O5 0.037091 0.566460 0.174026
O O6 0.183370 0.841115 0.197565
O O7 0.500000 0.500000 0.000000
O O8 0.640570 0.896778 0.795779
O O9 0.062936 0.876585 0.727386
O O10 0.017633 0.815355 0.565776
O O11 0.734831 0.098670 0.182411
O O12 0.889030 0.373769 0.257496
O O13 0.211088 0.030526 0.030430
O O14 0.062713 0.314087 0.599784
O O15 0.000000 0.000000 0.500000
#
# Coordination Sequence:
#
# PCOD8036990 Si02
#       7
#     2   2   2   2   2   2   2
#     4   9  18  34  58  86 117 150 195 241 285 343
#     4  10  17  31  63  86 109 156 198 234 294 337
#     4  12  20  38  65  83 119 159 191 243 295 350
#     4  11  23  37  61  90 120 151 200 247 291 347
#     4  10  20  35  60  90 118 156 198 233 297 358
#     4  11  22  37  60  91 118 152 200 246 293 345
#     4   9  19  35  58  87 119 152 192 239 291 342
#
# _framework density 20.446722999999999
#
# number of rings (size 3 to 8) (size 9 to 14) (size 15 to 20)
#    0.857    0.857    4.286    2.143    0.000    2.286 
#    0.000    3.571    9.429    1.714    0.000    0.000 
#    0.000    0.000    0.000    0.000    0.000    0.000 
#
# Total GULP energy -173479.801145 kJ/mol
# GULP energy per Si atom -12391.414368 kJ/mol
# Density = 2.040018 g / cm^3
# Si number density = 20.446723 Si / 1000 Ang^3
#
#
#
# Elastic Constant Matrix: (Units=GPa)
#
#
# Indices 1 2 3 4 5 6 
#
# 1 52.9948 17.5568 16.9835 -6.6546 10.8763 -18.3803
# 2 17.5568 113.7126 28.2913 16.6105 11.7952 -14.0765
# 3 16.9835 28.2913 99.2082 10.8574 27.6943 -10.3214
# 4 -6.6546 16.6105 10.8574 34.2623 -3.9215 10.4542
# 5 10.8763 11.7952 27.6943 -3.9215 16.9460 -2.6923
# 6 -18.3803 -14.0765 -10.3214 10.4542 -2.6923 21.4975
#
#
#
# Elastic Compliance Matrix: (Units=1/GPa)
#
#
# Indices 1 2 3 4 5 6 
#
# 1 0.032958 0.002389 0.007615 -0.011542 -0.032378 0.034957
# 2 0.002389 0.013873 0.004784 -0.015705 -0.019689 0.018595
# 3 0.007615 0.004784 0.029150 -0.025420 -0.057157 0.028843
# 4 -0.011542 -0.015705 -0.025420 0.067584 0.066483 -0.056897
# 5 -0.032378 -0.019689 -0.057157 0.066483 0.190131 -0.076537
# 6 0.034957 0.018595 0.028843 -0.056897 -0.076537 0.120513
#
#
# Mechanical properties :
#
#
# Convention : Reuss Voigt Hill
#
# Bulk Modulus (GPa) = 9.47345 43.50875 26.49110
# Shear Modulus (GPa) = 10.87383 28.08010 19.47696
#
# Velocity S-wave (km/s) = 2.30861 3.70987 3.08972
# Velocity P-wave (km/s) = 3.42776 6.29890 5.07078
#
# Compressibility (1/GPa) = 0.10555814
#
# Stress axis : x y z
#
# Youngs Moduli (GPa) = 30.34161 72.08095 34.30516
#
# Poissons Ratio (x) = -0.17218 -0.26124
# Poissons Ratio (y) = -0.07248 -0.16413
# Poissons Ratio (z) = -0.23106 -0.34486
#
# Static dielectric constant tensor:
#      x y z
#    x 3.374210 -0.266820 0.330860 
#    y -0.266820 3.818570 -0.099400 
#    z 0.330860 -0.099400 3.796980 
# 
# 
# High freq. dielectric constant tensor:
#      x y z
#    x 1.765830 -0.021560 0.027380 
#    y -0.021560 1.805580 0.006880 
#    z 0.027380 0.006880 1.788300 
# 
# From -- ./inp_files/554545.got.cif
#   From: 2010.06.25/outbox.cif.g09.slc.cpg/sg2_278_cif.got.tgz:554545.got - 2010.06.27 13:26:56.
