data_PCOD8036206
_publ_section_title
;
Structure prediction by ZEFSAII (Michael W. Deem and Ramdas Pophale) SiO2 
 PCOD8036206
Probable space group: P -1
;
_chemical_formula_sum "Si O2"
_cell_formula_units_Z 12
_cell_length_a 8.868337
_cell_length_b 6.939799
_cell_length_c 13.670279
_cell_angle_alpha 84.699731
_cell_angle_beta 39.450069
_cell_angle_gamma 91.376582
_cell_volume 526.220012
_symmetry_space_group_name_H-M "P -1"
_symmetry_group_IT_number 2
_symmetry_cell_setting 'triclinic'
loop_
_space_group_symop_operation_xyz
x,y,z
-x,-y,-z
loop_
_atom_site_type_symbol
_atom_site_label
_atom_site_fract_x
_atom_site_fract_y
_atom_site_fract_z
Si Si1 0.999976 0.370657 0.101127
Si Si2 0.600203 0.002493 0.339088
Si Si3 0.073195 0.785733 0.353293
Si Si4 0.487626 0.540221 0.117115
Si Si5 0.749962 0.634135 0.345088
Si Si6 0.704163 0.850544 0.680745
O O1 0.819582 0.171263 0.199526
O O2 0.936211 0.501682 0.217683
O O3 0.268231 0.319230 0.982430
O O4 0.000000 0.500000 0.000000
O O5 0.396418 0.023631 0.360885
O O6 0.500000 0.000000 0.500000
O O7 0.694837 0.795118 0.285475
O O8 0.257210 0.633003 0.259603
O O9 0.869750 0.751128 0.373554
O O10 0.937363 0.764221 0.526959
O O11 0.219499 0.008121 0.270352
O O12 0.487258 0.331997 0.181219
O O13 0.500000 0.500000 0.000000
O O14 0.500000 0.500000 0.500000
#
# Coordination Sequence:
#
# PCOD8036206 Si02
#       6
#     2   2   2   2   2   2
#     4  12  27  48  72 111 149 189 248 304 370 436
#     4  12  25  47  78 105 143 193 248 303 357 439
#     4  11  26  46  73 106 145 193 246 303 365 438
#     4  12  27  47  71 105 154 193 236 306 378 434
#     4  12  26  46  78 107 143 196 251 302 365 438
#     4  11  26  47  73 109 144 193 253 298 367 444
#
# _framework density 22.804148999999999
#
# number of rings (size 3 to 8) (size 9 to 14) (size 15 to 20)
#    0.000    0.333    6.667    0.500    4.667    5.333 
#    0.000    0.000    0.000    0.000    0.000    0.000 
#    0.000    0.000    0.000    0.000    0.000    0.000 
#
# Total GULP energy -148787.476743 kJ/mol
# GULP energy per Si atom -12398.956395 kJ/mol
# Density = 2.275225 g / cm^3
# Si number density = 22.804149 Si / 1000 Ang^3
#
#
#
# Elastic Constant Matrix: (Units=GPa)
#
#
# Indices 1 2 3 4 5 6 
#
# 1 130.1146 49.2537 58.3424 -2.3887 -20.1001 4.6657
# 2 49.2537 126.7587 52.1224 -11.4163 -7.6203 -0.4343
# 3 58.3424 52.1224 101.2987 -28.3574 -16.5484 -3.5127
# 4 -2.3887 -11.4163 -28.3574 43.0460 1.4756 -3.7720
# 5 -20.1001 -7.6203 -16.5484 1.4756 39.8122 -3.8988
# 6 4.6657 -0.4343 -3.5127 -3.7720 -3.8988 42.2501
#
#
#
# Elastic Compliance Matrix: (Units=1/GPa)
#
#
# Indices 1 2 3 4 5 6 
#
# 1 0.011894 -0.002142 -0.006635 -0.004554 0.002807 -0.002035
# 2 -0.002142 0.010434 -0.004338 -0.000189 -0.000892 -0.000116
# 3 -0.006635 -0.004338 0.020050 0.011882 0.004085 0.003793
# 4 -0.004554 -0.000189 0.011882 0.031080 0.001887 0.004438
# 5 0.002807 -0.000892 0.004085 0.001887 0.028266 0.002797
# 6 -0.002035 -0.000116 0.003793 0.004438 0.002797 0.024862
#
#
# Mechanical properties :
#
#
# Convention : Reuss Voigt Hill
#
# Bulk Modulus (GPa) = 61.92187 75.28989 68.60588
# Shear Modulus (GPa) = 31.60571 38.25189 34.92880
#
# Velocity S-wave (km/s) = 3.72689 4.10006 3.91792
# Velocity P-wave (km/s) = 6.76257 7.44994 7.11456
#
# Compressibility (1/GPa) = 0.01614938
#
# Stress axis : x y z
#
# Youngs Moduli (GPa) = 84.07304 95.84233 49.87419
#
# Poissons Ratio (x) = 0.20526 0.33093
# Poissons Ratio (y) = 0.18006 0.21634
# Poissons Ratio (z) = 0.55785 0.41573
#
# Static dielectric constant tensor:
#      x y z
#    x 6.109430 -0.936120 -2.910460 
#    y -0.936120 4.574910 1.267340 
#    z -2.910460 1.267340 8.118870 
# 
# 
# High freq. dielectric constant tensor:
#      x y z
#    x 1.904840 0.004610 -0.014190 
#    y 0.004610 1.903930 0.000390 
#    z -0.014190 0.000390 1.909090 
# 
# From -- ./inp_files/190103.got.cif
#   From: 2010.06.25/outbox.cif.g09.slc.cpg/sg2_96_cif.got.tgz:190103.got - 2010.06.27 13:26:56.
