data_PCOD8036065
_publ_section_title
;
Structure prediction by ZEFSAII (Michael W. Deem and Ramdas Pophale) SiO2 
 PCOD8036065
Probable space group: P -1
;
_chemical_formula_sum "Si O2"
_cell_formula_units_Z 16
_cell_length_a 14.052095
_cell_length_b 16.592365
_cell_length_c 6.718244
_cell_angle_alpha 97.916112
_cell_angle_beta 91.576993
_cell_angle_gamma 151.822894
_cell_volume 694.476662
_symmetry_space_group_name_H-M "P -1"
_symmetry_group_IT_number 2
_symmetry_cell_setting 'triclinic'
loop_
_space_group_symop_operation_xyz
x,y,z
-x,-y,-z
loop_
_atom_site_type_symbol
_atom_site_label
_atom_site_fract_x
_atom_site_fract_y
_atom_site_fract_z
Si Si1 0.906561 0.798755 0.428559
Si Si2 0.535061 0.760519 0.929842
Si Si3 0.793721 0.058700 0.740487
Si Si4 0.464417 0.826194 0.301959
Si Si5 0.733349 0.515725 0.515079
Si Si6 0.299979 0.840669 0.073384
Si Si7 0.331818 0.226013 0.686930
Si Si8 0.045384 0.461748 0.341232
O O1 0.813214 0.670798 0.557257
O O2 0.724370 0.722937 0.332931
O O3 0.964486 0.783340 0.241518
O O4 0.129682 0.014361 0.558359
O O5 0.338550 0.572929 0.734555
O O6 0.702469 0.918834 0.829456
O O7 0.477160 0.793324 0.076084
O O8 0.621570 0.753357 0.070261
O O9 0.797634 0.147141 0.880429
O O10 0.677645 0.982598 0.494432
O O11 0.381572 0.855455 0.277878
O O12 0.290622 0.650427 0.364704
O O13 0.538509 0.361240 0.611631
O O14 0.950096 0.628120 0.608517
O O15 0.115919 0.649423 0.887379
O O16 0.500000 0.000000 0.000000
O O17 0.000000 0.500000 0.500000
#
# Coordination Sequence:
#
# PCOD8036065 Si02
#       8
#     2   2   2   2   2   2   2   2
#     4  11  26  46  76 106 141 190 241 300 364 422
#     4  12  22  46  74  97 147 190 229 297 365 415
#     4  12  25  46  69 109 139 186 241 297 351 424
#     4  12  24  48  66  97 149 189 227 296 355 420
#     4  12  26  47  73 106 147 189 240 297 354 432
#     4  12  27  41  71 102 137 186 238 283 355 429
#     4  11  25  52  71 103 147 188 238 306 362 420
#     4  12  26  45  69 105 142 189 236 290 352 421
#
# _framework density 23.038931000000002
#
# number of rings (size 3 to 8) (size 9 to 14) (size 15 to 20)
#    0.000    0.250    6.250    2.625    7.000    1.000 
#    0.000    0.000    0.000    0.000    0.000    0.000 
#    0.000    0.000    0.000    0.000    0.000    0.000 
#
# Total GULP energy -198270.119344 kJ/mol
# GULP energy per Si atom -12391.882459 kJ/mol
# Density = 2.298649 g / cm^3
# Si number density = 23.038931 Si / 1000 Ang^3
#
#
#
# Elastic Constant Matrix: (Units=GPa)
#
#
# Indices 1 2 3 4 5 6 
#
# 1 178.6690 36.0558 45.1058 -9.8288 14.9331 0.4987
# 2 36.0558 81.0614 22.2518 -11.9515 0.1270 -3.2760
# 3 45.1058 22.2518 107.0510 -9.4851 6.7823 2.0183
# 4 -9.8288 -11.9515 -9.4851 22.4300 -7.0215 2.0729
# 5 14.9331 0.1270 6.7823 -7.0215 39.5206 -10.8780
# 6 0.4987 -3.2760 2.0183 2.0729 -10.8780 40.8453
#
#
#
# Elastic Compliance Matrix: (Units=1/GPa)
#
#
# Indices 1 2 3 4 5 6 
#
# 1 0.006859 -0.002464 -0.002202 0.000081 -0.002417 -0.000820
# 2 -0.002464 0.014980 -0.001676 0.006935 0.002878 0.001729
# 3 -0.002202 -0.001676 0.010920 0.002585 -0.000854 -0.001006
# 4 0.000081 0.006935 0.002585 0.052151 0.008804 0.000125
# 5 -0.002417 0.002878 -0.000854 0.008804 0.030084 0.007868
# 6 -0.000820 0.001729 -0.001006 0.000125 0.007868 0.026770
#
#
# Mechanical properties :
#
#
# Convention : Reuss Voigt Hill
#
# Bulk Modulus (GPa) = 49.81421 63.73423 56.77422
# Shear Modulus (GPa) = 31.02908 38.11704 34.57306
#
# Velocity S-wave (km/s) = 3.67387 4.07192 3.87801
# Velocity P-wave (km/s) = 6.29803 7.05912 6.68941
#
# Compressibility (1/GPa) = 0.02007459
#
# Stress axis : x y z
#
# Youngs Moduli (GPa) = 145.79760 66.75501 91.57734
#
# Poissons Ratio (x) = 0.16447 0.20166
# Poissons Ratio (y) = 0.35921 0.15350
# Poissons Ratio (z) = 0.32106 0.11190
#
# Static dielectric constant tensor:
#      x y z
#    x 11.903350 -1.092890 2.745100 
#    y -1.092890 4.260460 -0.435980 
#    z 2.745100 -0.435980 4.976350 
# 
# 
# High freq. dielectric constant tensor:
#      x y z
#    x 1.932200 -0.006460 0.007280 
#    y -0.006460 1.912230 -0.009290 
#    z 0.007280 -0.009290 1.899210 
# 
# From -- ./inp_files/99830.got.cif
#   From: 2010.06.25/outbox.cif.g09.slc.cpg/sg2_50_cif.got.tgz:99830.got - 2010.06.27 13:26:56.
