data_PCOD8036441
_publ_section_title
;
Structure prediction by ZEFSAII (Michael W. Deem and Ramdas Pophale) SiO2 
 PCOD8036441
Probable space group: P -1
;
_chemical_formula_sum "Si O2"
_cell_formula_units_Z 16
_cell_length_a 4.962613
_cell_length_b 9.579742
_cell_length_c 17.688578
_cell_angle_alpha 71.455575
_cell_angle_beta 62.876431
_cell_angle_gamma 62.367763
_cell_volume 656.992520
_symmetry_space_group_name_H-M "P -1"
_symmetry_group_IT_number 2
_symmetry_cell_setting 'triclinic'
loop_
_space_group_symop_operation_xyz
x,y,z
-x,-y,-z
loop_
_atom_site_type_symbol
_atom_site_label
_atom_site_fract_x
_atom_site_fract_y
_atom_site_fract_z
Si Si1 0.652445 0.580311 0.162361
Si Si2 0.250138 0.892332 0.876099
Si Si3 0.674005 0.108008 0.305192
Si Si4 0.272173 0.128112 0.952368
Si Si5 0.216545 0.470881 0.330377
Si Si6 0.390741 0.435587 0.098776
Si Si7 0.838305 0.044963 0.595528
Si Si8 0.531805 0.419404 0.589042
O O1 0.551619 0.749244 0.104534
O O2 0.393802 0.589488 0.258583
O O3 0.638614 0.447577 0.129054
O O4 0.020081 0.541639 0.151402
O O5 0.150518 0.921271 0.795196
O O6 0.599842 0.745689 0.867465
O O7 0.230302 0.055721 0.888846
O O8 0.056125 0.806705 0.967397
O O9 0.413062 0.288492 0.313153
O O10 0.491299 0.987406 0.357227
O O11 0.936169 0.063384 0.347414
O O12 0.500000 0.000000 0.000000
O O13 0.256522 0.494650 0.409733
O O14 0.840683 0.533436 0.339889
O O15 0.500000 0.500000 0.000000
O O16 0.739841 0.231023 0.591991
O O17 0.000000 0.000000 0.500000
O O18 0.500000 0.500000 0.500000
#
# Coordination Sequence:
#
# PCOD8036441 Si02
#       8
#     2   2   2   2   2   2   2   2
#     4  12  27  45  72 105 146 191 252 306 372 438
#     4  11  27  46  70 109 148 199 260 308 383 437
#     4  12  27  47  79 112 152 198 250 318 374 458
#     4  11  27  46  71 101 154 203 249 320 373 448
#     4  12  26  47  76 114 152 193 252 312 381 447
#     4  12  24  45  72 102 138 199 252 304 361 441
#     4  12  28  52  80 113 152 197 246 305 386 463
#     4  12  27  51  79 112 151 195 245 309 379 461
#
# _framework density 24.353397000000001
#
# number of rings (size 3 to 8) (size 9 to 14) (size 15 to 20)
#    0.000    0.250    2.500    5.625    8.750    1.000 
#    0.000    0.000    0.000    0.000    0.000    0.000 
#    0.000    0.000    0.000    0.000    0.000    0.000 
#
# Total GULP energy -198265.076884 kJ/mol
# GULP energy per Si atom -12391.567305 kJ/mol
# Density = 2.429797 g / cm^3
# Si number density = 24.353397 Si / 1000 Ang^3
#
#
#
# Elastic Constant Matrix: (Units=GPa)
#
#
# Indices 1 2 3 4 5 6 
#
# 1 80.1837 11.6595 14.5082 8.0097 5.7181 -2.9590
# 2 11.6595 117.2852 33.1475 3.8077 3.9536 -3.8296
# 3 14.5082 33.1475 127.7039 4.4225 15.0737 1.8928
# 4 8.0097 3.8077 4.4225 41.9440 10.9913 4.2148
# 5 5.7181 3.9536 15.0737 10.9913 41.8879 -1.4549
# 6 -2.9590 -3.8296 1.8928 4.2148 -1.4549 40.9832
#
#
#
# Elastic Compliance Matrix: (Units=1/GPa)
#
#
# Indices 1 2 3 4 5 6 
#
# 1 0.013113 -0.000852 -0.001128 -0.002244 -0.000676 0.001126
# 2 -0.000852 0.009317 -0.002348 -0.000607 0.000276 0.000990
# 3 -0.001128 -0.002348 0.008917 0.000348 -0.002954 -0.000853
# 4 -0.002244 -0.000607 0.000348 0.026390 -0.006797 -0.003190
# 5 -0.000676 0.000276 -0.002954 -0.006797 0.026848 0.001766
# 6 0.001126 0.000990 -0.000853 -0.003190 0.001766 0.025004
#
#
# Mechanical properties :
#
#
# Convention : Reuss Voigt Hill
#
# Bulk Modulus (GPa) = 44.06822 49.31144 46.68983
# Shear Modulus (GPa) = 39.74262 42.68688 41.21475
#
# Velocity S-wave (km/s) = 4.04408 4.19120 4.11830
# Velocity P-wave (km/s) = 6.31986 6.61164 6.46740
#
# Compressibility (1/GPa) = 0.02269209
#
# Stress axis : x y z
#
# Youngs Moduli (GPa) = 76.25870 107.32795 112.13968
#
# Poissons Ratio (x) = 0.09150 0.12646
# Poissons Ratio (y) = 0.06501 0.26328
# Poissons Ratio (z) = 0.08600 0.25198
#
# Static dielectric constant tensor:
#      x y z
#    x 5.144890 -0.171550 0.680210 
#    y -0.171550 5.219880 -0.377770 
#    z 0.680210 -0.377770 4.774210 
# 
# 
# High freq. dielectric constant tensor:
#      x y z
#    x 1.970000 0.000650 0.005890 
#    y 0.000650 1.977700 -0.001310 
#    z 0.005890 -0.001310 1.985680 
# 
# From -- ./inp_files/547958.got.cif
#   From: 2010.06.25/outbox.cif.g09.slc.cpg/sg2_274_cif.got.tgz:547958.got - 2010.06.27 13:26:56.
