data_PCOD8036081
_publ_section_title
;
Structure prediction by ZEFSAII (Michael W. Deem and Ramdas Pophale) SiO2 
 PCOD8036081
Probable space group: P -1
;
_chemical_formula_sum "Si O2"
_cell_formula_units_Z 16
_cell_length_a 18.481865
_cell_length_b 5.204511
_cell_length_c 13.741131
_cell_angle_alpha 53.583330
_cell_angle_beta 136.900295
_cell_angle_gamma 111.407979
_cell_volume 721.096563
_symmetry_space_group_name_H-M "P -1"
_symmetry_group_IT_number 2
_symmetry_cell_setting 'triclinic'
loop_
_space_group_symop_operation_xyz
x,y,z
-x,-y,-z
loop_
_atom_site_type_symbol
_atom_site_label
_atom_site_fract_x
_atom_site_fract_y
_atom_site_fract_z
Si Si1 0.756924 0.165458 0.604485
Si Si2 0.496383 0.876301 0.916975
Si Si3 0.989272 0.884151 0.908516
Si Si4 0.918976 0.155110 0.463754
Si Si5 0.662917 0.151870 0.887493
Si Si6 0.895766 0.844257 0.205887
Si Si7 0.615735 0.897242 0.683898
Si Si8 0.726649 0.899408 0.433717
O O1 0.755873 0.520506 0.568294
O O2 0.874162 0.008738 0.727778
O O3 0.704258 0.959047 0.678687
O O4 0.706002 0.131956 0.455368
O O5 0.595227 0.944321 0.933906
O O6 0.387790 0.072238 0.731529
O O7 0.500000 0.500000 0.000000
O O8 0.500000 0.000000 0.000000
O O9 0.076868 0.067276 0.897406
O O10 0.000000 0.500000 0.000000
O O11 0.000000 0.000000 0.000000
O O12 0.871222 0.493546 0.293220
O O13 0.993457 0.120021 0.639221
O O14 0.815156 0.987760 0.423883
O O15 0.000000 0.000000 0.500000
O O16 0.626138 0.518953 0.796093
O O17 0.638969 0.076980 0.767201
O O18 0.785659 0.076326 0.062271
O O19 0.500000 0.000000 0.500000
#
# Coordination Sequence:
#
# PCOD8036081 Si02
#       8
#     2   2   2   2   2   2   2   2
#     4  12  24  44  68 100 134 177 229 276 343 404
#     4  12  26  45  69 100 136 177 226 285 345 403
#     4  12  25  43  67  98 138 179 224 278 338 407
#     4  11  26  43  73  97 143 188 233 290 337 422
#     4  12  26  45  72 103 140 178 233 288 347 419
#     4  11  26  45  67 106 138 186 235 282 352 406
#     4  12  25  46  72 102 137 184 230 287 350 411
#     4  12  25  45  70 100 135 180 229 281 342 408
#
# _framework density 22.18843
#
# number of rings (size 3 to 8) (size 9 to 14) (size 15 to 20)
#    0.000    0.250    1.250    7.875    7.000    0.000 
#    0.000    0.000    0.000    0.000    0.000    0.000 
#    0.000    0.000    0.000    0.000    0.000    0.000 
#
# Total GULP energy -198244.049550 kJ/mol
# GULP energy per Si atom -12390.253097 kJ/mol
# Density = 2.213793 g / cm^3
# Si number density = 22.188430 Si / 1000 Ang^3
#
#
#
# Elastic Constant Matrix: (Units=GPa)
#
#
# Indices 1 2 3 4 5 6 
#
# 1 150.9690 24.6038 24.6605 8.2633 -3.6140 12.1754
# 2 24.6038 99.8955 26.7305 -9.2889 -4.2072 -6.6889
# 3 24.6605 26.7305 116.7897 -17.8029 9.2304 8.3842
# 4 8.2633 -9.2889 -17.8029 29.9055 -8.4251 0.4653
# 5 -3.6140 -4.2072 9.2304 -8.4251 38.7282 6.4080
# 6 12.1754 -6.6889 8.3842 0.4653 6.4080 47.8982
#
#
#
# Elastic Compliance Matrix: (Units=1/GPa)
#
#
# Indices 1 2 3 4 5 6 
#
# 1 0.007542 -0.001863 -0.001590 -0.003453 0.000448 -0.001926
# 2 -0.001863 0.011559 -0.002042 0.003407 0.001954 0.002151
# 3 -0.001590 -0.002042 0.010451 0.005666 -0.001366 -0.001583
# 4 -0.003453 0.003407 0.005666 0.041039 0.007804 -0.001081
# 5 0.000448 0.001954 -0.001366 0.007804 0.028680 -0.003515
# 6 -0.001926 0.002151 -0.001583 -0.001081 -0.003515 0.022425
#
#
# Mechanical properties :
#
#
# Convention : Reuss Voigt Hill
#
# Bulk Modulus (GPa) = 53.87215 57.73820 55.80518
# Shear Modulus (GPa) = 36.00418 42.75034 39.37726
#
# Velocity S-wave (km/s) = 4.03259 4.39418 4.21726
# Velocity P-wave (km/s) = 6.78340 7.19884 6.99420
#
# Compressibility (1/GPa) = 0.01856247
#
# Stress axis : x y z
#
# Youngs Moduli (GPa) = 132.58672 86.51440 95.68799
#
# Poissons Ratio (x) = 0.16121 0.15210
# Poissons Ratio (y) = 0.24707 0.19535
# Poissons Ratio (z) = 0.21076 0.17662
#
# Static dielectric constant tensor:
#      x y z
#    x 4.147710 -0.232260 -0.173000 
#    y -0.232260 6.690340 1.858610 
#    z -0.173000 1.858610 5.308330 
# 
# 
# High freq. dielectric constant tensor:
#      x y z
#    x 1.898120 0.006980 0.001440 
#    y 0.006980 1.877800 -0.000060 
#    z 0.001440 -0.000060 1.894670 
# 
# From -- ./inp_files/536252.got.cif
#   From: 2010.06.25/outbox.cif.g09.slc.cpg/sg2_269_cif.got.tgz:536252.got - 2010.06.27 13:26:56.
