data_PCOD8036272
_publ_section_title
;
Structure prediction by ZEFSAII (Michael W. Deem and Ramdas Pophale) SiO2 
 PCOD8036272
Probable space group: P -1
;
_chemical_formula_sum "Si O2"
_cell_formula_units_Z 16
_cell_length_a 9.621596
_cell_length_b 9.092924
_cell_length_c 11.895797
_cell_angle_alpha 124.866201
_cell_angle_beta 56.300229
_cell_angle_gamma 102.952999
_cell_volume 703.795525
_symmetry_space_group_name_H-M "P -1"
_symmetry_group_IT_number 2
_symmetry_cell_setting 'triclinic'
loop_
_space_group_symop_operation_xyz
x,y,z
-x,-y,-z
loop_
_atom_site_type_symbol
_atom_site_label
_atom_site_fract_x
_atom_site_fract_y
_atom_site_fract_z
Si Si1 0.057879 0.959537 0.831395
Si Si2 0.613319 0.928064 0.812214
Si Si3 0.142091 0.853314 0.318175
Si Si4 0.382053 0.557031 0.184360
Si Si5 0.064715 0.311493 0.832476
Si Si6 0.864394 0.651671 0.684316
Si Si7 0.389058 0.763018 0.682886
Si Si8 0.601854 0.552577 0.307366
O O1 0.246835 0.864994 0.712590
O O2 0.947231 0.821881 0.763843
O O3 0.048118 0.142448 0.845464
O O4 0.000000 0.000000 0.000000
O O5 0.718472 0.728237 0.694878
O O6 0.496116 0.913030 0.750071
O O7 0.747666 0.063513 0.788611
O O8 0.500000 0.000000 0.000000
O O9 0.275211 0.757146 0.307496
O O10 0.045938 0.703566 0.235950
O O11 0.000000 0.000000 0.500000
O O12 0.236264 0.427554 0.203345
O O13 0.499097 0.545748 0.235728
O O14 0.500000 0.500000 0.000000
O O15 0.257197 0.316922 0.715137
O O16 0.000000 0.500000 0.000000
O O17 0.000000 0.500000 0.500000
O O18 0.488097 0.629728 0.493322
O O19 0.325487 0.651002 0.769755
#
# Coordination Sequence:
#
# PCOD8036272 Si02
#       8
#     2   2   2   2   2   2   2   2
#     4  12  28  46  75 110 149 198 248 305 378 451
#     4  12  25  48  75 107 148 197 255 311 367 447
#     4  12  28  48  75 108 149 198 250 314 376 442
#     4  12  27  46  77 113 152 197 252 313 380 448
#     4  12  28  49  73 108 154 195 247 309 376 450
#     4  12  26  49  79 108 150 198 258 312 369 453
#     4  11  26  47  76 107 148 195 247 309 375 449
#     4  11  26  47  74 108 149 195 247 305 378 448
#
# _framework density 22.733875000000001
#
# number of rings (size 3 to 8) (size 9 to 14) (size 15 to 20)
#    0.000    0.250    2.500    5.250   12.250    0.500 
#    0.000    0.000    0.000    0.000    0.000    0.000 
#    0.000    0.000    0.000    0.000    0.000    0.000 
#
# Total GULP energy -198378.819728 kJ/mol
# GULP energy per Si atom -12398.676233 kJ/mol
# Density = 2.268213 g / cm^3
# Si number density = 22.733875 Si / 1000 Ang^3
#
#
#
# Elastic Constant Matrix: (Units=GPa)
#
#
# Indices 1 2 3 4 5 6 
#
# 1 107.3221 60.6090 43.8703 -13.8157 0.1790 9.5427
# 2 60.6090 152.6096 62.6874 -3.1917 -11.3808 6.6557
# 3 43.8703 62.6874 109.6967 -10.4280 0.3896 14.8418
# 4 -13.8157 -3.1917 -10.4280 34.0392 0.8271 -2.0268
# 5 0.1790 -11.3808 0.3896 0.8271 44.8096 3.2833
# 6 9.5427 6.6557 14.8418 -2.0268 3.2833 44.3734
#
#
#
# Elastic Compliance Matrix: (Units=1/GPa)
#
#
# Indices 1 2 3 4 5 6 
#
# 1 0.013342 -0.004290 -0.002316 0.004261 -0.001115 -0.001174
# 2 -0.004290 0.010191 -0.004400 -0.002164 0.002642 0.000572
# 3 -0.002316 -0.004400 0.013217 0.002539 -0.001045 -0.003069
# 4 0.004261 -0.002164 0.002539 0.031716 -0.001181 0.000095
# 5 -0.001115 0.002642 -0.001045 -0.001181 0.023138 -0.001573
# 6 -0.001174 0.000572 -0.003069 0.000095 -0.001573 0.023850
#
#
# Mechanical properties :
#
#
# Convention : Reuss Voigt Hill
#
# Bulk Modulus (GPa) = 67.85829 78.21799 73.03814
# Shear Modulus (GPa) = 35.11696 38.14189 36.62943
#
# Velocity S-wave (km/s) = 3.93453 4.10049 4.01836
# Velocity P-wave (km/s) = 7.11017 7.54316 7.32986
#
# Compressibility (1/GPa) = 0.01473659
#
# Stress axis : x y z
#
# Youngs Moduli (GPa) = 74.95025 98.12666 75.65786
#
# Poissons Ratio (x) = 0.42099 0.17525
# Poissons Ratio (y) = 0.32156 0.33292
# Poissons Ratio (z) = 0.17361 0.43179
#
# Static dielectric constant tensor:
#      x y z
#    x 4.631020 -0.145100 -0.118250 
#    y -0.145100 4.856200 -0.054540 
#    z -0.118250 -0.054540 4.059110 
# 
# 
# High freq. dielectric constant tensor:
#      x y z
#    x 1.914930 0.000120 -0.007920 
#    y 0.000120 1.913310 -0.001720 
#    z -0.007920 -0.001720 1.901610 
# 
# From -- ./inp_files/383121.got.cif
#   From: 2010.06.25/outbox.cif.g09.slc.cpg/sg2_192_cif.got.tgz:383121.got - 2010.06.27 13:26:56.
