data_PCOD8036766
_publ_section_title
;
Structure prediction by ZEFSAII (Michael W. Deem and Ramdas Pophale) SiO2 
 PCOD8036766
Probable space group: P -1
;
_chemical_formula_sum "Si O2"
_cell_formula_units_Z 14
_cell_length_a 8.467427
_cell_length_b 15.562405
_cell_length_c 13.048204
_cell_angle_alpha 152.112202
_cell_angle_beta 55.155723
_cell_angle_gamma 113.727933
_cell_volume 636.033137
_symmetry_space_group_name_H-M "P -1"
_symmetry_group_IT_number 2
_symmetry_cell_setting 'triclinic'
loop_
_space_group_symop_operation_xyz
x,y,z
-x,-y,-z
loop_
_atom_site_type_symbol
_atom_site_label
_atom_site_fract_x
_atom_site_fract_y
_atom_site_fract_z
Si Si1 0.315856 0.521441 0.014225
Si Si2 0.528816 0.794620 0.724391
Si Si3 0.212928 0.859747 0.248067
Si Si4 0.020515 0.422871 0.639513
Si Si5 0.167829 0.763485 0.933620
Si Si6 0.485199 0.142316 0.434810
Si Si7 0.074272 0.916091 0.773571
O O1 0.292644 0.698901 0.133981
O O2 0.111147 0.555558 0.187272
O O3 0.500000 0.500000 0.000000
O O4 0.345306 0.326814 0.735566
O O5 0.754880 0.675934 0.516851
O O6 0.388087 0.685957 0.721576
O O7 0.460339 0.811630 0.650981
O O8 0.500000 0.000000 0.000000
O O9 0.379634 0.973775 0.300029
O O10 0.192288 0.762649 0.045549
O O11 0.000000 0.000000 0.500000
O O12 0.024438 0.630042 0.813461
O O13 0.939084 0.303209 0.457281
O O14 0.069439 0.973261 0.146291
O O15 0.705151 0.074528 0.331878
O O16 0.000000 0.000000 0.000000
#
# Coordination Sequence:
#
# PCOD8036766 Si02
#       7
#     2   2   2   2   2   2   2
#     4  12  28  48  70 107 146 191 239 300 359 418
#     4  12  22  47  73 105 144 184 235 301 355 430
#     4  12  27  47  76 105 141 195 247 290 356 430
#     4  12  26  47  71 100 148 184 241 298 355 426
#     4  12  26  45  74 106 140 190 239 292 365 426
#     4  12  25  45  77 104 147 188 240 295 362 428
#     4  12  25  46  71 107 147 188 231 299 365 426
#
# _framework density 22.011431000000002
#
# number of rings (size 3 to 8) (size 9 to 14) (size 15 to 20)
#    0.000    0.000    5.714    3.857    2.000    2.857 
#    0.000    0.000    0.000    0.000    0.000    0.000 
#    0.000    0.000    0.000    0.000    0.000    0.000 
#
# Total GULP energy -173643.286246 kJ/mol
# GULP energy per Si atom -12403.091875 kJ/mol
# Density = 2.196133 g / cm^3
# Si number density = 22.011431 Si / 1000 Ang^3
#
#
#
# Elastic Constant Matrix: (Units=GPa)
#
#
# Indices 1 2 3 4 5 6 
#
# 1 111.0007 47.0219 40.8850 -8.8485 -4.6960 13.2847
# 2 47.0219 123.4277 56.4589 -16.2607 10.2047 16.3063
# 3 40.8850 56.4589 140.4287 -16.5128 12.1237 9.9094
# 4 -8.8485 -16.2607 -16.5128 42.6912 10.2863 1.2905
# 5 -4.6960 10.2047 12.1237 10.2863 49.7700 0.8413
# 6 13.2847 16.3063 9.9094 1.2905 0.8413 53.5307
#
#
#
# Elastic Compliance Matrix: (Units=1/GPa)
#
#
# Indices 1 2 3 4 5 6 
#
# 1 0.011500 -0.003468 -0.002091 -0.000278 0.002387 -0.001441
# 2 -0.003468 0.011708 -0.002922 0.003319 -0.002665 -0.002203
# 3 -0.002091 -0.002922 0.009462 0.002717 -0.002459 -0.000370
# 4 -0.000278 0.003319 0.002717 0.027430 -0.007004 -0.001996
# 5 0.002387 -0.002665 -0.002459 -0.007004 0.022902 0.000483
# 6 -0.001441 -0.002203 -0.000370 -0.001996 0.000483 0.019819
#
#
# Mechanical properties :
#
#
# Convention : Reuss Voigt Hill
#
# Bulk Modulus (GPa) = 63.65798 73.73208 68.69503
# Shear Modulus (GPa) = 39.99410 44.56446 42.27928
#
# Velocity S-wave (km/s) = 4.26722 4.50444 4.38743
# Velocity P-wave (km/s) = 7.29809 7.78609 7.54604
#
# Compressibility (1/GPa) = 0.01570895
#
# Stress axis : x y z
#
# Youngs Moduli (GPa) = 86.95999 85.40929 105.68276
#
# Poissons Ratio (x) = 0.29621 0.22095
# Poissons Ratio (y) = 0.30159 0.30877
# Poissons Ratio (z) = 0.18181 0.24954
#
# Static dielectric constant tensor:
#      x y z
#    x 4.080100 0.239020 -0.041960 
#    y 0.239020 4.267950 0.036640 
#    z -0.041960 0.036640 4.400890 
# 
# 
# High freq. dielectric constant tensor:
#      x y z
#    x 1.874980 0.016540 -0.002720 
#    y 0.016540 1.870730 -0.005470 
#    z -0.002720 -0.005470 1.886750 
# 
# From -- ./inp_files/319750.got.cif
#   From: 2010.06.25/outbox.cif.g09.slc.cpg/sg2_160_cif.got.tgz:319750.got - 2010.06.27 13:26:56.
