data_PCOD8036521
_publ_section_title
;
Structure prediction by ZEFSAII (Michael W. Deem and Ramdas Pophale) SiO2 
 PCOD8036521
Probable space group: P -1
;
_chemical_formula_sum "Si O2"
_cell_formula_units_Z 16
_cell_length_a 22.612550
_cell_length_b 10.301742
_cell_length_c 11.499345
_cell_angle_alpha 141.287464
_cell_angle_beta 29.449896
_cell_angle_gamma 147.446640
_cell_volume 697.736184
_symmetry_space_group_name_H-M "P -1"
_symmetry_group_IT_number 2
_symmetry_cell_setting 'triclinic'
loop_
_space_group_symop_operation_xyz
x,y,z
-x,-y,-z
loop_
_atom_site_type_symbol
_atom_site_label
_atom_site_fract_x
_atom_site_fract_y
_atom_site_fract_z
Si Si1 0.246161 0.102929 0.104340
Si Si2 0.396739 0.822031 0.649645
Si Si3 0.276254 0.266688 0.414812
Si Si4 0.901304 0.809207 0.132651
Si Si5 0.656568 0.633857 0.278507
Si Si6 0.917586 0.259873 0.048121
Si Si7 0.663812 0.079285 0.511655
Si Si8 0.590608 0.432627 0.999526
O O1 0.202649 0.169791 0.347177
O O2 0.373699 0.353123 0.003784
O O3 0.291404 0.910781 0.925992
O O4 0.117377 0.968843 0.137257
O O5 0.307986 0.539818 0.567594
O O6 0.500000 0.000000 0.500000
O O7 0.503407 0.865828 0.603028
O O8 0.162200 0.096534 0.591059
O O9 0.419674 0.262269 0.178672
O O10 0.760904 0.593415 0.154378
O O11 0.988467 0.710669 0.980130
O O12 0.000000 0.000000 0.000000
O O13 0.500000 0.500000 0.500000
O O14 0.661225 0.545413 0.080346
O O15 0.722001 0.928817 0.373925
O O16 0.766810 0.216111 0.319999
O O17 0.000000 0.500000 0.000000
O O18 0.659903 0.279180 0.736944
#
# Coordination Sequence:
#
# PCOD8036521 Si02
#       8
#     2   2   2   2   2   2   2   2
#     4  12  24  41  70 111 150 186 244 307 379 435
#     4  12  19  37  70 107 150 183 230 306 371 428
#     4  12  24  41  73 109 143 193 240 304 375 440
#     4  12  26  50  75  97 151 204 243 296 367 445
#     4  12  24  50  76 101 145 198 253 304 365 434
#     4  12  27  48  73 105 150 203 243 299 373 445
#     4  12  24  43  71 109 147 187 244 309 365 436
#     4  12  23  41  74 115 143 185 244 319 371 433
#
# _framework density 22.931301999999999
#
# number of rings (size 3 to 8) (size 9 to 14) (size 15 to 20)
#    0.000    0.000    8.750    1.875    1.750    1.000 
#    2.250    0.625    0.000    0.000    0.000    0.000 
#    0.000    0.000    0.000    0.000    0.000    0.000 
#
# Total GULP energy -198325.008338 kJ/mol
# GULP energy per Si atom -12395.313021 kJ/mol
# Density = 2.287911 g / cm^3
# Si number density = 22.931302 Si / 1000 Ang^3
#
#
#
# Elastic Constant Matrix: (Units=GPa)
#
#
# Indices 1 2 3 4 5 6 
#
# 1 145.6537 47.9045 59.8754 2.8906 14.8740 14.9709
# 2 47.9045 106.7140 70.2749 3.8102 10.0364 0.3963
# 3 59.8754 70.2749 133.4728 3.6170 29.3928 6.9440
# 4 2.8906 3.8102 3.6170 50.5920 -1.3594 5.8019
# 5 14.8740 10.0364 29.3928 -1.3594 47.2533 -4.6763
# 6 14.9709 0.3963 6.9440 5.8019 -4.6763 30.9337
#
#
#
# Elastic Compliance Matrix: (Units=1/GPa)
#
#
# Indices 1 2 3 4 5 6 
#
# 1 0.009187 -0.002463 -0.002324 0.000266 -0.001325 -0.004143
# 2 -0.002463 0.015299 -0.007671 -0.000766 0.002597 0.003254
# 3 -0.002324 -0.007671 0.014226 -0.000149 -0.006786 -0.002968
# 4 0.000266 -0.000766 -0.000149 0.020268 0.000375 -0.003831
# 5 -0.001325 0.002597 -0.006786 0.000375 0.025851 0.005969
# 6 -0.004143 0.003254 -0.002968 -0.003831 0.005969 0.036578
#
#
# Mechanical properties :
#
#
# Convention : Reuss Voigt Hill
#
# Bulk Modulus (GPa) = 72.48178 82.43890 77.46034
# Shear Modulus (GPa) = 33.12921 39.60818 36.36869
#
# Velocity S-wave (km/s) = 3.80506 4.16053 3.98676
# Velocity P-wave (km/s) = 7.14014 7.68820 7.41923
#
# Compressibility (1/GPa) = 0.01379657
#
# Stress axis : x y z
#
# Youngs Moduli (GPa) = 108.84906 65.36436 70.29163
#
# Poissons Ratio (x) = 0.16099 0.16338
# Poissons Ratio (y) = 0.26809 0.53918
# Poissons Ratio (z) = 0.25300 0.50138
#
# Static dielectric constant tensor:
#      x y z
#    x 4.710090 0.250040 -0.050700 
#    y 0.250040 4.301010 -0.355030 
#    z -0.050700 -0.355030 4.441640 
# 
# 
# High freq. dielectric constant tensor:
#      x y z
#    x 1.919170 0.006240 0.007960 
#    y 0.006240 1.889200 -0.016180 
#    z 0.007960 -0.016180 1.903280 
# 
# From -- ./inp_files/474785.got.cif
#   From: 2010.06.25/outbox.cif.g09.slc.cpg/sg2_238_cif.got.tgz:474785.got - 2010.06.27 13:26:56.
