data_PCOD8036386
_publ_section_title
;
Structure prediction by ZEFSAII (Michael W. Deem and Ramdas Pophale) SiO2 
 PCOD8036386
Probable space group: P -1
;
_chemical_formula_sum "Si O2"
_cell_formula_units_Z 14
_cell_length_a 8.368194
_cell_length_b 11.451540
_cell_length_c 9.505448
_cell_angle_alpha 116.562343
_cell_angle_beta 117.424842
_cell_angle_gamma 108.397390
_cell_volume 545.235814
_symmetry_space_group_name_H-M "P -1"
_symmetry_group_IT_number 2
_symmetry_cell_setting 'triclinic'
loop_
_space_group_symop_operation_xyz
x,y,z
-x,-y,-z
loop_
_atom_site_type_symbol
_atom_site_label
_atom_site_fract_x
_atom_site_fract_y
_atom_site_fract_z
Si Si1 0.333140 0.192483 0.594613
Si Si2 0.741642 0.260502 0.316351
Si Si3 0.186212 0.479275 0.030440
Si Si4 0.457258 0.898037 0.135320
Si Si5 0.761249 0.569223 0.286279
Si Si6 0.547169 0.639810 0.698997
Si Si7 0.053882 0.871205 0.110636
O O1 0.572950 0.360563 0.704549
O O2 0.406896 0.126097 0.710155
O O3 0.193016 0.253869 0.627815
O O4 0.166881 0.044932 0.333275
O O5 0.614149 0.312943 0.384452
O O6 0.027420 0.398936 0.521847
O O7 0.659653 0.081896 0.244681
O O8 0.668981 0.247952 0.116496
O O9 0.264822 0.515594 0.918404
O O10 0.000000 0.500000 0.000000
O O11 0.071354 0.288203 0.919807
O O12 0.254894 0.893448 0.116481
O O13 0.520506 0.436449 0.209313
O O14 0.500000 0.500000 0.500000
O O15 0.828548 0.814953 0.895640
#
# Coordination Sequence:
#
# PCOD8036386 Si02
#       7
#     2   2   2   2   2   2   2
#     4  12  27  49  81 115 156 196 265 319 388 459
#     4  11  28  48  76 108 159 206 257 316 388 461
#     4  12  27  48  79 113 157 201 256 324 387 452
#     4  11  26  49  75 115 154 201 258 321 385 462
#     4  12  28  50  80 115 154 206 259 323 385 461
#     4  12  29  50  79 112 157 209 259 315 386 466
#     4  12  28  47  80 116 152 205 258 322 388 456
#
# _framework density 25.676964000000002
#
# number of rings (size 3 to 8) (size 9 to 14) (size 15 to 20)
#    0.000    0.286    2.857    3.857   12.000    1.714 
#    0.000    0.000    0.000    0.000    0.000    0.000 
#    0.000    0.000    0.000    0.000    0.000    0.000 
#
# Total GULP energy -173602.531031 kJ/mol
# GULP energy per Si atom -12400.180788 kJ/mol
# Density = 2.561852 g / cm^3
# Si number density = 25.676964 Si / 1000 Ang^3
#
#
#
# Elastic Constant Matrix: (Units=GPa)
#
#
# Indices 1 2 3 4 5 6 
#
# 1 149.1512 12.7802 63.9423 -0.0119 -0.6059 -21.7105
# 2 12.7802 30.9941 1.0265 7.8496 -2.1406 -0.3154
# 3 63.9423 1.0265 160.9320 31.7873 3.8368 -1.4767
# 4 -0.0119 7.8496 31.7873 32.9213 -2.0189 1.0007
# 5 -0.6059 -2.1406 3.8368 -2.0189 48.4432 -5.2729
# 6 -21.7105 -0.3154 -1.4767 1.0007 -5.2729 54.5086
#
#
#
# Elastic Compliance Matrix: (Units=1/GPa)
#
#
# Indices 1 2 3 4 5 6 
#
# 1 0.009905 -0.005370 -0.005106 0.006159 0.000956 0.003755
# 2 -0.005370 0.037705 0.004483 -0.013242 0.000528 -0.001505
# 3 -0.005106 0.004483 0.010439 -0.011182 -0.001338 -0.001649
# 4 0.006159 -0.013242 -0.011182 0.044434 0.002391 0.001489
# 5 0.000956 0.000528 -0.001338 0.002391 0.021139 0.002349
# 6 0.003755 -0.001505 -0.001649 0.001489 0.002349 0.019988
#
#
# Mechanical properties :
#
#
# Convention : Reuss Voigt Hill
#
# Bulk Modulus (GPa) = 21.71016 55.17503 38.44259
# Shear Modulus (GPa) = 29.24804 44.72985 36.98894
#
# Velocity S-wave (km/s) = 3.37868 4.17828 3.79957
# Velocity P-wave (km/s) = 4.86766 6.69419 5.85262
#
# Compressibility (1/GPa) = 0.04606138
#
# Stress axis : x y z
#
# Youngs Moduli (GPa) = 100.96226 26.52164 95.79054
#
# Poissons Ratio (x) = 0.14243 0.48910
# Poissons Ratio (y) = 0.54222 -0.42938
# Poissons Ratio (z) = 0.51551 -0.11888
#
# Static dielectric constant tensor:
#      x y z
#    x 4.951440 -0.107190 0.100030 
#    y -0.107190 4.847490 0.299960 
#    z 0.100030 0.299960 4.583110 
# 
# 
# High freq. dielectric constant tensor:
#      x y z
#    x 2.045840 -0.014480 0.006500 
#    y -0.014480 2.043920 0.014720 
#    z 0.006500 0.014720 2.027690 
# 
# From -- ./inp_files/190290.got.cif
#   From: 2010.06.25/outbox.cif.g09.slc.cpg/sg2_96_cif.got.tgz:190290.got - 2010.06.27 13:26:56.
