data_PCOD8036433
_publ_section_title
;
Structure prediction by ZEFSAII (Michael W. Deem and Ramdas Pophale) SiO2 
 PCOD8036433
Probable space group: P -1
;
_chemical_formula_sum "Si O2"
_cell_formula_units_Z 16
_cell_length_a 13.959769
_cell_length_b 13.792330
_cell_length_c 13.424203
_cell_angle_alpha 158.689772
_cell_angle_beta 46.406352
_cell_angle_gamma 136.811568
_cell_volume 642.315877
_symmetry_space_group_name_H-M "P -1"
_symmetry_group_IT_number 2
_symmetry_cell_setting 'triclinic'
loop_
_space_group_symop_operation_xyz
x,y,z
-x,-y,-z
loop_
_atom_site_type_symbol
_atom_site_label
_atom_site_fract_x
_atom_site_fract_y
_atom_site_fract_z
Si Si1 0.591775 0.660921 0.243720
Si Si2 0.270798 0.386285 0.604348
Si Si3 0.064700 0.523200 0.366865
Si Si4 0.755374 0.879037 0.156567
Si Si5 0.573903 0.964635 0.204326
Si Si6 0.121656 0.058775 0.580561
Si Si7 0.958849 0.427378 0.138131
Si Si8 0.551715 0.813312 0.858138
O O1 0.612072 0.748759 0.197068
O O2 0.740666 0.803800 0.323117
O O3 0.471242 0.766268 0.477428
O O4 0.550104 0.324969 0.960418
O O5 0.158958 0.149636 0.525320
O O6 0.411904 0.538684 0.713992
O O7 0.317370 0.254996 0.347613
O O8 0.195219 0.601411 0.821121
O O9 0.956603 0.408804 0.243235
O O10 0.000000 0.500000 0.500000
O O11 0.140247 0.852909 0.604601
O O12 0.175748 0.360713 0.136328
O O13 0.715361 0.978566 0.173824
O O14 0.607798 0.981984 0.079955
O O15 0.071892 0.720822 0.299913
O O16 0.000455 0.170915 0.816766
O O17 0.500000 0.000000 0.000000
#
# Coordination Sequence:
#
# PCOD8036433 Si02
#       8
#     2   2   2   2   2   2   2   2
#     4  12  22  45  71 103 141 176 229 287 344 404
#     4  11  27  45  71 102 139 182 236 286 346 413
#     4  12  26  46  69 101 143 179 228 285 339 411
#     4  12  25  46  70 104 136 182 232 280 345 410
#     4  12  26  43  74 100 139 185 226 284 348 409
#     4  12  24  46  74 102 141 180 232 293 345 401
#     4  12  26  46  74 104 136 186 231 286 347 409
#     4  11  27  47  69 102 142 186 229 287 345 417
#
# _framework density 24.909862
#
# number of rings (size 3 to 8) (size 9 to 14) (size 15 to 20)
#    0.000    0.250    3.750    4.875    7.000    1.000 
#    0.000    0.000    0.000    0.000    0.000    0.000 
#    0.000    0.000    0.000    0.000    0.000    0.000 
#
# Total GULP energy -198479.728266 kJ/mol
# GULP energy per Si atom -12404.983017 kJ/mol
# Density = 2.485317 g / cm^3
# Si number density = 24.909862 Si / 1000 Ang^3
#
#
#
# Elastic Constant Matrix: (Units=GPa)
#
#
# Indices 1 2 3 4 5 6 
#
# 1 77.0640 34.3575 -27.3517 -7.8904 30.4543 -38.5617
# 2 34.3575 55.7378 44.1384 -40.6892 -21.5647 -4.6208
# 3 -27.3517 44.1384 75.0297 -5.1363 20.5413 -20.9782
# 4 -7.8904 -40.6892 -5.1363 34.5618 -20.1975 18.5338
# 5 30.4543 -21.5647 20.5413 -20.1975 3.9819 16.9421
# 6 -38.5617 -4.6208 -20.9782 18.5338 16.9421 25.9086
#
#
#
# Elastic Compliance Matrix: (Units=1/GPa)
#
#
# Indices 1 2 3 4 5 6 
#
# 1 0.009896 0.005754 -0.000258 0.011904 0.007143 0.002360
# 2 0.005754 0.014517 0.000809 0.004632 -0.009986 0.015024
# 3 -0.000258 0.000809 0.010435 0.008467 0.007675 -0.002867
# 4 0.011904 0.004632 0.008467 0.028508 -0.007669 0.010021
# 5 0.007143 -0.009986 0.007675 -0.007669 0.013194 0.011924
# 6 0.002360 0.015024 -0.002867 0.010021 0.011924 0.027502
#
#
# Mechanical properties :
#
#
# Convention : Reuss Voigt Hill
#
# Bulk Modulus (GPa) = 21.07181 34.45778 27.76480
# Shear Modulus (GPa) = 46.61481 23.33629 34.97555
#
# Velocity S-wave (km/s) = 4.33059 3.06409 3.75118
# Velocity P-wave (km/s) = 5.78645 5.13626 5.47102
#
# Compressibility (1/GPa) = 0.04745676
#
# Stress axis : x y z
#
# Youngs Moduli (GPa) = 101.05039 68.88355 95.83486
#
# Poissons Ratio (x) = -0.39632 0.02474
# Poissons Ratio (y) = -0.58139 -0.07754
# Poissons Ratio (z) = 0.02609 -0.05573
#
# Static dielectric constant tensor:
#      x y z
#    x 4.281200 -0.267280 -1.487080 
#    y -0.267280 4.620520 -0.687780 
#    z -1.487080 -0.687780 -1.667830 
# 
# 
# High freq. dielectric constant tensor:
#      x y z
#    x 2.007610 -0.009870 0.003170 
#    y -0.009870 1.991700 0.000890 
#    z 0.003170 0.000890 1.998400 
# 
# From -- ./inp_files/534670.got.cif
#   From: 2010.06.25/outbox.cif.g09.slc.cpg/sg2_268_cif.got.tgz:534670.got - 2010.06.27 13:26:56.
