data_PCOD8036725
_publ_section_title
;
Structure prediction by ZEFSAII (Michael W. Deem and Ramdas Pophale) SiO2 
 PCOD8036725
Probable space group: P -1
;
_chemical_formula_sum "Si O2"
_cell_formula_units_Z 16
_cell_length_a 22.256099
_cell_length_b 18.783008
_cell_length_c 9.213624
_cell_angle_alpha 37.224960
_cell_angle_beta 36.932243
_cell_angle_gamma 18.095661
_cell_volume 704.993765
_symmetry_space_group_name_H-M "P -1"
_symmetry_group_IT_number 2
_symmetry_cell_setting 'triclinic'
loop_
_space_group_symop_operation_xyz
x,y,z
-x,-y,-z
loop_
_atom_site_type_symbol
_atom_site_label
_atom_site_fract_x
_atom_site_fract_y
_atom_site_fract_z
Si Si1 0.906062 0.408900 0.442963
Si Si2 0.996340 0.377224 0.786784
Si Si3 0.895526 0.273357 0.944880
Si Si4 0.450788 0.663310 0.239538
Si Si5 0.722120 0.546477 0.284573
Si Si6 0.668369 0.031899 0.798067
Si Si7 0.316106 0.156918 0.698132
Si Si8 0.147329 0.853000 0.322809
O O1 0.909474 0.282375 0.730573
O O2 0.753494 0.571959 0.339462
O O3 0.834838 0.581112 0.414019
O O4 0.123744 0.207837 0.288034
O O5 0.001103 0.272054 0.828320
O O6 0.000000 0.500000 0.500000
O O7 0.198045 0.169949 0.827264
O O8 0.820482 0.524003 0.002475
O O9 0.661939 0.508754 0.050056
O O10 0.025522 0.026011 0.137296
O O11 0.500000 0.500000 0.500000
O O12 0.317607 0.880727 0.248483
O O13 0.334363 0.745667 0.182492
O O14 0.487914 0.777211 0.334137
O O15 0.795749 0.338886 0.500738
O O16 0.602562 0.976660 0.090855
O O17 0.500000 0.000000 0.500000
O O18 0.000000 0.000000 0.500000
#
# Coordination Sequence:
#
# PCOD8036725 Si02
#       8
#     2   2   2   2   2   2   2   2
#     4  12  29  48  67 111 155 189 239 305 377 433
#     4  12  22  45  76 106 147 186 249 302 356 441
#     4  12  26  46  74 109 144 193 253 303 356 438
#     4  12  22  44  78 106 139 193 253 299 359 436
#     4  12  26  46  72 110 150 193 243 298 374 435
#     4  12  24  45  73 104 148 195 238 304 371 430
#     4  12  26  46  77 106 144 196 249 303 364 440
#     4  12  22  43  76 108 141 194 250 303 357 430
#
# _framework density 22.695235
#
# number of rings (size 3 to 8) (size 9 to 14) (size 15 to 20)
#    0.000    0.000    7.500    3.375    0.000    3.000 
#    0.000    1.250    0.000    0.000    0.000    0.000 
#    0.000    0.000    0.000    0.000    0.000    0.000 
#
# Total GULP energy -198319.975447 kJ/mol
# GULP energy per Si atom -12394.998465 kJ/mol
# Density = 2.264358 g / cm^3
# Si number density = 22.695235 Si / 1000 Ang^3
#
#
#
# Elastic Constant Matrix: (Units=GPa)
#
#
# Indices 1 2 3 4 5 6 
#
# 1 75.7162 35.0705 32.5411 12.4822 -1.2174 -7.6202
# 2 35.0705 119.8197 45.5766 4.8001 -3.4215 9.4528
# 3 32.5411 45.5766 141.5821 -9.4112 15.5822 10.5491
# 4 12.4822 4.8001 -9.4112 36.7884 -6.0758 2.6657
# 5 -1.2174 -3.4215 15.5822 -6.0758 41.4957 -1.1427
# 6 -7.6202 9.4528 10.5491 2.6657 -1.1427 32.9692
#
#
#
# Elastic Compliance Matrix: (Units=1/GPa)
#
#
# Indices 1 2 3 4 5 6 
#
# 1 0.018929 -0.004245 -0.004131 -0.007324 0.000892 0.007537
# 2 -0.004245 0.010825 -0.002449 -0.000102 0.001583 -0.003238
# 3 -0.004131 -0.002449 0.009730 0.003906 -0.003510 -0.003803
# 4 -0.007324 -0.000102 0.003906 0.031528 0.002778 -0.005366
# 5 0.000892 0.001583 -0.003510 0.002778 0.026023 0.001552
# 6 0.007537 -0.003238 -0.003803 -0.005366 0.001552 0.034706
#
#
# Mechanical properties :
#
#
# Convention : Reuss Voigt Hill
#
# Bulk Modulus (GPa) = 56.06975 62.61049 59.34012
# Shear Modulus (GPa) = 31.38056 37.17932 34.27994
#
# Velocity S-wave (km/s) = 3.72249 4.05186 3.89066
# Velocity P-wave (km/s) = 6.57534 7.03829 6.81075
#
# Compressibility (1/GPa) = 0.01783493
#
# Stress axis : x y z
#
# Youngs Moduli (GPa) = 52.82909 92.38286 102.77507
#
# Poissons Ratio (x) = 0.39216 0.42453
# Poissons Ratio (y) = 0.22425 0.25166
# Poissons Ratio (z) = 0.21822 0.22622
#
# Static dielectric constant tensor:
#      x y z
#    x 4.595730 -0.555610 0.027830 
#    y -0.555610 3.714540 -0.261930 
#    z 0.027830 -0.261930 4.514370 
# 
# 
# High freq. dielectric constant tensor:
#      x y z
#    x 1.894100 -0.017750 0.001100 
#    y -0.017750 1.893910 -0.016130 
#    z 0.001100 -0.016130 1.911200 
# 
# From -- ./inp_files/348816.got.cif
#   From: 2010.06.25/outbox.cif.g09.slc.cpg/sg2_175_cif.got.tgz:348816.got - 2010.06.27 13:26:56.
