data_PCOD8036742
_publ_section_title
;
Structure prediction by ZEFSAII (Michael W. Deem and Ramdas Pophale) SiO2 
 PCOD8036742
Probable space group: P -1
;
_chemical_formula_sum "Si O2"
_cell_formula_units_Z 14
_cell_length_a 9.595240
_cell_length_b 8.958841
_cell_length_c 9.469228
_cell_angle_alpha 87.525994
_cell_angle_beta 52.692154
_cell_angle_gamma 94.405381
_cell_volume 641.387101
_symmetry_space_group_name_H-M "P -1"
_symmetry_group_IT_number 2
_symmetry_cell_setting 'triclinic'
loop_
_space_group_symop_operation_xyz
x,y,z
-x,-y,-z
loop_
_atom_site_type_symbol
_atom_site_label
_atom_site_fract_x
_atom_site_fract_y
_atom_site_fract_z
Si Si1 0.616128 0.409780 0.833556
Si Si2 0.006080 0.651653 0.279165
Si Si3 0.843029 0.894726 0.534843
Si Si4 0.858140 0.082089 0.010682
Si Si5 0.371120 0.117404 0.056873
Si Si6 0.679395 0.100377 0.403888
Si Si7 0.660703 0.439245 0.487834
O O1 0.815762 0.407359 0.769616
O O2 0.632252 0.481199 0.665984
O O3 0.500000 0.500000 0.000000
O O4 0.494818 0.251285 0.900687
O O5 0.911766 0.740674 0.452518
O O6 0.857316 0.518624 0.319418
O O7 0.060838 0.761459 0.112421
O O8 0.697514 0.844040 0.746793
O O9 0.790158 0.995282 0.432995
O O10 0.000000 0.000000 0.500000
O O11 0.735048 0.131416 0.206977
O O12 0.780497 0.957347 0.950187
O O13 0.000000 0.000000 0.000000
O O14 0.500000 0.000000 0.000000
O O15 0.660811 0.260204 0.480586
O O16 0.500000 0.000000 0.500000
O O17 0.500000 0.500000 0.500000
#
# Coordination Sequence:
#
# PCOD8036742 Si02
#       7
#     2   2   2   2   2   2   2
#     4  12  28  48  73 104 145 191 238 298 361 436
#     4  12  26  48  73 105 147 188 244 296 363 433
#     4  12  22  44  74 105 137 188 238 296 353 424
#     4  12  25  43  72 109 140 181 241 299 354 423
#     4  12  23  44  74 105 141 184 245 296 352 421
#     4  12  26  45  72 102 142 185 235 294 360 422
#     4  12  29  49  71 105 147 191 238 296 368 430
#
# _framework density 21.827691000000002
#
# number of rings (size 3 to 8) (size 9 to 14) (size 15 to 20)
#    0.000    0.000    4.286    5.571    4.000    2.857 
#    0.000    0.000    0.000    0.000    0.000    0.000 
#    0.000    0.000    0.000    0.000    0.000    0.000 
#
# Total GULP energy -173488.107341 kJ/mol
# GULP energy per Si atom -12392.007667 kJ/mol
# Density = 2.177801 g / cm^3
# Si number density = 21.827691 Si / 1000 Ang^3
#
#
#
# Elastic Constant Matrix: (Units=GPa)
#
#
# Indices 1 2 3 4 5 6 
#
# 1 162.6607 80.2352 68.4894 -14.3004 -4.4029 -8.4893
# 2 80.2352 108.0738 25.1487 2.0374 -13.8775 12.8682
# 3 68.4894 25.1487 157.5554 1.1946 0.2355 2.0910
# 4 -14.3004 2.0374 1.1946 51.1889 -0.2077 -13.5205
# 5 -4.4029 -13.8775 0.2355 -0.2077 39.6806 -3.2604
# 6 -8.4893 12.8682 2.0910 -13.5205 -3.2604 43.3955
#
#
#
# Elastic Compliance Matrix: (Units=1/GPa)
#
#
# Indices 1 2 3 4 5 6 
#
# 1 0.014589 -0.011046 -0.004740 0.006832 -0.001492 0.008374
# 2 -0.011046 0.018828 0.001964 -0.006367 0.004535 -0.009482
# 3 -0.004740 0.001964 0.008146 -0.002286 -0.000115 -0.002623
# 4 0.006832 -0.006367 -0.002286 0.024650 -0.000424 0.010983
# 5 -0.001492 0.004535 -0.000115 -0.000424 0.026640 0.000238
# 6 0.008374 -0.009482 -0.002623 0.010983 0.000238 0.031060
#
#
# Mechanical properties :
#
#
# Convention : Reuss Voigt Hill
#
# Bulk Modulus (GPa) = 71.83995 86.22628 79.03311
# Shear Modulus (GPa) = 32.01110 43.81410 37.91260
#
# Velocity S-wave (km/s) = 3.83369 4.48512 4.17214
# Velocity P-wave (km/s) = 7.25121 8.14927 7.71332
#
# Compressibility (1/GPa) = 0.01391983
#
# Stress axis : x y z
#
# Youngs Moduli (GPa) = 68.54392 53.11293 122.75784
#
# Poissons Ratio (x) = 0.58667 0.58181
# Poissons Ratio (y) = 0.75712 -0.24106
# Poissons Ratio (z) = 0.32487 -0.10430
#
# Static dielectric constant tensor:
#      x y z
#    x 3.910770 -0.096100 -0.254610 
#    y -0.096100 3.889520 -0.165550 
#    z -0.254610 -0.165550 4.241440 
# 
# 
# High freq. dielectric constant tensor:
#      x y z
#    x 1.874170 0.002040 -0.003970 
#    y 0.002040 1.867000 -0.007120 
#    z -0.003970 -0.007120 1.881590 
# 
# From -- ./inp_files/156874.got.cif
#   From: 2010.06.25/outbox.cif.g09.slc.cpg/sg2_79_cif.got.tgz:156874.got - 2010.06.27 13:26:56.
