data_PCOD8036983
_publ_section_title
;
Structure prediction by ZEFSAII (Michael W. Deem and Ramdas Pophale) SiO2 
 PCOD8036983
Probable space group: P -1
;
_chemical_formula_sum "Si O2"
_cell_formula_units_Z 16
_cell_length_a 11.986022
_cell_length_b 17.557282
_cell_length_c 19.793087
_cell_angle_alpha 21.227824
_cell_angle_beta 42.227921
_cell_angle_gamma 30.167524
_cell_volume 707.213552
_symmetry_space_group_name_H-M "P -1"
_symmetry_group_IT_number 2
_symmetry_cell_setting 'triclinic'
loop_
_space_group_symop_operation_xyz
x,y,z
-x,-y,-z
loop_
_atom_site_type_symbol
_atom_site_label
_atom_site_fract_x
_atom_site_fract_y
_atom_site_fract_z
Si Si1 0.508874 0.973631 0.753296
Si Si2 0.002635 0.241053 0.281322
Si Si3 0.269313 0.513441 0.330128
Si Si4 0.963515 0.205403 0.556993
Si Si5 0.209177 0.863700 0.182395
Si Si6 0.344618 0.350418 0.791049
Si Si7 0.086925 0.315925 0.760131
Si Si8 0.686227 0.396961 0.178580
O O1 0.731045 0.920562 0.715278
O O2 0.368946 0.194080 0.569417
O O3 0.345150 0.116847 0.775551
O O4 0.580139 0.671191 0.949244
O O5 0.878961 0.489224 0.191538
O O6 0.859940 0.385272 0.155869
O O7 0.000000 0.000000 0.500000
O O8 0.148570 0.721027 0.279565
O O9 0.472300 0.493928 0.236524
O O10 0.077948 0.668123 0.229201
O O11 0.901517 0.076359 0.743838
O O12 0.743940 0.467878 0.389868
O O13 0.039250 0.348219 0.444242
O O14 0.186067 0.914829 0.655886
O O15 0.492234 0.626217 0.263505
O O16 0.108301 0.169955 0.941690
O O17 0.500000 0.000000 0.000000
#
# Coordination Sequence:
#
# PCOD8036983 Si02
#       8
#     2   2   2   2   2   2   2   2
#     4  12  25  44  75 106 139 191 247 295 360 425
#     4  12  23  46  73 105 150 189 236 297 365 436
#     4  12  25  48  79 104 145 190 258 299 347 437
#     4  12  28  44  71 110 151 187 237 304 372 426
#     4  12  25  45  74 105 145 190 240 301 357 431
#     4  12  24  44  74 108 146 187 237 297 374 429
#     4  12  27  48  76 107 141 198 251 297 354 433
#     4  12  27  46  73 109 146 196 237 300 368 434
#
# _framework density 22.623999000000001
#
# number of rings (size 3 to 8) (size 9 to 14) (size 15 to 20)
#    0.000    0.000    7.500    1.500    1.750    2.500 
#    0.000    1.250    0.000    0.000    0.000    0.000 
#    0.000    0.000    0.000    0.000    0.000    0.000 
#
# Total GULP energy -198423.703888 kJ/mol
# GULP energy per Si atom -12401.481493 kJ/mol
# Density = 2.257251 g / cm^3
# Si number density = 22.623999 Si / 1000 Ang^3
#
#
#
# Elastic Constant Matrix: (Units=GPa)
#
#
# Indices 1 2 3 4 5 6 
#
# 1 94.1662 39.1109 14.6543 2.7062 0.4181 6.8426
# 2 39.1109 100.3763 40.5661 -1.1617 2.5641 6.1381
# 3 14.6543 40.5661 149.6418 6.7669 -2.0131 5.1076
# 4 2.7062 -1.1617 6.7669 35.8958 15.8246 -1.3180
# 5 0.4181 2.5641 -2.0131 15.8246 34.1538 -2.5648
# 6 6.8426 6.1381 5.1076 -1.3180 -2.5648 20.1402
#
#
#
# Elastic Compliance Matrix: (Units=1/GPa)
#
#
# Indices 1 2 3 4 5 6 
#
# 1 0.012911 -0.005001 0.000276 -0.001635 0.000770 -0.002941
# 2 -0.005001 0.013409 -0.003227 0.002405 -0.002379 -0.001715
# 3 0.000276 -0.003227 0.007695 -0.002369 0.001715 -0.000998
# 4 -0.001635 0.002405 -0.002369 0.035992 -0.016930 0.000622
# 5 0.000770 -0.002379 0.001715 -0.016930 0.037673 0.003718
# 6 -0.002941 -0.001715 -0.000998 0.000622 0.003718 0.051941
#
#
# Mechanical properties :
#
#
# Convention : Reuss Voigt Hill
#
# Bulk Modulus (GPa) = 55.21879 59.20521 57.21200
# Shear Modulus (GPa) = 27.53873 34.69482 31.11678
#
# Velocity S-wave (km/s) = 3.49267 3.92029 3.71265
# Velocity P-wave (km/s) = 6.38163 6.83503 6.61222
#
# Compressibility (1/GPa) = 0.01810978
#
# Stress axis : x y z
#
# Youngs Moduli (GPa) = 77.45376 74.57734 129.95832
#
# Poissons Ratio (x) = 0.37296 -0.03587
# Poissons Ratio (y) = 0.38734 0.41944
# Poissons Ratio (z) = -0.02138 0.24070
#
# Static dielectric constant tensor:
#      x y z
#    x 4.113110 0.020350 0.203840 
#    y 0.020350 4.000420 0.028880 
#    z 0.203840 0.028880 4.399630 
# 
# 
# High freq. dielectric constant tensor:
#      x y z
#    x 1.882440 0.000830 0.004410 
#    y 0.000830 1.882130 0.005630 
#    z 0.004410 0.005630 1.915780 
# 
# From -- ./inp_files/573593.got.cif
#   From: 2010.06.25/outbox.cif.g09.slc.cpg/sg2_287_cif.got.tgz:573593.got - 2010.06.27 13:26:56.
