data_PCOD8036135
_publ_section_title
;
Structure prediction by ZEFSAII (Michael W. Deem and Ramdas Pophale) SiO2 
 PCOD8036135
Probable space group: P -1
;
_chemical_formula_sum "Si O2"
_cell_formula_units_Z 14
_cell_length_a 6.285374
_cell_length_b 11.469919
_cell_length_c 8.688721
_cell_angle_alpha 99.685049
_cell_angle_beta 89.563331
_cell_angle_gamma 91.431147
_cell_volume 617.269558
_symmetry_space_group_name_H-M "P -1"
_symmetry_group_IT_number 2
_symmetry_cell_setting 'triclinic'
loop_
_space_group_symop_operation_xyz
x,y,z
-x,-y,-z
loop_
_atom_site_type_symbol
_atom_site_label
_atom_site_fract_x
_atom_site_fract_y
_atom_site_fract_z
Si Si1 0.217602 0.239108 0.861433
Si Si2 0.686791 0.499233 0.122045
Si Si3 0.886492 0.091737 0.632143
Si Si4 0.425524 0.397788 0.364102
Si Si5 0.981860 0.668418 0.820408
Si Si6 0.305641 0.808773 0.631619
Si Si7 0.493657 0.968974 0.172039
O O1 0.257995 0.365404 0.806801
O O2 0.432896 0.165764 0.840995
O O3 0.043937 0.169583 0.749798
O O4 0.149307 0.250812 0.043309
O O5 0.591182 0.417790 0.234371
O O6 0.905097 0.425439 0.084580
O O7 0.500000 0.500000 0.000000
O O8 0.765596 0.182577 0.542966
O O9 0.733555 0.023009 0.740040
O O10 0.000000 0.000000 0.500000
O O11 0.500000 0.500000 0.500000
O O12 0.182038 0.403422 0.308717
O O13 0.477980 0.266358 0.395413
O O14 0.127428 0.749693 0.728965
O O15 0.346484 0.940446 0.723524
O O16 0.500000 0.000000 0.000000
#
# Coordination Sequence:
#
# PCOD8036135 Si02
#       7
#     2   2   2   2   2   2   2
#     4  12  27  44  77 103 145 191 246 302 369 436
#     4  11  26  45  71 109 144 190 247 303 365 435
#     4  12  29  47  73 110 147 193 242 304 372 436
#     4  11  27  43  73 102 148 193 241 308 366 430
#     4  11  26  47  72 107 145 195 245 303 366 442
#     4  11  27  46  71 104 150 185 250 301 368 438
#     4  12  28  47  76 106 145 192 246 303 366 437
#
# _framework density 22.680530999999998
#
# number of rings (size 3 to 8) (size 9 to 14) (size 15 to 20)
#    0.000    0.571    2.857    2.571   14.000    2.286 
#    0.000    0.000    0.000    0.000    0.000    0.000 
#    0.000    0.000    0.000    0.000    0.000    0.000 
#
# Total GULP energy -173489.163253 kJ/mol
# GULP energy per Si atom -12392.083089 kJ/mol
# Density = 2.262891 g / cm^3
# Si number density = 22.680531 Si / 1000 Ang^3
#
#
#
# Elastic Constant Matrix: (Units=GPa)
#
#
# Indices 1 2 3 4 5 6 
#
# 1 117.8823 51.6437 53.8372 8.8352 8.2518 2.5676
# 2 51.6437 126.9024 34.2745 7.4887 0.9292 -1.9383
# 3 53.8372 34.2745 112.6298 6.7267 18.4339 -7.0881
# 4 8.8352 7.4887 6.7267 46.4965 9.1677 3.4861
# 5 8.2518 0.9292 18.4339 9.1677 41.9920 1.4057
# 6 2.5676 -1.9383 -7.0881 3.4861 1.4057 44.7581
#
#
#
# Elastic Compliance Matrix: (Units=1/GPa)
#
#
# Indices 1 2 3 4 5 6 
#
# 1 0.012433 -0.003715 -0.004860 -0.000950 0.000032 -0.001571
# 2 -0.003715 0.009807 -0.001333 -0.000971 0.001295 0.000462
# 3 -0.004860 -0.001333 0.012503 0.000060 -0.004596 0.002341
# 4 -0.000950 -0.000971 0.000060 0.022895 -0.004763 -0.001612
# 5 0.000032 0.001295 -0.004596 -0.004763 0.026875 -0.001147
# 6 -0.001571 0.000462 0.002341 -0.001612 -0.001147 0.022985
#
#
# Mechanical properties :
#
#
# Convention : Reuss Voigt Hill
#
# Bulk Modulus (GPa) = 66.99548 70.76947 68.88248
# Shear Modulus (GPa) = 37.79540 41.15993 39.47766
#
# Velocity S-wave (km/s) = 4.08662 4.26463 4.17657
# Velocity P-wave (km/s) = 7.20209 7.45117 7.32769
#
# Compressibility (1/GPa) = 0.01492638
#
# Stress axis : x y z
#
# Youngs Moduli (GPa) = 80.42808 101.96749 79.97833
#
# Poissons Ratio (x) = 0.37885 0.38869
# Poissons Ratio (y) = 0.29883 0.10664
# Poissons Ratio (z) = 0.39088 0.13595
#
# Static dielectric constant tensor:
#      x y z
#    x 5.007810 -1.122140 -0.103950 
#    y -1.122140 6.259850 0.088680 
#    z -0.103950 0.088680 4.244270 
# 
# 
# High freq. dielectric constant tensor:
#      x y z
#    x 1.905010 -0.000350 0.005260 
#    y -0.000350 1.909670 -0.006160 
#    z 0.005260 -0.006160 1.901270 
# 
# From -- ./inp_files/53500.got.cif
#   From: 2010.06.25/outbox.cif.g09.slc.cpg/sg2_27_cif.got.tgz:53500.got - 2010.06.27 13:26:56.
