data_PCOD8036373
_publ_section_title
;
Structure prediction by ZEFSAII (Michael W. Deem and Ramdas Pophale) SiO2 
 PCOD8036373
Probable space group: P -1
;
_chemical_formula_sum "Si O2"
_cell_formula_units_Z 16
_cell_length_a 9.252522
_cell_length_b 16.593355
_cell_length_c 5.204109
_cell_angle_alpha 118.987826
_cell_angle_beta 82.151502
_cell_angle_gamma 96.615228
_cell_volume 691.237975
_symmetry_space_group_name_H-M "P -1"
_symmetry_group_IT_number 2
_symmetry_cell_setting 'triclinic'
loop_
_space_group_symop_operation_xyz
x,y,z
-x,-y,-z
loop_
_atom_site_type_symbol
_atom_site_label
_atom_site_fract_x
_atom_site_fract_y
_atom_site_fract_z
Si Si1 0.644643 0.950888 0.843164
Si Si2 0.127426 0.601279 0.871355
Si Si3 0.415658 0.407106 0.798898
Si Si4 0.061926 0.952801 0.160075
Si Si5 0.540015 0.326058 0.129934
Si Si6 0.931450 0.750039 0.891736
Si Si7 0.352949 0.163120 0.836840
Si Si8 0.893235 0.593202 0.311785
O O1 0.608231 0.883086 0.510256
O O2 0.764930 0.028650 0.845588
O O3 0.700775 0.904850 0.022258
O O4 0.500000 0.000000 0.000000
O O5 0.288273 0.650371 0.901955
O O6 0.128046 0.493271 0.610362
O O7 0.018625 0.666295 0.856684
O O8 0.058661 0.590105 0.156603
O O9 0.468501 0.382618 0.461561
O O10 0.242639 0.421586 0.875178
O O11 0.500000 0.500000 0.000000
O O12 0.459253 0.335082 0.889986
O O13 0.000000 0.000000 0.500000
O O14 0.034887 0.842241 0.979844
O O15 0.000000 0.000000 0.000000
O O16 0.497129 0.217328 0.008985
O O17 0.876901 0.699350 0.566456
O O18 0.783762 0.775248 0.109838
#
# Coordination Sequence:
#
# PCOD8036373 Si02
#       8
#     2   2   2   2   2   2   2   2
#     4  12  27  50  75 112 151 191 239 320 385 447
#     4  11  28  45  73 111 158 194 262 311 378 428
#     4  12  25  46  75 101 148 198 256 303 373 444
#     4  12  26  48  78 111 147 190 249 305 374 454
#     4  12  27  46  74 111 144 199 255 313 368 445
#     4  12  26  45  79 105 154 199 257 303 376 452
#     4  12  26  48  77 110 149 197 252 300 380 462
#     4  11  26  49  72 111 152 210 249 316 375 447
#
# _framework density 23.146875999999999
#
# number of rings (size 3 to 8) (size 9 to 14) (size 15 to 20)
#    0.000    0.250    5.000    2.625    7.000    1.000 
#    0.000    0.000    0.000    0.000    0.000    0.000 
#    0.000    0.000    0.000    0.000    0.000    0.000 
#
# Total GULP energy -198217.944727 kJ/mol
# GULP energy per Si atom -12388.621545 kJ/mol
# Density = 2.309419 g / cm^3
# Si number density = 23.146876 Si / 1000 Ang^3
#
#
#
# Elastic Constant Matrix: (Units=GPa)
#
#
# Indices 1 2 3 4 5 6 
#
# 1 158.3471 41.3742 59.6107 4.0348 -15.9742 25.4952
# 2 41.3742 105.5894 51.4796 14.0794 0.5671 7.9610
# 3 59.6107 51.4796 153.3702 14.4717 -4.4492 6.1063
# 4 4.0348 14.0794 14.4717 48.7358 3.2107 6.9556
# 5 -15.9742 0.5671 -4.4492 3.2107 35.6182 -1.4660
# 6 25.4952 7.9610 6.1063 6.9556 -1.4660 43.9778
#
#
#
# Elastic Compliance Matrix: (Units=1/GPa)
#
#
# Indices 1 2 3 4 5 6 
#
# 1 0.008851 -0.002030 -0.002580 0.001032 0.003403 -0.004455
# 2 -0.002030 0.012102 -0.003084 -0.002289 -0.001293 -0.000267
# 3 -0.002580 -0.003084 0.008673 -0.001641 0.000169 0.001115
# 4 0.001032 -0.002289 -0.001641 0.022208 -0.001853 -0.003530
# 5 0.003403 -0.001293 0.000169 -0.001853 0.029791 -0.000476
# 6 -0.004455 -0.000267 0.001115 -0.003530 -0.000476 0.025758
#
#
# Mechanical properties :
#
#
# Convention : Reuss Voigt Hill
#
# Bulk Modulus (GPa) = 70.23263 80.24841 75.24052
# Shear Modulus (GPa) = 39.21012 43.32252 41.26632
#
# Velocity S-wave (km/s) = 4.12025 4.33093 4.22691
# Velocity P-wave (km/s) = 7.28309 7.73006 7.50990
#
# Compressibility (1/GPa) = 0.01423840
#
# Stress axis : x y z
#
# Youngs Moduli (GPa) = 112.97627 82.63072 115.29435
#
# Poissons Ratio (x) = 0.16777 0.29746
# Poissons Ratio (y) = 0.22939 0.35555
# Poissons Ratio (z) = 0.29148 0.25482
#
# Static dielectric constant tensor:
#      x y z
#    x 4.193380 0.725250 0.025950 
#    y 0.725250 2.271950 0.407150 
#    z 0.025950 0.407150 4.345770 
# 
# 
# High freq. dielectric constant tensor:
#      x y z
#    x 1.928830 0.013780 0.004610 
#    y 0.013780 1.927220 0.010190 
#    z 0.004610 0.010190 1.914730 
# 
# From -- ./inp_files/49274.got.cif
#   From: 2010.06.25/outbox.cif.g09.slc.cpg/sg2_25_cif.got.tgz:49274.got - 2010.06.27 13:26:56.
