data_PCOD8036527
_publ_section_title
;
Structure prediction by ZEFSAII (Michael W. Deem and Ramdas Pophale) SiO2 
 PCOD8036527
Probable space group: P -1
;
_chemical_formula_sum "Si O2"
_cell_formula_units_Z 16
_cell_length_a 14.120201
_cell_length_b 15.595149
_cell_length_c 9.705732
_cell_angle_alpha 37.974441
_cell_angle_beta 79.055705
_cell_angle_gamma 50.971380
_cell_volume 783.862705
_symmetry_space_group_name_H-M "P -1"
_symmetry_group_IT_number 2
_symmetry_cell_setting 'triclinic'
loop_
_space_group_symop_operation_xyz
x,y,z
-x,-y,-z
loop_
_atom_site_type_symbol
_atom_site_label
_atom_site_fract_x
_atom_site_fract_y
_atom_site_fract_z
Si Si1 0.131295 0.536470 0.744480
Si Si2 0.682638 0.236621 0.479023
Si Si3 0.803983 0.837879 0.812001
Si Si4 0.170418 0.780490 0.295301
Si Si5 0.233434 0.106907 0.563827
Si Si6 0.832177 0.515945 0.883533
Si Si7 0.822156 0.225100 0.205262
Si Si8 0.342293 0.698393 0.100262
O O1 0.190791 0.595272 0.561078
O O2 0.942432 0.737690 0.541925
O O3 0.210609 0.305286 0.953156
O O4 0.191561 0.488218 0.943816
O O5 0.811604 0.144821 0.668854
O O6 0.698246 0.303717 0.248119
O O7 0.506734 0.452414 0.311291
O O8 0.712647 0.039012 0.691590
O O9 0.734408 0.934480 0.555718
O O10 0.985942 0.673011 0.965163
O O11 0.308002 0.663473 0.298418
O O12 0.000000 0.000000 0.000000
O O13 0.263609 0.231955 0.449947
O O14 0.349893 0.858568 0.915405
O O15 0.775599 0.440730 0.917347
O O16 0.800310 0.170951 0.134683
O O17 0.000000 0.000000 0.500000
#
# Coordination Sequence:
#
# PCOD8036527 Si02
#       8
#     2   2   2   2   2   2   2   2
#     4   9  17  36  59  90 113 157 198 246 285 344
#     4  12  24  40  59  90 125 159 191 246 308 351
#     4   9  18  33  62  88 121 148 195 246 301 340
#     4  12  24  41  63  86 116 160 211 241 285 360
#     4   9  17  34  58  91 121 149 192 246 299 340
#     4   9  17  32  61  92 116 146 200 253 282 339
#     4  12  20  37  64  93 115 149 212 245 278 345
#     4  12  25  39  58  91 129 155 190 247 310 351
#
# _framework density 20.411736000000001
#
# number of rings (size 3 to 8) (size 9 to 14) (size 15 to 20)
#    0.000    1.500    5.000    3.750    0.000    0.000 
#    0.000    4.375    0.000    0.000    0.000    0.000 
#    0.000    0.000    0.000    0.000    0.000    0.000 
#
# Total GULP energy -198348.008968 kJ/mol
# GULP energy per Si atom -12396.750560 kJ/mol
# Density = 2.036528 g / cm^3
# Si number density = 20.411736 Si / 1000 Ang^3
#
#
#
# Elastic Constant Matrix: (Units=GPa)
#
#
# Indices 1 2 3 4 5 6 
#
# 1 72.4603 28.3419 49.7368 -9.9585 -38.8055 11.2218
# 2 28.3419 81.5342 46.8456 -9.4958 -34.4366 -0.7579
# 3 49.7368 46.8456 100.4401 -14.2885 -45.5479 2.7748
# 4 -9.9585 -9.4958 -14.2885 34.3442 6.6579 -8.3578
# 5 -38.8055 -34.4366 -45.5479 6.6579 48.1002 -2.1315
# 6 11.2218 -0.7579 2.7748 -8.3578 -2.1315 31.3093
#
#
#
# Elastic Compliance Matrix: (Units=1/GPa)
#
#
# Indices 1 2 3 4 5 6 
#
# 1 0.028297 0.001058 -0.006500 0.000490 0.016998 -0.008253
# 2 0.001058 0.018989 -0.004683 0.002131 0.009796 0.001731
# 3 -0.006500 -0.004683 0.020598 0.003882 0.010466 0.002140
# 4 0.000490 0.002131 0.003882 0.033268 0.001369 0.008506
# 5 0.016998 0.009796 0.010466 0.001369 0.051108 -0.002938
# 6 -0.008253 0.001731 0.002140 0.008506 -0.002938 0.036820
#
#
# Mechanical properties :
#
#
# Convention : Reuss Voigt Hill
#
# Bulk Modulus (GPa) = 20.99310 56.03145 38.51228
# Shear Modulus (GPa) = 22.20171 31.38478 26.79325
#
# Velocity S-wave (km/s) = 3.30160 3.92546 3.62697
# Velocity P-wave (km/s) = 4.98410 6.93223 6.03726
#
# Compressibility (1/GPa) = 0.04763469
#
# Stress axis : x y z
#
# Youngs Moduli (GPa) = 35.33976 52.66136 48.54754
#
# Poissons Ratio (x) = -0.05570 0.31554
# Poissons Ratio (y) = -0.03738 0.22734
# Poissons Ratio (z) = 0.22970 0.24661
#
# Static dielectric constant tensor:
#      x y z
#    x 3.252460 -0.082310 -0.094180 
#    y -0.082310 3.518080 0.135200 
#    z -0.094180 0.135200 3.530780 
# 
# 
# High freq. dielectric constant tensor:
#      x y z
#    x 1.793470 0.005440 -0.030100 
#    y 0.005440 1.783690 -0.013320 
#    z -0.030100 -0.013320 1.781260 
# 
# From -- ./inp_files/182596.got.cif
#   From: 2010.06.25/outbox.cif.g09.slc.cpg/sg2_92_cif.got.tgz:182596.got - 2010.06.27 13:26:56.
