data_PCOD8036477
_publ_section_title
;
Structure prediction by ZEFSAII (Michael W. Deem and Ramdas Pophale) SiO2 
 PCOD8036477
Probable space group: P -1
;
_chemical_formula_sum "Si O2"
_cell_formula_units_Z 14
_cell_length_a 5.456370
_cell_length_b 15.632267
_cell_length_c 7.477441
_cell_angle_alpha 112.113823
_cell_angle_beta 69.780621
_cell_angle_gamma 82.980308
_cell_volume 530.595374
_symmetry_space_group_name_H-M "P -1"
_symmetry_group_IT_number 2
_symmetry_cell_setting 'triclinic'
loop_
_space_group_symop_operation_xyz
x,y,z
-x,-y,-z
loop_
_atom_site_type_symbol
_atom_site_label
_atom_site_fract_x
_atom_site_fract_y
_atom_site_fract_z
Si Si1 0.694714 0.389055 0.266221
Si Si2 0.470207 0.109331 0.141703
Si Si3 0.263659 0.983082 0.664212
Si Si4 0.215206 0.460439 0.151316
Si Si5 0.425157 0.620430 0.316870
Si Si6 0.929470 0.180101 0.516256
Si Si7 0.887373 0.184025 0.931078
O O1 0.474721 0.409563 0.176912
O O2 0.526001 0.413643 0.514679
O O3 0.924320 0.445965 0.257432
O O4 0.872333 0.276375 0.129209
O O5 0.638873 0.099166 0.275043
O O6 0.169978 0.177594 0.314859
O O7 0.591922 0.162871 0.998517
O O8 0.500000 0.000000 0.000000
O O9 0.091772 0.929333 0.544103
O O10 0.500000 0.000000 0.500000
O O11 0.100369 0.085555 0.875428
O O12 0.193175 0.574614 0.257467
O O13 0.295114 0.421449 0.898295
O O14 0.331531 0.736020 0.420148
O O15 0.980732 0.205415 0.727453
#
# Coordination Sequence:
#
# PCOD8036477 Si02
#       7
#     2   2   2   2   2   2   2
#     4  12  28  50  81 115 156 200 260 317 390 465
#     4  12  26  44  71  98 147 195 253 307 379 447
#     4  12  25  44  69 104 145 197 244 311 372 454
#     4  11  28  54  78 117 154 203 256 324 389 466
#     4  11  27  49  81 110 155 201 258 320 392 460
#     4  12  26  49  68 107 145 198 251 313 379 455
#     4  12  26  46  71 108 145 197 253 313 378 458
#
# _framework density 26.385452999999998
#
# number of rings (size 3 to 8) (size 9 to 14) (size 15 to 20)
#    0.000    0.286    4.286    3.429    6.000    4.571 
#    2.571    0.000    0.000    0.000    0.000    0.000 
#    0.000    0.000    0.000    0.000    0.000    0.000 
#
# Total GULP energy -173525.749400 kJ/mol
# GULP energy per Si atom -12394.696386 kJ/mol
# Density = 2.632540 g / cm^3
# Si number density = 26.385453 Si / 1000 Ang^3
#
#
#
# Elastic Constant Matrix: (Units=GPa)
#
#
# Indices 1 2 3 4 5 6 
#
# 1 69.3407 21.6850 25.1538 -2.4952 -13.7019 7.0451
# 2 21.6850 104.9875 32.4042 6.3954 -11.4389 8.5704
# 3 25.1538 32.4042 165.5730 -6.1513 -14.4217 11.0547
# 4 -2.4952 6.3954 -6.1513 44.0784 -3.2945 5.5765
# 5 -13.7019 -11.4389 -14.4217 -3.2945 37.2307 -5.7276
# 6 7.0451 8.5704 11.0547 5.5765 -5.7276 38.8992
#
#
#
# Elastic Compliance Matrix: (Units=1/GPa)
#
#
# Indices 1 2 3 4 5 6 
#
# 1 0.016910 -0.002479 -0.001497 0.001671 0.004779 -0.001627
# 2 -0.002479 0.010887 -0.001619 -0.001704 0.001497 -0.001025
# 3 -0.001497 -0.001619 0.006855 0.001385 0.001531 -0.001294
# 4 0.001671 -0.001704 0.001385 0.023819 0.002211 -0.003410
# 5 0.004779 0.001497 0.001531 0.002211 0.030253 0.002507
# 6 -0.001627 -0.001025 -0.001294 -0.003410 0.002507 0.027453
#
#
# Mechanical properties :
#
#
# Convention : Reuss Voigt Hill
#
# Bulk Modulus (GPa) = 42.62006 55.37635 48.99821
# Shear Modulus (GPa) = 36.98604 41.41888 39.20246
#
# Velocity S-wave (km/s) = 3.74807 3.96632 3.85874
# Velocity P-wave (km/s) = 5.90920 6.48141 6.20190
#
# Compressibility (1/GPa) = 0.02346313
#
# Stress axis : x y z
#
# Youngs Moduli (GPa) = 59.13805 91.85136 145.88035
#
# Poissons Ratio (x) = 0.22769 0.21835
# Poissons Ratio (y) = 0.14660 0.23612
# Poissons Ratio (z) = 0.08852 0.14867
#
# Static dielectric constant tensor:
#      x y z
#    x 4.658090 -0.167410 0.191360 
#    y -0.167410 5.076340 0.068280 
#    z 0.191360 0.068280 5.236240 
# 
# 
# High freq. dielectric constant tensor:
#      x y z
#    x 2.030570 -0.001960 -0.001300 
#    y -0.001960 2.070210 0.004020 
#    z -0.001300 0.004020 2.086960 
# 
# From -- ./inp_files/128828.got.cif
#   From: 2010.06.25/outbox.cif.g09.slc.cpg/sg2_65_cif.got.tgz:128828.got - 2010.06.27 13:26:56.
