data_PCOD8036397
_publ_section_title
;
Structure prediction by ZEFSAII (Michael W. Deem and Ramdas Pophale) SiO2 
 PCOD8036397
Probable space group: P -1
;
_chemical_formula_sum "Si O2"
_cell_formula_units_Z 12
_cell_length_a 11.736650
_cell_length_b 12.151596
_cell_length_c 5.386770
_cell_angle_alpha 73.560787
_cell_angle_beta 81.971691
_cell_angle_gamma 134.929127
_cell_volume 451.782250
_symmetry_space_group_name_H-M "P -1"
_symmetry_group_IT_number 2
_symmetry_cell_setting 'triclinic'
loop_
_space_group_symop_operation_xyz
x,y,z
-x,-y,-z
loop_
_atom_site_type_symbol
_atom_site_label
_atom_site_fract_x
_atom_site_fract_y
_atom_site_fract_z
Si Si1 0.534738 0.862345 0.037727
Si Si2 0.157127 0.633606 0.170937
Si Si3 0.089649 0.382479 0.013731
Si Si4 0.115101 0.112936 0.638503
Si Si5 0.266907 0.008009 0.609780
Si Si6 0.366324 0.499042 0.463427
O O1 0.356605 0.809141 0.129898
O O2 0.655127 0.990307 0.162611
O O3 0.480334 0.684364 0.162420
O O4 0.642036 0.971003 0.679361
O O5 0.184496 0.528643 0.108965
O O6 0.000000 0.500000 0.500000
O O7 0.089206 0.678823 0.979829
O O8 0.261696 0.486128 0.722285
O O9 0.959976 0.172477 0.247856
O O10 0.293611 0.165788 0.543038
O O11 0.199872 0.308850 0.476109
O O12 0.000000 0.000000 0.500000
O O13 0.000000 0.000000 0.000000
O O14 0.500000 0.500000 0.500000
#
# Coordination Sequence:
#
# PCOD8036397 Si02
#       6
#     2   2   2   2   2   2
#     4  12  28  48  75 114 152 199 255 310 377 450
#     4  11  26  49  79 108 151 202 261 310 384 454
#     4  11  27  50  78 110 152 205 253 319 383 452
#     4  12  27  46  75 111 152 203 251 305 381 457
#     4  12  28  48  75 115 156 195 255 316 380 450
#     4  12  26  50  78 114 155 201 251 316 382 461
#
# _framework density 26.561468000000001
#
# number of rings (size 3 to 8) (size 9 to 14) (size 15 to 20)
#    0.000    0.333    5.000    2.000    7.000    3.333 
#    0.000    0.000    0.000    0.000    0.000    0.000 
#    0.000    0.000    0.000    0.000    0.000    0.000 
#
# Total GULP energy -148692.498885 kJ/mol
# GULP energy per Si atom -12391.041574 kJ/mol
# Density = 2.650101 g / cm^3
# Si number density = 26.561468 Si / 1000 Ang^3
#
#
#
# Elastic Constant Matrix: (Units=GPa)
#
#
# Indices 1 2 3 4 5 6 
#
# 1 111.0464 5.1435 16.4160 22.2331 -25.0411 12.7590
# 2 5.1435 98.6222 33.5632 25.9441 -8.3846 18.5405
# 3 16.4160 33.5632 136.6666 37.9885 -21.7994 16.6953
# 4 22.2331 25.9441 37.9885 47.8434 -4.2889 2.6711
# 5 -25.0411 -8.3846 -21.7994 -4.2889 46.1930 2.4095
# 6 12.7590 18.5405 16.6953 2.6711 2.4095 44.1625
#
#
#
# Elastic Compliance Matrix: (Units=1/GPa)
#
#
# Indices 1 2 3 4 5 6 
#
# 1 0.012465 0.002339 0.001901 -0.007591 0.007648 -0.005260
# 2 0.002339 0.013491 -0.000245 -0.007588 0.003208 -0.005963
# 3 0.001901 -0.000245 0.011008 -0.008745 0.005598 -0.004384
# 4 -0.007591 -0.007588 -0.008745 0.034490 -0.006780 0.006968
# 5 0.007648 0.003208 0.005598 -0.006780 0.028745 -0.006831
# 6 -0.005260 -0.005963 -0.004384 0.006968 -0.006831 0.028275
#
#
# Mechanical properties :
#
#
# Convention : Reuss Voigt Hill
#
# Bulk Modulus (GPa) = 22.24516 50.73117 36.48816
# Shear Modulus (GPa) = 36.90884 47.05395 41.98139
#
# Velocity S-wave (km/s) = 3.73173 4.21350 3.97991
# Velocity P-wave (km/s) = 5.19239 6.54312 5.90649
#
# Compressibility (1/GPa) = 0.04495361
#
# Stress axis : x y z
#
# Youngs Moduli (GPa) = 80.22619 74.12425 90.84268
#
# Poissons Ratio (x) = -0.17338 -0.17268
# Poissons Ratio (y) = -0.18765 0.02224
# Poissons Ratio (z) = -0.15250 0.01815
#
# Static dielectric constant tensor:
#      x y z
#    x 4.575610 0.048880 0.024540 
#    y 0.048880 5.221230 -0.186410 
#    z 0.024540 -0.186410 4.386340 
# 
# 
# High freq. dielectric constant tensor:
#      x y z
#    x 2.094360 -0.004510 -0.001760 
#    y -0.004510 2.095690 -0.008520 
#    z -0.001760 -0.008520 2.046700 
# 
# From -- ./inp_files/45507.got.cif
#   From: 2010.06.25/outbox.cif.g09.slc.cpg/sg2_23_cif.got.tgz:45507.got - 2010.06.27 13:26:56.
