data_PCOD8036895
_publ_section_title
;
Structure prediction by ZEFSAII (Michael W. Deem and Ramdas Pophale) SiO2 
 PCOD8036895
Probable space group: P -1
;
_chemical_formula_sum "Si O2"
_cell_formula_units_Z 12
_cell_length_a 23.654808
_cell_length_b 26.362047
_cell_length_c 8.530314
_cell_angle_alpha 36.824925
_cell_angle_beta 142.001083
_cell_angle_gamma 170.325630
_cell_volume 535.759816
_symmetry_space_group_name_H-M "P -1"
_symmetry_group_IT_number 2
_symmetry_cell_setting 'triclinic'
loop_
_space_group_symop_operation_xyz
x,y,z
-x,-y,-z
loop_
_atom_site_type_symbol
_atom_site_label
_atom_site_fract_x
_atom_site_fract_y
_atom_site_fract_z
Si Si1 0.373972 0.683315 0.042728
Si Si2 0.295792 0.130419 0.152450
Si Si3 0.073966 0.870301 0.637305
Si Si4 0.130509 0.147522 0.587232
Si Si5 0.872034 0.308492 0.096654
Si Si6 0.928163 0.207215 0.714785
O O1 0.638349 0.967184 0.805897
O O2 0.230114 0.468336 0.182032
O O3 0.061192 0.463813 0.958197
O O4 0.566120 0.846030 0.226452
O O5 0.697363 0.468985 0.196292
O O6 0.099461 0.922802 0.386707
O O7 0.151357 0.955343 0.120180
O O8 0.152567 0.097641 0.896891
O O9 0.049685 0.927569 0.562108
O O10 0.500000 0.500000 0.500000
O O11 0.000000 0.000000 0.500000
O O12 0.895757 0.246251 0.409482
O O13 0.000000 0.500000 0.000000
O O14 0.500000 0.000000 0.000000
#
# Coordination Sequence:
#
# PCOD8036895 Si02
#       6
#     2   2   2   2   2   2
#     4  12  25  45  72 101 136 182 226 276 343 408
#     4  12  23  44  68  99 139 186 229 277 332 397
#     4  12  23  44  68  99 139 186 229 277 332 397
#     4  12  25  40  63 102 141 180 235 279 324 391
#     4  12  26  46  72 101 138 169 222 290 346 410
#     4  12  25  45  72 101 136 182 226 276 343 408
#
# _framework density 22.398097
#
# number of rings (size 3 to 8) (size 9 to 14) (size 15 to 20)
#    0.000    0.000    3.333    8.500    0.000    1.333 
#    0.000    5.000    0.000    0.000    0.000    0.000 
#    0.000    0.000    0.000    0.000    0.000    0.000 
#
# Total GULP energy -148692.020091 kJ/mol
# GULP energy per Si atom -12391.001674 kJ/mol
# Density = 2.234712 g / cm^3
# Si number density = 22.398097 Si / 1000 Ang^3
#
#
#
# Elastic Constant Matrix: (Units=GPa)
#
#
# Indices 1 2 3 4 5 6 
#
# 1 120.0043 31.9837 12.0650 -13.2115 3.0722 6.7475
# 2 31.9837 118.8954 23.8734 -7.8920 -0.9103 -7.2117
# 3 12.0650 23.8734 57.3964 -2.2991 1.1138 -5.7709
# 4 -13.2115 -7.8920 -2.2991 35.7050 -2.8250 -4.3578
# 5 3.0722 -0.9103 1.1138 -2.8250 34.8217 -4.9093
# 6 6.7475 -7.2117 -5.7709 -4.3578 -4.9093 48.4062
#
#
#
# Elastic Compliance Matrix: (Units=1/GPa)
#
#
# Indices 1 2 3 4 5 6 
#
# 1 0.009450 -0.002252 -0.001090 0.002660 -0.000872 -0.001632
# 2 -0.002252 0.009906 -0.003448 0.001401 0.000907 0.001597
# 3 -0.001090 -0.003448 0.019298 0.000288 -0.000315 0.001933
# 4 0.002660 0.001401 0.000288 0.029872 0.002615 0.002827
# 5 -0.000872 0.000907 -0.000315 0.002615 0.029527 0.003449
# 6 -0.001632 0.001597 0.001933 0.002827 0.003449 0.021959
#
#
# Mechanical properties :
#
#
# Convention : Reuss Voigt Hill
#
# Bulk Modulus (GPa) = 39.88314 48.01560 43.94937
# Shear Modulus (GPa) = 35.22405 39.01150 37.11778
#
# Velocity S-wave (km/s) = 3.96995 4.17793 4.07527
# Velocity P-wave (km/s) = 6.23371 6.69010 6.46593
#
# Compressibility (1/GPa) = 0.02507325
#
# Stress axis : x y z
#
# Youngs Moduli (GPa) = 105.82157 100.95233 51.81915
#
# Poissons Ratio (x) = 0.22737 0.05649
# Poissons Ratio (y) = 0.23833 0.17866
# Poissons Ratio (z) = 0.11537 0.34805
#
# Static dielectric constant tensor:
#      x y z
#    x 3.972300 0.040260 -0.078200 
#    y 0.040260 3.826450 0.142110 
#    z -0.078200 0.142110 4.003120 
# 
# 
# High freq. dielectric constant tensor:
#      x y z
#    x 1.894610 -0.005170 -0.005940 
#    y -0.005170 1.905820 -0.002020 
#    z -0.005940 -0.002020 1.880630 
# 
# From -- ./inp_files/33845.got.cif
#   From: 2010.06.25/outbox.cif.g09.slc.cpg/sg2_17_cif.got.tgz:33845.got - 2010.06.27 13:26:56.
