data_PCOD8036087
_publ_section_title
;
Structure prediction by ZEFSAII (Michael W. Deem and Ramdas Pophale) SiO2 
 PCOD8036087
Probable space group: P -1
;
_chemical_formula_sum "Si O2"
_cell_formula_units_Z 16
_cell_length_a 9.722238
_cell_length_b 5.217417
_cell_length_c 18.643413
_cell_angle_alpha 100.416667
_cell_angle_beta 50.999534
_cell_angle_gamma 100.933930
_cell_volume 719.247329
_symmetry_space_group_name_H-M "P -1"
_symmetry_group_IT_number 2
_symmetry_cell_setting 'triclinic'
loop_
_space_group_symop_operation_xyz
x,y,z
-x,-y,-z
loop_
_atom_site_type_symbol
_atom_site_label
_atom_site_fract_x
_atom_site_fract_y
_atom_site_fract_z
Si Si1 0.923262 0.189924 0.299952
Si Si2 0.470578 0.770465 0.557319
Si Si3 0.420768 0.764096 0.060853
Si Si4 0.176895 0.516430 0.894927
Si Si5 0.967446 0.254076 0.450367
Si Si6 0.980136 0.358143 0.808458
Si Si7 0.307900 0.029754 0.383153
Si Si8 0.419001 0.073102 0.833590
O O1 0.723039 0.220281 0.345587
O O2 0.963742 0.309579 0.370821
O O3 0.042680 0.383525 0.218248
O O4 0.956011 0.885393 0.269451
O O5 0.500000 0.500000 0.500000
O O6 0.587843 0.753224 0.590313
O O7 0.500000 0.000000 0.500000
O O8 0.215271 0.731760 0.104055
O O9 0.455383 0.849238 0.135965
O O10 0.500000 0.500000 0.000000
O O11 0.500000 0.000000 0.000000
O O12 0.295162 0.798511 0.870907
O O13 0.118770 0.436209 0.829847
O O14 0.293436 0.301022 0.876730
O O15 0.000000 0.500000 0.000000
O O16 0.133440 0.085967 0.399341
O O17 0.000000 0.500000 0.500000
O O18 0.769472 0.152051 0.535048
O O19 0.447415 0.919933 0.277463
#
# Coordination Sequence:
#
# PCOD8036087 Si02
#       8
#     2   2   2   2   2   2   2   2
#     4  12  26  45  70 102 139 184 233 284 343 405
#     4  12  24  43  66  96 132 182 230 277 336 394
#     4  12  26  48  73 105 141 183 229 287 357 422
#     4  12  26  49  76 105 142 183 230 291 363 424
#     4  11  26  44  69  96 144 192 232 284 344 409
#     4  12  26  46  73 105 140 182 235 289 343 421
#     4  11  26  44  67 103 138 186 235 285 342 407
#     4  12  27  46  75 107 143 183 235 292 347 421
#
# _framework density 22.245477000000001
#
# number of rings (size 3 to 8) (size 9 to 14) (size 15 to 20)
#    0.000    0.250    1.250    7.875    7.000    0.000 
#    0.000    0.000    0.000    0.000    0.000    0.000 
#    0.000    0.000    0.000    0.000    0.000    0.000 
#
# Total GULP energy -198253.866926 kJ/mol
# GULP energy per Si atom -12390.866683 kJ/mol
# Density = 2.219485 g / cm^3
# Si number density = 22.245477 Si / 1000 Ang^3
#
#
#
# Elastic Constant Matrix: (Units=GPa)
#
#
# Indices 1 2 3 4 5 6 
#
# 1 98.4009 29.6218 28.2320 -3.7995 4.4300 15.5259
# 2 29.6218 131.5704 26.5803 7.9210 -2.6211 -6.1437
# 3 28.2320 26.5803 105.9302 7.1450 -10.5300 -7.0824
# 4 -3.7995 7.9210 7.1450 40.1960 -0.1232 6.4848
# 5 4.4300 -2.6211 -10.5300 -0.1232 54.0260 4.3545
# 6 15.5259 -6.1437 -7.0824 6.4848 4.3545 38.0320
#
#
#
# Elastic Compliance Matrix: (Units=1/GPa)
#
#
# Indices 1 2 3 4 5 6 
#
# 1 0.013404 -0.002844 -0.003714 0.003626 -0.001382 -0.007083
# 2 -0.002844 0.008725 -0.001076 -0.002236 0.000222 0.002726
# 3 -0.003714 -0.001076 0.011346 -0.002742 0.002161 0.003675
# 4 0.003626 -0.002236 -0.002742 0.027272 -0.000317 -0.006966
# 5 -0.001382 0.000222 0.002161 -0.000317 0.019146 -0.001136
# 6 -0.007083 0.002726 0.003675 -0.006966 -0.001136 0.031628
#
#
# Mechanical properties :
#
#
# Convention : Reuss Voigt Hill
#
# Bulk Modulus (GPa) = 54.92859 56.08552 55.50706
# Shear Modulus (GPa) = 37.63450 43.21529 40.42490
#
# Velocity S-wave (km/s) = 4.11759 4.41234 4.26751
# Velocity P-wave (km/s) = 6.88126 7.15717 7.02057
#
# Compressibility (1/GPa) = 0.01820546
#
# Stress axis : x y z
#
# Youngs Moduli (GPa) = 74.60383 114.61975 88.13972
#
# Poissons Ratio (x) = 0.32598 0.32738
# Poissons Ratio (y) = 0.21217 0.09485
# Poissons Ratio (z) = 0.27710 0.12334
#
# Static dielectric constant tensor:
#      x y z
#    x 5.257150 -0.892120 -0.067090 
#    y -0.892120 5.536580 0.058500 
#    z -0.067090 0.058500 4.203800 
# 
# 
# High freq. dielectric constant tensor:
#      x y z
#    x 1.902280 0.009800 -0.001610 
#    y 0.009800 1.882670 0.000000 
#    z -0.001610 0.000000 1.891830 
# 
# From -- ./inp_files/553518.got.cif
#   From: 2010.06.25/outbox.cif.g09.slc.cpg/sg2_277_cif.got.tgz:553518.got - 2010.06.27 13:26:56.
