data_PCOD8036230
_publ_section_title
;
Structure prediction by ZEFSAII (Michael W. Deem and Ramdas Pophale) SiO2 
 PCOD8036230
Probable space group: P -1
;
_chemical_formula_sum "Si O2"
_cell_formula_units_Z 16
_cell_length_a 11.110972
_cell_length_b 18.004720
_cell_length_c 14.600414
_cell_angle_alpha 149.312497
_cell_angle_beta 30.120611
_cell_angle_gamma 130.372652
_cell_volume 693.397954
_symmetry_space_group_name_H-M "P -1"
_symmetry_group_IT_number 2
_symmetry_cell_setting 'triclinic'
loop_
_space_group_symop_operation_xyz
x,y,z
-x,-y,-z
loop_
_atom_site_type_symbol
_atom_site_label
_atom_site_fract_x
_atom_site_fract_y
_atom_site_fract_z
Si Si1 0.754472 0.121384 0.246358
Si Si2 0.852919 0.954824 0.663772
Si Si3 0.407408 0.932857 0.235378
Si Si4 0.749113 0.189396 0.127838
Si Si5 0.808753 0.630060 0.329448
Si Si6 0.906038 0.447758 0.246262
Si Si7 0.530305 0.556113 0.140365
Si Si8 0.740566 0.583724 0.698132
O O1 0.883100 0.139724 0.084531
O O2 0.678912 0.271771 0.521001
O O3 0.511848 0.068033 0.336971
O O4 0.000000 0.000000 0.000000
O O5 0.907609 0.770763 0.432102
O O6 0.135942 0.964216 0.496549
O O7 0.669557 0.053918 0.807535
O O8 0.714457 0.044447 0.942475
O O9 0.637812 0.770092 0.942337
O O10 0.465567 0.305362 0.471217
O O11 0.896311 0.274895 0.058787
O O12 0.741823 0.562234 0.396424
O O13 0.000000 0.500000 0.000000
O O14 0.795304 0.503521 0.478450
O O15 0.189255 0.441032 0.032381
O O16 0.493502 0.440968 0.119925
O O17 0.500000 0.500000 0.000000
O O18 0.000000 0.500000 0.500000
#
# Coordination Sequence:
#
# PCOD8036230 Si02
#       8
#     2   2   2   2   2   2   2   2
#     4  12  27  47  74 107 153 198 249 314 379 455
#     4  11  26  48  75 111 150 202 251 314 388 456
#     4  11  26  46  77 106 155 197 256 313 385 453
#     4  12  26  48  70 111 151 195 257 304 385 461
#     4  12  27  46  76 110 149 197 254 316 379 452
#     4  12  27  44  78 105 151 197 249 316 381 440
#     4  12  26  49  74 107 148 196 257 307 373 454
#     4  12  25  48  74 114 149 203 256 315 378 460
#
# _framework density 23.074771999999999
#
# number of rings (size 3 to 8) (size 9 to 14) (size 15 to 20)
#    0.000    0.250    3.750    4.500    7.000    1.000 
#    0.000    1.875    0.000    0.000    0.000    0.000 
#    0.000    0.000    0.000    0.000    0.000    0.000 
#
# Total GULP energy -198329.034229 kJ/mol
# GULP energy per Si atom -12395.564639 kJ/mol
# Density = 2.302225 g / cm^3
# Si number density = 23.074772 Si / 1000 Ang^3
#
#
#
# Elastic Constant Matrix: (Units=GPa)
#
#
# Indices 1 2 3 4 5 6 
#
# 1 115.8357 40.3186 57.8752 9.7052 9.6902 -19.5797
# 2 40.3186 158.4538 42.7370 8.5098 7.1006 -6.3495
# 3 57.8752 42.7370 116.3277 18.8896 18.1027 -13.9111
# 4 9.7052 8.5098 18.8896 42.6233 0.7790 -0.9715
# 5 9.6902 7.1006 18.1027 0.7790 47.2371 -3.4760
# 6 -19.5797 -6.3495 -13.9111 -0.9715 -3.4760 45.6030
#
#
#
# Elastic Compliance Matrix: (Units=1/GPa)
#
#
# Indices 1 2 3 4 5 6 
#
# 1 0.012355 -0.001617 -0.005096 -0.000150 -0.000077 0.003516
# 2 -0.001617 0.007222 -0.001825 -0.000270 -0.000069 -0.000256
# 3 -0.005096 -0.001825 0.013191 -0.004228 -0.003576 0.001219
# 4 -0.000150 -0.000270 -0.004228 0.025384 0.001217 -0.000758
# 5 -0.000077 -0.000069 -0.003576 0.001217 0.022592 0.000614
# 6 0.003516 -0.000256 0.001219 -0.000758 0.000614 0.023805
#
#
# Mechanical properties :
#
#
# Convention : Reuss Voigt Hill
#
# Bulk Modulus (GPa) = 63.72460 74.71984 69.22222
# Shear Modulus (GPa) = 39.41514 43.73845 41.57679
#
# Velocity S-wave (km/s) = 4.13746 4.35847 4.24940
# Velocity P-wave (km/s) = 7.10643 7.60133 7.35804
#
# Compressibility (1/GPa) = 0.01569253
#
# Stress axis : x y z
#
# Youngs Moduli (GPa) = 80.93752 138.46760 75.80882
#
# Poissons Ratio (x) = 0.22389 0.38632
# Poissons Ratio (y) = 0.13087 0.13835
# Poissons Ratio (z) = 0.41246 0.25270
#
# Static dielectric constant tensor:
#      x y z
#    x 4.267300 0.332740 -0.179220 
#    y 0.332740 4.816280 0.491390 
#    z -0.179220 0.491390 4.545660 
# 
# 
# High freq. dielectric constant tensor:
#      x y z
#    x 1.918680 0.000100 -0.001850 
#    y 0.000100 1.932150 0.000700 
#    z -0.001850 0.000700 1.915730 
# 
# From -- ./inp_files/307688.got.cif
#   From: 2010.06.25/outbox.cif.g09.slc.cpg/sg2_154_cif.got.tgz:307688.got - 2010.06.27 13:26:56.
