data_PCOD8036031
_publ_section_title
;
Structure prediction by ZEFSAII (Michael W. Deem and Ramdas Pophale) SiO2 
 PCOD8036031
Probable space group: P -1
;
_chemical_formula_sum "Si O2"
_cell_formula_units_Z 12
_cell_length_a 11.998913
_cell_length_b 9.398234
_cell_length_c 7.992534
_cell_angle_alpha 115.571393
_cell_angle_beta 98.372128
_cell_angle_gamma 36.551723
_cell_volume 448.974678
_symmetry_space_group_name_H-M "P -1"
_symmetry_group_IT_number 2
_symmetry_cell_setting 'triclinic'
loop_
_space_group_symop_operation_xyz
x,y,z
-x,-y,-z
loop_
_atom_site_type_symbol
_atom_site_label
_atom_site_fract_x
_atom_site_fract_y
_atom_site_fract_z
Si Si1 0.313843 0.935874 0.100921
Si Si2 0.847686 0.555443 0.306822
Si Si3 0.254412 0.019218 0.670819
Si Si4 0.844213 0.403746 0.895034
Si Si5 0.626448 0.784395 0.722999
Si Si6 0.614268 0.372484 0.750603
O O1 0.408519 0.747292 0.190848
O O2 0.427339 0.971445 0.124094
O O3 0.403126 0.717237 0.862341
O O4 0.076065 0.232193 0.215286
O O5 0.723171 0.651929 0.492702
O O6 0.834394 0.760210 0.381863
O O7 0.749454 0.586706 0.137660
O O8 0.426171 0.912024 0.755833
O O9 0.333419 0.761944 0.484822
O O10 0.081783 0.172259 0.844013
O O11 0.779302 0.554241 0.781969
O O12 0.795916 0.274002 0.808577
#
# Coordination Sequence:
#
# PCOD8036031 Si02
#       6
#     2   2   2   2   2   2
#     4  11  25  49  79 116 156 206 256 320 387 460
#     4  12  26  50  83 114 150 210 264 309 385 467
#     4  12  26  50  80 116 151 206 263 315 385 461
#     4  12  29  51  79 120 155 200 263 323 381 462
#     4  12  27  51  85 111 154 208 263 316 378 466
#     4  11  27  48  76 118 164 195 255 327 392 452
#
# _framework density 26.727564999999998
#
# number of rings (size 3 to 8) (size 9 to 14) (size 15 to 20)
#    0.000    0.333    3.333    4.000    7.000    2.667 
#    3.000    0.000    0.000    0.000    0.000    0.000 
#    0.000    0.000    0.000    0.000    0.000    0.000 
#
# Total GULP energy -148784.564276 kJ/mol
# GULP energy per Si atom -12398.713690 kJ/mol
# Density = 2.666673 g / cm^3
# Si number density = 26.727565 Si / 1000 Ang^3
#
#
#
# Elastic Constant Matrix: (Units=GPa)
#
#
# Indices 1 2 3 4 5 6 
#
# 1 122.2257 21.0749 26.6019 4.8236 19.4629 -6.9720
# 2 21.0749 90.2315 44.5468 13.8735 1.2668 -5.4707
# 3 26.6019 44.5468 188.7814 -1.5370 20.1346 9.9370
# 4 4.8236 13.8735 -1.5370 51.7001 3.4334 -3.8714
# 5 19.4629 1.2668 20.1346 3.4334 46.6282 8.4549
# 6 -6.9720 -5.4707 9.9370 -3.8714 8.4549 43.9533
#
#
#
# Elastic Compliance Matrix: (Units=1/GPa)
#
#
# Indices 1 2 3 4 5 6 
#
# 1 0.009368 -0.001698 -0.000608 -0.000008 -0.003996 0.002180
# 2 -0.001698 0.013733 -0.003298 -0.003626 0.001750 0.001530
# 3 -0.000608 -0.003298 0.006490 0.001179 -0.002287 -0.001430
# 4 -0.000008 -0.003626 0.001179 0.020611 -0.002201 0.001520
# 5 -0.003996 0.001750 -0.002287 -0.002201 0.025109 -0.004923
# 6 0.002180 0.001530 -0.001430 0.001520 -0.004923 0.024692
#
#
# Mechanical properties :
#
#
# Convention : Reuss Voigt Hill
#
# Bulk Modulus (GPa) = 54.40015 65.07620 59.73818
# Shear Modulus (GPa) = 42.61178 49.05733 45.83456
#
# Velocity S-wave (km/s) = 3.99720 4.28887 4.14560
# Velocity P-wave (km/s) = 6.45765 6.99476 6.73157
#
# Compressibility (1/GPa) = 0.01838230
#
# Stress axis : x y z
#
# Youngs Moduli (GPa) = 106.74927 72.81611 154.08871
#
# Poissons Ratio (x) = 0.12367 0.09366
# Poissons Ratio (y) = 0.18130 0.50818
# Poissons Ratio (z) = 0.06489 0.24014
#
# Static dielectric constant tensor:
#      x y z
#    x 4.901230 0.127330 -0.053110 
#    y 0.127330 4.801100 0.194950 
#    z -0.053110 0.194950 5.149680 
# 
# 
# High freq. dielectric constant tensor:
#      x y z
#    x 2.079350 0.002280 -0.009640 
#    y 0.002280 2.083840 -0.000650 
#    z -0.009640 -0.000650 2.093060 
# 
# From -- ./inp_files/158327.got.cif
#   From: 2010.06.25/outbox.cif.g09.slc.cpg/sg2_80_cif.got.tgz:158327.got - 2010.06.27 13:26:56.
