data_PCOD8036562
_publ_section_title
;
Structure prediction by ZEFSAII (Michael W. Deem and Ramdas Pophale) SiO2 
 PCOD8036562
Probable space group: P -1
;
_chemical_formula_sum "Si O2"
_cell_formula_units_Z 14
_cell_length_a 14.352692
_cell_length_b 14.326736
_cell_length_c 11.236698
_cell_angle_alpha 123.843255
_cell_angle_beta 66.905988
_cell_angle_gamma 159.372262
_cell_volume 606.856934
_symmetry_space_group_name_H-M "P -1"
_symmetry_group_IT_number 2
_symmetry_cell_setting 'triclinic'
loop_
_space_group_symop_operation_xyz
x,y,z
-x,-y,-z
loop_
_atom_site_type_symbol
_atom_site_label
_atom_site_fract_x
_atom_site_fract_y
_atom_site_fract_z
Si Si1 0.310710 0.770159 0.040536
Si Si2 0.848944 0.197051 0.525232
Si Si3 0.614595 0.123228 0.369925
Si Si4 0.087558 0.977540 0.006835
Si Si5 0.071479 0.315677 0.736718
Si Si6 0.422051 0.317055 0.324241
Si Si7 0.455817 0.215819 0.810021
O O1 0.461987 0.989080 0.227483
O O2 0.266106 0.588310 0.929242
O O3 0.000000 0.500000 0.000000
O O4 0.500000 0.000000 0.000000
O O5 0.061269 0.484667 0.529818
O O6 0.996710 0.313542 0.656605
O O7 0.584959 0.014767 0.534539
O O8 0.713733 0.944881 0.347252
O O9 0.597448 0.970991 0.274722
O O10 0.243090 0.168305 0.190286
O O11 0.799783 0.602204 0.904262
O O12 0.315842 0.147155 0.932469
O O13 0.000000 0.000000 0.000000
O O14 0.263684 0.408606 0.671837
O O15 0.768006 0.967310 0.704653
O O16 0.500000 0.500000 0.500000
#
# Coordination Sequence:
#
# PCOD8036562 Si02
#       7
#     2   2   2   2   2   2   2
#     4  12  21  38  61  97 137 182 217 274 328 413
#     4  12  25  42  71 107 142 192 225 283 341 429
#     4  12  22  43  66 106 145 182 238 274 348 411
#     4  12  28  51  75 102 135 187 240 291 358 414
#     4  12  25  44  71 105 144 180 237 279 359 409
#     4  12  28  48  76 104 136 178 236 304 349 410
#     4  12  27  46  74  99 147 183 234 292 347 415
#
# _framework density 23.069687999999999
#
# number of rings (size 3 to 8) (size 9 to 14) (size 15 to 20)
#    0.000    0.000    2.857    7.714    4.000    0.000 
#    0.000    0.000    0.000    0.000    0.000    0.000 
#    0.000    0.000    0.000    0.000    0.000    0.000 
#
# Total GULP energy -173515.069213 kJ/mol
# GULP energy per Si atom -12393.933515 kJ/mol
# Density = 2.301718 g / cm^3
# Si number density = 23.069688 Si / 1000 Ang^3
#
#
#
# Elastic Constant Matrix: (Units=GPa)
#
#
# Indices 1 2 3 4 5 6 
#
# 1 105.7800 14.8112 15.7054 -0.2405 3.7949 4.6542
# 2 14.8112 129.4069 11.0805 -16.7974 -6.6235 -7.1015
# 3 15.7054 11.0805 135.4722 -3.3590 -6.0178 -1.1784
# 4 -0.2405 -16.7974 -3.3590 73.6174 5.4448 28.0126
# 5 3.7949 -6.6235 -6.0178 5.4448 34.7648 -5.1947
# 6 4.6542 -7.1015 -1.1784 28.0126 -5.1947 72.2867
#
#
#
# Elastic Compliance Matrix: (Units=1/GPa)
#
#
# Indices 1 2 3 4 5 6 
#
# 1 0.009885 -0.001146 -0.001130 0.000212 -0.001671 -0.000970
# 2 -0.001146 0.008196 -0.000432 0.001609 0.001412 0.000350
# 3 -0.001130 -0.000432 0.007613 0.000054 0.001385 0.000233
# 4 0.000212 0.001609 0.000054 0.016695 -0.003302 -0.006562
# 5 -0.001671 0.001412 0.001385 -0.003302 0.030532 0.003743
# 6 -0.000970 0.000350 0.000233 -0.006562 0.003743 0.016746
#
#
# Mechanical properties :
#
#
# Convention : Reuss Voigt Hill
#
# Bulk Modulus (GPa) = 49.31234 50.42813 49.87024
# Shear Modulus (GPa) = 49.09575 58.07123 53.58349
#
# Velocity S-wave (km/s) = 4.61819 5.02262 4.82465
# Velocity P-wave (km/s) = 7.06107 7.45266 7.25951
#
# Compressibility (1/GPa) = 0.02027890
#
# Stress axis : x y z
#
# Youngs Moduli (GPa) = 101.16503 122.01021 131.35829
#
# Poissons Ratio (x) = 0.13981 0.14839
# Poissons Ratio (y) = 0.11592 0.05673
# Poissons Ratio (z) = 0.11428 0.05269
#
# Static dielectric constant tensor:
#      x y z
#    x 4.130940 0.045090 0.309060 
#    y 0.045090 4.765080 0.037830 
#    z 0.309060 0.037830 6.173750 
# 
# 
# High freq. dielectric constant tensor:
#      x y z
#    x 1.909100 0.004810 0.013860 
#    y 0.004810 1.932240 -0.002870 
#    z 0.013860 -0.002870 1.943740 
# 
# From -- ./inp_files/454021.got.cif
#   From: 2010.06.25/outbox.cif.g09.slc.cpg/sg2_228_cif.got.tgz:454021.got - 2010.06.27 13:26:56.
