data_PCOD8036150
_publ_section_title
;
Structure prediction by ZEFSAII (Michael W. Deem and Ramdas Pophale) SiO2 
 PCOD8036150
Probable space group: P -1
;
_chemical_formula_sum "Si O2"
_cell_formula_units_Z 12
_cell_length_a 9.951822
_cell_length_b 9.137217
_cell_length_c 13.142551
_cell_angle_alpha 119.163825
_cell_angle_beta 109.182130
_cell_angle_gamma 29.647665
_cell_volume 503.598370
_symmetry_space_group_name_H-M "P -1"
_symmetry_group_IT_number 2
_symmetry_cell_setting 'triclinic'
loop_
_space_group_symop_operation_xyz
x,y,z
-x,-y,-z
loop_
_atom_site_type_symbol
_atom_site_label
_atom_site_fract_x
_atom_site_fract_y
_atom_site_fract_z
Si Si1 0.988770 0.335584 0.580495
Si Si2 0.752195 0.617615 0.403357
Si Si3 0.718074 0.288787 0.227821
Si Si4 0.291534 0.237700 0.937048
Si Si5 0.403550 0.835242 0.675163
Si Si6 0.681246 0.414571 0.935539
O O1 0.935826 0.359056 0.455634
O O2 0.037326 0.489270 0.653105
O O3 0.266261 0.968283 0.572621
O O4 0.735558 0.514241 0.641539
O O5 0.640379 0.564931 0.301940
O O6 0.500000 0.000000 0.500000
O O7 0.477290 0.430749 0.158734
O O8 0.706762 0.219525 0.314252
O O9 0.010637 0.970919 0.134961
O O10 0.315446 0.092007 0.797952
O O11 0.305708 0.411880 0.958712
O O12 0.000000 0.500000 0.000000
O O13 0.500000 0.000000 0.000000
O O14 0.500000 0.500000 0.000000
#
# Coordination Sequence:
#
# PCOD8036150 Si02
#       6
#     2   2   2   2   2   2
#     4  11  26  45  73 101 136 183 235 284 354 412
#     4  11  27  51  70 104 142 183 235 296 353 416
#     4  12  28  46  72 103 146 181 236 292 347 413
#     4  12  23  45  70 101 146 181 226 282 346 412
#     4  12  24  45  72 107 134 187 229 287 348 416
#     4  12  27  46  68 108 143 188 230 285 346 419
#
# _framework density 23.828512
#
# number of rings (size 3 to 8) (size 9 to 14) (size 15 to 20)
#    0.000    0.333    5.000    2.500    9.333    1.333 
#    0.000    0.000    0.000    0.000    0.000    0.000 
#    0.000    0.000    0.000    0.000    0.000    0.000 
#
# Total GULP energy -148740.206036 kJ/mol
# GULP energy per Si atom -12395.017170 kJ/mol
# Density = 2.377428 g / cm^3
# Si number density = 23.828512 Si / 1000 Ang^3
#
#
#
# Elastic Constant Matrix: (Units=GPa)
#
#
# Indices 1 2 3 4 5 6 
#
# 1 170.4182 10.4457 23.3634 23.7467 4.3929 -6.3810
# 2 10.4457 105.6772 18.5347 1.2503 9.7129 -13.0170
# 3 23.3634 18.5347 38.3586 11.9540 7.7200 1.0169
# 4 23.7467 1.2503 11.9540 41.1308 3.7527 -5.6033
# 5 4.3929 9.7129 7.7200 3.7527 38.1945 0.1278
# 6 -6.3810 -13.0170 1.0169 -5.6033 0.1278 41.0392
#
#
#
# Elastic Compliance Matrix: (Units=1/GPa)
#
#
# Indices 1 2 3 4 5 6 
#
# 1 0.006737 0.000019 -0.003276 -0.002851 0.000160 0.000745
# 2 0.000019 0.011102 -0.005735 0.002027 -0.001879 0.003949
# 3 -0.003276 -0.005735 0.034339 -0.008105 -0.004295 -0.004272
# 4 -0.002851 0.002027 -0.008105 0.028975 -0.001411 0.004361
# 5 0.000160 -0.001879 -0.004295 -0.001411 0.027650 -0.000743
# 6 0.000745 0.003949 -0.004272 0.004361 -0.000743 0.026439
#
#
# Mechanical properties :
#
#
# Convention : Reuss Voigt Hill
#
# Bulk Modulus (GPa) = 29.24345 46.57128 37.90737
# Shear Modulus (GPa) = 30.37222 41.54690 35.95956
#
# Velocity S-wave (km/s) = 3.57405 4.18015 3.88893
# Velocity P-wave (km/s) = 5.41580 6.54866 6.00899
#
# Compressibility (1/GPa) = 0.03419569
#
# Stress axis : x y z
#
# Youngs Moduli (GPa) = 148.43579 90.07580 29.12100
#
# Poissons Ratio (x) = -0.00176 0.09541
# Poissons Ratio (y) = -0.00289 0.16700
# Poissons Ratio (z) = 0.48630 0.51654
#
# Static dielectric constant tensor:
#      x y z
#    x 4.733150 -0.126590 0.118800 
#    y -0.126590 4.475520 -0.213120 
#    z 0.118800 -0.213120 4.092690 
# 
# 
# High freq. dielectric constant tensor:
#      x y z
#    x 1.975080 -0.010760 -0.001600 
#    y -0.010760 1.953090 -0.011070 
#    z -0.001600 -0.011070 1.921460 
# 
# From -- ./inp_files/299939.got.cif
#   From: 2010.06.25/outbox.cif.g09.slc.cpg/sg2_150_cif.got.tgz:299939.got - 2010.06.27 13:26:56.
