data_PCOD8036168
_publ_section_title
;
Structure prediction by ZEFSAII (Michael W. Deem and Ramdas Pophale) SiO2 
 PCOD8036168
Probable space group: P -1
;
_chemical_formula_sum "Si O2"
_cell_formula_units_Z 12
_cell_length_a 14.720580
_cell_length_b 5.130579
_cell_length_c 15.796817
_cell_angle_alpha 125.132170
_cell_angle_beta 29.314347
_cell_angle_gamma 125.470051
_cell_volume 468.438822
_symmetry_space_group_name_H-M "P -1"
_symmetry_group_IT_number 2
_symmetry_cell_setting 'triclinic'
loop_
_space_group_symop_operation_xyz
x,y,z
-x,-y,-z
loop_
_atom_site_type_symbol
_atom_site_label
_atom_site_fract_x
_atom_site_fract_y
_atom_site_fract_z
Si Si1 0.911643 0.945338 0.700503
Si Si2 0.226926 0.302316 0.394537
Si Si3 0.771737 0.054825 0.426843
Si Si4 0.594651 0.178888 0.253975
Si Si5 0.205618 0.108663 0.815174
Si Si6 0.538282 0.869046 0.071480
O O1 0.838731 0.640083 0.638363
O O2 0.027684 0.869916 0.674030
O O3 0.723875 0.065706 0.908621
O O4 0.039251 0.211594 0.587871
O O5 0.332847 0.640726 0.412048
O O6 0.359325 0.037071 0.233164
O O7 0.618719 0.759049 0.538343
O O8 0.803765 0.021952 0.296545
O O9 0.725919 0.503027 0.170863
O O10 0.663225 0.068816 0.267693
O O11 0.585783 0.895155 0.137874
O O12 0.000000 0.000000 0.000000
O O13 0.500000 0.500000 0.000000
#
# Coordination Sequence:
#
# PCOD8036168 Si02
#       6
#     2   2   2   2   2   2
#     4  11  26  45  75 111 154 205 266 318 394 474
#     4  11  26  47  75 114 159 206 265 322 402 463
#     4  12  26  49  79 110 160 208 264 328 401 469
#     4  12  27  50  77 117 157 206 268 327 393 478
#     4  12  29  50  81 115 157 208 271 328 400 472
#     4  12  27  48  77 114 160 206 265 322 403 468
#
# _framework density 25.617004000000001
#
# number of rings (size 3 to 8) (size 9 to 14) (size 15 to 20)
#    0.000    0.333    1.667    5.500    9.333    1.333 
#    0.000    0.000    0.000    0.000    0.000    0.000 
#    0.000    0.000    0.000    0.000    0.000    0.000 
#
# Total GULP energy -148686.874427 kJ/mol
# GULP energy per Si atom -12390.572869 kJ/mol
# Density = 2.555870 g / cm^3
# Si number density = 25.617004 Si / 1000 Ang^3
#
#
#
# Elastic Constant Matrix: (Units=GPa)
#
#
# Indices 1 2 3 4 5 6 
#
# 1 164.0739 62.4472 67.5842 7.2665 31.9746 20.4628
# 2 62.4472 122.0868 66.5380 3.6833 5.0394 9.0528
# 3 67.5842 66.5380 198.7525 -33.8781 19.3070 14.7365
# 4 7.2665 3.6833 -33.8781 45.7662 4.0593 7.3439
# 5 31.9746 5.0394 19.3070 4.0593 48.5088 2.1524
# 6 20.4628 9.0528 14.7365 7.3439 2.1524 36.6501
#
#
#
# Elastic Compliance Matrix: (Units=1/GPa)
#
#
# Indices 1 2 3 4 5 6 
#
# 1 0.009533 -0.003526 -0.001577 -0.001432 -0.005026 -0.003235
# 2 -0.003526 0.011968 -0.003784 -0.003632 0.002842 0.001095
# 3 -0.001577 -0.003784 0.008602 0.007629 -0.002495 -0.003025
# 4 -0.001432 -0.003632 0.007629 0.029492 -0.003870 -0.007053
# 5 -0.005026 0.002842 -0.002495 -0.003870 0.024842 0.002424
# 6 -0.003235 0.001095 -0.003025 -0.007053 0.002424 0.031308
#
#
# Mechanical properties :
#
#
# Convention : Reuss Voigt Hill
#
# Bulk Modulus (GPa) = 81.11626 97.56133 89.33880
# Shear Modulus (GPa) = 36.32980 45.40795 40.86887
#
# Velocity S-wave (km/s) = 3.76997 4.21476 3.99855
# Velocity P-wave (km/s) = 7.11927 7.86466 7.50123
#
# Compressibility (1/GPa) = 0.01232798
#
# Stress axis : x y z
#
# Youngs Moduli (GPa) = 104.90021 83.55790 116.25766
#
# Poissons Ratio (x) = 0.29461 0.18337
# Poissons Ratio (y) = 0.36986 0.43992
# Poissons Ratio (z) = 0.16545 0.31618
#
# Static dielectric constant tensor:
#      x y z
#    x 5.087580 0.500640 0.175640 
#    y 0.500640 4.693860 -0.341130 
#    z 0.175640 -0.341130 4.889940 
# 
# 
# High freq. dielectric constant tensor:
#      x y z
#    x 2.040350 0.023330 0.016980 
#    y 0.023330 2.013580 -0.024060 
#    z 0.016980 -0.024060 2.044510 
# 
# From -- ./inp_files/525162.got.cif
#   From: 2010.06.25/outbox.cif.g09.slc.cpg/sg2_263_cif.got.tgz:525162.got - 2010.06.27 13:26:56.
