data_PCOD8036552
_publ_section_title
;
Structure prediction by ZEFSAII (Michael W. Deem and Ramdas Pophale) SiO2 
 PCOD8036552
Probable space group: P -1
;
_chemical_formula_sum "Si O2"
_cell_formula_units_Z 12
_cell_length_a 10.558437
_cell_length_b 16.049146
_cell_length_c 13.699278
_cell_angle_alpha 151.128270
_cell_angle_beta 149.784019
_cell_angle_gamma 41.536312
_cell_volume 563.778231
_symmetry_space_group_name_H-M "P -1"
_symmetry_group_IT_number 2
_symmetry_cell_setting 'triclinic'
loop_
_space_group_symop_operation_xyz
x,y,z
-x,-y,-z
loop_
_atom_site_type_symbol
_atom_site_label
_atom_site_fract_x
_atom_site_fract_y
_atom_site_fract_z
Si Si1 0.072661 0.199574 0.346581
Si Si2 0.986376 0.109033 0.889319
Si Si3 0.453642 0.689405 0.131187
Si Si4 0.807709 0.980031 0.438667
Si Si5 0.394694 0.266022 0.437009
Si Si6 0.436056 0.659332 0.871349
O O1 0.276348 0.213836 0.584597
O O2 0.203161 0.261015 0.396264
O O3 0.827122 0.305875 0.323095
O O4 0.003450 0.996814 0.108216
O O5 0.745570 0.227657 0.844417
O O6 0.973345 0.995696 0.665115
O O7 0.243684 0.225587 0.193253
O O8 0.500000 0.500000 0.000000
O O9 0.347777 0.699169 0.962846
O O10 0.612365 0.132753 0.460927
O O11 0.000000 0.000000 0.500000
O O12 0.665807 0.793185 0.136733
O O13 0.514661 0.461330 0.706287
#
# Coordination Sequence:
#
# PCOD8036552 Si02
#       6
#     2   2   2   2   2   2
#     4  12  21  37  67 103 134 160 198 264 337 397
#     4  12  23  40  66  96 135 172 210 264 326 384
#     4  12  21  35  64 103 136 165 204 258 333 403
#     4  12  28  48  65  88 128 182 231 267 305 369
#     4  12  24  42  68 102 134 164 209 267 330 393
#     4  12  24  42  68  99 135 168 207 267 331 390
#
# _framework density 21.284966000000001
#
# number of rings (size 3 to 8) (size 9 to 14) (size 15 to 20)
#    0.000    0.000    8.333    3.500    0.000    1.333 
#    0.000    0.833    0.000    0.000    0.000    0.000 
#    0.000    0.000    0.000    0.000    0.000    0.000 
#
# Total GULP energy -148689.885722 kJ/mol
# GULP energy per Si atom -12390.823810 kJ/mol
# Density = 2.123652 g / cm^3
# Si number density = 21.284966 Si / 1000 Ang^3
#
#
#
# Elastic Constant Matrix: (Units=GPa)
#
#
# Indices 1 2 3 4 5 6 
#
# 1 90.7979 23.5295 38.4628 6.4737 12.3221 5.5276
# 2 23.5295 86.8942 40.3087 12.3364 7.1954 7.4788
# 3 38.4628 40.3087 143.5728 4.7791 8.2939 4.1789
# 4 6.4737 12.3364 4.7791 49.4912 9.6478 2.3522
# 5 12.3221 7.1954 8.2939 9.6478 20.0975 -1.7802
# 6 5.5276 7.4788 4.1789 2.3522 -1.7802 11.8293
#
#
#
# Elastic Compliance Matrix: (Units=1/GPa)
#
#
# Indices 1 2 3 4 5 6 
#
# 1 0.013901 -0.001439 -0.002724 0.000582 -0.007685 -0.005895
# 2 -0.001439 0.014581 -0.003272 -0.002288 -0.002537 -0.007317
# 3 -0.002724 -0.003272 0.008652 0.000526 -0.000978 0.000034
# 4 0.000582 -0.002288 0.000526 0.023108 -0.011318 -0.005309
# 5 -0.007685 -0.002537 -0.000978 -0.011318 0.062740 0.017233
# 6 -0.005895 -0.007317 0.000034 -0.005309 0.017233 0.095554
#
#
# Mechanical properties :
#
#
# Convention : Reuss Voigt Hill
#
# Bulk Modulus (GPa) = 44.91962 58.42966 51.67464
# Shear Modulus (GPa) = 20.76189 30.88119 25.82154
#
# Velocity S-wave (km/s) = 3.12657 3.81313 3.48679
# Velocity P-wave (km/s) = 5.84668 6.84816 6.36714
#
# Compressibility (1/GPa) = 0.02226199
#
# Stress axis : x y z
#
# Youngs Moduli (GPa) = 71.93951 68.58435 115.58683
#
# Poissons Ratio (x) = 0.09872 0.31482
# Poissons Ratio (y) = 0.10355 0.37823
# Poissons Ratio (z) = 0.19594 0.22443
#
# Static dielectric constant tensor:
#      x y z
#    x 2.811570 -0.319160 -0.196530 
#    y -0.319160 3.554900 -0.141580 
#    z -0.196530 -0.141580 3.984770 
# 
# 
# High freq. dielectric constant tensor:
#      x y z
#    x 1.775450 0.007980 0.002350 
#    y 0.007980 1.850700 -0.006800 
#    z 0.002350 -0.006800 1.864520 
# 
# From -- ./inp_files/231379.got.cif
#   From: 2010.06.25/outbox.cif.g09.slc.cpg/sg2_116_cif.got.tgz:231379.got - 2010.06.27 13:26:56.
