data_PCOD8036463
_publ_section_title
;
Structure prediction by ZEFSAII (Michael W. Deem and Ramdas Pophale) SiO2 
 PCOD8036463
Probable space group: P -1
;
_chemical_formula_sum "Si O2"
_cell_formula_units_Z 16
_cell_length_a 15.491335
_cell_length_b 9.243470
_cell_length_c 5.156178
_cell_angle_alpha 87.313471
_cell_angle_beta 90.383717
_cell_angle_gamma 70.945359
_cell_volume 696.920936
_symmetry_space_group_name_H-M "P -1"
_symmetry_group_IT_number 2
_symmetry_cell_setting 'triclinic'
loop_
_space_group_symop_operation_xyz
x,y,z
-x,-y,-z
loop_
_atom_site_type_symbol
_atom_site_label
_atom_site_fract_x
_atom_site_fract_y
_atom_site_fract_z
Si Si1 0.657710 0.112076 0.944333
Si Si2 0.051069 0.414267 0.262139
Si Si3 0.488330 0.600037 0.239432
Si Si4 0.669140 0.650228 0.302719
Si Si5 0.394280 0.019931 0.548950
Si Si6 0.156211 0.838122 0.027845
Si Si7 0.772474 0.501034 0.799472
Si Si8 0.991756 0.888980 0.728497
O O1 0.610732 0.274104 0.789385
O O2 0.654300 0.992969 0.726122
O O3 0.758382 0.105853 0.036988
O O4 0.606311 0.100715 0.213208
O O5 0.153289 0.418080 0.268260
O O6 0.055890 0.238803 0.312085
O O7 0.000000 0.500000 0.500000
O O8 0.000000 0.500000 0.000000
O O9 0.500000 0.500000 0.500000
O O10 0.563734 0.683270 0.231067
O O11 0.500000 0.500000 0.000000
O O12 0.694825 0.551353 0.574280
O O13 0.671143 0.820394 0.344045
O O14 0.732263 0.559055 0.077794
O O15 0.500000 0.000000 0.500000
O O16 0.187249 0.683906 0.213359
O O17 0.076477 0.992496 0.090560
O O18 0.098984 0.793422 0.799729
O O19 0.000000 0.000000 0.500000
#
# Coordination Sequence:
#
# PCOD8036463 Si02
#       8
#     2   2   2   2   2   2   2   2
#     4  12  27  45  77 106 147 194 249 309 373 447
#     4  12  26  50  78 110 148 199 250 305 383 444
#     4  12  25  45  71 105 144 195 245 301 374 445
#     4  12  27  45  74 106 153 191 250 306 375 438
#     4  12  27  49  73 106 149 199 248 309 378 444
#     4  11  27  48  72 112 147 194 254 311 383 444
#     4  12  27  48  76 111 152 197 251 315 367 458
#     4  11  27  48  79 106 156 198 249 316 381 453
#
# _framework density 22.958127999999999
#
# number of rings (size 3 to 8) (size 9 to 14) (size 15 to 20)
#    0.000    0.250    2.500    5.625   10.500    0.000 
#    0.000    0.000    0.000    0.000    0.000    0.000 
#    0.000    0.000    0.000    0.000    0.000    0.000 
#
# Total GULP energy -198226.390845 kJ/mol
# GULP energy per Si atom -12389.149428 kJ/mol
# Density = 2.290587 g / cm^3
# Si number density = 22.958128 Si / 1000 Ang^3
#
#
#
# Elastic Constant Matrix: (Units=GPa)
#
#
# Indices 1 2 3 4 5 6 
#
# 1 155.8279 35.7494 34.2793 -0.6272 -2.3985 4.3717
# 2 35.7494 127.0021 31.9950 -1.7648 -2.6649 0.1533
# 3 34.2793 31.9950 136.1425 1.8483 -11.3325 -1.1745
# 4 -0.6272 -1.7648 1.8483 44.9230 1.9270 0.9380
# 5 -2.3985 -2.6649 -11.3325 1.9270 34.6515 -4.7172
# 6 4.3717 0.1533 -1.1745 0.9380 -4.7172 41.4640
#
#
#
# Elastic Compliance Matrix: (Units=1/GPa)
#
#
# Indices 1 2 3 4 5 6 
#
# 1 0.007131 -0.001648 -0.001435 0.000120 -0.000220 -0.000814
# 2 -0.001648 0.008758 -0.001647 0.000387 0.000011 0.000087
# 3 -0.001435 -0.001647 0.008326 -0.000555 0.002624 0.000704
# 4 0.000120 0.000387 -0.000555 0.022378 -0.001484 -0.000705
# 5 -0.000220 0.000011 0.002624 -0.001484 0.030272 0.003575
# 6 -0.000814 0.000087 0.000704 -0.000705 0.003575 0.024645
#
#
# Mechanical properties :
#
#
# Convention : Reuss Voigt Hill
#
# Bulk Modulus (GPa) = 67.77358 69.22445 68.49901
# Shear Modulus (GPa) = 43.14502 45.33763 44.24132
#
# Velocity S-wave (km/s) = 4.33978 4.44869 4.39457
# Velocity P-wave (km/s) = 7.39569 7.52368 7.45996
#
# Compressibility (1/GPa) = 0.01475501
#
# Stress axis : x y z
#
# Youngs Moduli (GPa) = 140.23261 114.18019 120.11048
#
# Poissons Ratio (x) = 0.18813 0.17239
# Poissons Ratio (y) = 0.23106 0.19781
# Poissons Ratio (z) = 0.20127 0.18805
#
# Static dielectric constant tensor:
#      x y z
#    x 5.108810 -0.408700 0.138830 
#    y -0.408700 4.561160 0.172370 
#    z 0.138830 0.172370 4.196210 
# 
# 
# High freq. dielectric constant tensor:
#      x y z
#    x 1.921250 0.001670 0.008530 
#    y 0.001670 1.923480 -0.000310 
#    z 0.008530 -0.000310 1.910760 
# 
# From -- ./inp_files/90108.got.cif
#   From: 2010.06.25/outbox.cif.g09.slc.cpg/sg2_46_cif.got.tgz:90108.got - 2010.06.27 13:26:56.
