data_PCOD8036140
_publ_section_title
;
Structure prediction by ZEFSAII (Michael W. Deem and Ramdas Pophale) SiO2 
 PCOD8036140
Probable space group: P -1
;
_chemical_formula_sum "Si O2"
_cell_formula_units_Z 16
_cell_length_a 8.918958
_cell_length_b 9.282198
_cell_length_c 14.983213
_cell_angle_alpha 140.740046
_cell_angle_beta 104.673275
_cell_angle_gamma 67.379545
_cell_volume 722.496686
_symmetry_space_group_name_H-M "P -1"
_symmetry_group_IT_number 2
_symmetry_cell_setting 'triclinic'
loop_
_space_group_symop_operation_xyz
x,y,z
-x,-y,-z
loop_
_atom_site_type_symbol
_atom_site_label
_atom_site_fract_x
_atom_site_fract_y
_atom_site_fract_z
Si Si1 0.708702 0.515227 0.690565
Si Si2 0.657984 0.272986 0.239882
Si Si3 0.205809 0.583005 0.007126
Si Si4 0.172124 0.993945 0.486090
Si Si5 0.349456 0.357145 0.740285
Si Si6 0.829423 0.720180 0.978487
Si Si7 0.695664 0.044088 0.692547
Si Si8 0.819682 0.527363 0.518694
O O1 0.525961 0.691796 0.738755
O O2 0.695678 0.250593 0.578490
O O3 0.817263 0.501475 0.612235
O O4 0.801932 0.593726 0.823367
O O5 0.665063 0.433840 0.232594
O O6 0.757770 0.328250 0.364799
O O7 0.734172 0.999251 0.092115
O O8 0.267312 0.805556 0.148555
O O9 0.019696 0.682282 0.997525
O O10 0.318925 0.461020 0.884322
O O11 0.235593 0.395642 0.003085
O O12 0.160447 0.994253 0.377062
O O13 0.217305 0.224851 0.635652
O O14 0.000000 0.000000 0.500000
O O15 0.528299 0.168472 0.675167
O O16 0.693710 0.786850 0.602570
O O17 0.000000 0.500000 0.500000
#
# Coordination Sequence:
#
# PCOD8036140 Si02
#       8
#     2   2   2   2   2   2   2   2
#     4  12  26  46  72 101 141 188 229 286 348 408
#     4  12  26  47  70 106 140 181 231 288 347 412
#     4  11  26  45  72 103 137 185 231 285 342 416
#     4  12  24  44  73  98 137 182 230 283 342 409
#     4  12  26  44  75 104 139 181 231 287 347 410
#     4  11  26  46  71 103 140 180 236 282 346 411
#     4  12  24  48  69 103 142 180 234 285 341 413
#     4  12  28  45  70 104 141 181 234 290 348 407
#
# _framework density 22.145430999999999
#
# number of rings (size 3 to 8) (size 9 to 14) (size 15 to 20)
#    0.000    0.250    3.750    4.500    8.750    0.500 
#    0.000    0.000    0.000    0.000    0.000    0.000 
#    0.000    0.000    0.000    0.000    0.000    0.000 
#
# Total GULP energy -198506.708029 kJ/mol
# GULP energy per Si atom -12406.669252 kJ/mol
# Density = 2.209503 g / cm^3
# Si number density = 22.145431 Si / 1000 Ang^3
#
#
#
# Elastic Constant Matrix: (Units=GPa)
#
#
# Indices 1 2 3 4 5 6 
#
# 1 90.9368 16.1447 34.9988 -19.5504 5.0467 3.4048
# 2 16.1447 95.9433 47.6090 -13.3031 -5.4378 9.9887
# 3 34.9988 47.6090 125.7167 -15.2095 -8.5971 11.6164
# 4 -19.5504 -13.3031 -15.2095 46.7319 4.5730 -2.9917
# 5 5.0467 -5.4378 -8.5971 4.5730 25.4139 -8.3713
# 6 3.4048 9.9887 11.6164 -2.9917 -8.3713 36.5378
#
#
#
# Elastic Compliance Matrix: (Units=1/GPa)
#
#
# Indices 1 2 3 4 5 6 
#
# 1 0.013743 -0.000099 -0.003444 0.005043 -0.005126 -0.000920
# 2 -0.000099 0.013187 -0.004515 0.002090 0.000306 -0.001919
# 3 -0.003444 -0.004515 0.010997 0.000486 0.002946 -0.001226
# 4 0.005043 0.002090 0.000486 0.024725 -0.004939 -0.000303
# 5 -0.005126 0.000306 0.002946 -0.004939 0.045434 0.009463
# 6 -0.000920 -0.001919 -0.001226 -0.000303 0.009463 0.030512
#
#
# Mechanical properties :
#
#
# Convention : Reuss Voigt Hill
#
# Bulk Modulus (GPa) = 45.85036 56.67799 51.26418
# Shear Modulus (GPa) = 30.86714 35.99300 33.43007
#
# Velocity S-wave (km/s) = 3.73746 4.03588 3.88953
# Velocity P-wave (km/s) = 6.27487 6.88236 6.58562
#
# Compressibility (1/GPa) = 0.02181008
#
# Stress axis : x y z
#
# Youngs Moduli (GPa) = 72.76576 75.83235 90.93713
#
# Poissons Ratio (x) = 0.00752 0.31316
# Poissons Ratio (y) = 0.00722 0.41060
# Poissons Ratio (z) = 0.25059 0.34240
#
# Static dielectric constant tensor:
#      x y z
#    x 3.936390 0.038970 -0.052630 
#    y 0.038970 4.181220 0.066330 
#    z -0.052630 0.066330 4.173430 
# 
# 
# High freq. dielectric constant tensor:
#      x y z
#    x 1.878730 0.000310 -0.004770 
#    y 0.000310 1.881110 -0.000230 
#    z -0.004770 -0.000230 1.889100 
# 
# From -- ./inp_files/223878.got.cif
#   From: 2010.06.25/outbox.cif.g09.slc.cpg/sg2_112_cif.got.tgz:223878.got - 2010.06.27 13:26:56.
