data_PCOD8036511
_publ_section_title
;
Structure prediction by ZEFSAII (Michael W. Deem and Ramdas Pophale) SiO2 
 PCOD8036511
Probable space group: P -1
;
_chemical_formula_sum "Si O2"
_cell_formula_units_Z 10
_cell_length_a 15.445248
_cell_length_b 14.617680
_cell_length_c 5.390248
_cell_angle_alpha 111.633600
_cell_angle_beta 109.647009
_cell_angle_gamma 19.662782
_cell_volume 380.414850
_symmetry_space_group_name_H-M "P -1"
_symmetry_group_IT_number 2
_symmetry_cell_setting 'triclinic'
loop_
_space_group_symop_operation_xyz
x,y,z
-x,-y,-z
loop_
_atom_site_type_symbol
_atom_site_label
_atom_site_fract_x
_atom_site_fract_y
_atom_site_fract_z
Si Si1 0.754386 0.959153 0.068841
Si Si2 0.172993 0.826990 0.240934
Si Si3 0.500028 0.659170 0.159173
Si Si4 0.245923 0.467574 0.358168
Si Si5 0.254222 0.245763 0.333989
O O1 0.000281 0.749623 0.249747
O O2 0.500285 0.248602 0.249095
O O3 0.751659 0.844164 0.931815
O O4 0.732008 0.038702 0.865232
O O5 0.364008 0.730000 0.314197
O O6 0.363790 0.542129 0.126155
O O7 0.000000 0.000000 0.500000
O O8 0.000000 0.000000 0.000000
O O9 0.731934 0.497456 0.323845
O O10 0.248430 0.347343 0.259642
O O11 0.000000 0.500000 0.500000
O O12 0.500000 0.000000 0.500000
#
# Coordination Sequence:
#
# PCOD8036511 Si02
#       5
#     2   2   2   2   2
#     4  12  28  48  82 116 165 218 278 337 417 497
#     4  11  30  55  87 118 172 216 282 360 444 508
#     4  11  30  51  80 124 162 211 286 353 418 516
#     4  12  28  48  82 116 165 218 278 337 417 497
#     4  12  24  48  74 115 169 218 269 340 408 490
#
# _framework density 26.287091
#
# number of rings (size 3 to 8) (size 9 to 14) (size 15 to 20)
#    0.000    0.400    2.000    3.600   11.200    1.600 
#    0.000    3.000    0.000    0.000    0.000    0.000 
#    0.000    0.000    0.000    0.000    0.000    0.000 
#
# Total GULP energy -123990.145032 kJ/mol
# GULP energy per Si atom -12399.014503 kJ/mol
# Density = 2.622726 g / cm^3
# Si number density = 26.287091 Si / 1000 Ang^3
#
#
#
# Elastic Constant Matrix: (Units=GPa)
#
#
# Indices 1 2 3 4 5 6 
#
# 1 158.8201 61.3825 52.4377 -1.2355 7.6385 19.2075
# 2 61.3825 202.2629 71.3482 -32.8656 -0.1569 -13.8271
# 3 52.4377 71.3482 142.0258 -11.2427 11.8830 -1.2655
# 4 -1.2355 -32.8656 -11.2427 64.2192 -3.0625 -9.8655
# 5 7.6385 -0.1569 11.8830 -3.0625 53.4062 5.5302
# 6 19.2075 -13.8271 -1.2655 -9.8655 5.5302 39.2756
#
#
#
# Elastic Compliance Matrix: (Units=1/GPa)
#
#
# Indices 1 2 3 4 5 6 
#
# 1 0.008749 -0.002733 -0.002081 -0.002516 -0.000330 -0.005893
# 2 -0.002733 0.007693 -0.002536 0.004231 0.000710 0.004926
# 3 -0.002081 -0.002536 0.009269 0.000314 -0.001833 0.000761
# 4 -0.002516 0.004231 0.000314 0.018909 0.000621 0.007392
# 5 -0.000330 0.000710 -0.001833 0.000621 0.019448 -0.002230
# 6 -0.005893 0.004926 0.000761 0.007392 -0.002230 0.032273
#
#
# Mechanical properties :
#
#
# Convention : Reuss Voigt Hill
#
# Bulk Modulus (GPa) = 90.83086 97.04949 93.94018
# Shear Modulus (GPa) = 43.58812 52.57621 48.08217
#
# Velocity S-wave (km/s) = 4.07646 4.47707 4.28146
# Velocity P-wave (km/s) = 7.53559 7.98278 7.76241
#
# Compressibility (1/GPa) = 0.01100947
#
# Stress axis : x y z
#
# Youngs Moduli (GPa) = 114.30061 129.99114 107.89212
#
# Poissons Ratio (x) = 0.35524 0.22456
# Poissons Ratio (y) = 0.31236 0.27364
# Poissons Ratio (z) = 0.23790 0.32969
#
# Static dielectric constant tensor:
#      x y z
#    x 4.843600 -0.077220 0.194770 
#    y -0.077220 4.994390 0.121430 
#    z 0.194770 0.121430 4.363510 
# 
# 
# High freq. dielectric constant tensor:
#      x y z
#    x 2.071730 0.000530 0.012130 
#    y 0.000530 2.074520 0.000410 
#    z 0.012130 0.000410 2.047690 
# 
# From -- ./inp_files/96125.got.cif
#   From: 2010.06.25/outbox.cif.g09.slc.cpg/sg2_49_cif.got.tgz:96125.got - 2010.06.27 13:26:56.
