data_PCOD8036220
_publ_section_title
;
Structure prediction by ZEFSAII (Michael W. Deem and Ramdas Pophale) SiO2 
 PCOD8036220
Probable space group: P -1
;
_chemical_formula_sum "Si O2"
_cell_formula_units_Z 16
_cell_length_a 18.608674
_cell_length_b 5.243961
_cell_length_c 14.541016
_cell_angle_alpha 53.589906
_cell_angle_beta 143.233351
_cell_angle_gamma 114.974040
_cell_volume 679.335859
_symmetry_space_group_name_H-M "P -1"
_symmetry_group_IT_number 2
_symmetry_cell_setting 'triclinic'
loop_
_space_group_symop_operation_xyz
x,y,z
-x,-y,-z
loop_
_atom_site_type_symbol
_atom_site_label
_atom_site_fract_x
_atom_site_fract_y
_atom_site_fract_z
Si Si1 0.728408 0.197281 0.534996
Si Si2 0.515995 0.867737 0.943078
Si Si3 0.957461 0.869494 0.890693
Si Si4 0.903126 0.207041 0.413087
Si Si5 0.670642 0.154054 0.904303
Si Si6 0.928840 0.847943 0.227632
Si Si7 0.539556 0.840272 0.671159
Si Si8 0.731180 0.902004 0.413510
O O1 0.585288 0.205657 0.395931
O O2 0.776653 0.527553 0.546298
O O3 0.769759 0.116109 0.490604
O O4 0.810148 0.920829 0.734252
O O5 0.638827 0.926613 0.004884
O O6 0.412617 0.075092 0.736035
O O7 0.500000 0.500000 0.000000
O O8 0.500000 0.000000 0.000000
O O9 0.006308 0.093371 0.814210
O O10 0.000000 0.500000 0.000000
O O11 0.000000 0.000000 0.000000
O O12 0.866181 0.522062 0.246397
O O13 0.966115 0.209082 0.576763
O O14 0.780120 0.044623 0.338396
O O15 0.000000 0.000000 0.500000
O O16 0.620298 0.513449 0.800702
O O17 0.616993 0.050313 0.772539
O O18 0.817167 0.129186 0.060602
O O19 0.500000 0.000000 0.500000
#
# Coordination Sequence:
#
# PCOD8036220 Si02
#       8
#     2   2   2   2   2   2   2   2
#     4  12  24  49  73 103 143 183 245 296 358 431
#     4  12  24  41  66 100 139 183 229 279 350 414
#     4  12  29  48  77 107 143 191 244 305 362 427
#     4  11  26  46  76 104 148 198 241 301 371 441
#     4  12  27  47  71 108 148 184 242 301 356 431
#     4  11  28  48  71 111 148 191 246 302 370 436
#     4  12  27  48  75 104 142 199 243 296 364 424
#     4  12  24  45  73 102 142 186 237 293 356 433
#
# _framework density 23.552413000000001
#
# number of rings (size 3 to 8) (size 9 to 14) (size 15 to 20)
#    0.000    0.250    3.750    4.125   10.500    0.000 
#    0.000    0.000    0.000    0.000    0.000    0.000 
#    0.000    0.000    0.000    0.000    0.000    0.000 
#
# Total GULP energy -198222.153842 kJ/mol
# GULP energy per Si atom -12388.884615 kJ/mol
# Density = 2.349881 g / cm^3
# Si number density = 23.552413 Si / 1000 Ang^3
#
#
#
# Elastic Constant Matrix: (Units=GPa)
#
#
# Indices 1 2 3 4 5 6 
#
# 1 106.0139 40.2142 27.9758 -3.7437 -11.5296 -16.1356
# 2 40.2142 104.2572 30.7972 -21.9684 -0.8028 -27.6341
# 3 27.9758 30.7972 126.8570 -14.6281 10.4996 -12.5930
# 4 -3.7437 -21.9684 -14.6281 42.8291 -4.4400 0.4977
# 5 -11.5296 -0.8028 10.4996 -4.4400 52.5542 0.8196
# 6 -16.1356 -27.6341 -12.5930 0.4977 0.8196 44.9184
#
#
#
# Elastic Compliance Matrix: (Units=1/GPa)
#
#
# Indices 1 2 3 4 5 6 
#
# 1 0.011887 -0.003947 -0.001927 -0.001368 0.002797 0.001266
# 2 -0.003947 0.014836 -0.001233 0.006766 0.000065 0.007288
# 3 -0.001927 -0.001233 0.009134 0.002087 -0.002108 0.001125
# 4 -0.001368 0.006766 0.002087 0.027538 0.001652 0.003921
# 5 0.002797 0.000065 -0.002108 0.001652 0.020202 0.000067
# 6 0.001266 0.007288 0.001125 0.003921 0.000067 0.027471
#
#
# Mechanical properties :
#
#
# Convention : Reuss Voigt Hill
#
# Bulk Modulus (GPa) = 46.20450 59.45584 52.83017
# Shear Modulus (GPa) = 37.73659 43.93640 40.83649
#
# Velocity S-wave (km/s) = 4.00714 4.32380 4.16848
# Velocity P-wave (km/s) = 6.40858 7.08702 6.75632
#
# Compressibility (1/GPa) = 0.02164291
#
# Stress axis : x y z
#
# Youngs Moduli (GPa) = 84.12550 67.40260 109.48093
#
# Poissons Ratio (x) = 0.26605 0.21095
# Poissons Ratio (y) = 0.33206 0.13500
# Poissons Ratio (z) = 0.16210 0.08311
#
# Static dielectric constant tensor:
#      x y z
#    x 4.558030 -0.003460 0.276180 
#    y -0.003460 4.743430 0.100060 
#    z 0.276180 0.100060 4.310730 
# 
# 
# High freq. dielectric constant tensor:
#      x y z
#    x 1.948440 -0.008040 0.012580 
#    y -0.008040 1.928020 -0.003030 
#    z 0.012580 -0.003030 1.947370 
# 
# From -- ./inp_files/536251.got.cif
#   From: 2010.06.25/outbox.cif.g09.slc.cpg/sg2_269_cif.got.tgz:536251.got - 2010.06.27 13:26:56.
