data_PCOD8036257
_publ_section_title
;
Structure prediction by ZEFSAII (Michael W. Deem and Ramdas Pophale) SiO2 
 PCOD8036257
Probable space group: P -1
;
_chemical_formula_sum "Si O2"
_cell_formula_units_Z 14
_cell_length_a 21.018140
_cell_length_b 9.416680
_cell_length_c 10.342190
_cell_angle_alpha 136.972385
_cell_angle_beta 133.931642
_cell_angle_gamma 27.693275
_cell_volume 642.092419
_symmetry_space_group_name_H-M "P -1"
_symmetry_group_IT_number 2
_symmetry_cell_setting 'triclinic'
loop_
_space_group_symop_operation_xyz
x,y,z
-x,-y,-z
loop_
_atom_site_type_symbol
_atom_site_label
_atom_site_fract_x
_atom_site_fract_y
_atom_site_fract_z
Si Si1 0.249252 0.780394 0.661381
Si Si2 0.690839 0.784640 0.549946
Si Si3 0.446948 0.417533 0.465515
Si Si4 0.028008 0.610079 0.437794
Si Si5 0.375741 0.877260 0.053920
Si Si6 0.926171 0.340331 0.176566
Si Si7 0.372182 0.200141 0.046200
O O1 0.304630 0.472216 0.603156
O O2 0.352379 0.670257 0.618138
O O3 0.245429 0.970059 0.889748
O O4 0.094771 0.030891 0.558253
O O5 0.837142 0.617857 0.610650
O O6 0.578055 0.052534 0.462614
O O7 0.654399 0.932821 0.737920
O O8 0.500000 0.500000 0.500000
O O9 0.346694 0.456471 0.262598
O O10 0.057665 0.668144 0.653536
O O11 0.989349 0.436233 0.269303
O O12 0.419115 0.941842 0.040157
O O13 0.500000 0.500000 0.000000
O O14 0.764164 0.617725 0.102245
O O15 0.000000 0.000000 0.000000
O O16 0.500000 0.000000 0.000000
#
# Coordination Sequence:
#
# PCOD8036257 Si02
#       7
#     2   2   2   2   2   2   2
#     4  12  24  48  72 104 146 185 242 295 359 430
#     4  12  27  47  71 107 147 190 237 298 364 432
#     4  12  26  44  75 105 143 186 239 301 360 421
#     4  11  27  46  74 105 145 196 238 293 366 427
#     4  12  25  45  72 106 142 183 239 298 358 426
#     4  11  26  47  72 107 147 185 244 301 353 427
#     4  12  25  45  73 106 138 184 241 293 357 423
#
# _framework density 21.803715
#
# number of rings (size 3 to 8) (size 9 to 14) (size 15 to 20)
#    0.000    0.286    4.286    4.286    6.000    1.714 
#    0.000    0.000    0.000    0.000    0.000    0.000 
#    0.000    0.000    0.000    0.000    0.000    0.000 
#
# Total GULP energy -173617.753439 kJ/mol
# GULP energy per Si atom -12401.268103 kJ/mol
# Density = 2.175409 g / cm^3
# Si number density = 21.803715 Si / 1000 Ang^3
#
#
#
# Elastic Constant Matrix: (Units=GPa)
#
#
# Indices 1 2 3 4 5 6 
#
# 1 114.5877 44.2854 35.3554 -11.7146 9.9795 -0.3433
# 2 44.2854 103.3271 26.1100 -15.3834 -5.3877 4.8720
# 3 35.3554 26.1100 117.3854 -8.5792 20.1195 16.6988
# 4 -11.7146 -15.3834 -8.5792 40.6252 2.6902 3.1260
# 5 9.9795 -5.3877 20.1195 2.6902 27.4600 -0.1832
# 6 -0.3433 4.8720 16.6988 3.1260 -0.1832 41.8277
#
#
#
# Elastic Compliance Matrix: (Units=1/GPa)
#
#
# Indices 1 2 3 4 5 6 
#
# 1 0.011534 -0.004519 -0.001893 0.001371 -0.003817 0.001258
# 2 -0.004519 0.012895 -0.002103 0.002844 0.005429 -0.000888
# 3 -0.001893 -0.002103 0.011862 0.002097 -0.008653 -0.004701
# 4 0.001371 0.002844 0.002097 0.027051 -0.004148 -0.003197
# 5 -0.003817 0.005429 -0.008653 -0.004148 0.045637 0.003301
# 6 0.001258 -0.000888 -0.004701 -0.003197 0.003301 0.026151
#
#
# Mechanical properties :
#
#
# Convention : Reuss Voigt Hill
#
# Bulk Modulus (GPa) = 51.92277 60.75576 56.33926
# Shear Modulus (GPa) = 31.52944 37.28587 34.40766
#
# Velocity S-wave (km/s) = 3.80683 4.13979 3.97679
# Velocity P-wave (km/s) = 6.57176 7.12571 6.85434
#
# Compressibility (1/GPa) = 0.01925937
#
# Stress axis : x y z
#
# Youngs Moduli (GPa) = 86.70005 77.55040 84.30253
#
# Poissons Ratio (x) = 0.35047 0.15960
# Poissons Ratio (y) = 0.39182 0.17731
# Poissons Ratio (z) = 0.16414 0.16311
#
# Static dielectric constant tensor:
#      x y z
#    x 3.999230 0.197330 0.183010 
#    y 0.197330 3.900600 -0.382170 
#    z 0.183010 -0.382170 4.431470 
# 
# 
# High freq. dielectric constant tensor:
#      x y z
#    x 1.863560 0.008800 0.008200 
#    y 0.008800 1.864450 -0.009540 
#    z 0.008200 -0.009540 1.879620 
# 
# From -- ./inp_files/319179.got.cif
#   From: 2010.06.25/outbox.cif.g09.slc.cpg/sg2_160_cif.got.tgz:319179.got - 2010.06.27 13:26:56.
