data_PCOD8036935
_publ_section_title
;
Structure prediction by ZEFSAII (Michael W. Deem and Ramdas Pophale) SiO2 
 PCOD8036935
Probable space group: P -1
;
_chemical_formula_sum "Si O2"
_cell_formula_units_Z 16
_cell_length_a 12.776693
_cell_length_b 14.678972
_cell_length_c 8.061185
_cell_angle_alpha 113.428087
_cell_angle_beta 103.090234
_cell_angle_gamma 132.092256
_cell_volume 710.025018
_symmetry_space_group_name_H-M "P -1"
_symmetry_group_IT_number 2
_symmetry_cell_setting 'triclinic'
loop_
_space_group_symop_operation_xyz
x,y,z
-x,-y,-z
loop_
_atom_site_type_symbol
_atom_site_label
_atom_site_fract_x
_atom_site_fract_y
_atom_site_fract_z
Si Si1 0.032770 0.760541 0.424199
Si Si2 0.482194 0.289619 0.179266
Si Si3 0.458071 0.992330 0.790524
Si Si4 0.360771 0.681352 0.051998
Si Si5 0.024786 0.964266 0.748001
Si Si6 0.275721 0.358763 0.359809
Si Si7 0.046528 0.874692 0.180251
Si Si8 0.525282 0.832464 0.581259
O O1 0.062423 0.805069 0.275053
O O2 0.854982 0.539256 0.224375
O O3 0.989474 0.833580 0.544758
O O4 0.238965 0.872470 0.640497
O O5 0.468987 0.226987 0.949936
O O6 0.673646 0.515507 0.397492
O O7 0.546112 0.272613 0.347894
O O8 0.259568 0.164698 0.035876
O O9 0.457756 0.893662 0.607480
O O10 0.632152 0.196886 0.909937
O O11 0.500000 0.000000 0.000000
O O12 0.426637 0.711576 0.287719
O O13 0.875497 0.842617 0.765880
O O14 0.954844 0.011908 0.666687
O O15 0.500000 0.500000 0.500000
O O16 0.165393 0.315133 0.126349
O O17 0.232851 0.997685 0.212597
#
# Coordination Sequence:
#
# PCOD8036935 Si02
#       8
#     2   2   2   2   2   2   2   2
#     4  12  27  47  72 109 143 191 245 301 364 430
#     4  12  23  46  72 106 149 191 240 299 364 429
#     4  12  26  50  77 104 145 192 243 304 368 430
#     4  12  26  48  74 107 146 187 246 302 363 431
#     4  12  23  45  72 102 147 191 239 295 362 435
#     4  12  24  42  71 106 145 193 244 293 360 437
#     4  12  25  45  73 105 148 192 242 296 367 433
#     4  12  25  48  76 105 149 195 240 304 365 428
#
# _framework density 22.534419
#
# number of rings (size 3 to 8) (size 9 to 14) (size 15 to 20)
#    0.000    0.000    7.500    2.625    0.000    1.000 
#    2.250    1.875    0.000    0.000    0.000    0.000 
#    0.000    0.000    0.000    0.000    0.000    0.000 
#
# Total GULP energy -198257.438791 kJ/mol
# GULP energy per Si atom -12391.089924 kJ/mol
# Density = 2.248313 g / cm^3
# Si number density = 22.534419 Si / 1000 Ang^3
#
#
#
# Elastic Constant Matrix: (Units=GPa)
#
#
# Indices 1 2 3 4 5 6 
#
# 1 103.1988 25.9138 27.9874 4.7872 4.3003 9.6712
# 2 25.9138 112.5097 44.1648 3.1839 2.7792 -7.6688
# 3 27.9874 44.1648 121.2294 6.7832 0.2094 1.0485
# 4 4.7872 3.1839 6.7832 50.1164 -1.8795 -4.4325
# 5 4.3003 2.7792 0.2094 -1.8795 33.3214 -5.9835
# 6 9.6712 -7.6688 1.0485 -4.4325 -5.9835 30.3743
#
#
#
# Elastic Compliance Matrix: (Units=1/GPa)
#
#
# Indices 1 2 3 4 5 6 
#
# 1 0.011280 -0.002160 -0.001706 -0.001205 -0.002174 -0.004682
# 2 -0.002160 0.011024 -0.003567 0.000314 0.000055 0.003651
# 3 -0.001706 -0.003567 0.010006 -0.001026 0.000253 -0.000803
# 4 -0.001205 0.000314 -0.001026 0.020607 0.001998 0.003899
# 5 -0.002174 0.000055 0.000253 0.001998 0.031697 0.007233
# 6 -0.004682 0.003651 -0.000803 0.003899 0.007233 0.037357
#
#
# Mechanical properties :
#
#
# Convention : Reuss Voigt Hill
#
# Bulk Modulus (GPa) = 57.32055 59.22998 58.27526
# Shear Modulus (GPa) = 35.05053 38.68721 36.86887
#
# Velocity S-wave (km/s) = 3.94816 4.14793 4.04928
# Velocity P-wave (km/s) = 6.80265 7.02009 6.91223
#
# Compressibility (1/GPa) = 0.01744575
#
# Stress axis : x y z
#
# Youngs Moduli (GPa) = 88.65071 90.70830 99.94050
#
# Poissons Ratio (x) = 0.19592 0.17046
# Poissons Ratio (y) = 0.19148 0.35647
# Poissons Ratio (z) = 0.15121 0.32354
#
# Static dielectric constant tensor:
#      x y z
#    x 4.478510 -0.177150 -0.427970 
#    y -0.177150 4.174880 0.249370 
#    z -0.427970 0.249370 4.355540 
# 
# 
# High freq. dielectric constant tensor:
#      x y z
#    x 1.896480 0.001230 -0.013130 
#    y 0.001230 1.897880 0.004200 
#    z -0.013130 0.004200 1.891600 
# 
# From -- ./inp_files/273868.got.cif
#   From: 2010.06.25/outbox.cif.g09.slc.cpg/sg2_137_cif.got.tgz:273868.got - 2010.06.27 13:26:56.
