data_PCOD8036753
_publ_section_title
;
Structure prediction by ZEFSAII (Michael W. Deem and Ramdas Pophale) SiO2 
 PCOD8036753
Probable space group: P -1
;
_chemical_formula_sum "Si O2"
_cell_formula_units_Z 14
_cell_length_a 8.349845
_cell_length_b 13.986729
_cell_length_c 13.547373
_cell_angle_alpha 148.539230
_cell_angle_beta 135.987798
_cell_angle_gamma 40.169791
_cell_volume 521.875940
_symmetry_space_group_name_H-M "P -1"
_symmetry_group_IT_number 2
_symmetry_cell_setting 'triclinic'
loop_
_space_group_symop_operation_xyz
x,y,z
-x,-y,-z
loop_
_atom_site_type_symbol
_atom_site_label
_atom_site_fract_x
_atom_site_fract_y
_atom_site_fract_z
Si Si1 0.732594 0.725659 0.138730
Si Si2 0.573900 0.027609 0.947251
Si Si3 0.179638 0.799696 0.458624
Si Si4 0.649676 0.106269 0.713851
Si Si5 0.463841 0.584583 0.226053
Si Si6 0.822356 0.239343 0.354190
Si Si7 0.959033 0.586264 0.667303
O O1 0.489841 0.793021 0.160784
O O2 0.991387 0.684737 0.274867
O O3 0.661798 0.890098 0.162073
O O4 0.730149 0.516033 0.919424
O O5 0.792620 0.823042 0.819770
O O6 0.500000 0.000000 0.000000
O O7 0.656354 0.214862 0.167370
O O8 0.439718 0.704057 0.425084
O O9 0.266166 0.806412 0.616346
O O10 0.000000 0.000000 0.500000
O O11 0.680783 0.267150 0.796356
O O12 0.500000 0.000000 0.500000
O O13 0.913635 0.935986 0.711472
O O14 0.754305 0.457435 0.209018
O O15 0.832316 0.456875 0.555828
O O16 0.000000 0.500000 0.500000
#
# Coordination Sequence:
#
# PCOD8036753 Si02
#       7
#     2   2   2   2   2   2   2
#     4  12  26  48  74 108 150 194 254 314 376 443
#     4  12  31  51  76 113 157 201 256 314 376 453
#     4  12  25  46  77 107 150 197 248 311 386 444
#     4  12  22  45  75 109 144 190 245 313 375 447
#     4  12  26  45  76 114 146 191 257 317 376 449
#     4  12  26  48  79 110 152 198 253 310 382 449
#     4  12  28  49  79 109 153 207 255 305 381 456
#
# _framework density 26.8263
#
# number of rings (size 3 to 8) (size 9 to 14) (size 15 to 20)
#    0.000    0.000    4.286    4.286    6.000    3.429 
#    0.000    0.000    0.000    0.000    0.000    0.000 
#    0.000    0.000    0.000    0.000    0.000    0.000 
#
# Total GULP energy -173480.827724 kJ/mol
# GULP energy per Si atom -12391.487695 kJ/mol
# Density = 2.676524 g / cm^3
# Si number density = 26.826300 Si / 1000 Ang^3
#
#
#
# Elastic Constant Matrix: (Units=GPa)
#
#
# Indices 1 2 3 4 5 6 
#
# 1 105.8232 2.4431 4.7698 12.9672 -32.0257 11.4092
# 2 2.4431 74.6467 18.8224 2.2255 -9.4456 5.9984
# 3 4.7698 18.8224 94.0826 -1.4683 -9.1858 2.7918
# 4 12.9672 2.2255 -1.4683 45.1462 8.4441 0.8941
# 5 -32.0257 -9.4456 -9.1858 8.4441 45.0498 0.9184
# 6 11.4092 5.9984 2.7918 0.8941 0.9184 48.7910
#
#
#
# Elastic Compliance Matrix: (Units=1/GPa)
#
#
# Indices 1 2 3 4 5 6 
#
# 1 0.014050 0.001439 0.000137 -0.006192 0.011551 -0.003574
# 2 0.001439 0.014731 -0.002601 -0.001929 0.003984 -0.002038
# 3 0.000137 -0.002601 0.011337 0.000120 0.001849 -0.000398
# 4 -0.006192 -0.001929 0.000120 0.025805 -0.009647 0.001387
# 5 0.011551 0.003984 0.001849 -0.009647 0.033507 -0.003751
# 6 -0.003574 -0.002038 -0.000398 0.001387 -0.003751 0.021650
#
#
# Mechanical properties :
#
#
# Convention : Reuss Voigt Hill
#
# Bulk Modulus (GPa) = 26.26845 36.29144 31.27995
# Shear Modulus (GPa) = 36.81425 44.36521 40.58973
#
# Velocity S-wave (km/s) = 3.70850 4.07110 3.89402
# Velocity P-wave (km/s) = 5.30572 5.97128 5.64831
#
# Compressibility (1/GPa) = 0.03806848
#
# Stress axis : x y z
#
# Youngs Moduli (GPa) = 71.17306 67.88600 88.21036
#
# Poissons Ratio (x) = -0.09770 -0.01209
# Poissons Ratio (y) = -0.10243 0.22940
# Poissons Ratio (z) = -0.00975 0.17654
#
# Static dielectric constant tensor:
#      x y z
#    x 5.069470 -0.217930 0.516910 
#    y -0.217930 4.955260 -0.173890 
#    z 0.516910 -0.173890 5.982400 
# 
# 
# High freq. dielectric constant tensor:
#      x y z
#    x 2.090650 -0.001180 0.000010 
#    y -0.001180 2.069840 0.000470 
#    z 0.000010 0.000470 2.103310 
# 
# From -- ./inp_files/446863.got.cif
#   From: 2010.06.25/outbox.cif.g09.slc.cpg/sg2_224_cif.got.tgz:446863.got - 2010.06.27 13:26:56.
