data_PCOD8036211
_publ_section_title
;
Structure prediction by ZEFSAII (Michael W. Deem and Ramdas Pophale) SiO2 
 PCOD8036211
Probable space group: P -1
;
_chemical_formula_sum "Si O2"
_cell_formula_units_Z 8
_cell_length_a 9.700633
_cell_length_b 8.146395
_cell_length_c 6.336998
_cell_angle_alpha 80.410878
_cell_angle_beta 57.861229
_cell_angle_gamma 51.441146
_cell_volume 321.127662
_symmetry_space_group_name_H-M "P -1"
_symmetry_group_IT_number 2
_symmetry_cell_setting 'triclinic'
loop_
_space_group_symop_operation_xyz
x,y,z
-x,-y,-z
loop_
_atom_site_type_symbol
_atom_site_label
_atom_site_fract_x
_atom_site_fract_y
_atom_site_fract_z
Si Si1 0.729551 0.427307 0.559044
Si Si2 0.330574 0.206601 0.729817
Si Si3 0.520106 0.692631 0.053354
Si Si4 0.905135 0.937933 0.916841
O O1 0.719674 0.580774 0.366550
O O2 0.533611 0.423519 0.715003
O O3 0.941358 0.183870 0.385002
O O4 0.724722 0.508797 0.782401
O O5 0.426341 0.175354 0.891965
O O6 0.500000 0.000000 0.500000
O O7 0.124729 0.223716 0.913699
O O8 0.321717 0.848939 0.023953
O O9 0.000000 0.000000 0.000000
#
# Coordination Sequence:
#
# PCOD8036211 Si02
#       4
#     2   2   2   2
#     4  11  26  46  74 103 143 183 233 287 352 411
#     4  12  25  48  74 102 144 184 234 288 347 416
#     4  11  26  49  72 102 143 186 230 289 351 411
#     4  12  27  47  72 106 142 184 235 289 346 416
#
# _framework density 24.912210000000002
#
# number of rings (size 3 to 8) (size 9 to 14) (size 15 to 20)
#    0.000    0.500    2.500    4.500    7.000    1.000 
#    0.000    0.000    0.000    0.000    0.000    0.000 
#    0.000    0.000    0.000    0.000    0.000    0.000 
#
# Total GULP energy -99164.544592 kJ/mol
# GULP energy per Si atom -12395.568074 kJ/mol
# Density = 2.485551 g / cm^3
# Si number density = 24.912210 Si / 1000 Ang^3
#
#
#
# Elastic Constant Matrix: (Units=GPa)
#
#
# Indices 1 2 3 4 5 6 
#
# 1 200.4070 42.4432 73.5941 3.0378 19.2135 29.3626
# 2 42.4432 92.3208 45.6410 -6.5037 3.3189 14.7948
# 3 73.5941 45.6410 184.3938 32.5449 3.9486 18.7512
# 4 3.0378 -6.5037 32.5449 66.5042 26.2333 1.4526
# 5 19.2135 3.3189 3.9486 26.2333 40.5920 3.2420
# 6 29.3626 14.7948 18.7512 1.4526 3.2420 24.7307
#
#
#
# Elastic Compliance Matrix: (Units=1/GPa)
#
#
# Indices 1 2 3 4 5 6 
#
# 1 0.007330 -0.000847 -0.002495 0.002674 -0.004416 -0.005883
# 2 -0.000847 0.014034 -0.003345 0.004252 -0.002791 -0.004738
# 3 -0.002495 -0.003345 0.008403 -0.006164 0.004754 -0.001669
# 4 0.002674 0.004252 -0.006164 0.025157 -0.017251 -0.000261
# 5 -0.004416 -0.002791 0.004754 -0.017251 0.037690 -0.000620
# 6 -0.005883 -0.004738 -0.001669 -0.000261 -0.000620 0.051617
#
#
# Mechanical properties :
#
#
# Convention : Reuss Voigt Hill
#
# Bulk Modulus (GPa) = 60.99825 88.94201 74.97013
# Shear Modulus (GPa) = 30.66210 47.39492 39.02851
#
# Velocity S-wave (km/s) = 3.51209 4.36647 3.96238
# Velocity P-wave (km/s) = 6.40194 7.82311 7.14793
#
# Compressibility (1/GPa) = 0.01639391
#
# Stress axis : x y z
#
# Youngs Moduli (GPa) = 136.42266 71.25694 119.00941
#
# Poissons Ratio (x) = 0.06032 0.29695
# Poissons Ratio (y) = 0.11549 0.39804
# Poissons Ratio (z) = 0.34039 0.23833
#
# Static dielectric constant tensor:
#      x y z
#    x 4.489470 0.510640 -0.226820 
#    y 0.510640 4.654110 -0.079080 
#    z -0.226820 -0.079080 4.991310 
# 
# 
# High freq. dielectric constant tensor:
#      x y z
#    x 1.980440 0.037300 0.000700 
#    y 0.037300 1.994750 0.001620 
#    z 0.000700 0.001620 2.017750 
# 
# From -- ./inp_files/16194.got.cif
#   From: 2010.06.25/outbox.cif.g09.slc.cpg/sg2_9_cif.got.tgz:16194.got - 2010.06.27 13:26:56.
