data_PCOD8036473
_publ_section_title
;
Structure prediction by ZEFSAII (Michael W. Deem and Ramdas Pophale) SiO2 
 PCOD8036473
Probable space group: P -1
;
_chemical_formula_sum "Si O2"
_cell_formula_units_Z 16
_cell_length_a 19.487805
_cell_length_b 9.520452
_cell_length_c 5.115152
_cell_angle_alpha 127.258132
_cell_angle_beta 70.676179
_cell_angle_gamma 125.608431
_cell_volume 613.766431
_symmetry_space_group_name_H-M "P -1"
_symmetry_group_IT_number 2
_symmetry_cell_setting 'triclinic'
loop_
_space_group_symop_operation_xyz
x,y,z
-x,-y,-z
loop_
_atom_site_type_symbol
_atom_site_label
_atom_site_fract_x
_atom_site_fract_y
_atom_site_fract_z
Si Si1 0.293966 0.500006 0.800930
Si Si2 0.727133 0.733428 0.933686
Si Si3 0.410176 0.183579 0.727854
Si Si4 0.034185 0.194551 0.481694
Si Si5 0.509141 0.212375 0.148768
Si Si6 0.098629 0.929813 0.909847
Si Si7 0.235659 0.782711 0.395335
Si Si8 0.868516 0.332221 0.081313
O O1 0.252396 0.353992 0.442997
O O2 0.394452 0.615417 0.792067
O O3 0.258239 0.359614 0.936660
O O4 0.253276 0.638777 0.021672
O O5 0.630260 0.680387 0.981751
O O6 0.797858 0.981309 0.147581
O O7 0.463099 0.275272 0.497235
O O8 0.330749 0.962581 0.525437
O O9 0.468617 0.182009 0.880649
O O10 0.080691 0.426525 0.795528
O O11 0.096435 0.141127 0.179434
O O12 0.000000 0.000000 0.500000
O O13 0.960127 0.189088 0.393508
O O14 0.500000 0.000000 0.000000
O O15 0.072963 0.764018 0.994985
O O16 0.189829 0.682875 0.614245
O O17 0.176390 0.806729 0.277748
#
# Coordination Sequence:
#
# PCOD8036473 Si02
#       8
#     2   2   2   2   2   2   2   2
#     4  12  27  45  74 107 149 194 249 310 378 438
#     4  12  28  46  74 109 147 191 246 312 376 439
#     4  12  26  46  74 104 146 189 251 304 367 444
#     4  11  28  49  76 114 153 198 248 310 377 461
#     4  12  26  45  73 104 146 195 247 310 372 441
#     4  11  27  49  77 109 153 200 250 310 380 449
#     4  12  26  47  77 113 142 199 258 303 364 451
#     4  12  28  48  81 111 154 202 253 310 377 450
#
# _framework density 26.068546999999999
#
# number of rings (size 3 to 8) (size 9 to 14) (size 15 to 20)
#    0.000    0.250    2.500    5.250   12.250    3.500 
#    0.000    0.000    0.000    0.000    0.000    0.000 
#    0.000    0.000    0.000    0.000    0.000    0.000 
#
# Total GULP energy -198264.941881 kJ/mol
# GULP energy per Si atom -12391.558868 kJ/mol
# Density = 2.600921 g / cm^3
# Si number density = 26.068547 Si / 1000 Ang^3
#
#
#
# Elastic Constant Matrix: (Units=GPa)
#
#
# Indices 1 2 3 4 5 6 
#
# 1 108.6816 30.1956 26.6272 0.8985 22.0801 3.3750
# 2 30.1956 131.2557 38.2371 -8.2671 26.1895 0.3149
# 3 26.6272 38.2371 119.9874 -8.2274 36.5835 -2.6439
# 4 0.8985 -8.2671 -8.2274 50.6074 -8.2487 -1.8781
# 5 22.0801 26.1895 36.5835 -8.2487 54.2649 1.6542
# 6 3.3750 0.3149 -2.6439 -1.8781 1.6542 44.4329
#
#
#
# Elastic Compliance Matrix: (Units=1/GPa)
#
#
# Indices 1 2 3 4 5 6 
#
# 1 0.010533 -0.001603 -0.001014 -0.001128 -0.002976 -0.000786
# 2 -0.001603 0.009024 -0.001724 0.000831 -0.002416 0.000080
# 3 -0.001014 -0.001724 0.011043 0.000567 -0.006144 0.000999
# 4 -0.001128 0.000831 0.000567 0.020491 0.002763 0.000877
# 5 -0.002976 -0.002416 -0.006144 0.002763 0.025397 -0.000951
# 6 -0.000786 0.000080 0.000999 0.000877 -0.000951 0.022697
#
#
# Mechanical properties :
#
#
# Convention : Reuss Voigt Hill
#
# Bulk Modulus (GPa) = 45.62552 61.11606 53.37079
# Shear Modulus (GPa) = 43.41257 47.51871 45.46564
#
# Velocity S-wave (km/s) = 4.08526 4.27410 4.18075
# Velocity P-wave (km/s) = 6.30814 6.91755 6.61986
#
# Compressibility (1/GPa) = 0.02191756
#
# Stress axis : x y z
#
# Youngs Moduli (GPa) = 94.93609 110.81271 90.55516
#
# Poissons Ratio (x) = 0.17765 0.09181
# Poissons Ratio (y) = 0.15220 0.15616
# Poissons Ratio (z) = 0.09625 0.19110
#
# Static dielectric constant tensor:
#      x y z
#    x 5.333800 -0.044700 -0.682270 
#    y -0.044700 4.719180 0.029850 
#    z -0.682270 0.029850 5.176950 
# 
# 
# High freq. dielectric constant tensor:
#      x y z
#    x 2.072850 0.001540 -0.011410 
#    y 0.001540 2.043600 0.000430 
#    z -0.011410 0.000430 2.068630 
# 
# From -- ./inp_files/107588.got.cif
#   From: 2010.06.25/outbox.cif.g09.slc.cpg/sg2_54_cif.got.tgz:107588.got - 2010.06.27 13:26:56.
