data_PCOD8036382
_publ_section_title
;
Structure prediction by ZEFSAII (Michael W. Deem and Ramdas Pophale) SiO2 
 PCOD8036382
Probable space group: P -1
;
_chemical_formula_sum "Si O2"
_cell_formula_units_Z 16
_cell_length_a 15.532863
_cell_length_b 8.513810
_cell_length_c 9.258183
_cell_angle_alpha 85.513267
_cell_angle_beta 44.182279
_cell_angle_gamma 110.432333
_cell_volume 691.040879
_symmetry_space_group_name_H-M "P -1"
_symmetry_group_IT_number 2
_symmetry_cell_setting 'triclinic'
loop_
_space_group_symop_operation_xyz
x,y,z
-x,-y,-z
loop_
_atom_site_type_symbol
_atom_site_label
_atom_site_fract_x
_atom_site_fract_y
_atom_site_fract_z
Si Si1 0.787864 0.715521 0.628612
Si Si2 0.691838 0.249905 0.134057
Si Si3 0.376764 0.528574 0.403968
Si Si4 0.894095 0.794590 0.061327
Si Si5 0.934162 0.285366 0.638583
Si Si6 0.686864 0.614979 0.074983
Si Si7 0.379519 0.874362 0.459484
Si Si8 0.150158 0.896587 0.555806
O O1 0.649511 0.518159 0.732218
O O2 0.941362 0.728653 0.430620
O O3 0.807101 0.888057 0.499755
O O4 0.744826 0.721920 0.844229
O O5 0.725179 0.458472 0.052681
O O6 0.719138 0.226845 0.270090
O O7 0.518826 0.091699 0.309530
O O8 0.797015 0.212150 0.918507
O O9 0.212608 0.378440 0.686524
O O10 0.506441 0.511063 0.314877
O O11 0.435960 0.749096 0.339988
O O12 0.779602 0.779445 0.076151
O O13 0.004737 0.757020 0.843934
O O14 0.000000 0.000000 0.000000
O O15 0.879660 0.157268 0.570974
O O16 0.000000 0.500000 0.500000
O O17 0.284158 0.885550 0.448443
#
# Coordination Sequence:
#
# PCOD8036382 Si02
#       8
#     2   2   2   2   2   2   2   2
#     4  12  26  48  75 109 143 196 245 302 365 440
#     4  11  26  49  75 106 148 198 240 309 366 434
#     4  12  27  47  77 111 146 198 245 305 367 436
#     4  12  26  46  76 112 145 191 246 308 366 435
#     4  12  25  48  73 104 148 192 246 301 371 433
#     4  12  26  51  76 107 152 191 251 298 369 441
#     4  11  28  46  73 109 147 193 251 300 366 434
#     4  12  27  47  70 108 149 189 246 300 364 443
#
# _framework density 23.153479000000001
#
# number of rings (size 3 to 8) (size 9 to 14) (size 15 to 20)
#    0.000    0.250    5.000    2.625    3.500    2.000 
#    0.000    0.000    0.000    0.000    0.000    0.000 
#    0.000    0.000    0.000    0.000    0.000    0.000 
#
# Total GULP energy -198439.623161 kJ/mol
# GULP energy per Si atom -12402.476448 kJ/mol
# Density = 2.310078 g / cm^3
# Si number density = 23.153479 Si / 1000 Ang^3
#
#
#
# Elastic Constant Matrix: (Units=GPa)
#
#
# Indices 1 2 3 4 5 6 
#
# 1 134.6234 46.6916 25.7773 9.2014 -9.0880 20.8080
# 2 46.6916 103.1904 25.3372 10.0167 -5.6365 11.2841
# 3 25.7773 25.3372 88.7425 6.8345 -4.4449 -2.8201
# 4 9.2014 10.0167 6.8345 34.5273 -0.8782 1.8953
# 5 -9.0880 -5.6365 -4.4449 -0.8782 32.7802 2.9903
# 6 20.8080 11.2841 -2.8201 1.8953 2.9903 47.9403
#
#
#
# Elastic Compliance Matrix: (Units=1/GPa)
#
#
# Indices 1 2 3 4 5 6 
#
# 1 0.009706 -0.003337 -0.001795 -0.001009 0.002178 -0.003629
# 2 -0.003337 0.012200 -0.002356 -0.002075 0.000938 -0.001538
# 3 -0.001795 -0.002356 0.012670 -0.001446 0.000585 0.002100
# 4 -0.001009 -0.002075 -0.001446 0.030139 0.000007 -0.000351
# 5 0.002178 0.000938 0.000585 0.000007 0.031634 -0.003105
# 6 -0.003629 -0.001538 0.002100 -0.000351 -0.003105 0.023127
#
#
# Mechanical properties :
#
#
# Convention : Reuss Voigt Hill
#
# Bulk Modulus (GPa) = 51.02152 58.01873 54.52013
# Shear Modulus (GPa) = 35.46415 38.29958 36.88187
#
# Velocity S-wave (km/s) = 3.91794 4.07155 3.99548
# Velocity P-wave (km/s) = 6.52312 6.87140 6.69952
#
# Compressibility (1/GPa) = 0.01959957
#
# Stress axis : x y z
#
# Youngs Moduli (GPa) = 103.02684 81.96512 78.92612
#
# Poissons Ratio (x) = 0.27355 0.14168
# Poissons Ratio (y) = 0.34384 0.18595
# Poissons Ratio (z) = 0.18494 0.19311
#
# Static dielectric constant tensor:
#      x y z
#    x 4.220080 0.246110 0.004910 
#    y 0.246110 4.390420 0.263110 
#    z 0.004910 0.263110 4.332380 
# 
# 
# High freq. dielectric constant tensor:
#      x y z
#    x 1.923530 0.017170 0.001140 
#    y 0.017170 1.921350 0.006950 
#    z 0.001140 0.006950 1.920890 
# 
# From -- ./inp_files/298146.got.cif
#   From: 2010.06.25/outbox.cif.g09.slc.cpg/sg2_150_cif.got.tgz:298146.got - 2010.06.27 13:26:56.
