data_PCOD8036381
_publ_section_title
;
Structure prediction by ZEFSAII (Michael W. Deem and Ramdas Pophale) SiO2 
 PCOD8036381
Probable space group: P -1
;
_chemical_formula_sum "Si O2"
_cell_formula_units_Z 16
_cell_length_a 15.369372
_cell_length_b 9.227415
_cell_length_c 5.365632
_cell_angle_alpha 74.228197
_cell_angle_beta 81.731586
_cell_angle_gamma 109.101123
_cell_volume 668.933824
_symmetry_space_group_name_H-M "P -1"
_symmetry_group_IT_number 2
_symmetry_cell_setting 'triclinic'
loop_
_space_group_symop_operation_xyz
x,y,z
-x,-y,-z
loop_
_atom_site_type_symbol
_atom_site_label
_atom_site_fract_x
_atom_site_fract_y
_atom_site_fract_z
Si Si1 0.738783 0.277936 0.931272
Si Si2 0.446910 0.015515 0.760100
Si Si3 0.471679 0.352400 0.400109
Si Si4 0.834310 0.774367 0.841375
Si Si5 0.132005 0.862535 0.337191
Si Si6 0.102051 0.593366 0.802521
Si Si7 0.074679 0.288625 0.678675
Si Si8 0.352264 0.488726 0.081511
O O1 0.788775 0.207259 0.741524
O O2 0.688839 0.398252 0.787512
O O3 0.812316 0.387814 0.056092
O O4 0.658519 0.118753 0.157486
O O5 0.441036 0.192484 0.658840
O O6 0.500000 0.000000 0.500000
O O7 0.500000 0.000000 0.000000
O O8 0.500000 0.500000 0.500000
O O9 0.382401 0.360991 0.282509
O O10 0.561176 0.378500 0.170019
O O11 0.883120 0.743118 0.584248
O O12 0.731835 0.632045 0.000266
O O13 0.822279 0.945302 0.733172
O O14 0.895311 0.787730 0.057284
O O15 0.101843 0.770829 0.656374
O O16 0.039813 0.802308 0.226881
O O17 0.108826 0.484842 0.609985
O O18 0.000000 0.500000 0.000000
#
# Coordination Sequence:
#
# PCOD8036381 Si02
#       8
#     2   2   2   2   2   2   2   2
#     4  12  27  48  81 113 159 213 269 326 404 476
#     4  12  29  53  82 119 162 204 268 332 400 472
#     4  11  27  48  81 109 161 204 261 326 404 472
#     4  12  29  48  80 112 161 203 271 321 400 472
#     4  12  29  45  78 113 159 203 271 327 398 466
#     4  12  26  48  76 116 159 210 268 328 392 477
#     4  12  26  51  76 111 159 212 257 332 390 474
#     4  11  26  49  74 116 152 212 260 325 399 481
#
# _framework density 23.918655999999999
#
# number of rings (size 3 to 8) (size 9 to 14) (size 15 to 20)
#    0.000    0.250    3.750    3.375   10.500    1.000 
#    0.000    0.000    0.000    0.000    0.000    0.000 
#    0.000    0.000    0.000    0.000    0.000    0.000 
#
# Total GULP energy -198324.098952 kJ/mol
# GULP energy per Si atom -12395.256185 kJ/mol
# Density = 2.386422 g / cm^3
# Si number density = 23.918656 Si / 1000 Ang^3
#
#
#
# Elastic Constant Matrix: (Units=GPa)
#
#
# Indices 1 2 3 4 5 6 
#
# 1 150.2876 58.0424 61.2642 -11.6311 -5.7421 -10.3136
# 2 58.0424 121.4643 29.5657 -23.4498 -0.0282 -17.1209
# 3 61.2642 29.5657 111.7193 -6.0488 15.7161 -6.7686
# 4 -11.6311 -23.4498 -6.0488 52.8954 -6.1819 4.2059
# 5 -5.7421 -0.0282 15.7161 -6.1819 33.0402 -11.0349
# 6 -10.3136 -17.1209 -6.7686 4.2059 -11.0349 44.6665
#
#
#
# Elastic Compliance Matrix: (Units=1/GPa)
#
#
# Indices 1 2 3 4 5 6 
#
# 1 0.010528 -0.003357 -0.005469 0.000673 0.005055 0.001501
# 2 -0.003357 0.011368 -0.000991 0.004125 0.001837 0.003498
# 3 -0.005469 -0.000991 0.013181 -0.000938 -0.007900 -0.001509
# 4 0.000673 0.004125 -0.000938 0.021274 0.004807 0.000779
# 5 0.005055 0.001837 -0.007900 0.004807 0.039104 0.009882
# 6 0.001501 0.003498 -0.001509 0.000779 0.009882 0.026215
#
#
# Mechanical properties :
#
#
# Convention : Reuss Voigt Hill
#
# Bulk Modulus (GPa) = 64.74877 75.69064 70.21971
# Shear Modulus (GPa) = 34.14091 41.76035 37.95063
#
# Velocity S-wave (km/s) = 3.78216 4.18297 3.98760
# Velocity P-wave (km/s) = 6.79722 7.41912 7.11497
#
# Compressibility (1/GPa) = 0.01544431
#
# Stress axis : x y z
#
# Youngs Moduli (GPa) = 94.98551 87.96603 75.86516
#
# Poissons Ratio (x) = 0.29531 0.41488
# Poissons Ratio (y) = 0.31887 0.07517
# Poissons Ratio (z) = 0.51944 0.08715
#
# Static dielectric constant tensor:
#      x y z
#    x 4.243290 -0.100000 -0.049140 
#    y -0.100000 4.993070 -0.553920 
#    z -0.049140 -0.553920 4.730780 
# 
# 
# High freq. dielectric constant tensor:
#      x y z
#    x 1.965970 -0.005200 -0.003310 
#    y -0.005200 1.966220 -0.011830 
#    z -0.003310 -0.011830 1.941590 
# 
# From -- ./inp_files/90075.got.cif
#   From: 2010.06.25/outbox.cif.g09.slc.cpg/sg2_46_cif.got.tgz:90075.got - 2010.06.27 13:26:56.
