data_PCOD8036535
_publ_section_title
;
Structure prediction by ZEFSAII (Michael W. Deem and Ramdas Pophale) SiO2 
 PCOD8036535
Probable space group: P -1
;
_chemical_formula_sum "Si O2"
_cell_formula_units_Z 16
_cell_length_a 10.989982
_cell_length_b 9.728595
_cell_length_c 9.738155
_cell_angle_alpha 134.293488
_cell_angle_beta 84.674925
_cell_angle_gamma 96.280312
_cell_volume 740.574464
_symmetry_space_group_name_H-M "P -1"
_symmetry_group_IT_number 2
_symmetry_cell_setting 'triclinic'
loop_
_space_group_symop_operation_xyz
x,y,z
-x,-y,-z
loop_
_atom_site_type_symbol
_atom_site_label
_atom_site_fract_x
_atom_site_fract_y
_atom_site_fract_z
Si Si1 0.518011 0.375913 0.044609
Si Si2 0.702321 0.822813 0.157303
Si Si3 0.861935 0.499497 0.825489
Si Si4 0.062768 0.812062 0.921912
Si Si5 0.617947 0.926616 0.514597
Si Si6 0.772659 0.237734 0.882828
Si Si7 0.532383 0.371172 0.528582
Si Si8 0.795656 0.236891 0.390628
O O1 0.452965 0.492591 0.248526
O O2 0.500000 0.500000 0.000000
O O3 0.436395 0.172191 0.888963
O O4 0.660339 0.345100 0.037865
O O5 0.692266 0.805689 0.311853
O O6 0.795036 0.005634 0.243768
O O7 0.748732 0.631397 0.949994
O O8 0.868651 0.378037 0.882746
O O9 0.849539 0.352538 0.596575
O O10 0.976972 0.645927 0.885699
O O11 0.127110 0.708734 0.715986
O O12 0.159008 0.869291 0.075103
O O13 0.000000 0.000000 0.000000
O O14 0.576145 0.792172 0.551707
O O15 0.500000 0.000000 0.500000
O O16 0.711291 0.093777 0.676296
O O17 0.500000 0.500000 0.500000
O O18 0.655927 0.276257 0.412558
#
# Coordination Sequence:
#
# PCOD8036535 Si02
#       8
#     2   2   2   2   2   2   2   2
#     4  12  20  39  71 106 142 180 223 287 364 433
#     4  12  22  40  76 106 139 179 236 286 360 427
#     4  12  24  48  76  98 135 194 247 293 351 413
#     4  12  29  49  69 101 147 194 248 297 348 412
#     4  12  21  41  70 109 142 181 229 289 358 436
#     4  12  24  44  75 108 143 189 238 298 352 426
#     4  12  24  38  65 110 148 180 226 286 363 438
#     4  12  24  46  72 100 138 193 233 296 361 411
#
# _framework density 21.604849000000002
#
# number of rings (size 3 to 8) (size 9 to 14) (size 15 to 20)
#    0.000    0.000    8.750    1.500    0.000    2.000 
#    0.000    7.500    0.000    0.000    0.000    0.000 
#    0.000    0.000    0.000    0.000    0.000    0.000 
#
# Total GULP energy -198259.151305 kJ/mol
# GULP energy per Si atom -12391.196957 kJ/mol
# Density = 2.155568 g / cm^3
# Si number density = 21.604849 Si / 1000 Ang^3
#
#
#
# Elastic Constant Matrix: (Units=GPa)
#
#
# Indices 1 2 3 4 5 6 
#
# 1 89.5204 51.5373 39.0582 -9.7937 5.2020 7.6103
# 2 51.5373 133.4133 42.7451 -9.5412 2.3043 3.2092
# 3 39.0582 42.7451 129.1037 -5.8522 -6.2172 -0.2483
# 4 -9.7937 -9.5412 -5.8522 36.1592 11.4921 4.1661
# 5 5.2020 2.3043 -6.2172 11.4921 30.9637 -9.6819
# 6 7.6103 3.2092 -0.2483 4.1661 -9.6819 37.1377
#
#
#
# Elastic Compliance Matrix: (Units=1/GPa)
#
#
# Indices 1 2 3 4 5 6 
#
# 1 0.017001 -0.004729 -0.003673 0.005658 -0.007087 -0.005582
# 2 -0.004729 0.010049 -0.001879 0.001406 -0.000952 -0.000318
# 3 -0.003673 -0.001879 0.009606 -0.001419 0.003885 0.002151
# 4 0.005658 0.001406 -0.001419 0.036170 -0.017896 -0.010013
# 5 -0.007087 -0.000952 0.003885 -0.017896 0.045831 0.015516
# 6 -0.005582 -0.000318 0.002151 -0.010013 0.015516 0.033281
#
#
# Mechanical properties :
#
#
# Convention : Reuss Voigt Hill
#
# Bulk Modulus (GPa) = 62.13810 68.74651 65.44230
# Shear Modulus (GPa) = 28.11093 35.43191 31.77142
#
# Velocity S-wave (km/s) = 3.61105 4.05408 3.83896
# Velocity P-wave (km/s) = 6.79778 7.33506 7.07153
#
# Compressibility (1/GPa) = 0.01609319
#
# Stress axis : x y z
#
# Youngs Moduli (GPa) = 58.81867 99.51131 104.10119
#
# Poissons Ratio (x) = 0.47063 0.38238
# Poissons Ratio (y) = 0.27818 0.19562
# Poissons Ratio (z) = 0.21605 0.18699
#
# Static dielectric constant tensor:
#      x y z
#    x 4.137000 0.446510 -0.163910 
#    y 0.446510 4.046480 0.022000 
#    z -0.163910 0.022000 4.024880 
# 
# 
# High freq. dielectric constant tensor:
#      x y z
#    x 1.837670 0.026330 -0.007220 
#    y 0.026330 1.846360 -0.002090 
#    z -0.007220 -0.002090 1.866560 
# 
# From -- ./inp_files/245878.got.cif
#   From: 2010.06.25/outbox.cif.g09.slc.cpg/sg2_123_cif.got.tgz:245878.got - 2010.06.27 13:26:56.
