data_PCOD8036848
_publ_section_title
;
Structure prediction by ZEFSAII (Michael W. Deem and Ramdas Pophale) SiO2 
 PCOD8036848
Probable space group: P -1
;
_chemical_formula_sum "Si O2"
_cell_formula_units_Z 16
_cell_length_a 14.881006
_cell_length_b 8.335284
_cell_length_c 11.556094
_cell_angle_alpha 100.652932
_cell_angle_beta 85.913313
_cell_angle_gamma 35.167887
_cell_volume 746.127247
_symmetry_space_group_name_H-M "P -1"
_symmetry_group_IT_number 2
_symmetry_cell_setting 'triclinic'
loop_
_space_group_symop_operation_xyz
x,y,z
-x,-y,-z
loop_
_atom_site_type_symbol
_atom_site_label
_atom_site_fract_x
_atom_site_fract_y
_atom_site_fract_z
Si Si1 0.620175 0.487684 0.195680
Si Si2 0.464575 0.873495 0.032762
Si Si3 0.681865 0.666654 0.400164
Si Si4 0.518853 0.627540 0.764716
Si Si5 0.823167 0.699699 0.219845
Si Si6 0.106962 0.518968 0.200304
Si Si7 0.982020 0.849632 0.033360
Si Si8 0.177955 0.648760 0.414810
O O1 0.555423 0.698035 0.123380
O O2 0.674897 0.522629 0.297574
O O3 0.484266 0.565525 0.267717
O O4 0.780472 0.128158 0.097091
O O5 0.262479 0.161913 0.103905
O O6 0.537867 0.636392 0.900308
O O7 0.500000 0.000000 0.000000
O O8 0.781603 0.659854 0.330601
O O9 0.780366 0.477802 0.480519
O O10 0.500000 0.000000 0.500000
O O11 0.682765 0.436255 0.654318
O O12 0.351473 0.971977 0.776860
O O13 0.935527 0.678325 0.250023
O O14 0.931893 0.425922 0.083968
O O15 0.161612 0.521903 0.313497
O O16 0.072684 0.709437 0.131519
O O17 0.000000 0.000000 0.000000
O O18 0.000000 0.000000 0.500000
#
# Coordination Sequence:
#
# PCOD8036848 Si02
#       8
#     2   2   2   2   2   2   2   2
#     4  12  26  43  73 109 140 184 233 290 351 424
#     4  12  23  44  74 107 145 181 222 289 368 420
#     4  12  26  48  71  97 139 195 244 276 347 417
#     4  12  25  47  73 104 145 183 229 290 362 418
#     4  12  25  45  76 103 140 189 227 292 358 422
#     4  12  25  46  72 104 144 179 232 290 355 416
#     4  12  23  42  75 108 141 178 230 286 360 432
#     4  12  29  45  70 102 139 186 242 296 334 405
#
# _framework density 21.444064000000001
#
# number of rings (size 3 to 8) (size 9 to 14) (size 15 to 20)
#    0.000    0.000    6.250    4.500    0.000    3.000 
#    0.000    0.000    0.000    0.000    0.000    0.000 
#    0.000    0.000    0.000    0.000    0.000    0.000 
#
# Total GULP energy -198431.516272 kJ/mol
# GULP energy per Si atom -12401.969767 kJ/mol
# Density = 2.139526 g / cm^3
# Si number density = 21.444064 Si / 1000 Ang^3
#
#
#
# Elastic Constant Matrix: (Units=GPa)
#
#
# Indices 1 2 3 4 5 6 
#
# 1 133.3251 40.3489 64.4005 -18.1569 -12.5270 1.5032
# 2 40.3489 152.1966 70.9099 -11.7319 -5.7813 -2.4682
# 3 64.4005 70.9099 125.4040 -20.1311 -20.4472 1.0710
# 4 -18.1569 -11.7319 -20.1311 55.2714 -9.7170 -6.4267
# 5 -12.5270 -5.7813 -20.4472 -9.7170 19.0304 2.1355
# 6 1.5032 -2.4682 1.0710 -6.4267 2.1355 33.9833
#
#
#
# Elastic Compliance Matrix: (Units=1/GPa)
#
#
# Indices 1 2 3 4 5 6 
#
# 1 0.010256 -0.000538 -0.004000 0.002404 0.003533 -0.000134
# 2 -0.000538 0.009191 -0.005814 -0.001011 -0.004433 0.000962
# 3 -0.004000 -0.005814 0.017305 0.006801 0.017736 -0.000619
# 4 0.002404 -0.001011 0.006801 0.025211 0.021113 0.003047
# 5 0.003533 -0.004433 0.017736 0.021113 0.083621 -0.002299
# 6 -0.000134 0.000962 -0.000619 0.003047 -0.002299 0.030242
#
#
# Mechanical properties :
#
#
# Convention : Reuss Voigt Hill
#
# Bulk Modulus (GPa) = 62.31296 84.69382 73.50339
# Shear Modulus (GPa) = 24.76730 37.34144 31.05437
#
# Velocity S-wave (km/s) = 3.40218 4.17747 3.80959
# Velocity P-wave (km/s) = 6.67492 7.92775 7.32816
#
# Compressibility (1/GPa) = 0.01604803
#
# Stress axis : x y z
#
# Youngs Moduli (GPa) = 97.50319 108.79850 57.78770
#
# Poissons Ratio (x) = 0.05856 0.23113
# Poissons Ratio (y) = 0.05248 0.33599
# Poissons Ratio (z) = 0.38997 0.63258
#
# Static dielectric constant tensor:
#      x y z
#    x 4.034050 -0.106810 -0.163300 
#    y -0.106810 4.075860 0.056160 
#    z -0.163300 0.056160 4.097690 
# 
# 
# High freq. dielectric constant tensor:
#      x y z
#    x 1.848950 -0.003430 -0.009840 
#    y -0.003430 1.859250 -0.002850 
#    z -0.009840 -0.002850 1.847130 
# 
# From -- ./inp_files/274420.got.cif
#   From: 2010.06.25/outbox.cif.g09.slc.cpg/sg2_138_cif.got.tgz:274420.got - 2010.06.27 13:26:56.
