data_PCOD8036748
_publ_section_title
;
Structure prediction by ZEFSAII (Michael W. Deem and Ramdas Pophale) SiO2 
 PCOD8036748
Probable space group: P -1
;
_chemical_formula_sum "Si O2"
_cell_formula_units_Z 16
_cell_length_a 10.330402
_cell_length_b 8.414878
_cell_length_c 19.685655
_cell_angle_alpha 30.819215
_cell_angle_beta 120.188413
_cell_angle_gamma 118.568763
_cell_volume 753.657272
_symmetry_space_group_name_H-M "P -1"
_symmetry_group_IT_number 2
_symmetry_cell_setting 'triclinic'
loop_
_space_group_symop_operation_xyz
x,y,z
-x,-y,-z
loop_
_atom_site_type_symbol
_atom_site_label
_atom_site_fract_x
_atom_site_fract_y
_atom_site_fract_z
Si Si1 0.647532 0.103115 0.959906
Si Si2 0.281147 0.423623 0.574326
Si Si3 0.123752 0.370823 0.125408
Si Si4 0.049217 0.877626 0.699091
Si Si5 0.164016 0.464495 0.767646
Si Si6 0.614602 0.419260 0.693303
Si Si7 0.763588 0.108977 0.489306
Si Si8 0.161359 0.738112 0.300561
O O1 0.736293 0.371569 0.928833
O O2 0.601644 0.237605 0.826914
O O3 0.500000 0.000000 0.000000
O O4 0.745946 0.816652 0.081781
O O5 0.453341 0.353553 0.637992
O O6 0.271729 0.701503 0.522632
O O7 0.218415 0.492669 0.458249
O O8 0.172687 0.118218 0.681749
O O9 0.057403 0.305749 0.206631
O O10 0.187586 0.074851 0.217615
O O11 0.000000 0.500000 0.000000
O O12 0.133567 0.639817 0.764535
O O13 0.939032 0.048698 0.557912
O O14 0.264069 0.695051 0.657901
O O15 0.013112 0.336881 0.735410
O O16 0.741495 0.271590 0.738113
O O17 0.654012 0.789564 0.577658
#
# Coordination Sequence:
#
# PCOD8036748 Si02
#       8
#     2   2   2   2   2   2   2   2
#     4  12  28  49  68 102 141 181 223 279 349 408
#     4  12  25  42  71 104 140 174 228 289 339 394
#     4  12  26  43  72 101 135 181 230 281 338 407
#     4  12  24  44  71 103 133 179 235 281 334 405
#     4  12  25  43  75 101 137 181 229 283 336 405
#     4  12  27  45  69 101 143 182 225 280 345 407
#     4  12  22  45  71 101 136 179 231 279 339 405
#     4  12  23  44  72 104 134 178 233 283 335 401
#
# _framework density 21.229808999999999
#
# number of rings (size 3 to 8) (size 9 to 14) (size 15 to 20)
#    0.000    0.000    6.250    3.750    3.500    3.000 
#    0.000    1.250    0.000    0.000    0.000    0.000 
#    0.000    0.000    0.000    0.000    0.000    0.000 
#
# Total GULP energy -198517.569554 kJ/mol
# GULP energy per Si atom -12407.348097 kJ/mol
# Density = 2.118149 g / cm^3
# Si number density = 21.229809 Si / 1000 Ang^3
#
#
#
# Elastic Constant Matrix: (Units=GPa)
#
#
# Indices 1 2 3 4 5 6 
#
# 1 105.9258 47.2721 41.1103 -9.6817 -10.3053 3.8299
# 2 47.2721 103.5181 46.9839 -5.8677 -7.4845 9.2573
# 3 41.1103 46.9839 107.3159 -14.0292 -1.3312 8.5008
# 4 -9.6817 -5.8677 -14.0292 21.2336 7.5590 2.7946
# 5 -10.3053 -7.4845 -1.3312 7.5590 39.2517 2.2150
# 6 3.8299 9.2573 8.5008 2.7946 2.2150 48.9326
#
#
#
# Elastic Compliance Matrix: (Units=1/GPa)
#
#
# Indices 1 2 3 4 5 6 
#
# 1 0.012830 -0.004371 -0.002705 0.002122 0.002030 0.000080
# 2 -0.004371 0.013846 -0.004446 -0.001520 0.001719 -0.001496
# 3 -0.002705 -0.004446 0.013370 0.007453 -0.002450 -0.001585
# 4 0.002122 -0.001520 0.007453 0.056710 -0.010178 -0.003951
# 5 0.002030 0.001719 -0.002450 -0.010178 0.028257 -0.000756
# 6 0.000080 -0.001496 -0.001585 -0.003951 -0.000756 0.021248
#
#
# Mechanical properties :
#
#
# Convention : Reuss Voigt Hill
#
# Bulk Modulus (GPa) = 58.81737 65.27695 62.04716
# Shear Modulus (GPa) = 28.57576 33.97649 31.27612
#
# Velocity S-wave (km/s) = 3.67280 4.00486 3.84242
# Velocity P-wave (km/s) = 6.76396 7.22494 6.99824
#
# Compressibility (1/GPa) = 0.01700178
#
# Stress axis : x y z
#
# Youngs Moduli (GPa) = 77.94477 72.22172 74.79163
#
# Poissons Ratio (x) = 0.31569 0.20229
# Poissons Ratio (y) = 0.34071 0.33255
# Poissons Ratio (z) = 0.21082 0.32112
#
# Static dielectric constant tensor:
#      x y z
#    x 3.823550 0.060780 0.022950 
#    y 0.060780 3.764250 0.007610 
#    z 0.022950 0.007610 4.004870 
# 
# 
# High freq. dielectric constant tensor:
#      x y z
#    x 1.838700 0.000240 -0.001310 
#    y 0.000240 1.842400 -0.002960 
#    z -0.001310 -0.002960 1.841180 
# 
# From -- ./inp_files/207878.got.cif
#   From: 2010.06.25/outbox.cif.g09.slc.cpg/sg2_104_cif.got.tgz:207878.got - 2010.06.27 13:26:56.
