data_PCOD8036238
_publ_section_title
;
Structure prediction by ZEFSAII (Michael W. Deem and Ramdas Pophale) SiO2 
 PCOD8036238
Probable space group: P -1
;
_chemical_formula_sum "Si O2"
_cell_formula_units_Z 10
_cell_length_a 9.816799
_cell_length_b 8.518837
_cell_length_c 11.703605
_cell_angle_alpha 122.425963
_cell_angle_beta 40.131352
_cell_angle_gamma 92.064058
_cell_volume 386.757399
_symmetry_space_group_name_H-M "P -1"
_symmetry_group_IT_number 2
_symmetry_cell_setting 'triclinic'
loop_
_space_group_symop_operation_xyz
x,y,z
-x,-y,-z
loop_
_atom_site_type_symbol
_atom_site_label
_atom_site_fract_x
_atom_site_fract_y
_atom_site_fract_z
Si Si1 0.213742 0.590060 0.163021
Si Si2 0.046802 0.155253 0.806939
Si Si3 0.585826 0.259607 0.286629
Si Si4 0.236778 0.261737 0.334635
Si Si5 0.349222 0.162294 0.797204
O O1 0.172257 0.678742 0.093400
O O2 0.929858 0.797412 0.505424
O O3 0.500000 0.500000 0.000000
O O4 0.239756 0.348570 0.047490
O O5 0.108502 0.300183 0.904004
O O6 0.362088 0.904668 0.459413
O O7 0.901542 0.087927 0.955932
O O8 0.500000 0.500000 0.500000
O O9 0.352413 0.357807 0.376822
O O10 0.585260 0.088744 0.307493
O O11 0.000000 0.500000 0.500000
O O12 0.500000 0.000000 0.000000
#
# Coordination Sequence:
#
# PCOD8036238 Si02
#       5
#     2   2   2   2   2
#     4  12  27  50  79 112 160 212 268 329 406 485
#     4  11  26  46  79 111 152 203 266 330 404 470
#     4  12  27  49  80 115 156 207 271 325 410 476
#     4  12  28  51  78 116 165 210 268 336 405 489
#     4  11  26  49  77 114 159 199 268 334 403 473
#
# _framework density 25.856002
#
# number of rings (size 3 to 8) (size 9 to 14) (size 15 to 20)
#    0.000    0.400    2.000    4.800    8.400    2.400 
#    0.000    0.000    0.000    0.000    0.000    0.000 
#    0.000    0.000    0.000    0.000    0.000    0.000 
#
# Total GULP energy -123937.047967 kJ/mol
# GULP energy per Si atom -12393.704797 kJ/mol
# Density = 2.579715 g / cm^3
# Si number density = 25.856002 Si / 1000 Ang^3
#
#
#
# Elastic Constant Matrix: (Units=GPa)
#
#
# Indices 1 2 3 4 5 6 
#
# 1 208.0698 5.3611 51.5576 9.4605 -5.9661 -2.0932
# 2 5.3611 56.8128 42.8566 -11.0892 18.5121 -11.8433
# 3 51.5576 42.8566 152.8401 -31.6958 1.1557 0.8396
# 4 9.4605 -11.0892 -31.6958 57.7799 7.0720 -1.8978
# 5 -5.9661 18.5121 1.1557 7.0720 43.2572 -1.6020
# 6 -2.0932 -11.8433 0.8396 -1.8978 -1.6020 34.5097
#
#
#
# Elastic Compliance Matrix: (Units=1/GPa)
#
#
# Indices 1 2 3 4 5 6 
#
# 1 0.005559 0.000825 -0.002584 -0.002257 0.000874 0.000600
# 2 0.000825 0.030696 -0.008182 0.003192 -0.012942 0.010358
# 3 -0.002584 -0.008182 0.010606 0.004325 0.002048 -0.002890
# 4 -0.002257 0.003192 0.004325 0.021359 -0.005219 0.001786
# 5 0.000874 -0.012942 0.002048 -0.005219 0.029451 -0.003358
# 6 0.000600 0.010358 -0.002890 0.001786 -0.003358 0.032581
#
#
# Mechanical properties :
#
#
# Convention : Reuss Voigt Hill
#
# Bulk Modulus (GPa) = 37.06912 68.58594 52.82753
# Shear Modulus (GPa) = 31.42112 48.30585 39.86348
#
# Velocity S-wave (km/s) = 3.48980 4.32703 3.93077
# Velocity P-wave (km/s) = 5.53229 7.17969 6.40914
#
# Compressibility (1/GPa) = 0.02697663
#
# Stress axis : x y z
#
# Youngs Moduli (GPa) = 179.89125 32.57793 94.28369
#
# Poissons Ratio (x) = -0.02686 0.24366
# Poissons Ratio (y) = -0.14833 0.77146
# Poissons Ratio (z) = 0.46490 0.26656
#
# Static dielectric constant tensor:
#      x y z
#    x 5.203600 0.011950 0.002140 
#    y 0.011950 4.489900 -0.526040 
#    z 0.002140 -0.526040 5.040510 
# 
# 
# High freq. dielectric constant tensor:
#      x y z
#    x 2.067300 -0.005680 -0.005350 
#    y -0.005680 2.013700 -0.026260 
#    z -0.005350 -0.026260 2.044840 
# 
# From -- ./inp_files/18713.got.cif
#   From: 2010.06.25/outbox.cif.g09.slc.cpg/sg2_10_cif.got.tgz:18713.got - 2010.06.27 13:26:56.
