data_PCOD8036889
_publ_section_title
;
Structure prediction by ZEFSAII (Michael W. Deem and Ramdas Pophale) SiO2 
 PCOD8036889
Probable space group: P -1
;
_chemical_formula_sum "Si O2"
_cell_formula_units_Z 16
_cell_length_a 17.117060
_cell_length_b 8.939205
_cell_length_c 8.938048
_cell_angle_alpha 146.259516
_cell_angle_beta 91.877682
_cell_angle_gamma 88.121518
_cell_volume 759.183786
_symmetry_space_group_name_H-M "P -1"
_symmetry_group_IT_number 2
_symmetry_cell_setting 'triclinic'
loop_
_space_group_symop_operation_xyz
x,y,z
-x,-y,-z
loop_
_atom_site_type_symbol
_atom_site_label
_atom_site_fract_x
_atom_site_fract_y
_atom_site_fract_z
Si Si1 0.288357 0.166643 0.292826
Si Si2 0.925892 0.557931 0.946164
Si Si3 0.832047 0.083129 0.420179
Si Si4 0.549719 0.727311 0.772480
Si Si5 0.022853 0.704566 0.795669
Si Si6 0.419509 0.458634 0.042871
Si Si7 0.675822 0.994662 0.503950
Si Si8 0.193283 0.713900 0.744395
O O1 0.372979 0.225979 0.280458
O O2 0.292393 0.097912 0.410460
O O3 0.233319 0.425448 0.481079
O O4 0.253165 0.913717 0.992900
O O5 0.872609 0.297046 0.708859
O O6 0.962630 0.638095 0.862112
O O7 0.000000 0.500000 0.000000
O O8 0.874265 0.797769 0.211251
O O9 0.834509 0.169969 0.319945
O O10 0.743666 0.057013 0.443845
O O11 0.500000 0.500000 0.500000
O O12 0.571005 0.634911 0.863716
O O13 0.500000 0.000000 0.000000
O O14 0.115956 0.680938 0.816331
O O15 0.000000 0.500000 0.500000
O O16 0.000000 0.000000 0.000000
O O17 0.375103 0.739206 0.262401
O O18 0.500000 0.500000 0.000000
O O19 0.374387 0.239450 0.763820
#
# Coordination Sequence:
#
# PCOD8036889 Si02
#       8
#     2   2   2   2   2   2   2   2
#     4  12  26  42  67  99 129 170 217 269 317 386
#     4  12  26  43  66  95 131 170 220 271 330 388
#     4  12  25  45  64  94 132 175 213 271 327 393
#     4  12  24  44  70 100 132 169 218 264 315 382
#     4  12  23  44  67  96 125 173 220 271 325 389
#     4  12  24  45  71  98 135 175 212 267 324 387
#     4  12  26  44  66  99 135 172 218 262 331 386
#     4  12  24  43  67  92 130 169 217 267 326 379
#
# _framework density 21.075267
#
# number of rings (size 3 to 8) (size 9 to 14) (size 15 to 20)
#    0.000    0.000    2.500    8.250    3.500    0.000 
#    0.000    0.000    0.000    0.000    0.000    0.000 
#    0.000    0.000    0.000    0.000    0.000    0.000 
#
# Total GULP energy -198446.783351 kJ/mol
# GULP energy per Si atom -12402.923959 kJ/mol
# Density = 2.102730 g / cm^3
# Si number density = 21.075267 Si / 1000 Ang^3
#
#
#
# Elastic Constant Matrix: (Units=GPa)
#
#
# Indices 1 2 3 4 5 6 
#
# 1 141.0338 -2.3187 57.6788 14.4937 -2.9161 13.7465
# 2 -2.3187 73.2181 16.3185 22.6588 -9.7065 -21.0220
# 3 57.6788 16.3185 182.3970 7.3945 19.9506 -6.4564
# 4 14.4937 22.6588 7.3945 53.3436 -22.6531 -4.1377
# 5 -2.9161 -9.7065 19.9506 -22.6531 68.1616 4.2516
# 6 13.7465 -21.0220 -6.4564 -4.1377 4.2516 49.0790
#
#
#
# Elastic Compliance Matrix: (Units=1/GPa)
#
#
# Indices 1 2 3 4 5 6 
#
# 1 0.008837 0.000974 -0.002973 -0.002273 0.000801 -0.002710
# 2 0.000974 0.018182 -0.001435 -0.007162 0.000253 0.006701
# 3 -0.002973 -0.001435 0.006906 -0.000550 -0.002617 0.001307
# 4 -0.002273 -0.007162 -0.000550 0.025644 0.007629 -0.001002
# 5 0.000801 0.000253 -0.002617 0.007629 0.018129 -0.001388
# 6 -0.002710 0.006701 0.001307 -0.001002 -0.001388 0.024212
#
#
# Mechanical properties :
#
#
# Convention : Reuss Voigt Hill
#
# Bulk Modulus (GPa) = 36.95891 60.00068 48.47980
# Shear Modulus (GPa) = 42.44585 55.78152 49.11368
#
# Velocity S-wave (km/s) = 4.49264 5.15026 4.83265
# Velocity P-wave (km/s) = 6.66982 7.99365 7.36155
#
# Compressibility (1/GPa) = 0.02705708
#
# Stress axis : x y z
#
# Youngs Moduli (GPa) = 113.16599 54.99879 144.80515
#
# Poissons Ratio (x) = -0.05356 0.43048
# Poissons Ratio (y) = -0.11020 0.20776
# Poissons Ratio (z) = 0.33642 0.07891
#
# Static dielectric constant tensor:
#      x y z
#    x 4.210770 0.088940 -0.012970 
#    y 0.088940 3.958220 0.075410 
#    z -0.012970 0.075410 4.091290 
# 
# 
# High freq. dielectric constant tensor:
#      x y z
#    x 1.853370 0.005120 -0.001180 
#    y 0.005120 1.836710 0.005330 
#    z -0.001180 0.005330 1.853190 
# 
# From -- ./inp_files/217597.got.cif
#   From: 2010.06.25/outbox.cif.g09.slc.cpg/sg2_109_cif.got.tgz:217597.got - 2010.06.27 13:26:56.
