data_PCOD8036175
_publ_section_title
;
Structure prediction by ZEFSAII (Michael W. Deem and Ramdas Pophale) SiO2 
 PCOD8036175
Probable space group: P -1
;
_chemical_formula_sum "Si O2"
_cell_formula_units_Z 12
_cell_length_a 9.516664
_cell_length_b 9.734946
_cell_length_c 11.933660
_cell_angle_alpha 51.992653
_cell_angle_beta 100.652517
_cell_angle_gamma 136.465570
_cell_volume 525.746638
_symmetry_space_group_name_H-M "P -1"
_symmetry_group_IT_number 2
_symmetry_cell_setting 'triclinic'
loop_
_space_group_symop_operation_xyz
x,y,z
-x,-y,-z
loop_
_atom_site_type_symbol
_atom_site_label
_atom_site_fract_x
_atom_site_fract_y
_atom_site_fract_z
Si Si1 0.563180 0.295298 0.840729
Si Si2 0.709239 0.735428 0.326932
Si Si3 0.546602 0.902692 0.651190
Si Si4 0.136393 0.106928 0.353215
Si Si5 0.123691 0.297829 0.828265
Si Si6 0.706134 0.151342 0.791580
O O1 0.335945 0.130035 0.816921
O O2 0.651805 0.555775 0.781122
O O3 0.746169 0.384358 0.733143
O O4 0.504479 0.116452 0.026298
O O5 0.500000 0.500000 0.500000
O O6 0.720920 0.585240 0.318141
O O7 0.962742 0.998002 0.284851
O O8 0.763189 0.989345 0.603696
O O9 0.310250 0.561424 0.810315
O O10 0.500000 0.000000 0.500000
O O11 0.620165 0.072416 0.690704
O O12 0.000000 0.000000 0.500000
O O13 0.933828 0.256741 0.787175
O O14 0.000000 0.000000 0.000000
#
# Coordination Sequence:
#
# PCOD8036175 Si02
#       6
#     2   2   2   2   2   2
#     4  11  26  46  69 105 144 183 238 293 358 420
#     4  12  24  43  72 102 142 186 236 293 350 426
#     4  12  29  45  72 108 142 185 240 299 355 422
#     4  12  25  44  71 101 139 190 232 285 359 425
#     4  12  25  47  74 106 140 191 241 289 359 429
#     4  11  27  46  71 104 143 184 236 301 353 421
#
# _framework density 22.824683
#
# number of rings (size 3 to 8) (size 9 to 14) (size 15 to 20)
#    0.000    0.333    6.667    0.000    9.333    2.000 
#    0.000    3.333    0.000    0.000    0.000    0.000 
#    0.000    0.000    0.000    0.000    0.000    0.000 
#
# Total GULP energy -148737.255357 kJ/mol
# GULP energy per Si atom -12394.771280 kJ/mol
# Density = 2.277273 g / cm^3
# Si number density = 22.824683 Si / 1000 Ang^3
#
#
#
# Elastic Constant Matrix: (Units=GPa)
#
#
# Indices 1 2 3 4 5 6 
#
# 1 169.3826 53.4354 33.7771 22.2399 7.4122 -3.1430
# 2 53.4354 106.8959 28.4602 19.5855 7.3379 9.4274
# 3 33.7771 28.4602 66.1350 15.5859 0.2184 3.8982
# 4 22.2399 19.5855 15.5859 37.4271 2.7643 -2.0944
# 5 7.4122 7.3379 0.2184 2.7643 40.6433 10.6876
# 6 -3.1430 9.4274 3.8982 -2.0944 10.6876 48.2758
#
#
#
# Elastic Compliance Matrix: (Units=1/GPa)
#
#
# Indices 1 2 3 4 5 6 
#
# 1 0.007590 -0.002893 -0.002264 -0.001895 -0.001089 0.001401
# 2 -0.002893 0.012516 -0.002895 -0.003696 -0.000841 -0.002373
# 3 -0.002264 -0.002895 0.018843 -0.005202 0.001633 -0.001691
# 4 -0.001895 -0.003696 -0.005202 0.032243 -0.001898 0.002837
# 5 -0.001089 -0.000841 0.001633 -0.001898 0.026659 -0.006023
# 6 0.001401 -0.002373 -0.001691 0.002837 -0.006023 0.022862
#
#
# Mechanical properties :
#
#
# Convention : Reuss Voigt Hill
#
# Bulk Modulus (GPa) = 43.77325 63.75096 53.76211
# Shear Modulus (GPa) = 34.61817 40.38530 37.50173
#
# Velocity S-wave (km/s) = 3.89871 4.21095 4.05783
# Velocity P-wave (km/s) = 6.28381 7.18569 6.74983
#
# Compressibility (1/GPa) = 0.02284500
#
# Stress axis : x y z
#
# Youngs Moduli (GPa) = 131.74493 79.89784 53.07058
#
# Poissons Ratio (x) = 0.23116 0.12016
# Poissons Ratio (y) = 0.38116 0.15363
# Poissons Ratio (z) = 0.29828 0.23130
#
# Static dielectric constant tensor:
#      x y z
#    x 4.689870 -0.058630 0.081790 
#    y -0.058630 4.261370 0.181170 
#    z 0.081790 0.181170 4.023210 
# 
# 
# High freq. dielectric constant tensor:
#      x y z
#    x 1.929720 -0.003300 -0.000310 
#    y -0.003300 1.907020 0.009900 
#    z -0.000310 0.009900 1.887070 
# 
# From -- ./inp_files/159460.got.cif
#   From: 2010.06.25/outbox.cif.g09.slc.cpg/sg2_80_cif.got.tgz:159460.got - 2010.06.27 13:26:56.
