data_PCOD8036052
_publ_section_title
;
Structure prediction by ZEFSAII (Michael W. Deem and Ramdas Pophale) SiO2 
 PCOD8036052
Probable space group: P -1
;
_chemical_formula_sum "Si O2"
_cell_formula_units_Z 12
_cell_length_a 8.596726
_cell_length_b 11.461947
_cell_length_c 9.218185
_cell_angle_alpha 39.808158
_cell_angle_beta 53.572782
_cell_angle_gamma 51.619457
_cell_volume 443.330120
_symmetry_space_group_name_H-M "P -1"
_symmetry_group_IT_number 2
_symmetry_cell_setting 'triclinic'
loop_
_space_group_symop_operation_xyz
x,y,z
-x,-y,-z
loop_
_atom_site_type_symbol
_atom_site_label
_atom_site_fract_x
_atom_site_fract_y
_atom_site_fract_z
Si Si1 0.722896 0.472092 0.847375
Si Si2 0.766015 0.012810 0.593029
Si Si3 0.747914 0.162761 0.899800
Si Si4 0.531243 0.696665 0.327216
Si Si5 0.185907 0.126317 0.610668
Si Si6 0.925553 0.655065 0.020748
O O1 0.736015 0.360970 0.796265
O O2 0.785547 0.663578 0.603310
O O3 0.873426 0.334764 0.016233
O O4 0.500000 0.500000 0.000000
O O5 0.706013 0.981977 0.490484
O O6 0.588940 0.209378 0.549504
O O7 0.763771 0.837891 0.862228
O O8 0.000000 0.000000 0.500000
O O9 0.570498 0.166981 0.882366
O O10 0.955066 0.119760 0.734141
O O11 0.725156 0.994902 0.178652
O O12 0.500000 0.500000 0.500000
O O13 0.778513 0.630820 0.256294
O O14 0.000000 0.500000 0.000000
#
# Coordination Sequence:
#
# PCOD8036052 Si02
#       6
#     2   2   2   2   2   2
#     4  12  27  51  80 117 163 217 267 334 410 487
#     4  12  24  49  81 118 159 209 270 333 402 486
#     4  11  26  50  78 117 161 210 268 332 414 479
#     4  12  27  51  82 117 157 212 269 336 406 481
#     4  11  25  50  81 115 163 211 266 335 402 485
#     4  12  25  49  80 115 159 203 273 330 397 482
#
# _framework density 27.067865000000001
#
# number of rings (size 3 to 8) (size 9 to 14) (size 15 to 20)
#    0.000    0.333    3.333    5.000    2.333    2.000 
#    6.000    0.000    0.000    0.000    0.000    0.000 
#    0.000    0.000    0.000    0.000    0.000    0.000 
#
# Total GULP energy -148673.160971 kJ/mol
# GULP energy per Si atom -12389.430081 kJ/mol
# Density = 2.700626 g / cm^3
# Si number density = 27.067865 Si / 1000 Ang^3
#
#
#
# Elastic Constant Matrix: (Units=GPa)
#
#
# Indices 1 2 3 4 5 6 
#
# 1 92.1993 18.3048 17.9161 27.2260 4.4309 -8.4474
# 2 18.3048 194.6359 36.8851 29.3261 -10.2113 9.0570
# 3 17.9161 36.8851 113.4290 6.2496 -8.2373 -7.4978
# 4 27.2260 29.3261 6.2496 46.7260 -1.2219 -2.8151
# 5 4.4309 -10.2113 -8.2373 -1.2219 40.5371 8.2424
# 6 -8.4474 9.0570 -7.4978 -2.8151 8.2424 50.4828
#
#
#
# Elastic Compliance Matrix: (Units=1/GPa)
#
#
# Indices 1 2 3 4 5 6 
#
# 1 0.013786 -0.000019 -0.001795 -0.007725 -0.002521 0.002025
# 2 -0.000019 0.006207 -0.001826 -0.003712 0.001455 -0.001833
# 3 -0.001795 -0.001826 0.009833 0.000994 0.001500 0.001298
# 4 -0.007725 -0.003712 0.000994 0.028178 0.000764 0.000968
# 5 -0.002521 0.001455 0.001500 0.000764 0.026607 -0.004762
# 6 0.002025 -0.001833 0.001298 0.000968 -0.004762 0.021500
#
#
# Mechanical properties :
#
#
# Convention : Reuss Voigt Hill
#
# Bulk Modulus (GPa) = 44.35338 60.71956 52.53647
# Shear Modulus (GPa) = 41.35393 49.35974 45.35683
#
# Velocity S-wave (km/s) = 3.91293 4.27494 4.09794
# Velocity P-wave (km/s) = 6.06929 6.84455 6.46855
#
# Compressibility (1/GPa) = 0.02254619
#
# Stress axis : x y z
#
# Youngs Moduli (GPa) = 72.53504 161.11779 101.69368
#
# Poissons Ratio (x) = 0.00305 0.18254
# Poissons Ratio (y) = 0.00137 0.18571
# Poissons Ratio (z) = 0.13020 0.29424
#
# Static dielectric constant tensor:
#      x y z
#    x 4.897380 -0.645050 0.655150 
#    y -0.645050 5.543730 -1.049150 
#    z 0.655150 -1.049150 6.016590 
# 
# 
# High freq. dielectric constant tensor:
#      x y z
#    x 2.099150 -0.006260 -0.005100 
#    y -0.006260 2.102850 0.010210 
#    z -0.005100 0.010210 2.104920 
# 
# From -- ./inp_files/173677.got.cif
#   From: 2010.06.25/outbox.cif.g09.slc.cpg/sg2_87_cif.got.tgz:173677.got - 2010.06.27 13:26:56.
