data_PCOD8036757
_publ_section_title
;
Structure prediction by ZEFSAII (Michael W. Deem and Ramdas Pophale) SiO2 
 PCOD8036757
Probable space group: P -1
;
_chemical_formula_sum "Si O2"
_cell_formula_units_Z 14
_cell_length_a 9.331007
_cell_length_b 11.273214
_cell_length_c 9.064794
_cell_angle_alpha 100.082849
_cell_angle_beta 137.570100
_cell_angle_gamma 80.370015
_cell_volume 632.358073
_symmetry_space_group_name_H-M "P -1"
_symmetry_group_IT_number 2
_symmetry_cell_setting 'triclinic'
loop_
_space_group_symop_operation_xyz
x,y,z
-x,-y,-z
loop_
_atom_site_type_symbol
_atom_site_label
_atom_site_fract_x
_atom_site_fract_y
_atom_site_fract_z
Si Si1 0.015986 0.123117 0.943618
Si Si2 0.438463 0.163018 0.121625
Si Si3 0.848959 0.387501 0.880361
Si Si4 0.175186 0.987660 0.506833
Si Si5 0.768339 0.349292 0.476620
Si Si6 0.452518 0.444135 0.795825
Si Si7 0.210975 0.228777 0.666773
O O1 0.938469 0.254977 0.982605
O O2 0.880605 0.101717 0.686576
O O3 0.261266 0.141865 0.104570
O O4 0.000000 0.000000 0.000000
O O5 0.553050 0.287610 0.254142
O O6 0.611860 0.055366 0.255437
O O7 0.330698 0.163525 0.880716
O O8 0.765624 0.357464 0.650516
O O9 0.664961 0.436622 0.859420
O O10 0.000000 0.500000 0.000000
O O11 0.190055 0.127481 0.500275
O O12 0.000000 0.000000 0.500000
O O13 0.740878 0.481890 0.415980
O O14 0.983149 0.284889 0.560543
O O15 0.364713 0.315340 0.723902
O O16 0.500000 0.500000 0.000000
#
# Coordination Sequence:
#
# PCOD8036757 Si02
#       7
#     2   2   2   2   2   2   2
#     4  12  29  46  71 111 150 189 250 305 355 439
#     4  12  22  45  77  96 151 188 240 286 374 424
#     4  12  26  51  75 105 147 200 245 294 373 442
#     4  12  24  44  72 107 140 194 237 292 366 438
#     4  12  24  49  75 104 146 192 244 295 372 440
#     4  12  27  44  76 109 143 188 248 310 359 429
#     4  12  25  44  75 112 143 188 246 301 365 432
#
# _framework density 22.139353
#
# number of rings (size 3 to 8) (size 9 to 14) (size 15 to 20)
#    0.000    0.000    7.143    3.000    2.000    4.000 
#    0.000    0.000    0.000    0.000    0.000    0.000 
#    0.000    0.000    0.000    0.000    0.000    0.000 
#
# Total GULP energy -173453.904025 kJ/mol
# GULP energy per Si atom -12389.564573 kJ/mol
# Density = 2.208896 g / cm^3
# Si number density = 22.139353 Si / 1000 Ang^3
#
#
#
# Elastic Constant Matrix: (Units=GPa)
#
#
# Indices 1 2 3 4 5 6 
#
# 1 112.2560 51.0706 38.9065 -5.5958 21.9983 -5.3433
# 2 51.0706 167.6684 38.7819 0.1223 9.9792 -2.8490
# 3 38.9065 38.7819 73.2191 -10.5328 25.6461 -10.5210
# 4 -5.5958 0.1223 -10.5328 51.0308 1.5619 7.2698
# 5 21.9983 9.9792 25.6461 1.5619 33.2710 2.3420
# 6 -5.3433 -2.8490 -10.5210 7.2698 2.3420 45.6688
#
#
#
# Elastic Compliance Matrix: (Units=1/GPa)
#
#
# Indices 1 2 3 4 5 6 
#
# 1 0.012270 -0.002704 -0.003143 0.000759 -0.004962 0.000676
# 2 -0.002704 0.007468 -0.003610 -0.001043 0.002425 -0.000641
# 3 -0.003143 -0.003610 0.024253 0.004434 -0.016101 0.005114
# 4 0.000759 -0.001043 0.004434 0.021028 -0.004448 -0.002074
# 5 -0.004962 0.002425 -0.016101 -0.004448 0.045636 -0.005771
# 6 0.000676 -0.000641 0.005114 -0.002074 -0.005771 0.023740
#
#
# Mechanical properties :
#
#
# Convention : Reuss Voigt Hill
#
# Bulk Modulus (GPa) = 39.87894 67.85130 53.86512
# Shear Modulus (GPa) = 30.92711 40.95309 35.94010
#
# Velocity S-wave (km/s) = 3.74161 4.30558 4.03346
# Velocity P-wave (km/s) = 6.05953 7.44522 6.78783
#
# Compressibility (1/GPa) = 0.02507589
#
# Stress axis : x y z
#
# Youngs Moduli (GPa) = 81.49750 133.89724 41.23257
#
# Poissons Ratio (x) = 0.36207 0.12961
# Poissons Ratio (y) = 0.22038 0.14886
# Poissons Ratio (z) = 0.25618 0.48340
#
# Static dielectric constant tensor:
#      x y z
#    x 3.974390 -0.081780 -0.010740 
#    y -0.081780 4.764670 0.286730 
#    z -0.010740 0.286730 4.590390 
# 
# 
# High freq. dielectric constant tensor:
#      x y z
#    x 1.865630 0.003980 0.013410 
#    y 0.003980 1.908630 0.003970 
#    z 0.013410 0.003970 1.874650 
# 
# From -- ./inp_files/27897.got.cif
#   From: 2010.06.25/outbox.cif.g09.slc.cpg/sg2_14_cif.got.tgz:27897.got - 2010.06.27 13:26:56.
