data_PCOD8036700
_publ_section_title
;
Structure prediction by ZEFSAII (Michael W. Deem and Ramdas Pophale) SiO2 
 PCOD8036700
Probable space group: P -1
;
_chemical_formula_sum "Si O2"
_cell_formula_units_Z 12
_cell_length_a 16.012035
_cell_length_b 9.657233
_cell_length_c 15.822371
_cell_angle_alpha 45.465610
_cell_angle_beta 162.019681
_cell_angle_gamma 134.239113
_cell_volume 533.148065
_symmetry_space_group_name_H-M "P -1"
_symmetry_group_IT_number 2
_symmetry_cell_setting 'triclinic'
loop_
_space_group_symop_operation_xyz
x,y,z
-x,-y,-z
loop_
_atom_site_type_symbol
_atom_site_label
_atom_site_fract_x
_atom_site_fract_y
_atom_site_fract_z
Si Si1 0.092770 0.882764 0.064022
Si Si2 0.993820 0.434095 0.193477
Si Si3 0.727334 0.356958 0.280709
Si Si4 0.347147 0.005266 0.526078
Si Si5 0.512551 0.346548 0.652596
Si Si6 0.233862 0.865584 0.764944
O O1 0.009061 0.664824 0.109543
O O2 0.416544 0.937610 0.340046
O O3 0.000000 0.000000 0.000000
O O4 0.936048 0.934384 0.806669
O O5 0.838550 0.337600 0.166890
O O6 0.301350 0.382164 0.507846
O O7 0.820823 0.357734 0.976912
O O8 0.680404 0.221206 0.377107
O O9 0.735484 0.213896 0.267511
O O10 0.000000 0.500000 0.500000
O O11 0.500000 0.500000 0.000000
O O12 0.426961 0.126228 0.635490
O O13 0.500000 0.500000 0.500000
O O14 0.000000 0.000000 0.500000
O O15 0.500000 0.000000 0.000000
#
# Coordination Sequence:
#
# PCOD8036700 Si02
#       6
#     2   2   2   2   2   2
#     4  12  26  43  66 103 134 181 220 280 348 405
#     4  12  24  42  73  99 139 172 227 284 341 416
#     4  12  28  49  73 106 141 193 241 291 350 421
#     4  12  25  44  72  96 140 173 227 285 341 414
#     4  12  22  43  67 107 131 171 222 279 353 404
#     4  12  27  50  73 106 143 192 240 291 350 420
#
# _framework density 22.507819000000001
#
# number of rings (size 3 to 8) (size 9 to 14) (size 15 to 20)
#    0.000    0.000    3.333    7.000    4.667    0.000 
#    0.000    0.000    0.000    0.000    0.000    0.000 
#    0.000    0.000    0.000    0.000    0.000    0.000 
#
# Total GULP energy -148763.630425 kJ/mol
# GULP energy per Si atom -12396.969202 kJ/mol
# Density = 2.245659 g / cm^3
# Si number density = 22.507819 Si / 1000 Ang^3
#
#
#
# Elastic Constant Matrix: (Units=GPa)
#
#
# Indices 1 2 3 4 5 6 
#
# 1 97.8409 54.1363 24.0773 -2.6364 6.0184 3.0660
# 2 54.1363 164.2268 42.9319 -2.9636 4.7526 14.7751
# 3 24.0773 42.9319 109.7966 2.8223 21.0424 -0.5685
# 4 -2.6364 -2.9636 2.8223 45.1512 -3.4227 -2.6453
# 5 6.0184 4.7526 21.0424 -3.4227 24.1978 -7.5615
# 6 3.0660 14.7751 -0.5685 -2.6453 -7.5615 67.1680
#
#
#
# Elastic Compliance Matrix: (Units=1/GPa)
#
#
# Indices 1 2 3 4 5 6 
#
# 1 0.012717 -0.003891 -0.001006 0.000450 -0.001422 0.000125
# 2 -0.003891 0.008155 -0.002590 0.000476 0.001222 -0.001482
# 3 -0.001006 -0.002590 0.012385 -0.001825 -0.010433 -0.000526
# 4 0.000450 0.000476 -0.001825 0.022777 0.005016 0.001321
# 5 -0.001422 0.001222 -0.010433 0.005016 0.053059 0.005878
# 6 0.000125 -0.001482 -0.000526 0.001321 0.005878 0.015918
#
#
# Mechanical properties :
#
#
# Convention : Reuss Voigt Hill
#
# Bulk Modulus (GPa) = 54.69309 68.23945 61.46627
# Shear Modulus (GPa) = 34.22833 44.01798 39.12316
#
# Velocity S-wave (km/s) = 3.90389 4.42710 4.17370
# Velocity P-wave (km/s) = 6.68377 7.51773 7.11298
#
# Compressibility (1/GPa) = 0.01828385
#
# Stress axis : x y z
#
# Youngs Moduli (GPa) = 78.63635 122.61903 80.74527
#
# Poissons Ratio (x) = 0.47712 0.08120
# Poissons Ratio (y) = 0.30598 0.20911
# Poissons Ratio (z) = 0.07908 0.31755
#
# Static dielectric constant tensor:
#      x y z
#    x 4.108110 0.414430 -0.508810 
#    y 0.414430 4.541050 1.218430 
#    z -0.508810 1.218430 0.595240 
# 
# 
# High freq. dielectric constant tensor:
#      x y z
#    x 1.885590 0.010930 0.006760 
#    y 0.010930 1.910250 0.000660 
#    z 0.006760 0.000660 1.902900 
# 
# From -- ./inp_files/311043.got.cif
#   From: 2010.06.25/outbox.cif.g09.slc.cpg/sg2_156_cif.got.tgz:311043.got - 2010.06.27 13:26:56.
