data_PCOD8036765
_publ_section_title
;
Structure prediction by ZEFSAII (Michael W. Deem and Ramdas Pophale) SiO2 
 PCOD8036765
Probable space group: P -1
;
_chemical_formula_sum "Si O2"
_cell_formula_units_Z 16
_cell_length_a 23.147302
_cell_length_b 8.429727
_cell_length_c 9.785450
_cell_angle_alpha 59.159941
_cell_angle_beta 27.338928
_cell_angle_gamma 60.722556
_cell_volume 750.154890
_symmetry_space_group_name_H-M "P -1"
_symmetry_group_IT_number 2
_symmetry_cell_setting 'triclinic'
loop_
_space_group_symop_operation_xyz
x,y,z
-x,-y,-z
loop_
_atom_site_type_symbol
_atom_site_label
_atom_site_fract_x
_atom_site_fract_y
_atom_site_fract_z
Si Si1 0.277915 0.727992 0.991925
Si Si2 0.885043 0.984314 0.650316
Si Si3 0.292725 0.297212 0.806219
Si Si4 0.481379 0.096867 0.704564
Si Si5 0.879979 0.401042 0.841534
Si Si6 0.572522 0.684378 0.756840
Si Si7 0.682140 0.692232 0.819590
Si Si8 0.057339 0.141382 0.719741
O O1 0.382739 0.833105 0.644357
O O2 0.158016 0.731214 0.141649
O O3 0.326503 0.522327 0.028955
O O4 0.222777 0.843349 0.187919
O O5 0.914103 0.956379 0.442271
O O6 0.833344 0.802387 0.903452
O O7 0.000000 0.000000 0.500000
O O8 0.396097 0.157766 0.726253
O O9 0.332997 0.362802 0.545281
O O10 0.251050 0.476087 0.907186
O O11 0.487338 0.874050 0.812546
O O12 0.424014 0.190269 0.921592
O O13 0.000000 0.500000 0.500000
O O14 0.934349 0.287867 0.907512
O O15 0.648950 0.720340 0.717984
O O16 0.500000 0.500000 0.000000
O O17 0.819892 0.763371 0.526411
O O18 0.000000 0.000000 0.000000
#
# Coordination Sequence:
#
# PCOD8036765 Si02
#       8
#     2   2   2   2   2   2   2   2
#     4  12  24  42  80 105 138 186 248 293 349 435
#     4  12  24  44  76 105 138 184 244 292 352 418
#     4  12  25  47  74 100 141 192 244 293 351 429
#     4  12  25  48  75 103 141 195 240 291 364 435
#     4  12  22  47  71 104 139 190 243 291 348 434
#     4  12  30  46  68 109 150 183 238 299 362 421
#     4  12  27  48  70 108 149 186 237 298 369 424
#     4  12  28  47  73 106 150 191 235 298 370 420
#
# _framework density 21.32893
#
# number of rings (size 3 to 8) (size 9 to 14) (size 15 to 20)
#    0.000    0.000    7.500    1.875    7.000    2.000 
#    0.000    1.250    0.000    0.000    0.000    0.000 
#    0.000    0.000    0.000    0.000    0.000    0.000 
#
# Total GULP energy -198296.821836 kJ/mol
# GULP energy per Si atom -12393.551365 kJ/mol
# Density = 2.128038 g / cm^3
# Si number density = 21.328930 Si / 1000 Ang^3
#
#
#
# Elastic Constant Matrix: (Units=GPa)
#
#
# Indices 1 2 3 4 5 6 
#
# 1 142.8765 33.3197 57.5248 -6.9514 1.6180 -3.7741
# 2 33.3197 143.4417 58.3621 -4.1370 10.5677 -8.4661
# 3 57.5248 58.3621 134.0013 -12.8650 14.3822 0.1718
# 4 -6.9514 -4.1370 -12.8650 43.1999 -1.1491 3.5419
# 5 1.6180 10.5677 14.3822 -1.1491 37.1341 1.3601
# 6 -3.7741 -8.4661 0.1718 3.5419 1.3601 36.7346
#
#
#
# Elastic Compliance Matrix: (Units=1/GPa)
#
#
# Indices 1 2 3 4 5 6 
#
# 1 0.008573 -0.000595 -0.003521 0.000247 0.001142 0.000694
# 2 -0.000595 0.008713 -0.003460 -0.000492 -0.001204 0.002055
# 3 -0.003521 -0.003460 0.011038 0.002418 -0.003013 -0.001332
# 4 0.000247 -0.000492 0.002418 0.024060 0.000026 -0.002420
# 5 0.001142 -0.001204 -0.003013 0.000026 0.028434 -0.001201
# 6 0.000694 0.002055 -0.001332 -0.002420 -0.001201 0.028051
#
#
# Mechanical properties :
#
#
# Convention : Reuss Voigt Hill
#
# Bulk Modulus (GPa) = 75.91411 79.85918 77.88665
# Shear Modulus (GPa) = 38.93691 41.48791 40.21241
#
# Velocity S-wave (km/s) = 4.27727 4.41517 4.34677
# Velocity P-wave (km/s) = 7.75002 7.96961 7.86058
#
# Compressibility (1/GPa) = 0.01317278
#
# Stress axis : x y z
#
# Youngs Moduli (GPa) = 116.64891 114.76659 90.59300
#
# Poissons Ratio (x) = 0.06827 0.31895
# Poissons Ratio (y) = 0.06939 0.31347
# Poissons Ratio (z) = 0.41069 0.39712
#
# Static dielectric constant tensor:
#      x y z
#    x 4.097550 0.129950 0.036310 
#    y 0.129950 4.167010 -0.043400 
#    z 0.036310 -0.043400 3.901110 
# 
# 
# High freq. dielectric constant tensor:
#      x y z
#    x 1.844980 0.008760 -0.005640 
#    y 0.008760 1.853670 0.004400 
#    z -0.005640 0.004400 1.846000 
# 
# From -- ./inp_files/343391.got.cif
#   From: 2010.06.25/outbox.cif.g09.slc.cpg/sg2_172_cif.got.tgz:343391.got - 2010.06.27 13:26:56.
