data_PCOD8036801
_publ_section_title
;
Structure prediction by ZEFSAII (Michael W. Deem and Ramdas Pophale) SiO2 
 PCOD8036801
Probable space group: P -1
;
_chemical_formula_sum "Si O2"
_cell_formula_units_Z 16
_cell_length_a 28.040746
_cell_length_b 28.074531
_cell_length_c 8.696227
_cell_angle_alpha 140.971064
_cell_angle_beta 39.132419
_cell_angle_gamma 169.476047
_cell_volume 783.138426
_symmetry_space_group_name_H-M "P -1"
_symmetry_group_IT_number 2
_symmetry_cell_setting 'triclinic'
loop_
_space_group_symop_operation_xyz
x,y,z
-x,-y,-z
loop_
_atom_site_type_symbol
_atom_site_label
_atom_site_fract_x
_atom_site_fract_y
_atom_site_fract_z
Si Si1 0.260302 0.236747 0.346922
Si Si2 0.676019 0.869945 0.200288
Si Si3 0.472527 0.061216 0.760798
Si Si4 0.556135 0.906275 0.417841
Si Si5 0.976719 0.563815 0.264633
Si Si6 0.767176 0.729625 0.834038
Si Si7 0.177489 0.375654 0.422160
Si Si8 0.056333 0.412423 0.928041
O O1 0.500000 0.500000 0.500000
O O2 0.236933 0.263248 0.318804
O O3 0.308068 0.194177 0.088428
O O4 0.000000 0.000000 0.500000
O O5 0.618786 0.880370 0.244468
O O6 0.451301 0.652546 0.345575
O O7 0.951531 0.151279 0.297420
O O8 0.462896 0.106272 0.749987
O O9 0.500000 0.000000 0.500000
O O10 0.718207 0.317911 0.895263
O O11 0.212424 0.823685 0.912599
O O12 0.282481 0.671748 0.580439
O O13 0.777161 0.176418 0.596991
O O14 0.970507 0.607344 0.237278
O O15 0.000000 0.500000 0.000000
O O16 0.810872 0.684853 0.649728
O O17 0.500000 0.500000 0.000000
O O18 0.000000 0.000000 0.000000
O O19 0.126010 0.391109 0.717186
#
# Coordination Sequence:
#
# PCOD8036801 Si02
#       8
#     2   2   2   2   2   2   2   2
#     4  12  26  42  67 101 138 171 222 269 332 397
#     4  12  23  44  68  96 137 175 214 284 331 385
#     4  12  26  44  64  97 141 175 212 278 341 394
#     4  12  24  43  67  95 133 180 217 263 352 393
#     4  12  23  41  68  98 126 170 229 273 314 399
#     4  12  23  43  71  97 130 183 222 265 331 397
#     4  12  23  43  71  99 131 171 228 281 319 385
#     4  12  24  42  68  97 130 171 226 271 326 392
#
# _framework density 20.430616000000001
#
# number of rings (size 3 to 8) (size 9 to 14) (size 15 to 20)
#    0.000    0.000    5.000    6.000    0.000    2.000 
#    0.000    0.000    0.000    0.000    0.000    0.000 
#    0.000    0.000    0.000    0.000    0.000    0.000 
#
# Total GULP energy -198495.151819 kJ/mol
# GULP energy per Si atom -12405.946989 kJ/mol
# Density = 2.038411 g / cm^3
# Si number density = 20.430616 Si / 1000 Ang^3
#
#
#
# Elastic Constant Matrix: (Units=GPa)
#
#
# Indices 1 2 3 4 5 6 
#
# 1 88.7334 29.2827 13.9450 28.6536 -3.2111 15.8691
# 2 29.2827 157.3649 54.8482 -32.1760 13.7726 -10.9922
# 3 13.9450 54.8482 139.5991 -0.7878 -20.3827 4.7544
# 4 28.6536 -32.1760 -0.7878 -8.3375 3.6882 -33.9432
# 5 -3.2111 13.7726 -20.3827 3.6882 53.5828 3.0664
# 6 15.8691 -10.9922 4.7544 -33.9432 3.0664 7.3804
#
#
#
# Elastic Compliance Matrix: (Units=1/GPa)
#
#
# Indices 1 2 3 4 5 6 
#
# 1 0.008698 0.000306 -0.001262 0.004983 -0.000711 0.005780
# 2 0.000306 0.006332 -0.002673 -0.003565 -0.002092 -0.005033
# 3 -0.001262 -0.002673 0.008863 0.002109 0.003771 0.001154
# 4 0.004983 -0.003565 0.002109 -0.000582 0.003283 -0.021424
# 5 -0.000711 -0.002092 0.003771 0.003283 0.020213 0.002685
# 6 0.005780 -0.005033 0.001154 -0.021424 0.002685 0.015178
#
#
# Mechanical properties :
#
#
# Convention : Reuss Voigt Hill
#
# Bulk Modulus (GPa) = 60.10908 64.64992 62.37950
# Shear Modulus (GPa) = 69.92663 29.69990 49.81326
#
# Velocity S-wave (km/s) = 5.85668 3.81687 4.94314
# Velocity P-wave (km/s) = 8.67290 7.15102 7.94847
#
# Compressibility (1/GPa) = 0.01663642
#
# Stress axis : x y z
#
# Youngs Moduli (GPa) = 114.96571 157.93424 112.83267
#
# Poissons Ratio (x) = -0.04835 0.14237
# Poissons Ratio (y) = -0.03520 0.30155
# Poissons Ratio (z) = 0.14506 0.42208
#
# Static dielectric constant tensor:
#      x y z
#    x 3.568940 0.051220 0.029390 
#    y 0.051220 3.969000 -0.015670 
#    z 0.029390 -0.015670 3.802320 
# 
# 
# High freq. dielectric constant tensor:
#      x y z
#    x 1.811880 0.000750 -0.009230 
#    y 0.000750 1.825380 0.000090 
#    z -0.009230 0.000090 1.810920 
# 
# From -- ./inp_files/357984.got.cif
#   From: 2010.06.25/outbox.cif.g09.slc.cpg/sg2_179_cif.got.tgz:357984.got - 2010.06.27 13:26:56.
