data_PCOD8036068
_publ_section_title
;
Structure prediction by ZEFSAII (Michael W. Deem and Ramdas Pophale) SiO2 
 PCOD8036068
Probable space group: P -1
;
_chemical_formula_sum "Si O2"
_cell_formula_units_Z 14
_cell_length_a 16.097899
_cell_length_b 15.966452
_cell_length_c 7.678787
_cell_angle_alpha 59.009138
_cell_angle_beta 106.867973
_cell_angle_gamma 154.843691
_cell_volume 629.879820
_symmetry_space_group_name_H-M "P -1"
_symmetry_group_IT_number 2
_symmetry_cell_setting 'triclinic'
loop_
_space_group_symop_operation_xyz
x,y,z
-x,-y,-z
loop_
_atom_site_type_symbol
_atom_site_label
_atom_site_fract_x
_atom_site_fract_y
_atom_site_fract_z
Si Si1 0.072582 0.480704 0.882653
Si Si2 0.294408 0.044046 0.684407
Si Si3 0.480599 0.373247 0.715554
Si Si4 0.741914 0.301355 0.860068
Si Si5 0.953374 0.063587 0.869496
Si Si6 0.961668 0.854021 0.563224
Si Si7 0.274497 0.568702 0.600949
O O1 0.212499 0.578853 0.706072
O O2 0.972915 0.482453 0.763240
O O3 0.232226 0.645325 0.974692
O O4 0.831655 0.181754 0.087190
O O5 0.463620 0.268314 0.681575
O O6 0.462754 0.188882 0.474201
O O7 0.099559 0.920825 0.684442
O O8 0.500000 0.500000 0.500000
O O9 0.701281 0.570030 0.739811
O O10 0.290950 0.168964 0.961048
O O11 0.755996 0.411539 0.627873
O O12 0.500000 0.000000 0.000000
O O13 0.954728 0.079177 0.649989
O O14 0.125673 0.316328 0.795523
O O15 0.000000 0.000000 0.000000
O O16 0.000000 0.000000 0.500000
#
# Coordination Sequence:
#
# PCOD8036068 Si02
#       7
#     2   2   2   2   2   2   2
#     4  11  26  47  79 108 145 190 243 299 379 441
#     4  12  24  46  68 108 142 186 245 301 359 437
#     4  12  23  46  68  93 146 191 235 301 351 415
#     4  11  25  52  77 109 148 186 241 310 371 439
#     4  12  24  44  72 103 144 196 238 293 365 425
#     4  12  26  42  68 100 141 194 251 297 353 425
#     4  12  25  48  77 109 151 191 246 302 365 438
#
# _framework density 22.226462000000001
#
# number of rings (size 3 to 8) (size 9 to 14) (size 15 to 20)
#    0.000    0.286    7.143    1.286    0.000    2.286 
#    5.143    0.000    0.000    0.000    0.000    0.000 
#    0.000    0.000    0.000    0.000    0.000    0.000 
#
# Total GULP energy -173466.594860 kJ/mol
# GULP energy per Si atom -12390.471061 kJ/mol
# Density = 2.217587 g / cm^3
# Si number density = 22.226462 Si / 1000 Ang^3
#
#
#
# Elastic Constant Matrix: (Units=GPa)
#
#
# Indices 1 2 3 4 5 6 
#
# 1 134.9411 44.8482 42.0788 -6.5214 -22.6132 14.1410
# 2 44.8482 117.1112 28.8709 -15.8768 -5.6212 8.1669
# 3 42.0788 28.8709 96.7755 -24.8963 -20.9248 8.2123
# 4 -6.5214 -15.8768 -24.8963 33.7202 1.9025 -9.3689
# 5 -22.6132 -5.6212 -20.9248 1.9025 54.0587 -4.7743
# 6 14.1410 8.1669 8.2123 -9.3689 -4.7743 45.9099
#
#
#
# Elastic Compliance Matrix: (Units=1/GPa)
#
#
# Indices 1 2 3 4 5 6 
#
# 1 0.010021 -0.003098 -0.003441 -0.002822 0.002439 -0.002242
# 2 -0.003098 0.010427 -0.000988 0.003604 -0.000727 -0.000064
# 3 -0.003441 -0.000988 0.015646 0.010463 0.004235 0.001013
# 4 -0.002822 0.003604 0.010463 0.040293 0.002430 0.006832
# 5 0.002439 -0.000727 0.004235 0.002430 0.021113 0.001312
# 6 -0.002242 -0.000064 0.001013 0.006832 0.001312 0.023833
#
#
# Mechanical properties :
#
#
# Convention : Reuss Voigt Hill
#
# Bulk Modulus (GPa) = 47.53194 64.49150 56.01172
# Shear Modulus (GPa) = 34.86727 42.27310 38.57018
#
# Velocity S-wave (km/s) = 3.96501 4.36584 4.17025
# Velocity P-wave (km/s) = 6.51103 7.38192 6.96011
#
# Compressibility (1/GPa) = 0.02103848
#
# Stress axis : x y z
#
# Youngs Moduli (GPa) = 99.79319 95.90338 63.91503
#
# Poissons Ratio (x) = 0.29714 0.21994
# Poissons Ratio (y) = 0.30919 0.06315
# Poissons Ratio (z) = 0.34341 0.09476
#
# Static dielectric constant tensor:
#      x y z
#    x 4.706470 0.196100 0.212400 
#    y 0.196100 4.202160 -0.150350 
#    z 0.212400 -0.150350 4.020370 
# 
# 
# High freq. dielectric constant tensor:
#      x y z
#    x 1.906320 0.000300 -0.006110 
#    y 0.000300 1.876330 -0.016200 
#    z -0.006110 -0.016200 1.870080 
# 
# From -- ./inp_files/312799.got.cif
#   From: 2010.06.25/outbox.cif.g09.slc.cpg/sg2_157_cif.got.tgz:312799.got - 2010.06.27 13:26:56.
