data_PCOD8036999
_publ_section_title
;
Structure prediction by ZEFSAII (Michael W. Deem and Ramdas Pophale) SiO2 
 PCOD8036999
Probable space group: P -1
;
_chemical_formula_sum "Si O2"
_cell_formula_units_Z 16
_cell_length_a 17.817876
_cell_length_b 20.058880
_cell_length_c 11.241493
_cell_angle_alpha 43.322371
_cell_angle_beta 30.174201
_cell_angle_gamma 21.560758
_cell_volume 675.476313
_symmetry_space_group_name_H-M "P -1"
_symmetry_group_IT_number 2
_symmetry_cell_setting 'triclinic'
loop_
_space_group_symop_operation_xyz
x,y,z
-x,-y,-z
loop_
_atom_site_type_symbol
_atom_site_label
_atom_site_fract_x
_atom_site_fract_y
_atom_site_fract_z
Si Si1 0.143744 0.648125 0.592000
Si Si2 0.233564 0.439122 0.324175
Si Si3 0.583795 0.103593 0.447045
Si Si4 0.816112 0.844441 0.016597
Si Si5 0.355463 0.322839 0.718808
Si Si6 0.597817 0.549377 0.149676
Si Si7 0.317943 0.875160 0.238414
Si Si8 0.849384 0.331827 0.714928
O O1 0.384921 0.422936 0.549494
O O2 0.295346 0.655998 0.436001
O O3 0.041692 0.728692 0.493201
O O4 0.866286 0.782568 0.889464
O O5 0.498799 0.222213 0.300332
O O6 0.079955 0.598853 0.424398
O O7 0.000000 0.500000 0.500000
O O8 0.379268 0.432416 0.041888
O O9 0.480583 0.215182 0.562842
O O10 0.410477 0.099668 0.679703
O O11 0.942514 0.871572 0.247561
O O12 0.121994 0.672981 0.898691
O O13 0.678751 0.030390 0.968765
O O14 0.586914 0.149295 0.726420
O O15 0.000000 0.500000 0.000000
O O16 0.584075 0.653682 0.113168
O O17 0.000000 0.000000 0.500000
O O18 0.500000 0.500000 0.000000
#
# Coordination Sequence:
#
# PCOD8036999 Si02
#       8
#     2   2   2   2   2   2   2   2
#     4  12  23  46  77 105 152 193 242 310 383 444
#     4  12  28  51  74 105 149 201 258 312 373 453
#     4  12  28  47  79 110 147 201 253 309 383 447
#     4  12  25  45  75 114 147 189 244 310 384 451
#     4  12  25  45  77 112 155 194 242 313 386 459
#     4  12  25  48  71 105 155 194 244 315 371 446
#     4  12  26  43  72 111 149 192 243 300 381 457
#     4  12  29  52  73 107 151 203 256 314 370 451
#
# _framework density 23.686987999999999
#
# number of rings (size 3 to 8) (size 9 to 14) (size 15 to 20)
#    0.000    0.000    7.500    1.875    3.500    3.000 
#    2.250    0.000    0.000    0.000    0.000    0.000 
#    0.000    0.000    0.000    0.000    0.000    0.000 
#
# Total GULP energy -198424.038938 kJ/mol
# GULP energy per Si atom -12401.502434 kJ/mol
# Density = 2.363308 g / cm^3
# Si number density = 23.686988 Si / 1000 Ang^3
#
#
#
# Elastic Constant Matrix: (Units=GPa)
#
#
# Indices 1 2 3 4 5 6 
#
# 1 106.0127 45.6752 25.2907 -2.2380 -11.2192 -10.1908
# 2 45.6752 171.0040 21.6448 -13.6565 -5.8971 -12.2448
# 3 25.2907 21.6448 58.8492 -0.9012 2.6433 -4.8282
# 4 -2.2380 -13.6565 -0.9012 44.0858 -1.0815 -2.2504
# 5 -11.2192 -5.8971 2.6433 -1.0815 30.5177 -12.9745
# 6 -10.1908 -12.2448 -4.8282 -2.2504 -12.9745 50.1851
#
#
#
# Elastic Compliance Matrix: (Units=1/GPa)
#
#
# Indices 1 2 3 4 5 6 
#
# 1 0.012410 -0.002321 -0.004490 0.000116 0.005793 0.003025
# 2 -0.002321 0.006980 -0.001472 0.002126 0.001351 0.001535
# 3 -0.004490 -0.001472 0.019597 -0.000397 -0.003812 -0.000389
# 4 0.000116 0.002126 -0.000397 0.023503 0.002228 0.002134
# 5 0.005793 0.001351 -0.003812 0.002228 0.040552 0.011723
# 6 0.003025 0.001535 -0.000389 0.002134 0.011723 0.024004
#
#
# Mechanical properties :
#
#
# Convention : Reuss Voigt Hill
#
# Bulk Modulus (GPa) = 44.60036 57.89859 51.24948
# Shear Modulus (GPa) = 33.09382 41.17472 37.13427
#
# Velocity S-wave (km/s) = 3.74188 4.17380 3.96372
# Velocity P-wave (km/s) = 6.12689 6.90823 6.52926
#
# Compressibility (1/GPa) = 0.02242134
#
# Stress axis : x y z
#
# Youngs Moduli (GPa) = 80.57931 143.25988 51.02857
#
# Poissons Ratio (x) = 0.33248 0.22912
# Poissons Ratio (y) = 0.18701 0.07512
# Poissons Ratio (z) = 0.36180 0.21090
#
# Static dielectric constant tensor:
#      x y z
#    x 4.511100 0.047120 -0.029550 
#    y 0.047120 4.557440 -0.285290 
#    z -0.029550 -0.285290 4.112910 
# 
# 
# High freq. dielectric constant tensor:
#      x y z
#    x 1.947910 0.002890 -0.005090 
#    y 0.002890 1.955380 -0.017790 
#    z -0.005090 -0.017790 1.925260 
# 
# From -- ./inp_files/467090.got.cif
#   From: 2010.06.25/outbox.cif.g09.slc.cpg/sg2_234_cif.got.tgz:467090.got - 2010.06.27 13:26:56.
