data_PCOD8036085
_publ_section_title
;
Structure prediction by ZEFSAII (Michael W. Deem and Ramdas Pophale) SiO2 
 PCOD8036085
Probable space group: P -1
;
_chemical_formula_sum "Si O2"
_cell_formula_units_Z 12
_cell_length_a 5.316250
_cell_length_b 9.352557
_cell_length_c 18.785719
_cell_angle_alpha 137.533106
_cell_angle_beta 60.366974
_cell_angle_gamma 102.734767
_cell_volume 531.319936
_symmetry_space_group_name_H-M "P -1"
_symmetry_group_IT_number 2
_symmetry_cell_setting 'triclinic'
loop_
_space_group_symop_operation_xyz
x,y,z
-x,-y,-z
loop_
_atom_site_type_symbol
_atom_site_label
_atom_site_fract_x
_atom_site_fract_y
_atom_site_fract_z
Si Si1 0.800427 0.046280 0.614264
Si Si2 0.313995 0.357679 0.432548
Si Si3 0.796579 0.263455 0.069713
Si Si4 0.313098 0.701953 0.057263
Si Si5 0.388716 0.915678 0.836931
Si Si6 0.136521 0.287173 0.766564
O O1 0.488574 0.191649 0.682554
O O2 0.958798 0.168976 0.694265
O O3 0.751532 0.824601 0.572898
O O4 0.000000 0.000000 0.500000
O O5 0.500000 0.500000 0.500000
O O6 0.532738 0.259436 0.300866
O O7 0.000000 0.500000 0.500000
O O8 0.564221 0.205450 0.137244
O O9 0.936100 0.456170 0.152061
O O10 0.628677 0.357675 0.055361
O O11 0.043331 0.047439 0.932082
O O12 0.973314 0.736354 0.145262
O O13 0.397085 0.925809 0.145374
O O14 0.500000 0.500000 0.000000
#
# Coordination Sequence:
#
# PCOD8036085 Si02
#       6
#     2   2   2   2   2   2
#     4  12  28  49  76 105 145 196 253 305 358 433
#     4  12  29  51  74 105 146 200 248 301 362 433
#     4  11  26  43  75 111 149 190 237 308 380 445
#     4  12  23  45  72 110 147 192 238 300 383 445
#     4  11  26  47  71 108 151 192 244 303 374 443
#     4  12  25  46  77 109 146 187 245 307 370 439
#
# _framework density 22.585262
#
# number of rings (size 3 to 8) (size 9 to 14) (size 15 to 20)
#    0.000    0.333    3.333    4.500    7.000    0.000 
#    0.000    0.000    0.000    0.000    0.000    0.000 
#    0.000    0.000    0.000    0.000    0.000    0.000 
#
# Total GULP energy -148810.644239 kJ/mol
# GULP energy per Si atom -12400.887020 kJ/mol
# Density = 2.253386 g / cm^3
# Si number density = 22.585262 Si / 1000 Ang^3
#
#
#
# Elastic Constant Matrix: (Units=GPa)
#
#
# Indices 1 2 3 4 5 6 
#
# 1 136.1282 49.9983 67.2313 4.2818 6.7812 2.5979
# 2 49.9983 169.4346 92.7134 -19.4708 4.9516 -8.3315
# 3 67.2313 92.7134 164.9187 -10.9964 4.6597 10.3039
# 4 4.2818 -19.4708 -10.9964 43.8068 13.2451 2.4228
# 5 6.7812 4.9516 4.6597 13.2451 36.6952 -1.9888
# 6 2.5979 -8.3315 10.3039 2.4228 -1.9888 26.0079
#
#
#
# Elastic Compliance Matrix: (Units=1/GPa)
#
#
# Indices 1 2 3 4 5 6 
#
# 1 0.009531 -0.001215 -0.003350 -0.002211 -0.000365 0.000164
# 2 -0.001215 0.009625 -0.004953 0.003308 -0.001382 0.004753
# 3 -0.003350 -0.004953 0.010686 0.001388 -0.000879 -0.005682
# 4 -0.002211 0.003308 0.001388 0.028198 -0.010539 -0.002702
# 5 -0.000365 -0.001382 -0.000879 -0.010539 0.031602 0.003340
# 6 0.000164 0.004753 -0.005682 -0.002702 0.003340 0.042714
#
#
# Mechanical properties :
#
#
# Convention : Reuss Voigt Hill
#
# Bulk Modulus (GPa) = 92.53482 98.92973 95.73228
# Shear Modulus (GPa) = 32.25901 38.67121 35.46511
#
# Velocity S-wave (km/s) = 3.78341 4.14240 3.96697
# Velocity P-wave (km/s) = 7.75538 8.17173 7.96628
#
# Compressibility (1/GPa) = 0.01080674
#
# Stress axis : x y z
#
# Youngs Moduli (GPa) = 104.91727 103.89563 93.57914
#
# Poissons Ratio (x) = 0.12622 0.31349
# Poissons Ratio (y) = 0.12746 0.46350
# Poissons Ratio (z) = 0.35147 0.51460
#
# Static dielectric constant tensor:
#      x y z
#    x 3.957900 0.070490 0.043870 
#    y 0.070490 4.598720 -0.205590 
#    z 0.043870 -0.205590 4.620680 
# 
# 
# High freq. dielectric constant tensor:
#      x y z
#    x 1.887050 0.007920 0.003080 
#    y 0.007920 1.915060 -0.000680 
#    z 0.003080 -0.000680 1.902840 
# 
# From -- ./inp_files/21802.got.cif
#   From: 2010.06.25/outbox.cif.g09.slc.cpg/sg2_11_cif.got.tgz:21802.got - 2010.06.27 13:26:56.
