data_PCOD8036394
_publ_section_title
;
Structure prediction by ZEFSAII (Michael W. Deem and Ramdas Pophale) SiO2 
 PCOD8036394
Probable space group: P -1
;
_chemical_formula_sum "Si O2"
_cell_formula_units_Z 16
_cell_length_a 17.375963
_cell_length_b 20.098392
_cell_length_c 11.589001
_cell_angle_alpha 148.526383
_cell_angle_beta 150.727092
_cell_angle_gamma 19.990556
_cell_volume 663.113829
_symmetry_space_group_name_H-M "P -1"
_symmetry_group_IT_number 2
_symmetry_cell_setting 'triclinic'
loop_
_space_group_symop_operation_xyz
x,y,z
-x,-y,-z
loop_
_atom_site_type_symbol
_atom_site_label
_atom_site_fract_x
_atom_site_fract_y
_atom_site_fract_z
Si Si1 0.999805 0.015830 0.273488
Si Si2 0.684606 0.728300 0.981912
Si Si3 0.158233 0.094797 0.921332
Si Si4 0.986118 0.303214 0.776089
Si Si5 0.673479 0.099993 0.775739
Si Si6 0.503381 0.632608 0.257507
Si Si7 0.035550 0.289377 0.494378
Si Si8 0.803849 0.732143 0.569148
O O1 0.932396 0.979683 0.248422
O O2 0.276608 0.801114 0.293094
O O3 0.979278 0.180347 0.507719
O O4 0.814895 0.098863 0.050508
O O5 0.776094 0.757175 0.035839
O O6 0.809134 0.702753 0.224070
O O7 0.754977 0.534956 0.780493
O O8 0.394119 0.916770 0.888322
O O9 0.971790 0.271972 0.845682
O O10 0.211905 0.169548 0.194353
O O11 0.487012 0.286134 0.722010
O O12 0.474308 0.135775 0.634134
O O13 0.866215 0.916155 0.662605
O O14 0.751331 0.492702 0.450359
O O15 0.500000 0.500000 0.000000
O O16 0.090433 0.251837 0.373592
O O17 0.000000 0.500000 0.500000
#
# Coordination Sequence:
#
# PCOD8036394 Si02
#       8
#     2   2   2   2   2   2   2   2
#     4  12  27  47  72 109 151 197 237 305 361 442
#     4  11  26  49  78 106 137 196 253 303 356 435
#     4  12  25  50  73 106 152 190 248 298 364 435
#     4  11  28  49  72 105 146 197 250 295 362 427
#     4  12  24  44  71 106 148 183 238 298 366 428
#     4  12  26  43  68 109 148 191 235 292 375 437
#     4  12  23  45  72 110 144 182 238 301 370 424
#     4  12  23  42  74 113 143 186 233 305 369 427
#
# _framework density 24.128587
#
# number of rings (size 3 to 8) (size 9 to 14) (size 15 to 20)
#    0.000    0.250    5.000    3.750    1.750    2.500 
#    0.000    0.000    0.000    0.000    0.000    0.000 
#    0.000    0.000    0.000    0.000    0.000    0.000 
#
# Total GULP energy -198343.339211 kJ/mol
# GULP energy per Si atom -12396.458701 kJ/mol
# Density = 2.407367 g / cm^3
# Si number density = 24.128587 Si / 1000 Ang^3
#
#
#
# Elastic Constant Matrix: (Units=GPa)
#
#
# Indices 1 2 3 4 5 6 
#
# 1 69.2901 13.8509 13.3563 11.3163 0.9609 -0.4607
# 2 13.8509 113.3858 35.4288 13.2558 13.2051 -5.1380
# 3 13.3563 35.4288 109.3680 23.4731 4.1442 6.2329
# 4 11.3163 13.2558 23.4731 44.8980 2.8386 3.4549
# 5 0.9609 13.2051 4.1442 2.8386 38.0137 0.6394
# 6 -0.4607 -5.1380 6.2329 3.4549 0.6394 37.2597
#
#
#
# Elastic Compliance Matrix: (Units=1/GPa)
#
#
# Indices 1 2 3 4 5 6 
#
# 1 0.015354 -0.001275 -0.000832 -0.003115 0.000371 0.000436
# 2 -0.001275 0.010522 -0.002998 -0.001175 -0.003244 0.002101
# 3 -0.000832 -0.002998 0.011323 -0.004693 0.000210 -0.001886
# 4 -0.003115 -0.001175 -0.004693 0.026056 -0.000917 -0.001816
# 5 0.000371 -0.003244 0.000210 -0.000917 0.027484 -0.000865
# 6 0.000436 0.002101 -0.001886 -0.001816 -0.000865 0.027633
#
#
# Mechanical properties :
#
#
# Convention : Reuss Voigt Hill
#
# Bulk Modulus (GPa) = 37.05138 46.36844 41.70991
# Shear Modulus (GPa) = 36.34324 39.32814 37.83569
#
# Velocity S-wave (km/s) = 3.88523 4.04163 3.96420
# Velocity P-wave (km/s) = 5.95952 6.40614 6.18686
#
# Compressibility (1/GPa) = 0.02698955
#
# Stress axis : x y z
#
# Youngs Moduli (GPa) = 65.13009 95.03789 88.31645
#
# Poissons Ratio (x) = 0.12115 0.07351
# Poissons Ratio (y) = 0.08302 0.26474
# Poissons Ratio (z) = 0.05421 0.28488
#
# Static dielectric constant tensor:
#      x y z
#    x 4.498110 0.203620 0.167750 
#    y 0.203620 4.982850 0.315860 
#    z 0.167750 0.315860 4.182840 
# 
# 
# High freq. dielectric constant tensor:
#      x y z
#    x 1.971120 0.008850 0.002860 
#    y 0.008850 1.974000 0.015420 
#    z 0.002860 0.015420 1.953920 
# 
# From -- ./inp_files/467206.got.cif
#   From: 2010.06.25/outbox.cif.g09.slc.cpg/sg2_234_cif.got.tgz:467206.got - 2010.06.27 13:26:56.
