data_PCOD8036134
_publ_section_title
;
Structure prediction by ZEFSAII (Michael W. Deem and Ramdas Pophale) SiO2 
 PCOD8036134
Probable space group: P -1
;
_chemical_formula_sum "Si O2"
_cell_formula_units_Z 14
_cell_length_a 13.819740
_cell_length_b 14.266878
_cell_length_c 25.922663
_cell_angle_alpha 24.906149
_cell_angle_beta 20.902726
_cell_angle_gamma 20.761457
_cell_volume 623.348336
_symmetry_space_group_name_H-M "P -1"
_symmetry_group_IT_number 2
_symmetry_cell_setting 'triclinic'
loop_
_space_group_symop_operation_xyz
x,y,z
-x,-y,-z
loop_
_atom_site_type_symbol
_atom_site_label
_atom_site_fract_x
_atom_site_fract_y
_atom_site_fract_z
Si Si1 0.922897 0.978384 0.490692
Si Si2 0.840324 0.788880 0.908557
Si Si3 0.652530 0.070858 0.434663
Si Si4 0.070442 0.204383 0.919708
Si Si5 0.099440 0.554728 0.539111
Si Si6 0.819710 0.839612 0.229047
Si Si7 0.779778 0.766215 0.832120
O O1 0.194876 0.682807 0.474661
O O2 0.567723 0.031653 0.636069
O O3 0.000000 0.000000 0.500000
O O4 0.920538 0.209276 0.344348
O O5 0.731556 0.785812 0.906731
O O6 0.073095 0.895237 0.742802
O O7 0.000000 0.500000 0.000000
O O8 0.500000 0.000000 0.000000
O O9 0.390582 0.354857 0.453445
O O10 0.500000 0.000000 0.500000
O O11 0.801078 0.816517 0.526423
O O12 0.048101 0.291743 0.827696
O O13 0.867693 0.476630 0.917512
O O14 0.452451 0.005711 0.845726
O O15 0.873763 0.072874 0.093923
O O16 0.980494 0.388308 0.711620
#
# Coordination Sequence:
#
# PCOD8036134 Si02
#       7
#     2   2   2   2   2   2   2
#     4  12  25  45  79 109 147 193 244 291 366 438
#     4  12  27  48  73 104 142 186 241 306 364 427
#     4  12  28  50  77 105 145 191 250 309 366 428
#     4  11  28  44  70 106 152 190 233 293 370 436
#     4  12  25  47  76 108 147 187 250 301 359 434
#     4  11  26  45  71 107 151 190 239 293 362 442
#     4  12  26  47  72 104 145 190 243 298 359 439
#
# _framework density 22.459351999999999
#
# number of rings (size 3 to 8) (size 9 to 14) (size 15 to 20)
#    0.000    0.286    4.286    3.000    6.000    5.714 
#    0.000    0.000    0.000    0.000    0.000    0.000 
#    0.000    0.000    0.000    0.000    0.000    0.000 
#
# Total GULP energy -173587.042321 kJ/mol
# GULP energy per Si atom -12399.074452 kJ/mol
# Density = 2.240823 g / cm^3
# Si number density = 22.459352 Si / 1000 Ang^3
#
#
#
# Elastic Constant Matrix: (Units=GPa)
#
#
# Indices 1 2 3 4 5 6 
#
# 1 127.8995 78.1045 87.6459 -6.9675 8.5135 37.1495
# 2 78.1045 147.3509 54.7776 -8.3024 -1.8422 22.4792
# 3 87.6459 54.7776 160.8299 0.6550 7.4313 4.3127
# 4 -6.9675 -8.3024 0.6550 26.3468 -9.0078 5.0801
# 5 8.5135 -1.8422 7.4313 -9.0078 46.4348 -5.0484
# 6 37.1495 22.4792 4.3127 5.0801 -5.0484 49.4240
#
#
#
# Elastic Compliance Matrix: (Units=1/GPa)
#
#
# Indices 1 2 3 4 5 6 
#
# 1 0.023321 -0.006009 -0.010136 0.006271 -0.003295 -0.014893
# 2 -0.006009 0.010276 -0.000323 0.002375 0.002003 -0.000168
# 3 -0.010136 -0.000323 0.011682 -0.004500 -0.000114 0.007197
# 4 0.006271 0.002375 -0.004500 0.044768 0.007343 -0.009252
# 5 -0.003295 0.002003 -0.000114 0.007343 0.024018 0.003274
# 6 -0.014893 -0.000168 0.007197 -0.009252 0.003274 0.032161
#
#
# Mechanical properties :
#
#
# Convention : Reuss Voigt Hill
#
# Bulk Modulus (GPa) = 81.02016 97.45960 89.23988
# Shear Modulus (GPa) = 27.28092 38.81128 33.04610
#
# Velocity S-wave (km/s) = 3.48901 4.16151 3.84001
# Velocity P-wave (km/s) = 7.23763 8.15959 7.71240
#
# Compressibility (1/GPa) = 0.01234261
#
# Stress axis : x y z
#
# Youngs Moduli (GPa) = 42.87963 97.31066 85.59996
#
# Poissons Ratio (x) = 0.58477 0.86767
# Poissons Ratio (y) = 0.25767 0.02765
# Poissons Ratio (z) = 0.43464 0.03143
#
# Static dielectric constant tensor:
#      x y z
#    x 5.621360 -0.061870 0.290880 
#    y -0.061870 4.174640 -0.178700 
#    z 0.290880 -0.178700 4.318630 
# 
# 
# High freq. dielectric constant tensor:
#      x y z
#    x 1.897220 0.012460 0.010840 
#    y 0.012460 1.893150 -0.008830 
#    z 0.010840 -0.008830 1.900610 
# 
# From -- ./inp_files/619622.got.cif
#   From: 2010.06.25/outbox.cif.g09.slc.cpg/sg2_310_cif.got.tgz:619622.got - 2010.06.27 13:26:56.
