data_PCOD8036592
_publ_section_title
;
Structure prediction by ZEFSAII (Michael W. Deem and Ramdas Pophale) SiO2 
 PCOD8036592
Probable space group: P -1
;
_chemical_formula_sum "Si O2"
_cell_formula_units_Z 16
_cell_length_a 14.594920
_cell_length_b 13.536673
_cell_length_c 6.619728
_cell_angle_alpha 109.811259
_cell_angle_beta 121.119768
_cell_angle_gamma 42.322795
_cell_volume 751.730802
_symmetry_space_group_name_H-M "P -1"
_symmetry_group_IT_number 2
_symmetry_cell_setting 'triclinic'
loop_
_space_group_symop_operation_xyz
x,y,z
-x,-y,-z
loop_
_atom_site_type_symbol
_atom_site_label
_atom_site_fract_x
_atom_site_fract_y
_atom_site_fract_z
Si Si1 0.155464 0.342467 0.623964
Si Si2 0.133045 0.848346 0.657868
Si Si3 0.105108 0.134753 0.509052
Si Si4 0.744985 0.108310 0.815017
Si Si5 0.598784 0.738186 0.893063
Si Si6 0.332382 0.985337 0.999513
Si Si7 0.636740 0.838953 0.631631
Si Si8 0.417681 0.664014 0.566484
O O1 0.128873 0.241862 0.592168
O O2 0.259009 0.278755 0.502366
O O3 0.000000 0.500000 0.500000
O O4 0.232453 0.359272 0.900401
O O5 0.284775 0.736037 0.624733
O O6 0.067066 0.775695 0.570805
O O7 0.155769 0.883759 0.927804
O O8 0.000000 0.000000 0.500000
O O9 0.213035 0.016570 0.729914
O O10 0.148985 0.044365 0.292068
O O11 0.643911 0.247997 0.651578
O O12 0.641888 0.108592 0.845088
O O13 0.583799 0.778337 0.667667
O O14 0.540438 0.659132 0.798690
O O15 0.491985 0.889136 0.004515
O O16 0.273446 0.140414 0.108568
O O17 0.500000 0.000000 0.500000
O O18 0.500000 0.500000 0.500000
#
# Coordination Sequence:
#
# PCOD8036592 Si02
#       8
#     2   2   2   2   2   2   2   2
#     4  12  29  46  67 107 146 185 226 281 359 420
#     4  12  24  45  72 104 141 182 237 289 338 409
#     4  12  24  44  71 105 140 182 236 286 341 412
#     4  12  22  43  77 101 138 184 235 285 346 403
#     4  12  24  46  70 100 145 178 235 288 338 421
#     4  12  21  41  74 106 134 176 240 291 333 405
#     4  12  23  40  78 105 133 183 228 287 349 403
#     4  12  29  47  68 106 141 184 233 288 349 408
#
# _framework density 21.284215
#
# number of rings (size 3 to 8) (size 9 to 14) (size 15 to 20)
#    0.000    0.000    8.750    2.250    0.000    3.000 
#    2.250    0.000    0.000    0.000    0.000    0.000 
#    0.000    0.000    0.000    0.000    0.000    0.000 
#
# Total GULP energy -198416.904290 kJ/mol
# GULP energy per Si atom -12401.056518 kJ/mol
# Density = 2.123577 g / cm^3
# Si number density = 21.284215 Si / 1000 Ang^3
#
#
#
# Elastic Constant Matrix: (Units=GPa)
#
#
# Indices 1 2 3 4 5 6 
#
# 1 161.4973 57.9160 55.9124 0.3723 -0.2870 -5.2229
# 2 57.9160 122.3897 53.8435 -2.2269 1.3672 -6.2458
# 3 55.9124 53.8435 134.6497 -2.2696 5.4082 -4.9854
# 4 0.3723 -2.2269 -2.2696 29.3190 -0.9925 2.2476
# 5 -0.2870 1.3672 5.4082 -0.9925 43.5278 2.4269
# 6 -5.2229 -6.2458 -4.9854 2.2476 2.4269 26.0866
#
#
#
# Elastic Compliance Matrix: (Units=1/GPa)
#
#
# Indices 1 2 3 4 5 6 
#
# 1 0.007973 -0.002793 -0.002198 -0.000511 0.000373 0.000517
# 2 -0.002793 0.010966 -0.003162 0.000513 -0.000037 0.001421
# 3 -0.002198 -0.003162 0.009685 0.000443 -0.001149 0.000722
# 4 -0.000511 0.000513 0.000443 0.034443 0.000875 -0.002944
# 5 0.000373 -0.000037 -0.001149 0.000875 0.023274 -0.002394
# 6 0.000517 0.001421 0.000722 -0.002944 -0.002394 0.039392
#
#
# Mechanical properties :
#
#
# Convention : Reuss Voigt Hill
#
# Bulk Modulus (GPa) = 81.19589 83.76447 82.48018
# Shear Modulus (GPa) = 34.21256 36.51100 35.36178
#
# Velocity S-wave (km/s) = 4.01361 4.14624 4.08046
# Velocity P-wave (km/s) = 7.72722 7.89698 7.81256
#
# Compressibility (1/GPa) = 0.01231589
#
# Stress axis : x y z
#
# Youngs Moduli (GPa) = 125.41763 91.19230 103.25744
#
# Poissons Ratio (x) = 0.25470 0.22701
# Poissons Ratio (y) = 0.35029 0.32655
# Poissons Ratio (z) = 0.27573 0.28839
#
# Static dielectric constant tensor:
#      x y z
#    x 4.199820 0.112020 0.114630 
#    y 0.112020 3.553580 0.060030 
#    z 0.114630 0.060030 4.252920 
# 
# 
# High freq. dielectric constant tensor:
#      x y z
#    x 1.858830 0.001550 0.003000 
#    y 0.001550 1.793050 0.007550 
#    z 0.003000 0.007550 1.858870 
# 
# From -- ./inp_files/98510.got.cif
#   From: 2010.06.25/outbox.cif.g09.slc.cpg/sg2_50_cif.got.tgz:98510.got - 2010.06.27 13:26:56.
