data_PCOD8036147
_publ_section_title
;
Structure prediction by ZEFSAII (Michael W. Deem and Ramdas Pophale) SiO2 
 PCOD8036147
Probable space group: P -1
;
_chemical_formula_sum "Si O2"
_cell_formula_units_Z 14
_cell_length_a 8.511017
_cell_length_b 5.193776
_cell_length_c 19.520338
_cell_angle_alpha 113.777126
_cell_angle_beta 43.995745
_cell_angle_gamma 97.652982
_cell_volume 531.524117
_symmetry_space_group_name_H-M "P -1"
_symmetry_group_IT_number 2
_symmetry_cell_setting 'triclinic'
loop_
_space_group_symop_operation_xyz
x,y,z
-x,-y,-z
loop_
_atom_site_type_symbol
_atom_site_label
_atom_site_fract_x
_atom_site_fract_y
_atom_site_fract_z
Si Si1 0.649960 0.513428 0.814218
Si Si2 0.827897 0.807701 0.408412
Si Si3 0.296326 0.469731 0.710562
Si Si4 0.216293 0.529254 0.481417
Si Si5 0.186294 0.131217 0.092085
Si Si6 0.929989 0.717566 0.107934
Si Si7 0.617853 0.964278 0.122510
O O1 0.623818 0.762780 0.909835
O O2 0.562505 0.232785 0.830513
O O3 0.914915 0.401351 0.699163
O O4 0.505299 0.700582 0.818583
O O5 0.674042 0.770557 0.386029
O O6 0.730141 0.701963 0.497830
O O7 0.840919 0.139173 0.440535
O O8 0.544963 0.550853 0.646795
O O9 0.234200 0.350357 0.789569
O O10 0.074792 0.720132 0.783513
O O11 0.000000 0.500000 0.500000
O O12 0.217441 0.197233 0.009176
O O13 0.170456 0.793011 0.068231
O O14 0.766137 0.993060 0.147075
O O15 0.000000 0.500000 0.000000
#
# Coordination Sequence:
#
# PCOD8036147 Si02
#       7
#     2   2   2   2   2   2   2
#     4  11  27  45  77 106 153 198 252 312 379 435
#     4  11  27  52  78 113 151 198 256 308 379 462
#     4  11  28  47  80 107 153 204 250 310 381 451
#     4  12  28  52  81 115 149 189 254 325 387 445
#     4  11  26  45  72 106 152 203 257 301 371 459
#     4  12  27  47  72 111 159 203 256 306 372 451
#     4  12  25  45  72 109 156 201 249 310 369 440
#
# _framework density 26.339351000000001
#
# number of rings (size 3 to 8) (size 9 to 14) (size 15 to 20)
#    0.000    0.571    1.429    4.286   14.000    1.143 
#    0.000    0.000    0.000    0.000    0.000    0.000 
#    0.000    0.000    0.000    0.000    0.000    0.000 
#
# Total GULP energy -173545.255157 kJ/mol
# GULP energy per Si atom -12396.089654 kJ/mol
# Density = 2.627940 g / cm^3
# Si number density = 26.339351 Si / 1000 Ang^3
#
#
#
# Elastic Constant Matrix: (Units=GPa)
#
#
# Indices 1 2 3 4 5 6 
#
# 1 110.8965 25.8654 28.6007 -25.9561 7.6545 14.4551
# 2 25.8654 120.3750 26.3392 -25.8612 8.0043 14.5852
# 3 28.6007 26.3392 83.4531 -39.7070 7.8824 2.4716
# 4 -25.9561 -25.8612 -39.7070 52.3950 -1.4954 -4.3644
# 5 7.6545 8.0043 7.8824 -1.4954 40.4538 -7.9032
# 6 14.4551 14.5852 2.4716 -4.3644 -7.9032 45.6777
#
#
#
# Elastic Compliance Matrix: (Units=1/GPa)
#
#
# Indices 1 2 3 4 5 6 
#
# 1 0.010985 -0.000725 -0.001528 0.003600 -0.002127 -0.003186
# 2 -0.000725 0.009915 -0.000913 0.003541 -0.002084 -0.002909
# 3 -0.001528 -0.000913 0.019463 0.013510 -0.002717 0.000543
# 4 0.003600 0.003541 0.013510 0.032743 -0.002876 -0.000370
# 5 -0.002127 -0.002084 -0.002717 -0.002876 0.027110 0.005901
# 6 -0.003186 -0.002909 0.000543 -0.000370 0.005901 0.024786
#
#
# Mechanical properties :
#
#
# Convention : Reuss Voigt Hill
#
# Bulk Modulus (GPa) = 29.38466 52.92612 41.15539
# Shear Modulus (GPa) = 35.04391 43.29993 39.17192
#
# Velocity S-wave (km/s) = 3.65153 4.05893 3.86061
# Velocity P-wave (km/s) = 5.38132 6.48877 5.96082
#
# Compressibility (1/GPa) = 0.03403136
#
# Stress axis : x y z
#
# Youngs Moduli (GPa) = 91.03033 100.85985 51.37890
#
# Poissons Ratio (x) = 0.07315 0.07849
# Poissons Ratio (y) = 0.06602 0.04691
# Poissons Ratio (z) = 0.13907 0.09209
#
# Static dielectric constant tensor:
#      x y z
#    x 5.558170 0.067820 -0.258700 
#    y 0.067820 4.827970 0.143190 
#    z -0.258700 0.143190 5.093220 
# 
# 
# High freq. dielectric constant tensor:
#      x y z
#    x 2.068910 0.012080 -0.007540 
#    y 0.012080 2.068400 0.006350 
#    z -0.007540 0.006350 2.072960 
# 
# From -- ./inp_files/585818.got.cif
#   From: 2010.06.25/outbox.cif.g09.slc.cpg/sg2_293_cif.got.tgz:585818.got - 2010.06.27 13:26:56.
