data_PCOD8036937
_publ_section_title
;
Structure prediction by ZEFSAII (Michael W. Deem and Ramdas Pophale) SiO2 
 PCOD8036937
Probable space group: P -1
;
_chemical_formula_sum "Si O2"
_cell_formula_units_Z 14
_cell_length_a 8.787071
_cell_length_b 9.812255
_cell_length_c 15.030385
_cell_angle_alpha 141.065879
_cell_angle_beta 115.444275
_cell_angle_gamma 87.605397
_cell_volume 630.250862
_symmetry_space_group_name_H-M "P -1"
_symmetry_group_IT_number 2
_symmetry_cell_setting 'triclinic'
loop_
_space_group_symop_operation_xyz
x,y,z
-x,-y,-z
loop_
_atom_site_type_symbol
_atom_site_label
_atom_site_fract_x
_atom_site_fract_y
_atom_site_fract_z
Si Si1 0.599352 0.576719 0.470094
Si Si2 0.604571 0.102157 0.170201
Si Si3 0.613490 0.366650 0.997716
Si Si4 0.006203 0.251198 0.604445
Si Si5 0.970013 0.120147 0.325961
Si Si6 0.823939 0.541936 0.974186
Si Si7 0.646101 0.254309 0.614578
O O1 0.500000 0.500000 0.500000
O O2 0.564415 0.325219 0.288172
O O3 0.488601 0.698242 0.458473
O O4 0.831636 0.781185 0.630840
O O5 0.834847 0.191347 0.268834
O O6 0.500000 0.000000 0.000000
O O7 0.527672 0.903015 0.130853
O O8 0.788011 0.521541 0.191459
O O9 0.500000 0.500000 0.000000
O O10 0.690137 0.326636 0.903273
O O11 0.004926 0.260930 0.501544
O O12 0.819516 0.249653 0.600865
O O13 0.000000 0.000000 0.500000
O O14 0.872096 0.817442 0.159160
O O15 0.733596 0.484300 0.824030
O O16 0.000000 0.500000 0.000000
O O17 0.500000 0.000000 0.500000
#
# Coordination Sequence:
#
# PCOD8036937 Si02
#       7
#     2   2   2   2   2   2   2
#     4  12  29  48  72 108 145 188 239 301 368 425
#     4  12  27  50  73 104 148 194 239 293 361 440
#     4  12  26  44  77 108 142 190 248 294 355 427
#     4  12  23  45  72 111 141 186 242 300 353 425
#     4  12  26  48  74 103 146 193 243 293 360 438
#     4  12  24  45  71 111 144 183 244 306 353 414
#     4  12  28  45  75 107 147 189 243 300 359 422
#
# _framework density 22.213380000000001
#
# number of rings (size 3 to 8) (size 9 to 14) (size 15 to 20)
#    0.000    0.000    4.286    4.714   10.000    1.143 
#    0.000    2.143    0.000    0.000    0.000    0.000 
#    0.000    0.000    0.000    0.000    0.000    0.000 
#
# Total GULP energy -173505.491986 kJ/mol
# GULP energy per Si atom -12393.249428 kJ/mol
# Density = 2.216282 g / cm^3
# Si number density = 22.213380 Si / 1000 Ang^3
#
#
#
# Elastic Constant Matrix: (Units=GPa)
#
#
# Indices 1 2 3 4 5 6 
#
# 1 169.6845 69.4046 52.6779 -16.2365 9.4005 -6.3916
# 2 69.4046 142.6552 36.3215 -11.0171 6.4665 -10.1832
# 3 52.6779 36.3215 90.3295 -13.0799 -0.1145 -8.0016
# 4 -16.2365 -11.0171 -13.0799 47.5465 -2.5943 1.5706
# 5 9.4005 6.4665 -0.1145 -2.5943 39.9146 -0.4336
# 6 -6.3916 -10.1832 -8.0016 1.5706 -0.4336 49.5296
#
#
#
# Elastic Compliance Matrix: (Units=1/GPa)
#
#
# Indices 1 2 3 4 5 6 
#
# 1 0.008422 -0.003057 -0.003536 0.001122 -0.001427 -0.000161
# 2 -0.003057 0.009084 -0.001691 0.000518 -0.000710 0.001177
# 3 -0.003536 -0.001691 0.014283 0.002354 0.001316 0.001440
# 4 0.001122 0.000518 0.002354 0.022245 0.001104 -0.000064
# 5 -0.001427 -0.000710 0.001316 0.001104 0.025581 0.000071
# 6 -0.000161 0.001177 0.001440 -0.000064 0.000071 0.020647
#
#
# Mechanical properties :
#
#
# Convention : Reuss Voigt Hill
#
# Bulk Modulus (GPa) = 65.70277 79.94191 72.82234
# Shear Modulus (GPa) = 41.01605 43.68249 42.34927
#
# Velocity S-wave (km/s) = 4.30170 4.43933 4.37106
# Velocity P-wave (km/s) = 7.36988 7.89577 7.63735
#
# Compressibility (1/GPa) = 0.01522006
#
# Stress axis : x y z
#
# Youngs Moduli (GPa) = 118.73959 110.08084 70.01469
#
# Poissons Ratio (x) = 0.33655 0.24754
# Poissons Ratio (y) = 0.36302 0.11843
# Poissons Ratio (z) = 0.41982 0.18620
#
# Static dielectric constant tensor:
#      x y z
#    x 4.264400 0.111760 0.091780 
#    y 0.111760 4.200450 -0.077040 
#    z 0.091780 -0.077040 4.310520 
# 
# 
# High freq. dielectric constant tensor:
#      x y z
#    x 1.901540 -0.004600 0.004220 
#    y -0.004600 1.886350 -0.005180 
#    z 0.004220 -0.005180 1.880780 
# 
# From -- ./inp_files/159266.got.cif
#   From: 2010.06.25/outbox.cif.g09.slc.cpg/sg2_80_cif.got.tgz:159266.got - 2010.06.27 13:26:56.
