data_PCOD8036254
_publ_section_title
;
Structure prediction by ZEFSAII (Michael W. Deem and Ramdas Pophale) SiO2 
 PCOD8036254
Probable space group: P -1
;
_chemical_formula_sum "Si O2"
_cell_formula_units_Z 16
_cell_length_a 8.343743
_cell_length_b 13.212358
_cell_length_c 12.683855
_cell_angle_alpha 43.403064
_cell_angle_beta 118.802120
_cell_angle_gamma 93.604750
_cell_volume 740.013115
_symmetry_space_group_name_H-M "P -1"
_symmetry_group_IT_number 2
_symmetry_cell_setting 'triclinic'
loop_
_space_group_symop_operation_xyz
x,y,z
-x,-y,-z
loop_
_atom_site_type_symbol
_atom_site_label
_atom_site_fract_x
_atom_site_fract_y
_atom_site_fract_z
Si Si1 0.593444 0.973878 0.383074
Si Si2 0.546495 0.752430 0.037990
Si Si3 0.254797 0.584876 0.344241
Si Si4 0.154387 0.907827 0.938830
Si Si5 0.922480 0.753119 0.272502
Si Si6 0.649940 0.436228 0.194401
Si Si7 0.264703 0.926947 0.440724
Si Si8 0.895457 0.666945 0.569839
O O1 0.410560 0.934601 0.389569
O O2 0.748397 0.831835 0.462223
O O3 0.720007 0.983447 0.516432
O O4 0.493164 0.150177 0.158350
O O5 0.764630 0.721723 0.175817
O O6 0.556159 0.574726 0.152141
O O7 0.371606 0.852504 0.992099
O O8 0.500000 0.500000 0.500000
O O9 0.196576 0.461119 0.354623
O O10 0.151215 0.625725 0.396734
O O11 0.159165 0.756749 0.119875
O O12 0.121175 0.055786 0.897051
O O13 0.973907 0.972259 0.745851
O O14 0.907613 0.714437 0.417770
O O15 0.667512 0.266236 0.373865
O O16 0.874401 0.413458 0.246489
O O17 0.500000 0.500000 0.000000
#
# Coordination Sequence:
#
# PCOD8036254 Si02
#       8
#     2   2   2   2   2   2   2   2
#     4  11  26  47  72 103 144 186 235 291 354 422
#     4  12  25  45  72 106 143 185 238 288 356 423
#     4  12  29  45  70 109 147 184 237 291 355 417
#     4  12  27  44  74 102 139 192 234 289 351 425
#     4  12  25  49  69 102 144 189 233 290 357 423
#     4  12  26  46  74 104 141 186 235 299 350 417
#     4  11  26  49  72 104 142 185 236 292 354 420
#     4  12  27  46  72 103 145 188 236 294 352 422
#
# _framework density 21.62124
#
# number of rings (size 3 to 8) (size 9 to 14) (size 15 to 20)
#    0.000    0.250    5.000    2.625    8.750    1.000 
#    0.000    1.250    0.000    0.000    0.000    0.000 
#    0.000    0.000    0.000    0.000    0.000    0.000 
#
# Total GULP energy -198521.407412 kJ/mol
# GULP energy per Si atom -12407.587963 kJ/mol
# Density = 2.157203 g / cm^3
# Si number density = 21.621240 Si / 1000 Ang^3
#
#
#
# Elastic Constant Matrix: (Units=GPa)
#
#
# Indices 1 2 3 4 5 6 
#
# 1 105.8055 41.2262 27.9625 -7.5797 8.2902 -4.5280
# 2 41.2262 119.3689 36.8251 -18.6536 -1.8807 0.2789
# 3 27.9625 36.8251 103.2644 -11.0529 -5.4738 0.9683
# 4 -7.5797 -18.6536 -11.0529 38.4225 1.4251 -5.5102
# 5 8.2902 -1.8807 -5.4738 1.4251 36.5232 -8.8384
# 6 -4.5280 0.2789 0.9683 -5.5102 -8.8384 43.8010
#
#
#
# Elastic Compliance Matrix: (Units=1/GPa)
#
#
# Indices 1 2 3 4 5 6 
#
# 1 0.011593 -0.003372 -0.002072 0.000265 -0.002956 0.000703
# 2 -0.003372 0.010949 -0.002527 0.003936 0.000871 0.000309
# 3 -0.002072 -0.002527 0.011423 0.001598 0.002028 0.000160
# 4 0.000265 0.003936 0.001598 0.028966 0.000132 0.003638
# 5 -0.002956 0.000871 0.002028 0.000132 0.029766 0.005667
# 6 0.000703 0.000309 0.000160 0.003638 0.005667 0.024499
#
#
# Mechanical properties :
#
#
# Convention : Reuss Voigt Hill
#
# Bulk Modulus (GPa) = 55.47978 60.05182 57.76580
# Shear Modulus (GPa) = 35.93351 38.57768 37.25559
#
# Velocity S-wave (km/s) = 4.08113 4.22862 4.15553
# Velocity P-wave (km/s) = 6.92265 7.18863 7.05689
#
# Compressibility (1/GPa) = 0.01802458
#
# Stress axis : x y z
#
# Youngs Moduli (GPa) = 86.25739 91.32852 87.54105
#
# Poissons Ratio (x) = 0.30793 0.18137
# Poissons Ratio (y) = 0.29083 0.22123
# Poissons Ratio (z) = 0.17872 0.23080
#
# Static dielectric constant tensor:
#      x y z
#    x 4.897340 0.287350 -1.328480 
#    y 0.287350 4.206310 -0.337540 
#    z -1.328480 -0.337540 6.261660 
# 
# 
# High freq. dielectric constant tensor:
#      x y z
#    x 1.859050 0.007850 0.004030 
#    y 0.007850 1.866430 -0.009320 
#    z 0.004030 -0.009320 1.861100 
# 
# From -- ./inp_files/188785.got.cif
#   From: 2010.06.25/outbox.cif.g09.slc.cpg/sg2_95_cif.got.tgz:188785.got - 2010.06.27 13:26:56.
