data_PCOD8036628
_publ_section_title
;
Structure prediction by ZEFSAII (Michael W. Deem and Ramdas Pophale) SiO2 
 PCOD8036628
Probable space group: P -1
;
_chemical_formula_sum "Si O2"
_cell_formula_units_Z 16
_cell_length_a 14.507855
_cell_length_b 12.408489
_cell_length_c 9.699883
_cell_angle_alpha 47.611903
_cell_angle_beta 109.704594
_cell_angle_gamma 71.521183
_cell_volume 755.693491
_symmetry_space_group_name_H-M "P -1"
_symmetry_group_IT_number 2
_symmetry_cell_setting 'triclinic'
loop_
_space_group_symop_operation_xyz
x,y,z
-x,-y,-z
loop_
_atom_site_type_symbol
_atom_site_label
_atom_site_fract_x
_atom_site_fract_y
_atom_site_fract_z
Si Si1 0.876742 0.042639 0.826133
Si Si2 0.889227 0.046006 0.507609
Si Si3 0.615252 0.996421 0.104973
Si Si4 0.571759 0.511187 0.907425
Si Si5 0.537710 0.527785 0.349819
Si Si6 0.163158 0.229821 0.842649
Si Si7 0.621990 0.975677 0.633565
Si Si8 0.837146 0.776306 0.659781
O O1 0.930952 0.977352 0.749217
O O2 0.704883 0.303232 0.553966
O O3 0.884715 0.868679 0.033075
O O4 0.000000 0.000000 0.000000
O O5 0.862208 0.920152 0.530226
O O6 0.749277 0.328542 0.199732
O O7 0.000000 0.000000 0.500000
O O8 0.737622 0.904166 0.130242
O O9 0.727001 0.835275 0.432895
O O10 0.500000 0.000000 0.000000
O O11 0.488603 0.269520 0.834686
O O12 0.590941 0.393066 0.881931
O O13 0.475742 0.766427 0.602696
O O14 0.500000 0.500000 0.000000
O O15 0.500000 0.500000 0.500000
O O16 0.000000 0.500000 0.500000
O O17 0.277592 0.187508 0.040435
O O18 0.500000 0.000000 0.500000
O O19 0.747018 0.863028 0.679854
O O20 0.000000 0.500000 0.000000
#
# Coordination Sequence:
#
# PCOD8036628 Si02
#       8
#     2   2   2   2   2   2   2   2
#     4  12  28  47  72 108 145 189 240 299 363 429
#     4  12  28  47  74 107 140 192 244 297 364 428
#     4  12  27  45  72 110 141 191 244 291 360 430
#     4  12  21  47  73  96 138 186 243 299 348 417
#     4  12  23  45  74 100 141 187 239 298 353 419
#     4  12  26  49  69 104 153 190 233 296 363 431
#     4  12  25  46  73 104 138 192 241 293 361 427
#     4  12  26  47  69 103 149 186 234 303 358 429
#
# _framework density 21.172605999999998
#
# number of rings (size 3 to 8) (size 9 to 14) (size 15 to 20)
#    0.000    0.000    7.500    1.500    7.000    1.000 
#    0.000    0.000    0.000    0.000    0.000    0.000 
#    0.000    0.000    0.000    0.000    0.000    0.000 
#
# Total GULP energy -198245.506804 kJ/mol
# GULP energy per Si atom -12390.344175 kJ/mol
# Density = 2.112442 g / cm^3
# Si number density = 21.172606 Si / 1000 Ang^3
#
#
#
# Elastic Constant Matrix: (Units=GPa)
#
#
# Indices 1 2 3 4 5 6 
#
# 1 88.3230 49.5588 46.2339 -21.2384 3.8043 -3.1567
# 2 49.5588 125.9108 60.0844 0.4978 -6.0369 3.9375
# 3 46.2339 60.0844 161.3287 -9.6376 2.8358 11.6105
# 4 -21.2384 0.4978 -9.6376 42.8844 0.2279 3.6856
# 5 3.8043 -6.0369 2.8358 0.2279 29.9238 7.8004
# 6 -3.1567 3.9375 11.6105 3.6856 7.8004 49.6646
#
#
#
# Elastic Compliance Matrix: (Units=1/GPa)
#
#
# Indices 1 2 3 4 5 6 
#
# 1 0.018528 -0.006394 -0.002513 0.008511 -0.004066 0.002279
# 2 -0.006394 0.012067 -0.002889 -0.003890 0.003811 -0.000997
# 3 -0.002513 -0.002889 0.008182 0.000787 -0.000573 -0.001812
# 4 0.008511 -0.003890 0.000787 0.027861 -0.001865 -0.001109
# 5 -0.004066 0.003811 -0.000573 -0.001865 0.036335 -0.005995
# 6 0.002279 -0.000997 -0.001812 -0.001109 -0.005995 0.021806
#
#
# Mechanical properties :
#
#
# Convention : Reuss Voigt Hill
#
# Bulk Modulus (GPa) = 65.85137 76.36853 71.10995
# Shear Modulus (GPa) = 32.58755 39.14026 35.86390
#
# Velocity S-wave (km/s) = 3.92744 4.30423 4.12015
# Velocity P-wave (km/s) = 7.19278 7.80062 7.50286
#
# Compressibility (1/GPa) = 0.01518571
#
# Stress axis : x y z
#
# Youngs Moduli (GPa) = 53.97211 82.87251 122.21639
#
# Poissons Ratio (x) = 0.52985 0.30710
# Poissons Ratio (y) = 0.34507 0.35313
# Poissons Ratio (z) = 0.13562 0.23945
#
# Static dielectric constant tensor:
#      x y z
#    x 4.116830 0.145580 -0.020550 
#    y 0.145580 4.166070 0.118580 
#    z -0.020550 0.118580 4.190690 
# 
# 
# High freq. dielectric constant tensor:
#      x y z
#    x 1.831230 -0.008400 0.002470 
#    y -0.008400 1.851640 0.004580 
#    z 0.002470 0.004580 1.847690 
# 
# From -- ./inp_files/227717.got.cif
#   From: 2010.06.25/outbox.cif.g09.slc.cpg/sg2_114_cif.got.tgz:227717.got - 2010.06.27 13:26:56.
