data_PCOD8036953
_publ_section_title
;
Structure prediction by ZEFSAII (Michael W. Deem and Ramdas Pophale) SiO2 
 PCOD8036953
Probable space group: P -1
;
_chemical_formula_sum "Si O2"
_cell_formula_units_Z 16
_cell_length_a 15.456862
_cell_length_b 12.419348
_cell_length_c 5.252049
_cell_angle_alpha 56.215535
_cell_angle_beta 90.924415
_cell_angle_gamma 66.977423
_cell_volume 734.367871
_symmetry_space_group_name_H-M "P -1"
_symmetry_group_IT_number 2
_symmetry_cell_setting 'triclinic'
loop_
_space_group_symop_operation_xyz
x,y,z
-x,-y,-z
loop_
_atom_site_type_symbol
_atom_site_label
_atom_site_fract_x
_atom_site_fract_y
_atom_site_fract_z
Si Si1 0.657878 0.181942 0.960073
Si Si2 0.289074 0.601226 0.130661
Si Si3 0.500682 0.375995 0.343097
Si Si4 0.988458 0.596369 0.623707
Si Si5 0.230149 0.139751 0.720682
Si Si6 0.492917 0.157047 0.258855
Si Si7 0.716539 0.754149 0.923872
Si Si8 0.816198 0.424056 0.348935
O O1 0.697179 0.252014 0.087618
O O2 0.599800 0.322825 0.584097
O O3 0.572008 0.142538 0.074938
O O4 0.749905 0.030236 0.063048
O O5 0.394070 0.453405 0.375334
O O6 0.220399 0.624971 0.340190
O O7 0.235274 0.591655 0.886726
O O8 0.515030 0.225107 0.418764
O O9 0.500000 0.500000 0.000000
O O10 0.884502 0.745285 0.427973
O O11 0.000000 0.500000 0.500000
O O12 0.064896 0.663196 0.546424
O O13 0.000000 0.500000 0.000000
O O14 0.281521 0.168653 0.441183
O O15 0.281353 0.148575 0.970682
O O16 0.381001 0.264644 0.027842
O O17 0.500000 0.000000 0.500000
O O18 0.803876 0.588276 0.160780
#
# Coordination Sequence:
#
# PCOD8036953 Si02
#       8
#     2   2   2   2   2   2   2   2
#     4  12  28  44  67  99 149 190 240 286 359 419
#     4  12  26  44  69 100 139 196 238 288 341 426
#     4  12  25  45  69  99 143 198 248 281 347 430
#     4  12  23  45  75 107 136 176 233 297 372 433
#     4  12  26  46  69 102 144 180 222 296 369 427
#     4  12  25  40  67 103 145 186 235 298 357 423
#     4  12  24  41  68 103 140 178 225 286 361 417
#     4  12  24  43  72 105 136 172 246 295 343 423
#
# _framework density 21.787445000000002
#
# number of rings (size 3 to 8) (size 9 to 14) (size 15 to 20)
#    0.000    0.000    6.250    4.125    1.750    1.000 
#    0.000    1.250    0.000    0.000    0.000    0.000 
#    0.000    0.000    0.000    0.000    0.000    0.000 
#
# Total GULP energy -198319.922324 kJ/mol
# GULP energy per Si atom -12394.995145 kJ/mol
# Density = 2.173786 g / cm^3
# Si number density = 21.787445 Si / 1000 Ang^3
#
#
#
# Elastic Constant Matrix: (Units=GPa)
#
#
# Indices 1 2 3 4 5 6 
#
# 1 116.6468 50.3158 48.5348 -5.0990 6.0512 -10.7290
# 2 50.3158 149.4739 51.3667 1.4051 6.4084 13.4844
# 3 48.5348 51.3667 86.2757 6.1544 -9.6353 -7.2121
# 4 -5.0990 1.4051 6.1544 36.0442 0.0335 -5.5657
# 5 6.0512 6.4084 -9.6353 0.0335 36.1040 -3.6715
# 6 -10.7290 13.4844 -7.2121 -5.5657 -3.6715 39.1333
#
#
#
# Elastic Compliance Matrix: (Units=1/GPa)
#
#
# Indices 1 2 3 4 5 6 
#
# 1 0.012747 -0.002444 -0.006005 0.003459 -0.002958 0.003444
# 2 -0.002444 0.010007 -0.005372 -0.000668 -0.003361 -0.005519
# 3 -0.006005 -0.005372 0.019596 -0.003368 0.007605 0.004051
# 4 0.003459 -0.000668 -0.003368 0.029557 -0.000912 0.004676
# 5 -0.002958 -0.003361 0.007605 -0.000912 0.031284 0.004554
# 6 0.003444 -0.005519 0.004051 0.004676 0.004554 0.030238
#
#
# Mechanical properties :
#
#
# Convention : Reuss Voigt Hill
#
# Bulk Modulus (GPa) = 67.99262 72.53678 70.26470
# Shear Modulus (GPa) = 30.12520 35.73490 32.93005
#
# Velocity S-wave (km/s) = 3.72248 4.05428 3.89192
# Velocity P-wave (km/s) = 7.05343 7.43515 7.24680
#
# Compressibility (1/GPa) = 0.01470748
#
# Stress axis : x y z
#
# Youngs Moduli (GPa) = 78.44932 99.92854 51.03131
#
# Poissons Ratio (x) = 0.24419 0.30645
# Poissons Ratio (y) = 0.19170 0.27416
# Poissons Ratio (z) = 0.47111 0.53686
#
# Static dielectric constant tensor:
#      x y z
#    x 4.518780 -0.096880 0.216370 
#    y -0.096880 3.895470 0.351360 
#    z 0.216370 0.351360 3.692280 
# 
# 
# High freq. dielectric constant tensor:
#      x y z
#    x 1.864770 0.000700 0.002530 
#    y 0.000700 1.868900 0.004540 
#    z 0.002530 0.004540 1.847090 
# 
# From -- ./inp_files/94314.got.cif
#   From: 2010.06.25/outbox.cif.g09.slc.cpg/sg2_48_cif.got.tgz:94314.got - 2010.06.27 13:26:56.
