data_PCOD8036885
_publ_section_title
;
Structure prediction by ZEFSAII (Michael W. Deem and Ramdas Pophale) SiO2 
 PCOD8036885
Probable space group: P -1
;
_chemical_formula_sum "Si O2"
_cell_formula_units_Z 14
_cell_length_a 14.091994
_cell_length_b 11.559067
_cell_length_c 11.450446
_cell_angle_alpha 132.966245
_cell_angle_beta 149.991029
_cell_angle_gamma 40.444598
_cell_volume 603.678742
_symmetry_space_group_name_H-M "P -1"
_symmetry_group_IT_number 2
_symmetry_cell_setting 'triclinic'
loop_
_space_group_symop_operation_xyz
x,y,z
-x,-y,-z
loop_
_atom_site_type_symbol
_atom_site_label
_atom_site_fract_x
_atom_site_fract_y
_atom_site_fract_z
Si Si1 0.246990 0.851198 0.167848
Si Si2 0.405802 0.791325 0.036514
Si Si3 0.916201 0.392845 0.754696
Si Si4 0.620894 0.016995 0.387761
Si Si5 0.372471 0.202780 0.047880
Si Si6 0.500561 0.470526 0.238326
Si Si7 0.025804 0.958589 0.362529
O O1 0.368039 0.790357 0.132767
O O2 0.366357 0.932775 0.430640
O O3 0.286533 0.663284 0.140596
O O4 0.000000 0.000000 0.000000
O O5 0.601886 0.833891 0.245977
O O6 0.445648 0.607027 0.890258
O O7 0.205109 0.957619 0.882049
O O8 0.700817 0.498126 0.520054
O O9 0.872359 0.255356 0.693251
O O10 0.000000 0.500000 0.000000
O O11 0.119061 0.281201 0.807531
O O12 0.422464 0.185671 0.228953
O O13 0.834554 0.967642 0.506744
O O14 0.463300 0.329121 0.178258
O O15 0.500000 0.000000 0.000000
O O16 0.000000 0.000000 0.500000
#
# Coordination Sequence:
#
# PCOD8036885 Si02
#       7
#     2   2   2   2   2   2   2
#     4  12  29  51  72 101 151 205 248 305 362 430
#     4  12  25  48  76 102 149 200 248 291 363 448
#     4  12  26  41  69 114 151 180 232 308 378 434
#     4  12  24  45  77 107 148 193 241 304 370 435
#     4  12  24  44  78 115 146 187 236 307 381 437
#     4  12  27  47  75 109 148 190 252 302 365 444
#     4  12  23  43  77 110 148 189 238 301 378 440
#
# _framework density 23.191144000000001
#
# number of rings (size 3 to 8) (size 9 to 14) (size 15 to 20)
#    0.000    0.000    7.143    2.571    2.000    1.143 
#    2.571    0.714    0.000    0.000    0.000    0.000 
#    0.000    0.000    0.000    0.000    0.000    0.000 
#
# Total GULP energy -173493.581095 kJ/mol
# GULP energy per Si atom -12392.398650 kJ/mol
# Density = 2.313836 g / cm^3
# Si number density = 23.191144 Si / 1000 Ang^3
#
#
#
# Elastic Constant Matrix: (Units=GPa)
#
#
# Indices 1 2 3 4 5 6 
#
# 1 109.0909 32.0126 60.1297 9.4423 2.3249 -2.6597
# 2 32.0126 146.9831 69.1909 0.5933 3.2474 -0.9585
# 3 60.1297 69.1909 145.1020 7.3395 -5.5117 2.1559
# 4 9.4423 0.5933 7.3395 42.5254 -2.7180 3.8753
# 5 2.3249 3.2474 -5.5117 -2.7180 50.1325 1.8954
# 6 -2.6597 -0.9585 2.1559 3.8753 1.8954 22.8474
#
#
#
# Elastic Compliance Matrix: (Units=1/GPa)
#
#
# Indices 1 2 3 4 5 6 
#
# 1 0.012227 -0.000306 -0.004895 -0.002162 -0.001291 0.002346
# 2 -0.000306 0.008860 -0.004175 0.000534 -0.001017 0.000724
# 3 -0.004895 -0.004175 0.011029 -0.000478 0.001754 -0.001850
# 4 -0.002162 0.000534 -0.000478 0.024575 0.001515 -0.004478
# 5 -0.001291 -0.001017 0.001754 0.001515 0.020435 -0.002311
# 6 0.002346 0.000724 -0.001850 -0.004478 -0.002311 0.045198
#
#
# Mechanical properties :
#
#
# Convention : Reuss Voigt Hill
#
# Bulk Modulus (GPa) = 74.82576 80.42696 77.62636
# Shear Modulus (GPa) = 34.35692 39.09058 36.72375
#
# Velocity S-wave (km/s) = 3.85316 4.11004 3.98367
# Velocity P-wave (km/s) = 7.22015 7.56826 7.39625
#
# Compressibility (1/GPa) = 0.01336438
#
# Stress axis : x y z
#
# Youngs Moduli (GPa) = 81.78937 112.86262 90.66833
#
# Poissons Ratio (x) = 0.03453 0.44385
# Poissons Ratio (y) = 0.02502 0.37850
# Poissons Ratio (z) = 0.40038 0.47116
#
# Static dielectric constant tensor:
#      x y z
#    x 4.149750 -0.148400 -0.131900 
#    y -0.148400 4.236770 -0.038330 
#    z -0.131900 -0.038330 4.775030 
# 
# 
# High freq. dielectric constant tensor:
#      x y z
#    x 1.912020 -0.004700 -0.004880 
#    y -0.004700 1.913840 0.010860 
#    z -0.004880 0.010860 1.933310 
# 
# From -- ./inp_files/451852.got.cif
#   From: 2010.06.25/outbox.cif.g09.slc.cpg/sg2_226_cif.got.tgz:451852.got - 2010.06.27 13:26:56.
