data_PCOD8036986
_publ_section_title
;
Structure prediction by ZEFSAII (Michael W. Deem and Ramdas Pophale) SiO2 
 PCOD8036986
Probable space group: P -1
;
_chemical_formula_sum "Si O2"
_cell_formula_units_Z 16
_cell_length_a 9.584014
_cell_length_b 11.927238
_cell_length_c 7.823095
_cell_angle_alpha 54.377255
_cell_angle_beta 89.146361
_cell_angle_gamma 78.701697
_cell_volume 707.289994
_symmetry_space_group_name_H-M "P -1"
_symmetry_group_IT_number 2
_symmetry_cell_setting 'triclinic'
loop_
_space_group_symop_operation_xyz
x,y,z
-x,-y,-z
loop_
_atom_site_type_symbol
_atom_site_label
_atom_site_fract_x
_atom_site_fract_y
_atom_site_fract_z
Si Si1 0.907681 0.301503 0.082357
Si Si2 0.540618 0.836130 0.675608
Si Si3 0.374288 0.439567 0.615891
Si Si4 0.133662 0.938946 0.926713
Si Si5 0.615519 0.392188 0.201249
Si Si6 0.890503 0.535483 0.619851
Si Si7 0.149787 0.186133 0.447823
Si Si8 0.540136 0.137347 0.955820
O O1 0.909358 0.200483 0.012469
O O2 0.754099 0.330808 0.143954
O O3 0.024366 0.218568 0.284074
O O4 0.938850 0.445527 0.872560
O O5 0.457631 0.742124 0.639211
O O6 0.709537 0.794158 0.672938
O O7 0.500000 0.000000 0.500000
O O8 0.496538 0.822040 0.883455
O O9 0.500000 0.500000 0.500000
O O10 0.330345 0.519149 0.726733
O O11 0.256464 0.489718 0.429051
O O12 0.432581 0.270323 0.752980
O O13 0.154907 0.038219 0.676613
O O14 0.288784 0.887785 0.062911
O O15 0.000000 0.000000 0.000000
O O16 0.500000 0.500000 0.000000
O O17 0.881422 0.699142 0.505632
O O18 0.000000 0.500000 0.500000
O O19 0.500000 0.000000 0.000000
#
# Coordination Sequence:
#
# PCOD8036986 Si02
#       8
#     2   2   2   2   2   2   2   2
#     4  12  26  47  70 104 140 187 241 291 355 420
#     4  12  25  46  73 104 142 181 242 292 348 427
#     4  12  26  44  73 104 140 186 233 293 358 416
#     4  12  26  49  70 104 146 183 237 293 352 432
#     4  12  23  46  74 102 140 186 239 295 350 423
#     4  12  27  46  67 105 144 185 235 290 356 421
#     4  12  26  46  73 104 139 192 233 292 356 420
#     4  12  27  46  71 106 143 187 233 295 358 421
#
# _framework density 22.621556000000002
#
# number of rings (size 3 to 8) (size 9 to 14) (size 15 to 20)
#    0.000    0.000    3.750    6.000    5.250    1.000 
#    0.000    0.000    0.000    0.000    0.000    0.000 
#    0.000    0.000    0.000    0.000    0.000    0.000 
#
# Total GULP energy -198248.454480 kJ/mol
# GULP energy per Si atom -12390.528405 kJ/mol
# Density = 2.257007 g / cm^3
# Si number density = 22.621556 Si / 1000 Ang^3
#
#
#
# Elastic Constant Matrix: (Units=GPa)
#
#
# Indices 1 2 3 4 5 6 
#
# 1 117.0458 28.8575 7.0171 2.2370 -5.3279 -21.8106
# 2 28.8575 128.9205 3.1683 -13.0855 3.7033 -4.8720
# 3 7.0171 3.1683 75.1102 -15.5688 -0.6749 -1.5492
# 4 2.2370 -13.0855 -15.5688 39.8540 1.6846 -5.6790
# 5 -5.3279 3.7033 -0.6749 1.6846 37.1732 6.0854
# 6 -21.8106 -4.8720 -1.5492 -5.6790 6.0854 50.0109
#
#
#
# Elastic Compliance Matrix: (Units=1/GPa)
#
#
# Indices 1 2 3 4 5 6 
#
# 1 0.009929 -0.002202 -0.000988 -0.001166 0.001051 0.003825
# 2 -0.002202 0.008626 0.000518 0.003279 -0.001386 0.000437
# 3 -0.000988 0.000518 0.014658 0.006081 -0.000334 0.000805
# 4 -0.001166 0.003279 0.006081 0.029219 -0.002296 0.003597
# 5 0.001051 -0.001386 -0.000334 -0.002296 0.027834 -0.003334
# 6 0.003825 0.000437 0.000805 0.003597 -0.003334 0.022545
#
#
# Mechanical properties :
#
#
# Convention : Reuss Voigt Hill
#
# Bulk Modulus (GPa) = 35.88228 44.35136 40.11682
# Shear Modulus (GPa) = 39.23290 44.20986 41.72138
#
# Velocity S-wave (km/s) = 4.16903 4.42557 4.29921
# Velocity P-wave (km/s) = 6.25067 6.76480 6.51281
#
# Compressibility (1/GPa) = 0.02786891
#
# Stress axis : x y z
#
# Youngs Moduli (GPa) = 100.71870 115.92786 68.22122
#
# Poissons Ratio (x) = 0.25529 0.06740
# Poissons Ratio (y) = 0.22179 -0.03535
# Poissons Ratio (z) = 0.09951 -0.06006
#
# Static dielectric constant tensor:
#      x y z
#    x 4.117870 0.144510 -0.123960 
#    y 0.144510 4.923850 -0.627410 
#    z -0.123960 -0.627410 4.054720 
# 
# 
# High freq. dielectric constant tensor:
#      x y z
#    x 1.907260 -0.004930 -0.000240 
#    y -0.004930 1.919720 -0.010700 
#    z -0.000240 -0.010700 1.891280 
# 
# From -- ./inp_files/184182.got.cif
#   From: 2010.06.25/outbox.cif.g09.slc.cpg/sg2_93_cif.got.tgz:184182.got - 2010.06.27 13:26:56.
