data_PCOD8036874
_publ_section_title
;
Structure prediction by ZEFSAII (Michael W. Deem and Ramdas Pophale) SiO2 
 PCOD8036874
Probable space group: P -1
;
_chemical_formula_sum "Si O2"
_cell_formula_units_Z 16
_cell_length_a 11.802439
_cell_length_b 11.318592
_cell_length_c 5.031256
_cell_angle_alpha 95.594735
_cell_angle_beta 102.513450
_cell_angle_gamma 93.568803
_cell_volume 650.610327
_symmetry_space_group_name_H-M "P -1"
_symmetry_group_IT_number 2
_symmetry_cell_setting 'triclinic'
loop_
_space_group_symop_operation_xyz
x,y,z
-x,-y,-z
loop_
_atom_site_type_symbol
_atom_site_label
_atom_site_fract_x
_atom_site_fract_y
_atom_site_fract_z
Si Si1 0.312529 0.991718 0.714724
Si Si2 0.908367 0.303207 0.788004
Si Si3 0.413063 0.749683 0.584451
Si Si4 0.863173 0.510247 0.461905
Si Si5 0.340536 0.142448 0.241091
Si Si6 0.286142 0.649638 0.999012
Si Si7 0.066060 0.899708 0.648961
Si Si8 0.882111 0.736504 0.832558
O O1 0.370655 0.882379 0.584649
O O2 0.191852 0.960539 0.810103
O O3 0.298410 0.079795 0.480079
O O4 0.385117 0.058044 0.009196
O O5 0.837570 0.410870 0.657767
O O6 0.896908 0.194596 0.563867
O O7 0.827220 0.271278 0.003214
O O8 0.046170 0.337042 0.929470
O O9 0.552291 0.760111 0.622818
O O10 0.378004 0.697532 0.839871
O O11 0.360279 0.658985 0.311368
O O12 0.777814 0.478684 0.158717
O O13 0.840711 0.644855 0.558408
O O14 0.000000 0.500000 0.500000
O O15 0.229954 0.209084 0.091206
O O16 0.982360 0.840789 0.823733
O O17 0.000000 0.000000 0.500000
#
# Coordination Sequence:
#
# PCOD8036874 Si02
#       8
#     2   2   2   2   2   2   2   2
#     4  12  24  44  72 101 144 193 243 290 353 431
#     4  12  23  43  73 105 141 187 237 299 357 432
#     4  12  25  47  76 101 141 192 248 294 348 421
#     4  12  24  44  73 110 141 187 242 299 361 427
#     4  12  28  47  67 106 146 192 242 294 352 433
#     4  12  24  46  75 106 134 179 247 303 351 415
#     4  12  24  41  67 107 153 185 228 294 374 437
#     4  12  27  43  70 107 154 189 233 298 370 430
#
# _framework density 24.592296000000001
#
# number of rings (size 3 to 8) (size 9 to 14) (size 15 to 20)
#    0.000    0.000    6.250    4.125    1.750    1.000 
#    0.000    1.250    0.000    0.000    0.000    0.000 
#    0.000    0.000    0.000    0.000    0.000    0.000 
#
# Total GULP energy -198225.410342 kJ/mol
# GULP energy per Si atom -12389.088146 kJ/mol
# Density = 2.453632 g / cm^3
# Si number density = 24.592296 Si / 1000 Ang^3
#
#
#
# Elastic Constant Matrix: (Units=GPa)
#
#
# Indices 1 2 3 4 5 6 
#
# 1 130.6996 13.3667 22.7545 2.1833 7.0515 21.9552
# 2 13.3667 42.9668 11.0416 7.6708 0.7201 11.7252
# 3 22.7545 11.0416 122.4686 15.9715 5.2084 14.1511
# 4 2.1833 7.6708 15.9715 24.3154 9.3762 7.8863
# 5 7.0515 0.7201 5.2084 9.3762 35.1521 5.5497
# 6 21.9552 11.7252 14.1511 7.8863 5.5497 26.5304
#
#
#
# Elastic Compliance Matrix: (Units=1/GPa)
#
#
# Indices 1 2 3 4 5 6 
#
# 1 0.009185 -0.001155 -0.001127 0.003116 -0.001357 -0.007131
# 2 -0.001155 0.027462 -0.000451 -0.006250 0.002934 -0.009696
# 3 -0.001127 -0.000451 0.009367 -0.005386 0.000663 -0.002402
# 4 0.003116 -0.006250 -0.005386 0.054638 -0.012608 -0.010548
# 5 -0.001357 0.002934 0.000663 -0.012608 0.032489 -0.003576
# 6 -0.007131 -0.009696 -0.002402 -0.010548 -0.003576 0.053044
#
#
# Mechanical properties :
#
#
# Convention : Reuss Voigt Hill
#
# Bulk Modulus (GPa) = 24.66211 43.38453 34.02332
# Shear Modulus (GPa) = 24.37042 33.79773 29.08408
#
# Velocity S-wave (km/s) = 3.15140 3.71121 3.44270
# Velocity P-wave (km/s) = 4.82617 6.00366 5.44682
#
# Compressibility (1/GPa) = 0.04054803
#
# Stress axis : x y z
#
# Youngs Moduli (GPa) = 108.87784 36.41441 106.75593
#
# Poissons Ratio (x) = 0.04206 0.12031
# Poissons Ratio (y) = 0.12577 0.04810
# Poissons Ratio (z) = 0.12270 0.01641
#
# Static dielectric constant tensor:
#      x y z
#    x 4.529170 0.474510 0.014520 
#    y 0.474510 5.456380 -0.194600 
#    z 0.014520 -0.194600 4.716620 
# 
# 
# High freq. dielectric constant tensor:
#      x y z
#    x 1.979150 0.026720 -0.001830 
#    y 0.026720 1.962040 0.012000 
#    z -0.001830 0.012000 1.988380 
# 
# From -- ./inp_files/67321.got.cif
#   From: 2010.06.25/outbox.cif.g09.slc.cpg/sg2_34_cif.got.tgz:67321.got - 2010.06.27 13:26:56.
