data_PCOD8036550
_publ_section_title
;
Structure prediction by ZEFSAII (Michael W. Deem and Ramdas Pophale) SiO2 
 PCOD8036550
Probable space group: P -1
;
_chemical_formula_sum "Si O2"
_cell_formula_units_Z 14
_cell_length_a 24.795771
_cell_length_b 24.344031
_cell_length_c 13.670471
_cell_angle_alpha 20.830507
_cell_angle_beta 22.042715
_cell_angle_gamma 11.736619
_cell_volume 588.890666
_symmetry_space_group_name_H-M "P -1"
_symmetry_group_IT_number 2
_symmetry_cell_setting 'triclinic'
loop_
_space_group_symop_operation_xyz
x,y,z
-x,-y,-z
loop_
_atom_site_type_symbol
_atom_site_label
_atom_site_fract_x
_atom_site_fract_y
_atom_site_fract_z
Si Si1 0.753666 0.288793 0.492685
Si Si2 0.415570 0.428076 0.401482
Si Si3 0.034950 0.566031 0.059831
Si Si4 0.485307 0.924559 0.048089
Si Si5 0.068026 0.111638 0.677547
Si Si6 0.988132 0.336225 0.640885
Si Si7 0.561102 0.284935 0.012014
O O1 0.500000 0.500000 0.500000
O O2 0.694649 0.243488 0.763637
O O3 0.822047 0.402437 0.212748
O O4 0.000000 0.000000 0.500000
O O5 0.478860 0.290177 0.628844
O O6 0.446502 0.584756 0.102777
O O7 0.111712 0.666895 0.481138
O O8 0.617215 0.170786 0.409937
O O9 0.975570 0.534755 0.316352
O O10 0.255003 0.258360 0.146248
O O11 0.777688 0.814663 0.008947
O O12 0.500000 0.000000 0.000000
O O13 0.968832 0.298127 0.625649
O O14 0.000000 0.000000 0.000000
O O15 0.742758 0.500253 0.848442
O O16 0.263336 0.025187 0.742076
#
# Coordination Sequence:
#
# PCOD8036550 Si02
#       7
#     2   2   2   2   2   2   2
#     4  12  28  52  79 104 131 182 247 311 373 420
#     4  12  22  37  62  96 136 187 241 277 322 404
#     4  12  26  47  71 105 146 186 238 299 356 422
#     4  12  24  42  68 102 151 193 237 282 346 421
#     4  12  21  35  58  97 147 189 231 268 327 419
#     4  12  25  42  67 104 146 187 224 285 357 415
#     4  12  24  44  70 100 137 180 233 293 350 427
#
# _framework density 23.773515
#
# number of rings (size 3 to 8) (size 9 to 14) (size 15 to 20)
#    0.000    0.000    4.286    6.857    2.000    0.000 
#    0.000    4.286    0.000    0.000    0.000    0.000 
#    0.000    0.000    0.000    0.000    0.000    0.000 
#
# Total GULP energy -173566.453443 kJ/mol
# GULP energy per Si atom -12397.603817 kJ/mol
# Density = 2.371941 g / cm^3
# Si number density = 23.773515 Si / 1000 Ang^3
#
#
#
# Elastic Constant Matrix: (Units=GPa)
#
#
# Indices 1 2 3 4 5 6 
#
# 1 62.6782 47.9359 28.1429 -1.9742 5.3218 -4.3438
# 2 47.9359 177.5865 39.1554 3.3209 3.8945 -11.9158
# 3 28.1429 39.1554 135.8336 -0.5470 20.6089 -1.5956
# 4 -1.9742 3.3209 -0.5470 42.1727 -2.5530 13.7794
# 5 5.3218 3.8945 20.6089 -2.5530 22.4540 4.9985
# 6 -4.3438 -11.9158 -1.5956 13.7794 4.9985 47.3780
#
#
#
# Elastic Compliance Matrix: (Units=1/GPa)
#
#
# Indices 1 2 3 4 5 6 
#
# 1 0.021267 -0.005107 -0.002671 0.001123 -0.001670 0.000425
# 2 -0.005107 0.007388 -0.001121 -0.001367 0.000423 0.001705
# 3 -0.002671 -0.001121 0.009481 -0.000685 -0.008142 0.000851
# 4 0.001123 -0.001367 -0.000685 0.027054 0.005617 -0.008725
# 5 -0.001670 0.000423 -0.008142 0.005617 0.054689 -0.007724
# 6 0.000425 0.001705 0.000851 -0.008725 -0.007724 0.024956
#
#
# Mechanical properties :
#
#
# Convention : Reuss Voigt Hill
#
# Bulk Modulus (GPa) = 49.17356 67.39631 58.28494
# Shear Modulus (GPa) = 29.51403 39.79190 34.65296
#
# Velocity S-wave (km/s) = 3.52727 4.09564 3.82203
# Velocity P-wave (km/s) = 6.10884 7.12577 6.63681
#
# Compressibility (1/GPa) = 0.02033613
#
# Stress axis : x y z
#
# Youngs Moduli (GPa) = 47.02226 135.36292 105.47432
#
# Poissons Ratio (x) = 0.69136 0.28172
# Poissons Ratio (y) = 0.24016 0.11824
# Poissons Ratio (z) = 0.12560 0.15175
#
# Static dielectric constant tensor:
#      x y z
#    x 3.370190 0.026730 0.551320 
#    y 0.026730 5.016880 0.604960 
#    z 0.551320 0.604960 5.289900 
# 
# 
# High freq. dielectric constant tensor:
#      x y z
#    x 1.910790 0.001950 0.011370 
#    y 0.001950 1.961010 -0.001240 
#    z 0.011370 -0.001240 1.969020 
# 
# From -- ./inp_files/544562.got.cif
#   From: 2010.06.25/outbox.cif.g09.slc.cpg/sg2_273_cif.got.tgz:544562.got - 2010.06.27 13:26:56.
