data_PCOD8036165
_publ_section_title
;
Structure prediction by ZEFSAII (Michael W. Deem and Ramdas Pophale) SiO2 
 PCOD8036165
Probable space group: P -1
;
_chemical_formula_sum "Si O2"
_cell_formula_units_Z 14
_cell_length_a 9.308122
_cell_length_b 8.227814
_cell_length_c 16.179755
_cell_angle_alpha 110.262371
_cell_angle_beta 37.277679
_cell_angle_gamma 124.438638
_cell_volume 605.498021
_symmetry_space_group_name_H-M "P -1"
_symmetry_group_IT_number 2
_symmetry_cell_setting 'triclinic'
loop_
_space_group_symop_operation_xyz
x,y,z
-x,-y,-z
loop_
_atom_site_type_symbol
_atom_site_label
_atom_site_fract_x
_atom_site_fract_y
_atom_site_fract_z
Si Si1 0.448636 0.230961 0.314871
Si Si2 0.996329 0.142081 0.617165
Si Si3 0.231698 0.351586 0.148985
Si Si4 0.803899 0.040428 0.861069
Si Si5 0.062212 0.826772 0.909876
Si Si6 0.741481 0.658387 0.172418
Si Si7 0.800436 0.387771 0.647191
O O1 0.625134 0.120013 0.211120
O O2 0.623966 0.458713 0.244322
O O3 0.320504 0.228491 0.463948
O O4 0.182211 0.101094 0.355556
O O5 0.962346 0.183718 0.735234
O O6 0.865475 0.226040 0.626347
O O7 0.152163 0.465216 0.272059
O O8 0.990287 0.232457 0.172092
O O9 0.254176 0.184319 0.161132
O O10 0.500000 0.500000 0.000000
O O11 0.997926 0.153009 0.869921
O O12 0.500000 0.000000 0.000000
O O13 0.859504 0.632545 0.025936
O O14 0.000000 0.000000 0.000000
O O15 0.508709 0.715588 0.267214
O O16 0.000000 0.500000 0.500000
#
# Coordination Sequence:
#
# PCOD8036165 Si02
#       7
#     2   2   2   2   2   2   2
#     4  11  26  45  75 107 146 203 245 310 381 446
#     4  11  26  48  73 107 154 193 251 311 376 455
#     4  12  27  46  74 109 150 195 251 313 377 442
#     4  12  28  47  74 113 151 196 254 319 376 450
#     4  12  25  48  74 112 148 198 253 313 373 453
#     4  12  25  47  77 107 151 196 255 306 378 448
#     4  12  26  50  76 109 151 198 253 307 383 450
#
# _framework density 23.121461
#
# number of rings (size 3 to 8) (size 9 to 14) (size 15 to 20)
#    0.000    0.286    4.286    3.857    6.000    1.714 
#    0.000    1.429    0.000    0.000    0.000    0.000 
#    0.000    0.000    0.000    0.000    0.000    0.000 
#
# Total GULP energy -173517.027245 kJ/mol
# GULP energy per Si atom -12394.073375 kJ/mol
# Density = 2.306884 g / cm^3
# Si number density = 23.121461 Si / 1000 Ang^3
#
#
#
# Elastic Constant Matrix: (Units=GPa)
#
#
# Indices 1 2 3 4 5 6 
#
# 1 110.2091 28.1768 70.5285 3.4387 -1.3969 -0.6678
# 2 28.1768 90.2471 40.3154 -0.4520 -3.2111 -0.7161
# 3 70.5285 40.3154 201.6018 7.5850 3.3777 -9.1050
# 4 3.4387 -0.4520 7.5850 37.3575 -2.0182 4.7869
# 5 -1.3969 -3.2111 3.3777 -2.0182 50.8332 3.1731
# 6 -0.6678 -0.7161 -9.1050 4.7869 3.1731 37.2441
#
#
#
# Elastic Compliance Matrix: (Units=1/GPa)
#
#
# Indices 1 2 3 4 5 6 
#
# 1 0.012066 -0.002038 -0.003849 -0.000227 0.000498 -0.000777
# 2 -0.002038 0.012586 -0.001870 0.000825 0.000923 -0.000437
# 3 -0.003849 -0.001870 0.006827 -0.001331 -0.000843 0.001807
# 4 -0.000227 0.000825 -0.001331 0.027662 0.001482 -0.003995
# 5 0.000498 0.000923 -0.000843 0.001482 0.019988 -0.002073
# 6 -0.000777 -0.000437 0.001807 -0.003995 -0.002073 0.027959
#
#
# Mechanical properties :
#
#
# Convention : Reuss Voigt Hill
#
# Bulk Modulus (GPa) = 62.63471 75.56660 69.10066
# Shear Modulus (GPa) = 39.08595 42.62277 40.85436
#
# Velocity S-wave (km/s) = 4.11598 4.29817 4.20807
# Velocity P-wave (km/s) = 7.05242 7.57534 7.31855
#
# Compressibility (1/GPa) = 0.01596559
#
# Stress axis : x y z
#
# Youngs Moduli (GPa) = 82.87556 79.45409 146.48731
#
# Poissons Ratio (x) = 0.16190 0.56378
# Poissons Ratio (y) = 0.16887 0.27397
# Poissons Ratio (z) = 0.31896 0.14860
#
# Static dielectric constant tensor:
#      x y z
#    x 4.180980 0.009750 0.122350 
#    y 0.009750 4.557550 -0.054650 
#    z 0.122350 -0.054650 4.573020 
# 
# 
# High freq. dielectric constant tensor:
#      x y z
#    x 1.915620 -0.009760 0.006070 
#    y -0.009760 1.912220 -0.009520 
#    z 0.006070 -0.009520 1.935010 
# 
# From -- ./inp_files/224034.got.cif
#   From: 2010.06.25/outbox.cif.g09.slc.cpg/sg2_113_cif.got.tgz:224034.got - 2010.06.27 13:26:56.
