data_PCOD8036604
_publ_section_title
;
Structure prediction by ZEFSAII (Michael W. Deem and Ramdas Pophale) SiO2 
 PCOD8036604
Probable space group: P -1
;
_chemical_formula_sum "Si O2"
_cell_formula_units_Z 14
_cell_length_a 8.630799
_cell_length_b 15.886910
_cell_length_c 12.297066
_cell_angle_alpha 150.025595
_cell_angle_beta 127.872984
_cell_angle_gamma 64.759473
_cell_volume 640.800109
_symmetry_space_group_name_H-M "P -1"
_symmetry_group_IT_number 2
_symmetry_cell_setting 'triclinic'
loop_
_space_group_symop_operation_xyz
x,y,z
-x,-y,-z
loop_
_atom_site_type_symbol
_atom_site_label
_atom_site_fract_x
_atom_site_fract_y
_atom_site_fract_z
Si Si1 0.498758 0.812867 0.746264
Si Si2 0.069683 0.605991 0.402561
Si Si3 0.326674 0.319908 0.750212
Si Si4 0.916805 0.167866 0.128334
Si Si5 0.096222 0.242921 0.067209
Si Si6 0.460191 0.096108 0.377723
Si Si7 0.170239 0.017722 0.499533
O O1 0.279662 0.687145 0.526181
O O2 0.666485 0.753965 0.825046
O O3 0.533922 0.806148 0.625175
O O4 0.500000 0.000000 0.000000
O O5 0.055762 0.690916 0.607835
O O6 0.053474 0.402470 0.163428
O O7 0.885693 0.632276 0.281715
O O8 0.343814 0.189781 0.515929
O O9 0.311545 0.211330 0.738058
O O10 0.500000 0.500000 0.000000
O O11 0.038633 0.270320 0.195827
O O12 0.677444 0.101575 0.921379
O O13 0.000000 0.000000 0.000000
O O14 0.954002 0.066760 0.756018
O O15 0.678675 0.091750 0.513546
O O16 0.000000 0.000000 0.500000
#
# Coordination Sequence:
#
# PCOD8036604 Si02
#       7
#     2   2   2   2   2   2   2
#     4  12  23  44  71 100 138 179 225 280 346 407
#     4  12  25  42  69 106 138 174 229 289 341 406
#     4  12  26  46  70 100 138 184 232 283 343 410
#     4  12  21  43  70  99 132 176 230 280 338 407
#     4  12  25  44  68 102 138 179 227 284 342 410
#     4  12  24  43  72  98 132 181 229 277 340 411
#     4  12  27  47  70  99 139 184 233 281 347 412
#
# _framework density 21.847685999999999
#
# number of rings (size 3 to 8) (size 9 to 14) (size 15 to 20)
#    0.000    0.000    5.714    4.714    2.000    1.143 
#    0.000    2.857    0.000    0.000    0.000    0.000 
#    0.000    0.000    0.000    0.000    0.000    0.000 
#
# Total GULP energy -173497.668647 kJ/mol
# GULP energy per Si atom -12392.690618 kJ/mol
# Density = 2.179796 g / cm^3
# Si number density = 21.847686 Si / 1000 Ang^3
#
#
#
# Elastic Constant Matrix: (Units=GPa)
#
#
# Indices 1 2 3 4 5 6 
#
# 1 98.4807 30.0416 16.5321 2.0811 6.8350 -1.0070
# 2 30.0416 114.1927 21.3192 0.9904 1.5258 -19.4568
# 3 16.5321 21.3192 69.7371 3.7488 14.9479 3.3664
# 4 2.0811 0.9904 3.7488 37.7220 -1.5229 10.2634
# 5 6.8350 1.5258 14.9479 -1.5229 38.3864 -5.8750
# 6 -1.0070 -19.4568 3.3664 10.2634 -5.8750 51.3370
#
#
#
# Elastic Compliance Matrix: (Units=1/GPa)
#
#
# Indices 1 2 3 4 5 6 
#
# 1 0.011366 -0.002849 -0.001449 -0.000227 -0.001491 -0.000887
# 2 -0.002849 0.010903 -0.003267 -0.001008 0.002029 0.004724
# 3 -0.001449 -0.003267 0.017353 -0.001024 -0.006867 -0.002986
# 4 -0.000227 -0.001008 -0.001024 0.028282 0.000699 -0.005894
# 5 -0.001491 0.002029 -0.006867 0.000699 0.029617 0.004440
# 6 -0.000887 0.004724 -0.002986 -0.005894 0.004440 0.023134
#
#
# Mechanical properties :
#
#
# Convention : Reuss Voigt Hill
#
# Bulk Modulus (GPa) = 40.82797 46.46625 43.64711
# Shear Modulus (GPa) = 34.73478 39.79023 37.26251
#
# Velocity S-wave (km/s) = 3.99163 4.27225 4.13432
# Velocity P-wave (km/s) = 6.32236 6.75652 6.54304
#
# Compressibility (1/GPa) = 0.02449301
#
# Stress axis : x y z
#
# Youngs Moduli (GPa) = 87.98360 91.71772 57.62785
#
# Poissons Ratio (x) = 0.26129 0.08349
# Poissons Ratio (y) = 0.25065 0.18824
# Poissons Ratio (z) = 0.12748 0.29960
#
# Static dielectric constant tensor:
#      x y z
#    x 5.664130 0.007160 0.893900 
#    y 0.007160 4.293030 0.037860 
#    z 0.893900 0.037860 4.301970 
# 
# 
# High freq. dielectric constant tensor:
#      x y z
#    x 1.880760 -0.004110 0.010240 
#    y -0.004110 1.863950 -0.003130 
#    z 0.010240 -0.003130 1.850880 
# 
# From -- ./inp_files/155342.got.cif
#   From: 2010.06.25/outbox.cif.g09.slc.cpg/sg2_78_cif.got.tgz:155342.got - 2010.06.27 13:26:56.
