data_PCOD8036963
_publ_section_title
;
Structure prediction by ZEFSAII (Michael W. Deem and Ramdas Pophale) SiO2 
 PCOD8036963
Probable space group: P -1
;
_chemical_formula_sum "Si O2"
_cell_formula_units_Z 16
_cell_length_a 28.282001
_cell_length_b 12.864763
_cell_length_c 9.391619
_cell_angle_alpha 143.658227
_cell_angle_beta 153.838728
_cell_angle_gamma 28.565504
_cell_volume 717.989233
_symmetry_space_group_name_H-M "P -1"
_symmetry_group_IT_number 2
_symmetry_cell_setting 'triclinic'
loop_
_space_group_symop_operation_xyz
x,y,z
-x,-y,-z
loop_
_atom_site_type_symbol
_atom_site_label
_atom_site_fract_x
_atom_site_fract_y
_atom_site_fract_z
Si Si1 0.834092 0.422730 0.577003
Si Si2 0.168295 0.087713 0.679210
Si Si3 0.555636 0.546001 0.338551
Si Si4 0.352604 0.214787 0.308950
Si Si5 0.110123 0.554148 0.570535
Si Si6 0.130019 0.152574 0.174785
Si Si7 0.272592 0.853646 0.985525
Si Si8 0.211179 0.811417 0.251721
O O1 0.721007 0.652374 0.598290
O O2 0.865310 0.463622 0.550380
O O3 0.776039 0.287046 0.249481
O O4 0.970209 0.278932 0.878688
O O5 0.047042 0.296749 0.662567
O O6 0.249318 0.895056 0.799930
O O7 0.117309 0.003245 0.325061
O O8 0.263482 0.142864 0.926197
O O9 0.642197 0.630504 0.617895
O O10 0.643185 0.333602 0.441306
O O11 0.500000 0.500000 0.000000
O O12 0.430623 0.725110 0.295870
O O13 0.500000 0.000000 0.500000
O O14 0.164310 0.312949 0.504913
O O15 0.172901 0.649444 0.936007
O O16 0.205261 0.931307 0.225306
O O17 0.191121 0.078920 0.100506
#
# Coordination Sequence:
#
# PCOD8036963 Si02
#       8
#     2   2   2   2   2   2   2   2
#     4  12  23  45  77 106 146 192 243 291 357 440
#     4  12  24  45  75 105 148 185 240 300 360 428
#     4  12  25  48  71 101 144 193 242 290 361 436
#     4  12  24  42  75 113 138 190 250 294 350 434
#     4  12  26  47  73 111 145 189 239 298 368 427
#     4  12  26  47  74 108 149 187 242 298 361 426
#     4  12  23  46  76 102 141 195 242 294 355 434
#     4  12  28  47  70 113 147 186 239 308 361 424
#
# _framework density 22.284457
#
# number of rings (size 3 to 8) (size 9 to 14) (size 15 to 20)
#    0.000    0.000    7.500    2.625    1.750    2.000 
#    0.000    0.625    0.000    0.000    0.000    0.000 
#    0.000    0.000    0.000    0.000    0.000    0.000 
#
# Total GULP energy -198398.957433 kJ/mol
# GULP energy per Si atom -12399.934840 kJ/mol
# Density = 2.223374 g / cm^3
# Si number density = 22.284457 Si / 1000 Ang^3
#
#
#
# Elastic Constant Matrix: (Units=GPa)
#
#
# Indices 1 2 3 4 5 6 
#
# 1 101.6303 46.7803 54.3960 0.1993 9.4416 -11.1194
# 2 46.7803 115.1303 59.8472 2.3475 1.5805 -12.9887
# 3 54.3960 59.8472 118.9357 12.6222 7.2220 0.0703
# 4 0.1993 2.3475 12.6222 39.8122 3.0612 -4.9737
# 5 9.4416 1.5805 7.2220 3.0612 35.3498 1.3821
# 6 -11.1194 -12.9887 0.0703 -4.9737 1.3821 43.9525
#
#
#
# Elastic Compliance Matrix: (Units=1/GPa)
#
#
# Indices 1 2 3 4 5 6 
#
# 1 0.014628 -0.002800 -0.005357 0.002429 -0.003025 0.003252
# 2 -0.002800 0.012987 -0.005458 0.001305 0.001042 0.003253
# 3 -0.005357 -0.005458 0.014127 -0.004512 -0.000684 -0.003480
# 4 0.002429 0.001305 -0.004512 0.027155 -0.002299 0.004153
# 5 -0.003025 0.001042 -0.000684 -0.002299 0.029453 -0.001643
# 6 0.003252 0.003253 -0.003480 0.004153 -0.001643 0.025063
#
#
# Mechanical properties :
#
#
# Convention : Reuss Voigt Hill
#
# Bulk Modulus (GPa) = 68.91213 73.08257 70.99735
# Shear Modulus (GPa) = 32.15854 35.46778 33.81316
#
# Velocity S-wave (km/s) = 3.80293 3.99381 3.89953
# Velocity P-wave (km/s) = 7.09042 7.35757 7.22523
#
# Compressibility (1/GPa) = 0.01451123
#
# Stress axis : x y z
#
# Youngs Moduli (GPa) = 68.36295 77.00176 70.78690
#
# Poissons Ratio (x) = 0.21560 0.37922
# Poissons Ratio (y) = 0.19141 0.38635
# Poissons Ratio (z) = 0.36624 0.42027
#
# Static dielectric constant tensor:
#      x y z
#    x 3.993000 -0.145290 0.165180 
#    y -0.145290 4.210560 0.140470 
#    z 0.165180 0.140470 3.957140 
# 
# 
# High freq. dielectric constant tensor:
#      x y z
#    x 1.876950 -0.007960 0.008330 
#    y -0.007960 1.895140 0.016160 
#    z 0.008330 0.016160 1.868830 
# 
# From -- ./inp_files/357112.got.cif
#   From: 2010.06.25/outbox.cif.g09.slc.cpg/sg2_179_cif.got.tgz:357112.got - 2010.06.27 13:26:56.
