data_PCOD8036679
_publ_section_title
;
Structure prediction by ZEFSAII (Michael W. Deem and Ramdas Pophale) SiO2 
 PCOD8036679
Probable space group: P -1
;
_chemical_formula_sum "Si O2"
_cell_formula_units_Z 16
_cell_length_a 8.985252
_cell_length_b 15.634721
_cell_length_c 9.196693
_cell_angle_alpha 143.019331
_cell_angle_beta 109.453084
_cell_angle_gamma 70.175264
_cell_volume 726.700814
_symmetry_space_group_name_H-M "P -1"
_symmetry_group_IT_number 2
_symmetry_cell_setting 'triclinic'
loop_
_space_group_symop_operation_xyz
x,y,z
-x,-y,-z
loop_
_atom_site_type_symbol
_atom_site_label
_atom_site_fract_x
_atom_site_fract_y
_atom_site_fract_z
Si Si1 0.881390 0.707850 0.357306
Si Si2 0.233497 0.739415 0.437280
Si Si3 0.608437 0.086419 0.059335
Si Si4 0.664887 0.998607 0.643521
Si Si5 0.648421 0.569081 0.921564
Si Si6 0.147938 0.455031 0.589915
Si Si7 0.303912 0.718252 0.105502
Si Si8 0.600940 0.628392 0.682562
O O1 0.887302 0.671888 0.483350
O O2 0.056958 0.699908 0.341255
O O3 0.783599 0.853802 0.459692
O O4 0.793396 0.579412 0.091850
O O5 0.250816 0.870609 0.731914
O O6 0.362113 0.601222 0.331863
O O7 0.275696 0.780649 0.343410
O O8 0.514002 0.227412 0.156361
O O9 0.659499 0.991375 0.806862
O O10 0.500000 0.000000 0.000000
O O11 0.740663 0.142044 0.820677
O O12 0.500000 0.000000 0.500000
O O13 0.699357 0.633409 0.871737
O O14 0.485602 0.648812 0.044634
O O15 0.294150 0.387495 0.447816
O O16 0.000000 0.500000 0.500000
O O17 0.187740 0.599893 0.876568
O O18 0.500000 0.500000 0.500000
#
# Coordination Sequence:
#
# PCOD8036679 Si02
#       8
#     2   2   2   2   2   2   2   2
#     4  12  28  47  72 105 147 191 230 296 361 430
#     4  12  27  44  72 107 144 184 243 292 359 418
#     4  12  25  44  72 103 139 186 240 290 347 427
#     4  12  25  49  73 104 143 187 239 290 358 428
#     4  12  23  44  76 103 139 184 240 297 349 418
#     4  12  27  44  69 109 146 185 239 297 362 415
#     4  12  25  45  74 103 142 192 238 296 350 426
#     4  12  22  42  72 102 135 181 239 297 343 413
#
# _framework density 22.017313999999999
#
# number of rings (size 3 to 8) (size 9 to 14) (size 15 to 20)
#    0.000    0.000    6.250    3.000    5.250    1.000 
#    2.250    0.000    0.000    0.000    0.000    0.000 
#    0.000    0.000    0.000    0.000    0.000    0.000 
#
# Total GULP energy -198335.880492 kJ/mol
# GULP energy per Si atom -12395.992531 kJ/mol
# Density = 2.196720 g / cm^3
# Si number density = 22.017314 Si / 1000 Ang^3
#
#
#
# Elastic Constant Matrix: (Units=GPa)
#
#
# Indices 1 2 3 4 5 6 
#
# 1 91.9413 40.5736 28.4666 -4.5419 -4.0409 11.3759
# 2 40.5736 118.3781 18.4643 -2.3784 0.1090 11.0980
# 3 28.4666 18.4643 93.8506 -19.8279 1.6325 1.7642
# 4 -4.5419 -2.3784 -19.8279 46.8974 5.8808 -3.1324
# 5 -4.0409 0.1090 1.6325 5.8808 35.5539 -7.6465
# 6 11.3759 11.0980 1.7642 -3.1324 -7.6465 38.3013
#
#
#
# Elastic Compliance Matrix: (Units=1/GPa)
#
#
# Indices 1 2 3 4 5 6 
#
# 1 0.014133 -0.004047 -0.003613 -0.000708 0.001332 -0.002651
# 2 -0.004047 0.010126 -0.000762 -0.000223 -0.000823 -0.001879
# 3 -0.003613 -0.000762 0.013058 0.005402 -0.001732 0.000789
# 4 -0.000708 -0.000223 0.005402 0.024116 -0.004061 0.001188
# 5 0.001332 -0.000823 -0.001732 -0.004061 0.030242 0.005628
# 6 -0.002651 -0.001879 0.000789 0.001188 0.005628 0.028625
#
#
# Mechanical properties :
#
#
# Convention : Reuss Voigt Hill
#
# Bulk Modulus (GPa) = 48.84949 53.24211 51.04580
# Shear Modulus (GPa) = 34.72980 38.59490 36.66235
#
# Velocity S-wave (km/s) = 3.97594 4.19135 4.08506
# Velocity P-wave (km/s) = 6.58122 6.90345 6.74426
#
# Compressibility (1/GPa) = 0.02047104
#
# Stress axis : x y z
#
# Youngs Moduli (GPa) = 70.75712 98.75522 76.58287
#
# Poissons Ratio (x) = 0.39969 0.27673
# Poissons Ratio (y) = 0.28638 0.05836
# Poissons Ratio (z) = 0.25568 0.07525
#
# Static dielectric constant tensor:
#      x y z
#    x 3.598560 -0.218110 0.276930 
#    y -0.218110 3.584660 0.315690 
#    z 0.276930 0.315690 3.990290 
# 
# 
# High freq. dielectric constant tensor:
#      x y z
#    x 1.851780 0.010360 -0.002750 
#    y 0.010360 1.885440 -0.008630 
#    z -0.002750 -0.008630 1.879370 
# 
# From -- ./inp_files/209145.got.cif
#   From: 2010.06.25/outbox.cif.g09.slc.cpg/sg2_105_cif.got.tgz:209145.got - 2010.06.27 13:26:56.
