data_PCOD8036274
_publ_section_title
;
Structure prediction by ZEFSAII (Michael W. Deem and Ramdas Pophale) SiO2 
 PCOD8036274
Probable space group: P -1
;
_chemical_formula_sum "Si O2"
_cell_formula_units_Z 14
_cell_length_a 12.081571
_cell_length_b 5.256790
_cell_length_c 10.965380
_cell_angle_alpha 73.608579
_cell_angle_beta 109.606027
_cell_angle_gamma 115.955048
_cell_volume 582.289611
_symmetry_space_group_name_H-M "P -1"
_symmetry_group_IT_number 2
_symmetry_cell_setting 'triclinic'
loop_
_space_group_symop_operation_xyz
x,y,z
-x,-y,-z
loop_
_atom_site_type_symbol
_atom_site_label
_atom_site_fract_x
_atom_site_fract_y
_atom_site_fract_z
Si Si1 0.233820 0.821357 0.725897
Si Si2 0.336651 0.086487 0.973400
Si Si3 0.823984 0.911558 0.545034
Si Si4 0.452840 0.681176 0.804455
Si Si5 0.558092 0.757924 0.578263
Si Si6 0.050975 0.556454 0.331159
Si Si7 0.922093 0.199841 0.945869
O O1 0.338260 0.755258 0.692722
O O2 0.099720 0.565222 0.728625
O O3 0.307256 0.883232 0.873151
O O4 0.215615 0.085177 0.612416
O O5 0.382672 0.408553 0.899448
O O6 0.447068 0.069152 0.106253
O O7 0.206277 0.992642 0.009905
O O8 0.709150 0.859840 0.603208
O O9 0.893274 0.691435 0.608056
O O10 0.920359 0.238391 0.566927
O O11 0.529316 0.635942 0.722038
O O12 0.500000 0.500000 0.500000
O O13 0.500000 0.000000 0.500000
O O14 0.113988 0.745177 0.211385
O O15 0.000000 0.500000 0.000000
O O16 0.000000 0.000000 0.000000
#
# Coordination Sequence:
#
# PCOD8036274 Si02
#       7
#     2   2   2   2   2   2   2
#     4  12  25  46  75 104 155 191 252 306 384 445
#     4  11  26  47  74 110 147 201 254 312 382 448
#     4  12  27  47  75 110 149 194 252 303 378 443
#     4  11  26  47  75 111 150 198 254 316 377 456
#     4  12  25  49  78 107 150 201 250 310 379 445
#     4  12  27  47  75 112 146 197 248 310 370 449
#     4  12  25  49  78 105 149 198 250 309 375 441
#
# _framework density 24.043016999999999
#
# number of rings (size 3 to 8) (size 9 to 14) (size 15 to 20)
#    0.000    0.286    2.857    5.571    4.000    0.000 
#    2.571    0.000    0.000    0.000    0.000    0.000 
#    0.000    0.000    0.000    0.000    0.000    0.000 
#
# Total GULP energy -173529.224782 kJ/mol
# GULP energy per Si atom -12394.944627 kJ/mol
# Density = 2.398829 g / cm^3
# Si number density = 24.043017 Si / 1000 Ang^3
#
#
#
# Elastic Constant Matrix: (Units=GPa)
#
#
# Indices 1 2 3 4 5 6 
#
# 1 150.7045 61.2071 52.1279 3.2985 13.8175 16.8422
# 2 61.2071 136.1496 46.9653 9.1087 14.0565 -3.5177
# 3 52.1279 46.9653 126.8971 7.1397 -3.4302 1.8839
# 4 3.2985 9.1087 7.1397 40.9012 2.4498 1.1531
# 5 13.8175 14.0565 -3.4302 2.4498 44.0984 -8.3804
# 6 16.8422 -3.5177 1.8839 1.1531 -8.3804 53.5210
#
#
#
# Elastic Compliance Matrix: (Units=1/GPa)
#
#
# Indices 1 2 3 4 5 6 
#
# 1 0.009546 -0.003157 -0.002818 0.000701 -0.002924 -0.003585
# 2 -0.003157 0.009923 -0.002369 -0.001463 -0.002002 0.001447
# 3 -0.002818 -0.002369 0.010040 -0.001179 0.002640 0.000816
# 4 0.000701 -0.001463 -0.001179 0.025039 -0.001434 -0.001039
# 5 -0.002924 -0.002002 0.002640 -0.001434 0.025410 0.004705
# 6 -0.003585 0.001447 0.000816 -0.001039 0.004705 0.020638
#
#
# Mechanical properties :
#
#
# Convention : Reuss Voigt Hill
#
# Bulk Modulus (GPa) = 77.99656 81.59464 79.79560
# Shear Modulus (GPa) = 41.13217 44.60085 42.86651
#
# Velocity S-wave (km/s) = 4.14064 4.31169 4.22703
# Velocity P-wave (km/s) = 7.44115 7.66800 7.55543
#
# Compressibility (1/GPa) = 0.01282108
#
# Stress axis : x y z
#
# Youngs Moduli (GPa) = 104.75701 100.77351 99.59667
#
# Poissons Ratio (x) = 0.31813 0.28069
# Poissons Ratio (y) = 0.33071 0.23596
# Poissons Ratio (z) = 0.29523 0.23875
#
# Static dielectric constant tensor:
#      x y z
#    x 4.800620 0.481110 -0.065260 
#    y 0.481110 4.472210 0.219210 
#    z -0.065260 0.219210 4.692340 
# 
# 
# High freq. dielectric constant tensor:
#      x y z
#    x 1.975080 0.018980 -0.004970 
#    y 0.018980 1.951900 0.004940 
#    z -0.004970 0.004940 1.970860 
# 
# From -- ./inp_files/131470.got.cif
#   From: 2010.06.25/outbox.cif.g09.slc.cpg/sg2_66_cif.got.tgz:131470.got - 2010.06.27 13:26:56.
