data_PCOD8036104
_publ_section_title
;
Structure prediction by ZEFSAII (Michael W. Deem and Ramdas Pophale) SiO2 
 PCOD8036104
Probable space group: P -1
;
_chemical_formula_sum "Si O2"
_cell_formula_units_Z 14
_cell_length_a 20.415317
_cell_length_b 10.031883
_cell_length_c 9.586142
_cell_angle_alpha 135.153456
_cell_angle_beta 136.196132
_cell_angle_gamma 26.821816
_cell_volume 599.792437
_symmetry_space_group_name_H-M "P -1"
_symmetry_group_IT_number 2
_symmetry_cell_setting 'triclinic'
loop_
_space_group_symop_operation_xyz
x,y,z
-x,-y,-z
loop_
_atom_site_type_symbol
_atom_site_label
_atom_site_fract_x
_atom_site_fract_y
_atom_site_fract_z
Si Si1 0.893093 0.064820 0.494786
Si Si2 0.889305 0.672282 0.325979
Si Si3 0.613663 0.997791 0.535081
Si Si4 0.376200 0.426321 0.717287
Si Si5 0.010719 0.861995 0.050457
Si Si6 0.458610 0.858871 0.776550
Si Si7 0.678670 0.299300 0.892876
O O1 0.729885 0.300380 0.350113
O O2 0.881590 0.210567 0.723651
O O3 0.935325 0.786069 0.393888
O O4 0.000000 0.000000 0.500000
O O5 0.000000 0.500000 0.500000
O O6 0.713501 0.936063 0.299255
O O7 0.923201 0.446083 0.107981
O O8 0.526894 0.144888 0.657329
O O9 0.514923 0.175658 0.374760
O O10 0.721634 0.012322 0.720948
O O11 0.695519 0.665054 0.408767
O O12 0.416133 0.498837 0.964122
O O13 0.840214 0.140047 0.051648
O O14 0.000000 0.000000 0.000000
O O15 0.582135 0.520429 0.776031
O O16 0.500000 0.000000 0.000000
#
# Coordination Sequence:
#
# PCOD8036104 Si02
#       7
#     2   2   2   2   2   2   2
#     4  12  28  48  74 108 155 195 251 308 376 448
#     4  12  28  49  79 111 153 198 251 308 378 446
#     4  11  26  44  74 102 143 192 242 307 372 435
#     4  11  26  47  68 105 149 189 240 309 372 440
#     4  12  27  45  77 109 148 197 248 305 376 446
#     4  12  26  47  78 110 148 195 258 309 365 445
#     4  12  25  46  74 105 144 191 251 304 367 440
#
# _framework density 23.341408000000001
#
# number of rings (size 3 to 8) (size 9 to 14) (size 15 to 20)
#    0.000    0.286    4.286    3.429    8.000    1.714 
#    0.000    0.000    0.000    0.000    0.000    0.000 
#    0.000    0.000    0.000    0.000    0.000    0.000 
#
# Total GULP energy -173531.386383 kJ/mol
# GULP energy per Si atom -12395.099027 kJ/mol
# Density = 2.328828 g / cm^3
# Si number density = 23.341408 Si / 1000 Ang^3
#
#
#
# Elastic Constant Matrix: (Units=GPa)
#
#
# Indices 1 2 3 4 5 6 
#
# 1 81.9238 13.5932 17.9595 5.4625 4.1013 26.9931
# 2 13.5932 97.3311 20.7446 1.6272 5.7839 29.2083
# 3 17.9595 20.7446 144.7316 11.3426 -10.3837 32.2286
# 4 5.4625 1.6272 11.3426 44.8961 5.6174 4.1653
# 5 4.1013 5.7839 -10.3837 5.6174 43.4869 -0.8857
# 6 26.9931 29.2083 32.2286 4.1653 -0.8857 45.8332
#
#
#
# Elastic Compliance Matrix: (Units=1/GPa)
#
#
# Indices 1 2 3 4 5 6 
#
# 1 0.015343 0.000824 0.000053 -0.000819 -0.001633 -0.009556
# 2 0.000824 0.012918 -0.000221 0.000552 -0.002096 -0.008654
# 3 0.000053 -0.000221 0.008498 -0.001894 0.002183 -0.005652
# 4 -0.000819 0.000552 -0.001894 0.023334 -0.003477 -0.000725
# 5 -0.001633 -0.002096 0.002183 -0.003477 0.024430 0.001551
# 6 -0.009556 -0.008654 -0.005652 -0.000725 0.001551 0.037031
#
#
# Mechanical properties :
#
#
# Convention : Reuss Voigt Hill
#
# Bulk Modulus (GPa) = 26.26582 47.62011 36.94296
# Shear Modulus (GPa) = 37.61315 44.95584 41.28449
#
# Velocity S-wave (km/s) = 4.01862 4.39340 4.21018
# Velocity P-wave (km/s) = 5.72798 6.79572 6.28456
#
# Compressibility (1/GPa) = 0.03807229
#
# Stress axis : x y z
#
# Youngs Moduli (GPa) = 65.17639 77.40960 117.67481
#
# Poissons Ratio (x) = -0.06380 -0.00622
# Poissons Ratio (y) = -0.05372 0.02596
# Poissons Ratio (z) = -0.00345 0.01708
#
# Static dielectric constant tensor:
#      x y z
#    x 4.414320 0.268550 0.300180 
#    y 0.268550 4.423330 0.092300 
#    z 0.300180 0.092300 3.870040 
# 
# 
# High freq. dielectric constant tensor:
#      x y z
#    x 1.931970 0.016190 0.000040 
#    y 0.016190 1.916800 0.005470 
#    z 0.000040 0.005470 1.946030 
# 
# From -- ./inp_files/242305.got.cif
#   From: 2010.06.25/outbox.cif.g09.slc.cpg/sg2_122_cif.got.tgz:242305.got - 2010.06.27 13:26:56.
