data_PCOD8036771
_publ_section_title
;
Structure prediction by ZEFSAII (Michael W. Deem and Ramdas Pophale) SiO2 
 PCOD8036771
Probable space group: P -1
;
_chemical_formula_sum "Si O2"
_cell_formula_units_Z 12
_cell_length_a 9.432008
_cell_length_b 12.837114
_cell_length_c 9.106911
_cell_angle_alpha 111.129332
_cell_angle_beta 50.388170
_cell_angle_gamma 144.280353
_cell_volume 464.671994
_symmetry_space_group_name_H-M "P -1"
_symmetry_group_IT_number 2
_symmetry_cell_setting 'triclinic'
loop_
_space_group_symop_operation_xyz
x,y,z
-x,-y,-z
loop_
_atom_site_type_symbol
_atom_site_label
_atom_site_fract_x
_atom_site_fract_y
_atom_site_fract_z
Si Si1 0.780097 0.482353 0.702769
Si Si2 0.322239 0.306955 0.460196
Si Si3 0.684864 0.059149 0.057845
Si Si4 0.835068 0.512019 0.019315
Si Si5 0.837440 0.128101 0.479580
Si Si6 0.184895 0.123234 0.740853
O O1 0.420425 0.292143 0.791314
O O2 0.000000 0.500000 0.500000
O O3 0.925155 0.672917 0.660631
O O4 0.802517 0.465054 0.849205
O O5 0.500000 0.500000 0.500000
O O6 0.482794 0.343180 0.224723
O O7 0.323061 0.212545 0.533543
O O8 0.971436 0.162538 0.569067
O O9 0.494163 0.981812 0.300293
O O10 0.991616 0.286189 0.971294
O O11 0.836537 0.007678 0.930885
O O12 0.500000 0.000000 0.000000
O O13 0.000000 0.500000 0.000000
O O14 0.808123 0.008590 0.326435
#
# Coordination Sequence:
#
# PCOD8036771 Si02
#       6
#     2   2   2   2   2   2
#     4  12  29  53  80 115 163 209 264 339 399 465
#     4  12  22  48  79 111 157 207 257 322 385 470
#     4  12  26  47  81 120 157 206 267 320 391 480
#     4  12  28  49  82 110 149 211 270 323 404 478
#     4  12  27  49  79 118 163 205 269 323 394 477
#     4  12  27  51  83 118 161 211 262 331 397 465
#
# _framework density 25.824667999999999
#
# number of rings (size 3 to 8) (size 9 to 14) (size 15 to 20)
#    0.000    0.000    5.000    3.500    4.667    5.333 
#    0.000    2.500    0.000    0.000    0.000    0.000 
#    0.000    0.000    0.000    0.000    0.000    0.000 
#
# Total GULP energy -148744.995967 kJ/mol
# GULP energy per Si atom -12395.416331 kJ/mol
# Density = 2.576589 g / cm^3
# Si number density = 25.824668 Si / 1000 Ang^3
#
#
#
# Elastic Constant Matrix: (Units=GPa)
#
#
# Indices 1 2 3 4 5 6 
#
# 1 146.8245 51.8225 60.0654 9.6317 7.6203 13.4033
# 2 51.8225 131.0808 41.2082 10.4441 -3.2218 -9.3628
# 3 60.0654 41.2082 179.2156 13.7021 -4.9531 -4.6936
# 4 9.6317 10.4441 13.7021 27.2829 -2.2166 -7.2295
# 5 7.6203 -3.2218 -4.9531 -2.2166 52.9393 -0.7883
# 6 13.4033 -9.3628 -4.6936 -7.2295 -0.7883 41.0740
#
#
#
# Elastic Compliance Matrix: (Units=1/GPa)
#
#
# Indices 1 2 3 4 5 6 
#
# 1 0.009642 -0.003224 -0.002490 -0.002302 -0.001982 -0.004609
# 2 -0.003224 0.009518 -0.000914 -0.001194 0.000951 0.002925
# 3 -0.002490 -0.000914 0.006818 -0.001838 0.000880 0.001077
# 4 -0.002302 -0.001194 -0.001838 0.040995 0.001915 0.007521
# 5 -0.001982 0.000951 0.000880 0.001915 0.019420 0.001674
# 6 -0.004609 0.002925 0.001077 0.007521 0.001674 0.027996
#
#
# Mechanical properties :
#
#
# Convention : Reuss Voigt Hill
#
# Bulk Modulus (GPa) = 78.59952 84.81254 81.70603
# Shear Modulus (GPa) = 37.91211 44.52756 41.21983
#
# Velocity S-wave (km/s) = 3.83568 4.15688 3.99951
# Velocity P-wave (km/s) = 7.07944 7.48014 7.28255
#
# Compressibility (1/GPa) = 0.01272272
#
# Stress axis : x y z
#
# Youngs Moduli (GPa) = 103.71477 105.06253 146.68025
#
# Poissons Ratio (x) = 0.33869 0.36520
# Poissons Ratio (y) = 0.33434 0.13405
# Poissons Ratio (z) = 0.25823 0.09602
#
# Static dielectric constant tensor:
#      x y z
#    x 10.106440 -5.441880 -2.054820 
#    y -5.441880 11.066620 1.881540 
#    z -2.054820 1.881540 4.793320 
# 
# 
# High freq. dielectric constant tensor:
#      x y z
#    x 2.048280 0.003710 0.001150 
#    y 0.003710 2.039830 -0.001260 
#    z 0.001150 -0.001260 2.047080 
# 
# From -- ./inp_files/181129.got.cif
#   From: 2010.06.25/outbox.cif.g09.slc.cpg/sg2_91_cif.got.tgz:181129.got - 2010.06.27 13:26:56.
