data_PCOD8036980
_publ_section_title
;
Structure prediction by ZEFSAII (Michael W. Deem and Ramdas Pophale) SiO2 
 PCOD8036980
Probable space group: P -1
;
_chemical_formula_sum "Si O2"
_cell_formula_units_Z 16
_cell_length_a 9.681588
_cell_length_b 8.871101
_cell_length_c 25.043632
_cell_angle_alpha 43.402073
_cell_angle_beta 44.679956
_cell_angle_gamma 30.921054
_cell_volume 735.606514
_symmetry_space_group_name_H-M "P -1"
_symmetry_group_IT_number 2
_symmetry_cell_setting 'triclinic'
loop_
_space_group_symop_operation_xyz
x,y,z
-x,-y,-z
loop_
_atom_site_type_symbol
_atom_site_label
_atom_site_fract_x
_atom_site_fract_y
_atom_site_fract_z
Si Si1 0.219431 0.644238 0.514650
Si Si2 0.702260 0.632924 0.545024
Si Si3 0.100408 0.285306 0.691957
Si Si4 0.213428 0.408496 0.854240
Si Si5 0.512432 0.429098 0.075787
Si Si6 0.450054 0.409488 0.288137
Si Si7 0.625809 0.813809 0.959786
Si Si8 0.914613 0.730557 0.178409
O O1 0.500000 0.500000 0.500000
O O2 0.293386 0.551111 0.455978
O O3 0.094747 0.516357 0.602830
O O4 0.000000 0.000000 0.500000
O O5 0.637077 0.544776 0.638306
O O6 0.000000 0.500000 0.500000
O O7 0.500000 0.000000 0.500000
O O8 0.147337 0.306053 0.735867
O O9 0.818038 0.376518 0.732165
O O10 0.362119 0.942099 0.689055
O O11 0.384114 0.496988 0.789307
O O12 0.108150 0.449131 0.811962
O O13 0.939824 0.644994 0.905488
O O14 0.417036 0.049295 0.908666
O O15 0.211636 0.605652 0.133157
O O16 0.707058 0.077912 0.127127
O O17 0.500000 0.500000 0.000000
O O18 0.633945 0.549727 0.038306
O O19 0.500000 0.000000 0.000000
#
# Coordination Sequence:
#
# PCOD8036980 Si02
#       8
#     2   2   2   2   2   2   2   2
#     4  12  26  46  74 108 144 183 245 296 347 419
#     4  12  23  48  75 102 140 192 236 287 348 423
#     4  12  27  48  70 105 144 186 235 287 355 428
#     4  12  26  47  66 104 139 179 232 288 353 421
#     4  12  23  46  72  95 135 184 232 285 350 416
#     4  12  26  47  72 101 145 188 232 291 354 425
#     4  12  27  44  70 101 136 178 237 293 343 414
#     4  12  26  45  71 101 138 184 230 288 357 420
#
# _framework density 21.750758000000001
#
# number of rings (size 3 to 8) (size 9 to 14) (size 15 to 20)
#    0.000    0.000    5.000    4.500    7.000    0.000 
#    2.250    0.000    0.000    0.000    0.000    0.000 
#    0.000    0.000    0.000    0.000    0.000    0.000 
#
# Total GULP energy -198397.100018 kJ/mol
# GULP energy per Si atom -12399.818751 kJ/mol
# Density = 2.170125 g / cm^3
# Si number density = 21.750758 Si / 1000 Ang^3
#
#
#
# Elastic Constant Matrix: (Units=GPa)
#
#
# Indices 1 2 3 4 5 6 
#
# 1 123.1267 26.5089 35.3125 22.7940 5.7850 0.9781
# 2 26.5089 134.6570 22.3154 17.5363 6.8889 -7.4578
# 3 35.3125 22.3154 85.8619 16.6507 5.5598 -2.2329
# 4 22.7940 17.5363 16.6507 35.8894 -4.6651 -2.2351
# 5 5.7850 6.8889 5.5598 -4.6651 43.1458 6.9268
# 6 0.9781 -7.4578 -2.2329 -2.2351 6.9268 48.1082
#
#
#
# Elastic Compliance Matrix: (Units=1/GPa)
#
#
# Indices 1 2 3 4 5 6 
#
# 1 0.010103 -0.000835 -0.002928 -0.004850 -0.001287 -0.000511
# 2 -0.000835 0.008340 -0.001066 -0.003180 -0.001643 0.001349
# 3 -0.002928 -0.001066 0.014108 -0.004364 -0.001825 0.000609
# 4 -0.004850 -0.003180 -0.004364 0.035252 0.005492 0.000250
# 5 -0.001287 -0.001643 -0.001825 0.005492 0.025029 -0.003662
# 6 -0.000511 0.001349 0.000609 0.000250 -0.003662 0.021573
#
#
# Mechanical properties :
#
#
# Convention : Reuss Voigt Hill
#
# Bulk Modulus (GPa) = 43.67881 56.87991 50.27936
# Shear Modulus (GPa) = 37.96678 42.72927 40.34802
#
# Velocity S-wave (km/s) = 4.18250 4.43707 4.31166
# Velocity P-wave (km/s) = 6.59162 7.24277 6.92485
#
# Compressibility (1/GPa) = 0.02289440
#
# Stress axis : x y z
#
# Youngs Moduli (GPa) = 98.97637 119.90165 70.88091
#
# Poissons Ratio (x) = 0.10008 0.20753
# Poissons Ratio (y) = 0.08261 0.07557
# Poissons Ratio (z) = 0.28978 0.12784
#
# Static dielectric constant tensor:
#      x y z
#    x 4.242170 -0.133580 0.301460 
#    y -0.133580 4.219430 -0.029990 
#    z 0.301460 -0.029990 4.102290 
# 
# 
# High freq. dielectric constant tensor:
#      x y z
#    x 1.871470 -0.002020 0.004270 
#    y -0.002020 1.875550 0.008710 
#    z 0.004270 0.008710 1.859140 
# 
# From -- ./inp_files/217758.got.cif
#   From: 2010.06.25/outbox.cif.g09.slc.cpg/sg2_109_cif.got.tgz:217758.got - 2010.06.27 13:26:56.
