data_PCOD8036450
_publ_section_title
;
Structure prediction by ZEFSAII (Michael W. Deem and Ramdas Pophale) SiO2 
 PCOD8036450
Probable space group: P -1
;
_chemical_formula_sum "Si O2"
_cell_formula_units_Z 14
_cell_length_a 5.081101
_cell_length_b 13.695195
_cell_length_c 11.901968
_cell_angle_alpha 42.725569
_cell_angle_beta 90.957168
_cell_angle_gamma 101.500308
_cell_volume 540.065613
_symmetry_space_group_name_H-M "P -1"
_symmetry_group_IT_number 2
_symmetry_cell_setting 'triclinic'
loop_
_space_group_symop_operation_xyz
x,y,z
-x,-y,-z
loop_
_atom_site_type_symbol
_atom_site_label
_atom_site_fract_x
_atom_site_fract_y
_atom_site_fract_z
Si Si1 0.391336 0.353631 0.693444
Si Si2 0.749677 0.841912 0.500958
Si Si3 0.792807 0.163326 0.849304
Si Si4 0.519652 0.024084 0.175077
Si Si5 0.355465 0.498736 0.212426
Si Si6 0.896371 0.586909 0.023207
Si Si7 0.238450 0.124854 0.276530
O O1 0.500000 0.500000 0.500000
O O2 0.541436 0.231019 0.764409
O O3 0.443105 0.399204 0.783497
O O4 0.072196 0.286781 0.725336
O O5 0.567842 0.889363 0.364167
O O6 0.765511 0.676027 0.609570
O O7 0.624909 0.846440 0.622458
O O8 0.053579 0.954114 0.409095
O O9 0.743166 0.033408 0.863017
O O10 0.776914 0.099894 0.030879
O O11 0.464601 0.146264 0.160345
O O12 0.568910 0.512250 0.099204
O O13 0.096125 0.568006 0.142130
O O14 0.946111 0.760911 0.842844
O O15 0.000000 0.500000 0.000000
#
# Coordination Sequence:
#
# PCOD8036450 Si02
#       7
#     2   2   2   2   2   2   2
#     4  12  27  50  77 113 154 203 263 321 394 459
#     4  11  27  47  75 118 154 213 257 325 386 478
#     4  11  28  49  78 118 150 206 267 323 390 468
#     4  11  27  46  81 109 164 204 264 326 396 463
#     4  12  28  48  81 112 157 207 256 324 393 461
#     4  12  27  50  77 113 156 203 261 316 387 471
#     4  11  27  48  78 112 161 208 263 321 394 468
#
# _framework density 25.922775000000001
#
# number of rings (size 3 to 8) (size 9 to 14) (size 15 to 20)
#    0.000    0.571    1.429    3.857   14.000    1.143 
#    0.000    0.000    0.000    0.000    0.000    0.000 
#    0.000    0.000    0.000    0.000    0.000    0.000 
#
# Total GULP energy -173587.173619 kJ/mol
# GULP energy per Si atom -12399.083830 kJ/mol
# Density = 2.586377 g / cm^3
# Si number density = 25.922775 Si / 1000 Ang^3
#
#
#
# Elastic Constant Matrix: (Units=GPa)
#
#
# Indices 1 2 3 4 5 6 
#
# 1 100.9447 32.9391 67.1993 -2.2839 0.3918 3.7300
# 2 32.9391 76.5150 27.5655 11.9309 -1.5894 -1.8593
# 3 67.1993 27.5655 148.2230 9.5586 3.3068 -2.1635
# 4 -2.2839 11.9309 9.5586 51.3254 5.5942 -6.5034
# 5 0.3918 -1.5894 3.3068 5.5942 37.8460 -8.7870
# 6 3.7300 -1.8593 -2.1635 -6.5034 -8.7870 38.9431
#
#
#
# Elastic Compliance Matrix: (Units=1/GPa)
#
#
# Indices 1 2 3 4 5 6 
#
# 1 0.016047 -0.005072 -0.006534 0.002954 -0.000662 -0.001798
# 2 -0.005072 0.016087 -0.000460 -0.003933 0.001564 0.000925
# 3 -0.006534 -0.000460 0.009936 -0.001899 -0.000363 0.000757
# 4 0.002954 -0.003933 -0.001899 0.021477 -0.002644 0.002414
# 5 -0.000662 0.001564 -0.000363 -0.002644 0.028327 0.006068
# 6 -0.001798 0.000925 0.000757 0.002414 0.006068 0.027709
#
#
# Mechanical properties :
#
#
# Convention : Reuss Voigt Hill
#
# Bulk Modulus (GPa) = 55.74856 64.56559 60.15707
# Shear Modulus (GPa) = 33.40149 38.82152 36.11151
#
# Velocity S-wave (km/s) = 3.59346 3.87406 3.73640
# Velocity P-wave (km/s) = 6.22652 6.70612 6.47077
#
# Compressibility (1/GPa) = 0.01793768
#
# Stress axis : x y z
#
# Youngs Moduli (GPa) = 62.31692 62.16269 100.64482
#
# Poissons Ratio (x) = 0.31531 0.65760
# Poissons Ratio (y) = 0.31609 0.04628
# Poissons Ratio (z) = 0.40717 0.02859
#
# Static dielectric constant tensor:
#      x y z
#    x 5.071420 -0.140950 0.503240 
#    y -0.140950 4.782670 0.255270 
#    z 0.503240 0.255270 5.176650 
# 
# 
# High freq. dielectric constant tensor:
#      x y z
#    x 2.022440 -0.002010 0.002900 
#    y -0.002010 2.055990 0.001180 
#    z 0.002900 0.001180 2.049210 
# 
# From -- ./inp_files/367398.got.cif
#   From: 2010.06.25/outbox.cif.g09.slc.cpg/sg2_184_cif.got.tgz:367398.got - 2010.06.27 13:26:56.
