data_PCOD8036524
_publ_section_title
;
Structure prediction by ZEFSAII (Michael W. Deem and Ramdas Pophale) SiO2 
 PCOD8036524
Probable space group: P -1
;
_chemical_formula_sum "Si O2"
_cell_formula_units_Z 16
_cell_length_a 25.503979
_cell_length_b 26.366469
_cell_length_c 11.958147
_cell_angle_alpha 29.242016
_cell_angle_beta 30.157474
_cell_angle_gamma 10.955096
_cell_volume 743.737501
_symmetry_space_group_name_H-M "P -1"
_symmetry_group_IT_number 2
_symmetry_cell_setting 'triclinic'
loop_
_space_group_symop_operation_xyz
x,y,z
-x,-y,-z
loop_
_atom_site_type_symbol
_atom_site_label
_atom_site_fract_x
_atom_site_fract_y
_atom_site_fract_z
Si Si1 0.795456 0.025611 0.588295
Si Si2 0.999532 0.609677 0.844527
Si Si3 0.590556 0.583164 0.058038
Si Si4 0.877261 0.613941 0.734933
Si Si5 0.006227 0.032183 0.300201
Si Si6 0.478059 0.805389 0.433112
Si Si7 0.702570 0.567721 0.116921
Si Si8 0.538766 0.818615 0.540982
O O1 0.684498 0.133798 0.454940
O O2 0.574777 0.180086 0.783477
O O3 0.874606 0.069300 0.389326
O O4 0.053383 0.708888 0.725595
O O5 0.203178 0.493550 0.618363
O O6 0.684524 0.940194 0.793655
O O7 0.000000 0.500000 0.000000
O O8 0.130472 0.465906 0.999134
O O9 0.553822 0.728883 0.790046
O O10 0.664728 0.527595 0.157918
O O11 0.835731 0.296165 0.095805
O O12 0.316099 0.767437 0.197643
O O13 0.184589 0.368510 0.616584
O O14 0.700688 0.878038 0.577019
O O15 0.755469 0.637401 0.830554
O O16 0.000000 0.000000 0.500000
O O17 0.472960 0.808749 0.571434
#
# Coordination Sequence:
#
# PCOD8036524 Si02
#       8
#     2   2   2   2   2   2   2   2
#     4  12  23  38  66 101 118 150 206 279 315 344
#     4  12  20  33  61  89 122 163 215 251 284 350
#     4  12  26  45  64  93 126 164 208 252 315 384
#     4  12  23  38  62  95 127 171 208 247 301 359
#     4  12  23  44  73  93 116 155 212 271 321 356
#     4  12  22  38  59  93 128 161 203 257 304 357
#     4  12  23  39  64  96 127 154 207 263 308 357
#     4  12  26  41  61  88 136 178 199 235 307 387
#
# _framework density 21.512965999999999
#
# number of rings (size 3 to 8) (size 9 to 14) (size 15 to 20)
#    0.000    0.000    7.500    3.750    0.000    1.000 
#    0.000    1.250    0.000    0.000    0.000    0.000 
#    0.000    0.000    0.000    0.000    0.000    0.000 
#
# Total GULP energy -198287.731546 kJ/mol
# GULP energy per Si atom -12392.983222 kJ/mol
# Density = 2.146400 g / cm^3
# Si number density = 21.512966 Si / 1000 Ang^3
#
#
#
# Elastic Constant Matrix: (Units=GPa)
#
#
# Indices 1 2 3 4 5 6 
#
# 1 109.8608 9.4485 12.7354 9.8286 -30.1403 -5.8239
# 2 9.4485 87.6537 5.0744 -12.4556 -2.5533 -7.8032
# 3 12.7354 5.0744 38.9921 -23.2509 -6.2864 -9.3929
# 4 9.8286 -12.4556 -23.2509 -4.9019 -4.2529 -21.4304
# 5 -30.1403 -2.5533 -6.2864 -4.2529 30.8359 -1.2966
# 6 -5.8239 -7.8032 -9.3929 -21.4304 -1.2966 28.6020
#
#
#
# Elastic Compliance Matrix: (Units=1/GPa)
#
#
# Indices 1 2 3 4 5 6 
#
# 1 0.012765 -0.000472 -0.000430 0.001203 0.012676 0.003805
# 2 -0.000472 0.011016 -0.003977 -0.003763 -0.000932 -0.001259
# 3 -0.000430 -0.003977 0.014018 -0.016751 -0.000587 -0.009147
# 4 0.001203 -0.003763 -0.016751 -0.018423 -0.005948 -0.020356
# 5 0.012676 -0.000932 -0.000587 -0.005948 0.043788 -0.000337
# 6 0.003805 -0.001259 -0.009147 -0.020356 -0.000337 0.017123
#
#
# Mechanical properties :
#
#
# Convention : Reuss Voigt Hill
#
# Bulk Modulus (GPa) = 35.66378 32.33589 33.99983
# Shear Modulus (GPa) = 50.30596 24.85709 37.58153
#
# Velocity S-wave (km/s) = 4.84095 3.40287 4.18416
# Velocity P-wave (km/s) = 6.91810 5.52294 6.25952
#
# Compressibility (1/GPa) = 0.02803966
#
# Stress axis : x y z
#
# Youngs Moduli (GPa) = 78.34167 90.77954 71.33794
#
# Poissons Ratio (x) = 0.04286 0.03069
# Poissons Ratio (y) = 0.03699 0.28370
# Poissons Ratio (z) = 0.03371 0.36101
#
# Static dielectric constant tensor:
#      x y z
#    x 4.256420 -0.167670 -0.201900 
#    y -0.167670 3.816760 0.006780 
#    z -0.201900 0.006780 3.562230 
# 
# 
# High freq. dielectric constant tensor:
#      x y z
#    x 1.869900 0.000150 -0.021890 
#    y 0.000150 1.864440 -0.002470 
#    z -0.021890 -0.002470 1.804110 
# 
# From -- ./inp_files/477191.got.cif
#   From: 2010.06.25/outbox.cif.g09.slc.cpg/sg2_239_cif.got.tgz:477191.got - 2010.06.27 13:26:56.
