data_PCOD8036407
_publ_section_title
;
Structure prediction by ZEFSAII (Michael W. Deem and Ramdas Pophale) SiO2 
 PCOD8036407
Probable space group: P -1
;
_chemical_formula_sum "Si O2"
_cell_formula_units_Z 16
_cell_length_a 13.850723
_cell_length_b 13.378852
_cell_length_c 13.986735
_cell_angle_alpha 149.820761
_cell_angle_beta 41.435513
_cell_angle_gamma 148.635083
_cell_volume 677.496932
_symmetry_space_group_name_H-M "P -1"
_symmetry_group_IT_number 2
_symmetry_cell_setting 'triclinic'
loop_
_space_group_symop_operation_xyz
x,y,z
-x,-y,-z
loop_
_atom_site_type_symbol
_atom_site_label
_atom_site_fract_x
_atom_site_fract_y
_atom_site_fract_z
Si Si1 0.210304 0.958011 0.817368
Si Si2 0.090260 0.238151 0.444383
Si Si3 0.088587 0.151528 0.911641
Si Si4 0.394670 0.722427 0.512351
Si Si5 0.619865 0.242648 0.043646
Si Si6 0.291981 0.333686 0.554619
Si Si7 0.481213 0.580943 0.905536
Si Si8 0.745872 0.089966 0.662040
O O1 0.152336 0.010172 0.804857
O O2 0.268498 0.780763 0.600585
O O3 0.381786 0.221926 0.953201
O O4 0.036860 0.811813 0.898757
O O5 0.271888 0.515341 0.512962
O O6 0.141675 0.167197 0.445606
O O7 0.036477 0.030044 0.233473
O O8 0.927313 0.263124 0.604453
O O9 0.266533 0.426271 0.970266
O O10 0.475019 0.618538 0.298430
O O11 0.559545 0.989342 0.659605
O O12 0.745314 0.483180 0.218432
O O13 0.493720 0.279963 0.099051
O O14 0.757041 0.227303 0.863803
O O15 0.500000 0.000000 0.000000
O O16 0.500000 0.500000 0.500000
O O17 0.265880 0.153760 0.508854
#
# Coordination Sequence:
#
# PCOD8036407 Si02
#       8
#     2   2   2   2   2   2   2   2
#     4  11  27  47  76 109 143 189 241 304 361 425
#     4  12  25  45  71 101 147 188 236 303 356 426
#     4  11  26  50  74 108 145 188 246 298 363 430
#     4  12  24  44  73 102 141 189 232 295 365 417
#     4  12  24  41  73 102 140 187 240 288 354 429
#     4  12  23  44  68  97 141 188 238 293 357 425
#     4  12  24  48  74 102 147 191 235 301 358 429
#     4  12  25  44  68 105 138 191 242 293 356 433
#
# _framework density 23.616344000000002
#
# number of rings (size 3 to 8) (size 9 to 14) (size 15 to 20)
#    0.000    0.250    7.500    0.750    1.750    1.500 
#    0.000    0.000    0.000    0.000    0.000    0.000 
#    0.000    0.000    0.000    0.000    0.000    0.000 
#
# Total GULP energy -198439.305402 kJ/mol
# GULP energy per Si atom -12402.456588 kJ/mol
# Density = 2.356259 g / cm^3
# Si number density = 23.616344 Si / 1000 Ang^3
#
#
#
# Elastic Constant Matrix: (Units=GPa)
#
#
# Indices 1 2 3 4 5 6 
#
# 1 94.4168 8.4474 18.7500 11.3638 -2.3017 7.6541
# 2 8.4474 92.5093 18.5389 -16.2819 -0.5534 17.7121
# 3 18.7500 18.5389 102.7246 -2.0069 -2.3876 1.4767
# 4 11.3638 -16.2819 -2.0069 28.7502 4.0723 -1.5177
# 5 -2.3017 -0.5534 -2.3876 4.0723 37.2555 -0.3180
# 6 7.6541 17.7121 1.4767 -1.5177 -0.3180 31.5469
#
#
#
# Elastic Compliance Matrix: (Units=1/GPa)
#
#
# Indices 1 2 3 4 5 6 
#
# 1 0.012042 -0.001273 -0.002021 -0.005921 0.001222 -0.002385
# 2 -0.001273 0.014135 -0.002079 0.008120 -0.000951 -0.007149
# 3 -0.002021 -0.002079 0.010480 0.000347 0.000488 0.001189
# 4 -0.005921 0.008120 0.000347 0.042374 -0.004865 -0.001149
# 5 0.001222 -0.000951 0.000488 -0.004865 0.027468 0.000257
# 6 -0.002385 -0.007149 0.001189 -0.001149 0.000257 0.036183
#
#
# Mechanical properties :
#
#
# Convention : Reuss Voigt Hill
#
# Bulk Modulus (GPa) = 38.59433 42.34703 40.47068
# Shear Modulus (GPa) = 30.85171 35.77148 33.31159
#
# Velocity S-wave (km/s) = 3.61830 3.89613 3.75978
# Velocity P-wave (km/s) = 5.81668 6.18142 6.00182
#
# Compressibility (1/GPa) = 0.02591054
#
# Stress axis : x y z
#
# Youngs Moduli (GPa) = 83.04011 70.74729 95.41978
#
# Poissons Ratio (x) = 0.09004 0.19288
# Poissons Ratio (y) = 0.10568 0.19841
# Poissons Ratio (z) = 0.16785 0.14711
#
# Static dielectric constant tensor:
#      x y z
#    x 4.289400 0.155220 -0.103070 
#    y 0.155220 4.457790 -0.082730 
#    z -0.103070 -0.082730 4.351650 
# 
# 
# High freq. dielectric constant tensor:
#      x y z
#    x 1.931660 0.004680 -0.003360 
#    y 0.004680 1.937850 -0.007150 
#    z -0.003360 -0.007150 1.937760 
# 
# From -- ./inp_files/534555.got.cif
#   From: 2010.06.25/outbox.cif.g09.slc.cpg/sg2_268_cif.got.tgz:534555.got - 2010.06.27 13:26:56.
