data_PCOD8036330
_publ_section_title
;
Structure prediction by ZEFSAII (Michael W. Deem and Ramdas Pophale) SiO2 
 PCOD8036330
Probable space group: P -1
;
_chemical_formula_sum "Si O2"
_cell_formula_units_Z 12
_cell_length_a 12.117965
_cell_length_b 11.486373
_cell_length_c 13.764763
_cell_angle_alpha 137.533651
_cell_angle_beta 138.516168
_cell_angle_gamma 24.702205
_cell_volume 518.974482
_symmetry_space_group_name_H-M "P -1"
_symmetry_group_IT_number 2
_symmetry_cell_setting 'triclinic'
loop_
_space_group_symop_operation_xyz
x,y,z
-x,-y,-z
loop_
_atom_site_type_symbol
_atom_site_label
_atom_site_fract_x
_atom_site_fract_y
_atom_site_fract_z
Si Si1 0.315731 0.818380 0.158526
Si Si2 0.562231 0.645293 0.639670
Si Si3 0.684268 0.572113 0.084470
Si Si4 0.084151 0.628485 0.635841
Si Si5 0.076974 0.273529 0.619656
Si Si6 0.703377 0.678812 0.944537
O O1 0.386955 0.818705 0.094923
O O2 0.595976 0.597691 0.271557
O O3 0.194310 0.723037 0.011266
O O4 0.091905 0.124063 0.248351
O O5 0.500000 0.500000 0.500000
O O6 0.600652 0.623225 0.766619
O O7 0.840614 0.465858 0.660672
O O8 0.332744 0.961776 0.641531
O O9 0.857761 0.575213 0.259454
O O10 0.671615 0.627932 0.998550
O O11 0.000000 0.500000 0.500000
O O12 0.013924 0.746556 0.552076
O O13 0.000000 0.500000 0.000000
O O14 0.500000 0.000000 0.000000
#
# Coordination Sequence:
#
# PCOD8036330 Si02
#       6
#     2   2   2   2   2   2
#     4  11  28  47  72 107 144 190 240 296 343 429
#     4  12  27  48  69 106 140 184 238 293 358 423
#     4  11  26  48  73 105 145 188 241 290 358 418
#     4  12  26  46  72 104 141 188 237 287 357 419
#     4  12  26  46  74 100 144 189 230 297 357 422
#     4  12  25  45  71 102 135 185 232 288 353 419
#
# _framework density 23.122525
#
# number of rings (size 3 to 8) (size 9 to 14) (size 15 to 20)
#    0.000    0.333    5.000    2.000    7.000    6.667 
#    0.000    0.000    0.000    0.000    0.000    0.000 
#    0.000    0.000    0.000    0.000    0.000    0.000 
#
# Total GULP energy -148750.575442 kJ/mol
# GULP energy per Si atom -12395.881287 kJ/mol
# Density = 2.306990 g / cm^3
# Si number density = 23.122525 Si / 1000 Ang^3
#
#
#
# Elastic Constant Matrix: (Units=GPa)
#
#
# Indices 1 2 3 4 5 6 
#
# 1 148.6117 33.9904 59.5714 6.5335 -14.4550 -0.6614
# 2 33.9904 133.3214 43.2189 10.0498 6.3667 -11.5197
# 3 59.5714 43.2189 175.4204 13.0029 -0.6154 0.5889
# 4 6.5335 10.0498 13.0029 46.3810 7.2216 -3.1046
# 5 -14.4550 6.3667 -0.6154 7.2216 65.6316 -0.1280
# 6 -0.6614 -11.5197 0.5889 -3.1046 -0.1280 24.6917
#
#
#
# Elastic Compliance Matrix: (Units=1/GPa)
#
#
# Indices 1 2 3 4 5 6 
#
# 1 0.008228 -0.001413 -0.002399 -0.000518 0.001983 -0.000437
# 2 -0.001413 0.008861 -0.001660 -0.000816 -0.001089 0.004027
# 3 -0.002399 -0.001660 0.007026 -0.001326 -0.000158 -0.001174
# 4 -0.000518 -0.000816 -0.001326 0.022745 -0.002545 0.002483
# 5 0.001983 -0.001089 -0.000158 -0.002545 0.016056 -0.000688
# 6 -0.000437 0.004027 -0.001174 0.002483 -0.000688 0.042703
#
#
# Mechanical properties :
#
#
# Convention : Reuss Voigt Hill
#
# Bulk Modulus (GPa) = 75.93194 81.21276 78.57235
# Shear Modulus (GPa) = 41.33857 48.71239 45.02548
#
# Velocity S-wave (km/s) = 4.23283 4.59487 4.41756
# Velocity P-wave (km/s) = 7.53654 7.95924 7.75077
#
# Compressibility (1/GPa) = 0.01316969
#
# Stress axis : x y z
#
# Youngs Moduli (GPa) = 121.54318 112.85930 142.33052
#
# Poissons Ratio (x) = 0.15950 0.34145
# Poissons Ratio (y) = 0.17178 0.23625
# Poissons Ratio (z) = 0.29158 0.18733
#
# Static dielectric constant tensor:
#      x y z
#    x 4.292280 0.077350 -0.212540 
#    y 0.077350 4.085390 -0.031070 
#    z -0.212540 -0.031070 4.881260 
# 
# 
# High freq. dielectric constant tensor:
#      x y z
#    x 1.927100 -0.004730 -0.012770 
#    y -0.004730 1.917690 0.000380 
#    z -0.012770 0.000380 1.946590 
# 
# From -- ./inp_files/36700.got.cif
#   From: 2010.06.25/outbox.cif.g09.slc.cpg/sg2_19_cif.got.tgz:36700.got - 2010.06.27 13:26:56.
