data_PCOD8036499
_publ_section_title
;
Structure prediction by ZEFSAII (Michael W. Deem and Ramdas Pophale) SiO2 
 PCOD8036499
Probable space group: P -1
;
_chemical_formula_sum "Si O2"
_cell_formula_units_Z 8
_cell_length_a 13.432516
_cell_length_b 11.683842
_cell_length_c 5.675678
_cell_angle_alpha 102.740305
_cell_angle_beta 100.607027
_cell_angle_gamma 20.980567
_cell_volume 310.476591
_symmetry_space_group_name_H-M "P -1"
_symmetry_group_IT_number 2
_symmetry_cell_setting 'triclinic'
loop_
_space_group_symop_operation_xyz
x,y,z
-x,-y,-z
loop_
_atom_site_type_symbol
_atom_site_label
_atom_site_fract_x
_atom_site_fract_y
_atom_site_fract_z
Si Si1 0.516210 0.351733 0.032442
Si Si2 0.591603 0.714113 0.411118
Si Si3 0.737177 0.766525 0.176611
Si Si4 0.982209 0.150077 0.656475
O O1 0.208770 0.644216 0.103439
O O2 0.500000 0.500000 0.000000
O O3 0.587400 0.184784 0.778132
O O4 0.719931 0.123019 0.244836
O O5 0.757023 0.635080 0.301083
O O6 0.847125 0.378451 0.506103
O O7 0.348026 0.027616 0.615353
O O8 0.000000 0.500000 0.000000
O O9 0.500000 0.000000 0.000000
O O10 0.000000 0.000000 0.500000
#
# Coordination Sequence:
#
# PCOD8036499 Si02
#       4
#     2   2   2   2
#     4  12  27  48  76 118 162 205 256 314 395 478
#     4  11  28  50  84 114 162 209 258 334 392 463
#     4  11  28  55  79 114 153 209 274 325 391 460
#     4  12  27  48  76 118 162 205 256 314 395 478
#
# _framework density 25.766839000000001
#
# number of rings (size 3 to 8) (size 9 to 14) (size 15 to 20)
#    0.000    0.500    2.500    3.000    0.000   16.000 
#    0.000    3.750    0.000    0.000    0.000    0.000 
#    0.000    0.000    0.000    0.000    0.000    0.000 
#
# Total GULP energy -99193.148687 kJ/mol
# GULP energy per Si atom -12399.143586 kJ/mol
# Density = 2.570819 g / cm^3
# Si number density = 25.766839 Si / 1000 Ang^3
#
#
#
# Elastic Constant Matrix: (Units=GPa)
#
#
# Indices 1 2 3 4 5 6 
#
# 1 115.5246 78.1843 69.2507 14.8092 7.9777 23.0178
# 2 78.1843 159.0314 85.2247 -3.0403 1.3496 19.3267
# 3 69.2507 85.2247 185.0267 15.7866 26.2305 18.2105
# 4 14.8092 -3.0403 15.7866 62.1548 1.0763 -8.3732
# 5 7.9777 1.3496 26.2305 1.0763 69.5147 1.7193
# 6 23.0178 19.3267 18.2105 -8.3732 1.7193 60.0980
#
#
#
# Elastic Compliance Matrix: (Units=1/GPa)
#
#
# Indices 1 2 3 4 5 6 
#
# 1 0.015298 -0.005958 -0.002182 -0.003883 -0.000663 -0.003804
# 2 -0.005958 0.011035 -0.003338 0.002789 0.001684 0.000085
# 3 -0.002182 -0.003338 0.008392 -0.001836 -0.002803 -0.000810
# 4 -0.003883 0.002789 -0.001836 0.018096 0.000714 0.003647
# 5 -0.000663 0.001684 -0.002803 0.000714 0.015470 0.000219
# 6 -0.003804 0.000085 -0.000810 0.003647 0.000219 0.018816
#
#
# Mechanical properties :
#
#
# Convention : Reuss Voigt Hill
#
# Bulk Modulus (GPa) = 84.96347 102.76692 93.86519
# Shear Modulus (GPa) = 43.86579 53.48170 48.67375
#
# Velocity S-wave (km/s) = 4.13051 4.56082 4.35099
# Velocity P-wave (km/s) = 7.46951 8.22829 7.85807
#
# Compressibility (1/GPa) = 0.01176976
#
# Stress axis : x y z
#
# Youngs Moduli (GPa) = 65.36997 90.62466 119.15820
#
# Poissons Ratio (x) = 0.53993 0.25995
# Poissons Ratio (y) = 0.38947 0.39772
# Poissons Ratio (z) = 0.14261 0.30248
#
# Static dielectric constant tensor:
#      x y z
#    x 4.584270 0.197210 0.101990 
#    y 0.197210 4.738300 0.144590 
#    z 0.101990 0.144590 4.958460 
# 
# 
# High freq. dielectric constant tensor:
#      x y z
#    x 2.044670 0.010760 -0.000110 
#    y 0.010760 2.040430 0.001060 
#    z -0.000110 0.001060 2.054990 
# 
# From -- ./inp_files/4552.got.cif
#   From: 2010.06.25/outbox.cif.g09.slc.cpg/sg2_3_cif.got.tgz:4552.got - 2010.06.27 13:26:56.
