data_PCOD8036718
_publ_section_title
;
Structure prediction by ZEFSAII (Michael W. Deem and Ramdas Pophale) SiO2 
 PCOD8036718
Probable space group: P -1
;
_chemical_formula_sum "Si O2"
_cell_formula_units_Z 16
_cell_length_a 15.072355
_cell_length_b 14.918527
_cell_length_c 9.420753
_cell_angle_alpha 48.974456
_cell_angle_beta 150.720074
_cell_angle_gamma 135.216786
_cell_volume 725.512904
_symmetry_space_group_name_H-M "P -1"
_symmetry_group_IT_number 2
_symmetry_cell_setting 'triclinic'
loop_
_space_group_symop_operation_xyz
x,y,z
-x,-y,-z
loop_
_atom_site_type_symbol
_atom_site_label
_atom_site_fract_x
_atom_site_fract_y
_atom_site_fract_z
Si Si1 0.818411 0.509404 0.324253
Si Si2 0.123941 0.284400 0.011119
Si Si3 0.289288 0.852980 0.567734
Si Si4 0.394442 0.140887 0.485950
Si Si5 0.524231 0.754953 0.816256
Si Si6 0.715831 0.533467 0.710393
Si Si7 0.738843 0.260710 0.047796
Si Si8 0.156738 0.333269 0.538043
O O1 0.640337 0.376821 0.226309
O O2 0.875604 0.566361 0.501103
O O3 0.000000 0.500000 0.500000
O O4 0.749141 0.608699 0.036747
O O5 0.226052 0.181938 0.275984
O O6 0.127090 0.356807 0.088735
O O7 0.901689 0.218059 0.719552
O O8 0.480263 0.864761 0.728886
O O9 0.289119 0.771595 0.791596
O O10 0.294217 0.991677 0.469051
O O11 0.485450 0.220863 0.388857
O O12 0.561084 0.163154 0.812278
O O13 0.736076 0.754392 0.152770
O O14 0.500000 0.500000 0.500000
O O15 0.721543 0.589105 0.504248
O O16 0.762339 0.406368 0.903424
O O17 0.934912 0.242548 0.282910
#
# Coordination Sequence:
#
# PCOD8036718 Si02
#       8
#     2   2   2   2   2   2   2   2
#     4  12  22  43  74 105 138 180 226 295 360 414
#     4  12  24  45  72 103 140 183 235 286 356 421
#     4  12  26  48  71  97 140 192 238 285 342 419
#     4  12  27  46  70 101 140 189 238 287 341 418
#     4  12  25  44  71 103 139 179 236 289 352 420
#     4  12  25  43  71 110 144 179 225 300 361 415
#     4  12  25  46  69 102 142 179 234 287 355 415
#     4  12  25  43  68 106 145 178 225 289 365 421
#
# _framework density 22.053363999999998
#
# number of rings (size 3 to 8) (size 9 to 14) (size 15 to 20)
#    0.000    0.000    5.000    5.625    1.750    0.000 
#    0.000    0.625    0.000    0.000    0.000    0.000 
#    0.000    0.000    0.000    0.000    0.000    0.000 
#
# Total GULP energy -198451.466279 kJ/mol
# GULP energy per Si atom -12403.216642 kJ/mol
# Density = 2.200317 g / cm^3
# Si number density = 22.053364 Si / 1000 Ang^3
#
#
#
# Elastic Constant Matrix: (Units=GPa)
#
#
# Indices 1 2 3 4 5 6 
#
# 1 104.2604 7.3168 31.9279 11.8086 -8.8863 -2.3043
# 2 7.3168 90.7620 26.5521 4.0298 -3.8013 -20.6313
# 3 31.9279 26.5521 124.7930 22.0811 2.3481 1.2208
# 4 11.8086 4.0298 22.0811 27.9568 -0.9515 -2.4848
# 5 -8.8863 -3.8013 2.3481 -0.9515 37.3928 2.8903
# 6 -2.3043 -20.6313 1.2208 -2.4848 2.8903 24.0020
#
#
#
# Elastic Compliance Matrix: (Units=1/GPa)
#
#
# Indices 1 2 3 4 5 6 
#
# 1 0.010849 0.000241 -0.002436 -0.002533 0.002630 0.000794
# 2 0.000241 0.015058 -0.003746 0.001893 0.000847 0.013251
# 3 -0.002436 -0.003746 0.010822 -0.007438 -0.001473 -0.004597
# 4 -0.002533 0.001893 -0.007438 0.043009 0.000678 0.006133
# 5 0.002630 0.000847 -0.001473 0.000678 0.027735 -0.002214
# 6 0.000794 0.013251 -0.004597 0.006133 -0.002214 0.054264
#
#
# Mechanical properties :
#
#
# Convention : Reuss Voigt Hill
#
# Bulk Modulus (GPa) = 40.24601 50.15654 45.20128
# Shear Modulus (GPa) = 27.48733 34.80490 31.14612
#
# Velocity S-wave (km/s) = 3.53427 3.97698 3.76214
# Velocity P-wave (km/s) = 5.91132 6.62429 6.27793
#
# Compressibility (1/GPa) = 0.02484718
#
# Stress axis : x y z
#
# Youngs Moduli (GPa) = 92.17402 66.41096 92.40219
#
# Poissons Ratio (x) = -0.01601 0.22509
# Poissons Ratio (y) = -0.02222 0.34614
# Poissons Ratio (z) = 0.22454 0.24878
#
# Static dielectric constant tensor:
#      x y z
#    x 4.187680 -0.161100 0.017970 
#    y -0.161100 3.924310 -0.081930 
#    z 0.017970 -0.081930 4.304000 
# 
# 
# High freq. dielectric constant tensor:
#      x y z
#    x 1.876330 -0.007710 0.000000 
#    y -0.007710 1.853850 -0.002370 
#    z 0.000000 -0.002370 1.886170 
# 
# From -- ./inp_files/314762.got.cif
#   From: 2010.06.25/outbox.cif.g09.slc.cpg/sg2_158_cif.got.tgz:314762.got - 2010.06.27 13:26:56.
