data_PCOD8036754
_publ_section_title
;
Structure prediction by ZEFSAII (Michael W. Deem and Ramdas Pophale) SiO2 
 PCOD8036754
Probable space group: P -1
;
_chemical_formula_sum "Si O2"
_cell_formula_units_Z 16
_cell_length_a 23.021459
_cell_length_b 6.675429
_cell_length_c 14.164950
_cell_angle_alpha 76.510308
_cell_angle_beta 31.312674
_cell_angle_gamma 54.597962
_cell_volume 725.206507
_symmetry_space_group_name_H-M "P -1"
_symmetry_group_IT_number 2
_symmetry_cell_setting 'triclinic'
loop_
_space_group_symop_operation_xyz
x,y,z
-x,-y,-z
loop_
_atom_site_type_symbol
_atom_site_label
_atom_site_fract_x
_atom_site_fract_y
_atom_site_fract_z
Si Si1 0.458044 0.760111 0.758396
Si Si2 0.499195 0.416775 0.906580
Si Si3 0.843385 0.708437 0.481238
Si Si4 0.337961 0.356316 0.664006
Si Si5 0.950470 0.572064 0.952386
Si Si6 0.265007 0.747192 0.886501
Si Si7 0.161797 0.476932 0.151172
Si Si8 0.839075 0.366164 0.666786
O O1 0.514195 0.592024 0.798437
O O2 0.631502 0.614982 0.489909
O O3 0.401804 0.659870 0.775086
O O4 0.307882 0.136386 0.937097
O O5 0.653072 0.047978 0.719832
O O6 0.500000 0.500000 0.000000
O O7 0.325981 0.543801 0.110919
O O8 0.854672 0.461348 0.534564
O O9 0.884509 0.666003 0.317325
O O10 0.976386 0.659315 0.360085
O O11 0.346873 0.537009 0.702303
O O12 0.500000 0.000000 0.500000
O O13 0.166369 0.464713 0.902803
O O14 0.000000 0.500000 0.000000
O O15 0.863811 0.904837 0.009986
O O16 0.172652 0.698325 0.079858
O O17 0.175965 0.445950 0.248404
O O18 0.000000 0.000000 0.500000
#
# Coordination Sequence:
#
# PCOD8036754 Si02
#       8
#     2   2   2   2   2   2   2   2
#     4  12  25  45  76 109 140 193 246 297 358 426
#     4  12  28  47  70 110 149 186 239 301 371 428
#     4  12  25  48  68 106 150 185 239 303 358 432
#     4  12  24  44  72 107 141 190 246 302 346 428
#     4  12  29  45  68 108 150 190 241 294 368 427
#     4  12  22  45  75  98 147 184 253 288 356 419
#     4  12  23  46  77 107 139 187 249 295 353 440
#     4  12  25  46  81 105 140 193 240 296 369 429
#
# _framework density 22.062683
#
# number of rings (size 3 to 8) (size 9 to 14) (size 15 to 20)
#    0.000    0.000    6.250    4.125    1.750    3.500 
#    0.000    0.000    0.000    0.000    0.000    0.000 
#    0.000    0.000    0.000    0.000    0.000    0.000 
#
# Total GULP energy -198440.668286 kJ/mol
# GULP energy per Si atom -12402.541768 kJ/mol
# Density = 2.201247 g / cm^3
# Si number density = 22.062683 Si / 1000 Ang^3
#
#
#
# Elastic Constant Matrix: (Units=GPa)
#
#
# Indices 1 2 3 4 5 6 
#
# 1 116.6882 38.0986 46.0130 9.0678 31.4338 -9.0454
# 2 38.0986 134.1687 56.9587 -5.8698 6.5380 -14.1767
# 3 46.0130 56.9587 148.0871 3.6633 16.4608 -7.0690
# 4 9.0678 -5.8698 3.6633 42.7968 -9.6919 11.0810
# 5 31.4338 6.5380 16.4608 -9.6919 37.1199 -0.1491
# 6 -9.0454 -14.1767 -7.0690 11.0810 -0.1491 42.8365
#
#
#
# Elastic Compliance Matrix: (Units=1/GPa)
#
#
# Indices 1 2 3 4 5 6 
#
# 1 0.014396 -0.002680 -0.001664 -0.007133 -0.012829 0.003679
# 2 -0.002680 0.009698 -0.003172 0.002363 0.002590 0.001518
# 3 -0.001664 -0.003172 0.008804 -0.001471 -0.002318 0.000424
# 4 -0.007133 0.002363 -0.001471 0.030871 0.014301 -0.008903
# 5 -0.012829 0.002590 -0.002318 0.014301 0.042086 -0.005787
# 6 0.003679 0.001518 0.000424 -0.008903 -0.005787 0.026977
#
#
# Mechanical properties :
#
#
# Convention : Reuss Voigt Hill
#
# Bulk Modulus (GPa) = 55.96738 75.67607 65.82173
# Shear Modulus (GPa) = 32.50553 41.74223 37.12388
#
# Velocity S-wave (km/s) = 3.84256 4.35441 4.10647
# Velocity P-wave (km/s) = 6.71636 7.72374 7.23760
#
# Compressibility (1/GPa) = 0.01786755
#
# Stress axis : x y z
#
# Youngs Moduli (GPa) = 69.46173 103.11220 113.58259
#
# Poissons Ratio (x) = 0.27630 0.18906
# Poissons Ratio (y) = 0.18613 0.36023
# Poissons Ratio (z) = 0.11562 0.32702
#
# Static dielectric constant tensor:
#      x y z
#    x 3.696130 -1.619810 1.582100 
#    y -1.619810 -0.601590 4.092570 
#    z 1.582100 4.092570 0.118150 
# 
# 
# High freq. dielectric constant tensor:
#      x y z
#    x 1.872720 -0.001340 0.017510 
#    y -0.001340 1.879810 -0.012080 
#    z 0.017510 -0.012080 1.882590 
# 
# From -- ./inp_files/542140.got.cif
#   From: 2010.06.25/outbox.cif.g09.slc.cpg/sg2_272_cif.got.tgz:542140.got - 2010.06.27 13:26:56.
