data_PCOD8036223
_publ_section_title
;
Structure prediction by ZEFSAII (Michael W. Deem and Ramdas Pophale) SiO2 
 PCOD8036223
Probable space group: P -1
;
_chemical_formula_sum "Si O2"
_cell_formula_units_Z 16
_cell_length_a 12.580491
_cell_length_b 9.115726
_cell_length_c 14.744575
_cell_angle_alpha 72.234528
_cell_angle_beta 149.529601
_cell_angle_gamma 119.177937
_cell_volume 722.921008
_symmetry_space_group_name_H-M "P -1"
_symmetry_group_IT_number 2
_symmetry_cell_setting 'triclinic'
loop_
_space_group_symop_operation_xyz
x,y,z
-x,-y,-z
loop_
_atom_site_type_symbol
_atom_site_label
_atom_site_fract_x
_atom_site_fract_y
_atom_site_fract_z
Si Si1 0.761118 0.816746 0.001059
Si Si2 0.839071 0.488490 0.801354
Si Si3 0.429244 0.760084 0.934864
Si Si4 0.825981 0.841900 0.728591
Si Si5 0.429843 0.121253 0.617222
Si Si6 0.990480 0.579760 0.243937
Si Si7 0.486979 0.807500 0.639014
Si Si8 0.730805 0.959066 0.286497
O O1 0.578269 0.759242 0.958924
O O2 0.623071 0.739735 0.820340
O O3 0.948944 0.744184 0.161492
O O4 0.911497 0.028006 0.066763
O O5 0.772037 0.643765 0.729354
O O6 0.607640 0.306303 0.670964
O O7 0.978456 0.508695 0.807157
O O8 0.000000 0.500000 0.000000
O O9 0.231601 0.562919 0.838680
O O10 0.288168 0.870059 0.790616
O O11 0.605815 0.820938 0.140051
O O12 0.815365 0.908521 0.605603
O O13 0.624390 0.860715 0.634998
O O14 0.419542 0.123188 0.717643
O O15 0.496774 0.974438 0.663653
O O16 0.224247 0.650862 0.464102
O O17 0.000000 0.000000 0.500000
#
# Coordination Sequence:
#
# PCOD8036223 Si02
#       8
#     2   2   2   2   2   2   2   2
#     4  12  25  47  72 102 144 192 235 289 360 420
#     4  12  26  43  71 107 140 183 234 297 355 419
#     4  11  27  47  72 105 144 189 243 293 346 426
#     4  12  25  44  74 104 145 184 238 294 360 422
#     4  12  23  46  71 102 142 183 236 288 359 419
#     4  12  27  46  71 105 148 183 240 294 348 426
#     4  12  25  46  71 105 143 191 232 290 358 427
#     4  11  26  46  76 105 140 191 240 295 355 416
#
# _framework density 22.132432999999999
#
# number of rings (size 3 to 8) (size 9 to 14) (size 15 to 20)
#    0.000    0.250    3.750    5.250    5.250    1.500 
#    0.000    0.000    0.000    0.000    0.000    0.000 
#    0.000    0.000    0.000    0.000    0.000    0.000 
#
# Total GULP energy -198457.910214 kJ/mol
# GULP energy per Si atom -12403.619388 kJ/mol
# Density = 2.208206 g / cm^3
# Si number density = 22.132433 Si / 1000 Ang^3
#
#
#
# Elastic Constant Matrix: (Units=GPa)
#
#
# Indices 1 2 3 4 5 6 
#
# 1 93.1013 21.9625 34.3242 8.0804 -4.7822 8.0770
# 2 21.9625 67.7081 24.4962 16.1248 4.2251 8.8630
# 3 34.3242 24.4962 145.8485 12.8040 -12.4268 5.3408
# 4 8.0804 16.1248 12.8040 37.4035 5.0450 6.9295
# 5 -4.7822 4.2251 -12.4268 5.0450 41.7138 0.9478
# 6 8.0770 8.8630 5.3408 6.9295 0.9478 28.1838
#
#
#
# Elastic Compliance Matrix: (Units=1/GPa)
#
#
# Indices 1 2 3 4 5 6 
#
# 1 0.012548 -0.002945 -0.002241 -0.000428 0.001170 -0.002179
# 2 -0.002945 0.018324 -0.001937 -0.005762 -0.002004 -0.003067
# 3 -0.002241 -0.001937 0.008084 -0.001808 0.002564 0.000078
# 4 -0.000428 -0.005762 -0.001808 0.031414 -0.003682 -0.005323
# 5 0.001170 -0.002004 0.002564 -0.003682 0.025523 -0.000144
# 6 -0.002179 -0.003067 0.000078 -0.005323 -0.000144 0.038369
#
#
# Mechanical properties :
#
#
# Convention : Reuss Voigt Hill
#
# Bulk Modulus (GPa) = 40.47153 52.02484 46.24819
# Shear Modulus (GPa) = 31.89882 36.51855 34.20868
#
# Velocity S-wave (km/s) = 3.80053 4.06643 3.93572
# Velocity P-wave (km/s) = 6.13061 6.75315 6.44940
#
# Compressibility (1/GPa) = 0.02470873
#
# Stress axis : x y z
#
# Youngs Moduli (GPa) = 79.69109 54.57262 123.70645
#
# Poissons Ratio (x) = 0.16073 0.27727
# Poissons Ratio (y) = 0.23471 0.23964
# Poissons Ratio (z) = 0.17862 0.10572
#
# Static dielectric constant tensor:
#      x y z
#    x 4.024980 -0.050790 -0.188320 
#    y -0.050790 3.641990 -0.399360 
#    z -0.188320 -0.399360 3.546010 
# 
# 
# High freq. dielectric constant tensor:
#      x y z
#    x 1.878090 -0.002340 -0.008330 
#    y -0.002340 1.870790 -0.000700 
#    z -0.008330 -0.000700 1.893570 
# 
# From -- ./inp_files/274113.got.cif
#   From: 2010.06.25/outbox.cif.g09.slc.cpg/sg2_138_cif.got.tgz:274113.got - 2010.06.27 13:26:56.
