data_PCOD8036028
_publ_section_title
;
Structure prediction by ZEFSAII (Michael W. Deem and Ramdas Pophale) SiO2 
 PCOD8036028
Probable space group: P -1
;
_chemical_formula_sum "Si O2"
_cell_formula_units_Z 14
_cell_length_a 12.294966
_cell_length_b 8.856508
_cell_length_c 8.489920
_cell_angle_alpha 67.748583
_cell_angle_beta 131.725997
_cell_angle_gamma 127.033307
_cell_volume 550.408217
_symmetry_space_group_name_H-M "P -1"
_symmetry_group_IT_number 2
_symmetry_cell_setting 'triclinic'
loop_
_space_group_symop_operation_xyz
x,y,z
-x,-y,-z
loop_
_atom_site_type_symbol
_atom_site_label
_atom_site_fract_x
_atom_site_fract_y
_atom_site_fract_z
Si Si1 0.316969 0.331964 0.351465
Si Si2 0.853486 0.685297 0.488189
Si Si3 0.751053 0.470758 0.065860
Si Si4 0.871805 0.319455 0.603626
Si Si5 0.605631 0.769466 0.057943
Si Si6 0.654250 0.968811 0.693249
Si Si7 0.769138 0.132691 0.256727
O O1 0.500000 0.500000 0.500000
O O2 0.203324 0.268407 0.421025
O O3 0.333436 0.156412 0.382875
O O4 0.230602 0.393920 0.111409
O O5 0.822931 0.474393 0.543663
O O6 0.741976 0.701928 0.234202
O O7 0.048403 0.846388 0.596349
O O8 0.746336 0.282484 0.067613
O O9 0.928803 0.583473 0.293637
O O10 0.583003 0.411948 0.031496
O O11 0.750443 0.191814 0.393622
O O12 0.825239 0.176248 0.763816
O O13 0.629320 0.920321 0.157925
O O14 0.637907 0.869190 0.882268
O O15 0.500000 0.000000 0.500000
#
# Coordination Sequence:
#
# PCOD8036028 Si02
#       7
#     2   2   2   2   2   2   2
#     4  12  27  47  78 111 160 196 263 312 383 449
#     4  11  25  49  78 114 152 205 253 319 376 457
#     4  11  26  46  81 111 152 204 253 312 387 451
#     4  11  27  51  80 111 160 197 257 313 388 451
#     4  12  27  48  83 112 151 203 262 311 384 450
#     4  12  30  49  78 117 157 199 255 322 381 452
#     4  11  26  48  80 112 156 197 263 310 383 454
#
# _framework density 25.435666000000001
#
# number of rings (size 3 to 8) (size 9 to 14) (size 15 to 20)
#    0.000    0.571    1.429    5.143   10.000    3.429 
#    0.000    0.000    0.000    0.000    0.000    0.000 
#    0.000    0.000    0.000    0.000    0.000    0.000 
#
# Total GULP energy -173640.808665 kJ/mol
# GULP energy per Si atom -12402.914905 kJ/mol
# Density = 2.537777 g / cm^3
# Si number density = 25.435666 Si / 1000 Ang^3
#
#
#
# Elastic Constant Matrix: (Units=GPa)
#
#
# Indices 1 2 3 4 5 6 
#
# 1 143.7456 34.5621 51.3860 -11.6219 7.6446 1.8761
# 2 34.5621 112.4047 42.6838 -10.4916 1.8390 4.1366
# 3 51.3860 42.6838 116.3713 -24.6384 3.2065 -8.8861
# 4 -11.6219 -10.4916 -24.6384 48.8030 -5.9114 -1.9531
# 5 7.6446 1.8390 3.2065 -5.9114 49.8601 -4.5616
# 6 1.8761 4.1366 -8.8861 -1.9531 -4.5616 46.1569
#
#
#
# Elastic Compliance Matrix: (Units=1/GPa)
#
#
# Indices 1 2 3 4 5 6 
#
# 1 0.008536 -0.001304 -0.003361 -0.000124 -0.001150 -0.000996
# 2 -0.001304 0.010671 -0.003416 0.000185 -0.000095 -0.001562
# 3 -0.003361 -0.003416 0.012621 0.005050 0.000717 0.003157
# 4 -0.000124 0.000185 0.005050 0.023463 0.002672 0.002218
# 5 -0.001150 -0.000095 0.000717 0.002672 0.020722 0.002354
# 6 -0.000996 -0.001562 0.003157 0.002218 0.002354 0.022780
#
#
# Mechanical properties :
#
#
# Convention : Reuss Voigt Hill
#
# Bulk Modulus (GPa) = 63.83598 69.97617 66.90607
# Shear Modulus (GPa) = 41.60530 45.22331 43.41431
#
# Velocity S-wave (km/s) = 4.04878 4.22115 4.13586
# Velocity P-wave (km/s) = 6.85626 7.16437 7.01201
#
# Compressibility (1/GPa) = 0.01566515
#
# Stress axis : x y z
#
# Youngs Moduli (GPa) = 117.14867 93.71393 79.23412
#
# Poissons Ratio (x) = 0.12223 0.26635
# Poissons Ratio (y) = 0.15280 0.27062
# Poissons Ratio (z) = 0.39380 0.32008
#
# Static dielectric constant tensor:
#      x y z
#    x 4.476420 0.194690 -0.239160 
#    y 0.194690 5.043790 -0.379550 
#    z -0.239160 -0.379550 5.052290 
# 
# 
# High freq. dielectric constant tensor:
#      x y z
#    x 2.020920 -0.006270 0.012950 
#    y -0.006270 2.036650 -0.013750 
#    z 0.012950 -0.013750 2.018850 
# 
# From -- ./inp_files/243232.got.cif
#   From: 2010.06.25/outbox.cif.g09.slc.cpg/sg2_122_cif.got.tgz:243232.got - 2010.06.27 13:26:56.
