data_PCOD8036571
_publ_section_title
;
Structure prediction by ZEFSAII (Michael W. Deem and Ramdas Pophale) SiO2 
 PCOD8036571
Probable space group: P -1
;
_chemical_formula_sum "Si O2"
_cell_formula_units_Z 16
_cell_length_a 11.444343
_cell_length_b 17.333963
_cell_length_c 21.510495
_cell_angle_alpha 19.974385
_cell_angle_beta 32.423342
_cell_angle_gamma 31.621673
_cell_volume 741.053841
_symmetry_space_group_name_H-M "P -1"
_symmetry_group_IT_number 2
_symmetry_cell_setting 'triclinic'
loop_
_space_group_symop_operation_xyz
x,y,z
-x,-y,-z
loop_
_atom_site_type_symbol
_atom_site_label
_atom_site_fract_x
_atom_site_fract_y
_atom_site_fract_z
Si Si1 0.993420 0.720693 0.104416
Si Si2 0.388774 0.825085 0.062560
Si Si3 0.829334 0.482608 0.948552
Si Si4 0.356236 0.886023 0.885028
Si Si5 0.917474 0.225371 0.325527
Si Si6 0.595703 0.623078 0.543359
Si Si7 0.126194 0.134465 0.166627
Si Si8 0.289660 0.584067 0.485278
O O1 0.159310 0.604133 0.061366
O O2 0.910112 0.523089 0.325646
O O3 0.135994 0.813167 0.021157
O O4 0.782290 0.938700 0.006979
O O5 0.293567 0.600066 0.289722
O O6 0.373745 0.898871 0.941261
O O7 0.647617 0.777422 0.009551
O O8 0.585691 0.684102 0.912613
O O9 0.041286 0.574540 0.800606
O O10 0.892453 0.262464 0.135457
O O11 0.314342 0.148225 0.673819
O O12 0.654080 0.276392 0.390871
O O13 0.065830 0.185490 0.226928
O O14 0.000000 0.000000 0.500000
O O15 0.609401 0.502243 0.562038
O O16 0.185246 0.865150 0.323180
O O17 0.500000 0.500000 0.500000
#
# Coordination Sequence:
#
# PCOD8036571 Si02
#       8
#     2   2   2   2   2   2   2   2
#     4  12  27  46  69  94 143 187 219 281 337 405
#     4  12  24  45  73 103 134 178 227 283 343 399
#     4  12  24  43  69  98 137 176 226 280 339 396
#     4  12  26  50  66  98 141 184 231 270 335 415
#     4  12  21  39  68 100 135 175 219 280 345 394
#     4  12  25  41  72 102 132 181 228 279 337 403
#     4  12  24  42  70 108 135 168 228 293 340 398
#     4  12  24  43  68 102 140 175 228 280 344 401
#
# _framework density 21.590875
#
# number of rings (size 3 to 8) (size 9 to 14) (size 15 to 20)
#    0.000    0.000    6.250    4.875    0.000    1.500 
#    2.250    0.625    0.000    0.000    0.000    0.000 
#    0.000    0.000    0.000    0.000    0.000    0.000 
#
# Total GULP energy -198276.584730 kJ/mol
# GULP energy per Si atom -12392.286546 kJ/mol
# Density = 2.154173 g / cm^3
# Si number density = 21.590875 Si / 1000 Ang^3
#
#
#
# Elastic Constant Matrix: (Units=GPa)
#
#
# Indices 1 2 3 4 5 6 
#
# 1 58.6377 12.8180 33.2709 0.3443 -10.5135 2.4036
# 2 12.8180 125.7325 21.5718 -4.4932 -1.3483 8.4626
# 3 33.2709 21.5718 159.1118 -20.0951 3.1887 1.8750
# 4 0.3443 -4.4932 -20.0951 35.5824 -4.3906 -3.3863
# 5 -10.5135 -1.3483 3.1887 -4.3906 37.8114 -0.5824
# 6 2.4036 8.4626 1.8750 -3.3863 -0.5824 26.9907
#
#
#
# Elastic Compliance Matrix: (Units=1/GPa)
#
#
# Indices 1 2 3 4 5 6 
#
# 1 0.021097 -0.001287 -0.004641 -0.002384 0.005914 -0.001324
# 2 -0.001287 0.008397 -0.000791 0.000399 0.000017 -0.002413
# 3 -0.004641 -0.000791 0.007928 0.004299 -0.001479 0.000618
# 4 -0.002384 0.000399 0.004299 0.031295 0.002681 0.003773
# 5 0.005914 0.000017 -0.001479 0.002681 0.028536 0.000523
# 6 -0.001324 -0.002413 0.000618 0.003773 0.000523 0.038366
#
#
# Mechanical properties :
#
#
# Convention : Reuss Voigt Hill
#
# Bulk Modulus (GPa) = 41.69428 53.20038 47.44733
# Shear Modulus (GPa) = 31.83662 38.46499 35.15081
#
# Velocity S-wave (km/s) = 3.84414 4.22541 4.03928
# Velocity P-wave (km/s) = 6.24950 6.96413 6.61647
#
# Compressibility (1/GPa) = 0.02398411
#
# Stress axis : x y z
#
# Youngs Moduli (GPa) = 47.39957 119.08824 126.13825
#
# Poissons Ratio (x) = 0.15329 0.58541
# Poissons Ratio (y) = 0.06101 0.09976
# Poissons Ratio (z) = 0.21998 0.09418
#
# Static dielectric constant tensor:
#      x y z
#    x 3.710590 0.007300 0.089260 
#    y 0.007300 4.127170 -0.245970 
#    z 0.089260 -0.245970 4.297650 
# 
# 
# High freq. dielectric constant tensor:
#      x y z
#    x 1.828170 0.005620 0.008410 
#    y 0.005620 1.870670 -0.013130 
#    z 0.008410 -0.013130 1.862030 
# 
# From -- ./inp_files/209494.got.cif
#   From: 2010.06.25/outbox.cif.g09.slc.cpg/sg2_105_cif.got.tgz:209494.got - 2010.06.27 13:26:56.
