data_PCOD8036850
_publ_section_title
;
Structure prediction by ZEFSAII (Michael W. Deem and Ramdas Pophale) SiO2 
 PCOD8036850
Probable space group: P -1
;
_chemical_formula_sum "Si O2"
_cell_formula_units_Z 16
_cell_length_a 8.942103
_cell_length_b 14.668043
_cell_length_c 12.391291
_cell_angle_alpha 140.256442
_cell_angle_beta 50.094629
_cell_angle_gamma 111.139979
_cell_volume 767.421405
_symmetry_space_group_name_H-M "P -1"
_symmetry_group_IT_number 2
_symmetry_cell_setting 'triclinic'
loop_
_space_group_symop_operation_xyz
x,y,z
-x,-y,-z
loop_
_atom_site_type_symbol
_atom_site_label
_atom_site_fract_x
_atom_site_fract_y
_atom_site_fract_z
Si Si1 0.032816 0.135908 0.872322
Si Si2 0.965851 0.836502 0.551358
Si Si3 0.603193 0.878363 0.152727
Si Si4 0.767860 0.523387 0.147540
Si Si5 0.611369 0.359501 0.888027
Si Si6 0.761209 0.837097 0.417022
Si Si7 0.352414 0.632477 0.749011
Si Si8 0.386125 0.151403 0.129461
O O1 0.208079 0.102445 0.849058
O O2 0.094143 0.194267 0.782804
O O3 0.961554 0.991393 0.748134
O O4 0.839214 0.258004 0.124389
O O5 0.886766 0.856748 0.483199
O O6 0.817725 0.772157 0.638288
O O7 0.194234 0.732903 0.353293
O O8 0.543701 0.734524 0.093346
O O9 0.413873 0.016123 0.390202
O O10 0.663296 0.876667 0.997422
O O11 0.660736 0.699963 0.350401
O O12 0.749506 0.464034 0.218031
O O13 0.677578 0.421785 0.021781
O O14 0.000000 0.500000 0.000000
O O15 0.500000 0.500000 0.000000
O O16 0.500000 0.500000 0.500000
O O17 0.476921 0.735407 0.839574
O O18 0.500000 0.000000 0.000000
#
# Coordination Sequence:
#
# PCOD8036850 Si02
#       8
#     2   2   2   2   2   2   2   2
#     4  12  25  44  72 110 141 180 242 296 351 417
#     4  12  25  44  77 102 142 190 239 292 347 423
#     4  12  27  46  73 105 148 185 234 295 356 424
#     4  12  24  42  70 103 138 178 237 292 347 414
#     4  12  27  46  69 107 144 182 233 300 359 409
#     4  12  23  42  77 106 136 183 241 294 353 416
#     4  12  26  46  71 102 140 184 238 289 347 418
#     4  12  25  48  70 104 142 190 239 282 349 432
#
# _framework density 20.849039999999999
#
# number of rings (size 3 to 8) (size 9 to 14) (size 15 to 20)
#    0.000    0.000    7.500    2.250    1.750    0.500 
#    2.250    1.250    0.000    0.000    0.000    0.000 
#    0.000    0.000    0.000    0.000    0.000    0.000 
#
# Total GULP energy -198333.748375 kJ/mol
# GULP energy per Si atom -12395.859273 kJ/mol
# Density = 2.080159 g / cm^3
# Si number density = 20.849040 Si / 1000 Ang^3
#
#
#
# Elastic Constant Matrix: (Units=GPa)
#
#
# Indices 1 2 3 4 5 6 
#
# 1 82.4927 32.4957 53.3313 -14.2591 0.1464 -2.8985
# 2 32.4957 120.2768 33.4877 3.9490 -2.3877 -2.5058
# 3 53.3313 33.4877 127.3137 6.6859 -13.9426 -15.7067
# 4 -14.2591 3.9490 6.6859 42.9157 1.4108 5.0469
# 5 0.1464 -2.3877 -13.9426 1.4108 34.1756 6.1431
# 6 -2.8985 -2.5058 -15.7067 5.0469 6.1431 31.1800
#
#
#
# Elastic Compliance Matrix: (Units=1/GPa)
#
#
# Indices 1 2 3 4 5 6 
#
# 1 0.020958 -0.003557 -0.009209 0.009289 -0.003808 -0.003730
# 2 -0.003557 0.009591 -0.000857 -0.001973 0.000371 0.000255
# 3 -0.009209 -0.000857 0.013489 -0.005931 0.004665 0.005911
# 4 0.009289 -0.001973 -0.005931 0.028327 -0.002625 -0.006350
# 5 -0.003808 0.000371 0.004665 -0.002625 0.032007 -0.003855
# 6 -0.003730 0.000255 0.005911 -0.006350 -0.003855 0.036511
#
#
# Mechanical properties :
#
#
# Convention : Reuss Voigt Hill
#
# Bulk Modulus (GPa) = 59.54824 63.19030 61.36927
# Shear Modulus (GPa) = 28.78084 35.70549 32.24317
#
# Velocity S-wave (km/s) = 3.71946 4.14281 3.93683
# Velocity P-wave (km/s) = 6.86072 7.29782 7.08264
#
# Compressibility (1/GPa) = 0.01679311
#
# Stress axis : x y z
#
# Youngs Moduli (GPa) = 47.71396 104.26202 74.13331
#
# Poissons Ratio (x) = 0.37083 0.68268
# Poissons Ratio (y) = 0.16971 0.06355
# Poissons Ratio (z) = 0.43939 0.08938
#
# Static dielectric constant tensor:
#      x y z
#    x 3.763010 0.184660 0.083350 
#    y 0.184660 4.116450 0.249590 
#    z 0.083350 0.249590 4.207430 
# 
# 
# High freq. dielectric constant tensor:
#      x y z
#    x 1.812200 0.010470 -0.001080 
#    y 0.010470 1.832100 0.006640 
#    z -0.001080 0.006640 1.828230 
# 
# From -- ./inp_files/184180.got.cif
#   From: 2010.06.25/outbox.cif.g09.slc.cpg/sg2_93_cif.got.tgz:184180.got - 2010.06.27 13:26:56.
