data_PCOD8036213
_publ_section_title
;
Structure prediction by ZEFSAII (Michael W. Deem and Ramdas Pophale) SiO2 
 PCOD8036213
Probable space group: P -1
;
_chemical_formula_sum "Si O2"
_cell_formula_units_Z 14
_cell_length_a 10.740999
_cell_length_b 28.003252
_cell_length_c 14.457099
_cell_angle_alpha 19.999849
_cell_angle_beta 148.281617
_cell_angle_gamma 157.562187
_cell_volume 562.284301
_symmetry_space_group_name_H-M "P -1"
_symmetry_group_IT_number 2
_symmetry_cell_setting 'triclinic'
loop_
_space_group_symop_operation_xyz
x,y,z
-x,-y,-z
loop_
_atom_site_type_symbol
_atom_site_label
_atom_site_fract_x
_atom_site_fract_y
_atom_site_fract_z
Si Si1 0.895531 0.550931 0.620865
Si Si2 0.821365 0.805827 0.632352
Si Si3 0.849166 0.844382 0.104305
Si Si4 0.827769 0.359673 0.561305
Si Si5 0.933578 0.797019 0.916564
Si Si6 0.221271 0.510539 0.045450
Si Si7 0.860234 0.098554 0.522939
O O1 0.993832 0.746770 0.364613
O O2 0.538998 0.344417 0.795097
O O3 0.925592 0.553182 0.526779
O O4 0.156235 0.552383 0.828344
O O5 0.486408 0.676025 0.597654
O O6 0.818303 0.704940 0.905504
O O7 0.105716 0.875299 0.614260
O O8 0.873510 0.982856 0.377685
O O9 0.923995 0.966192 0.838004
O O10 0.000000 0.000000 0.000000
O O11 0.000000 0.500000 0.500000
O O12 0.785846 0.185923 0.891791
O O13 0.616808 0.679898 0.999058
O O14 0.121769 0.307653 0.357126
O O15 0.000000 0.500000 0.000000
O O16 0.500000 0.000000 0.500000
#
# Coordination Sequence:
#
# PCOD8036213 Si02
#       7
#     2   2   2   2   2   2   2
#     4  11  26  49  72 110 156 193 260 318 378 462
#     4  11  26  49  71 108 145 196 253 317 377 460
#     4  11  26  46  74 108 148 200 248 317 385 455
#     4  12  27  46  74 106 150 203 251 311 378 459
#     4  11  26  47  76 103 149 198 252 311 388 449
#     4  12  25  45  74 105 148 197 249 315 384 449
#     4  12  25  45  72 104 144 187 250 306 374 454
#
# _framework density 24.898436
#
# number of rings (size 3 to 8) (size 9 to 14) (size 15 to 20)
#    0.000    0.571    2.857    3.857   10.000    1.143 
#    0.000    0.000    0.000    0.000    0.000    0.000 
#    0.000    0.000    0.000    0.000    0.000    0.000 
#
# Total GULP energy -173477.932245 kJ/mol
# GULP energy per Si atom -12391.280875 kJ/mol
# Density = 2.484177 g / cm^3
# Si number density = 24.898436 Si / 1000 Ang^3
#
#
#
# Elastic Constant Matrix: (Units=GPa)
#
#
# Indices 1 2 3 4 5 6 
#
# 1 121.7447 0.2449 17.1970 -0.7450 -14.6703 -15.0520
# 2 0.2449 68.5410 13.4696 1.3573 -1.5392 -11.9835
# 3 17.1970 13.4696 124.9005 -10.8372 -2.2315 -8.2841
# 4 -0.7450 1.3573 -10.8372 40.8181 -10.8571 4.6178
# 5 -14.6703 -1.5392 -2.2315 -10.8571 37.1944 -1.6151
# 6 -15.0520 -11.9835 -8.2841 4.6178 -1.6151 36.4708
#
#
#
# Elastic Compliance Matrix: (Units=1/GPa)
#
#
# Indices 1 2 3 4 5 6 
#
# 1 0.009338 0.000954 -0.001008 0.000470 0.003975 0.004055
# 2 0.000954 0.015897 -0.001586 -0.001341 0.000784 0.005461
# 3 -0.001008 -0.001586 0.008592 0.002444 0.000798 0.000740
# 4 0.000470 -0.001341 0.002444 0.027714 0.008243 -0.002836
# 5 0.003975 0.000784 0.000798 0.008243 0.031045 0.002411
# 6 0.004055 0.005461 0.000740 -0.002836 0.002411 0.031521
#
#
# Mechanical properties :
#
#
# Convention : Reuss Voigt Hill
#
# Bulk Modulus (GPa) = 32.73746 41.88993 37.31369
# Shear Modulus (GPa) = 36.34553 41.84830 39.09692
#
# Velocity S-wave (km/s) = 3.82481 4.10416 3.96694
# Velocity P-wave (km/s) = 5.71687 6.27054 6.00009
#
# Compressibility (1/GPa) = 0.03054605
#
# Stress axis : x y z
#
# Youngs Moduli (GPa) = 107.09486 62.90471 116.39331
#
# Poissons Ratio (x) = -0.05998 0.11730
# Poissons Ratio (y) = -0.10212 0.18458
# Poissons Ratio (z) = 0.10793 0.09976
#
# Static dielectric constant tensor:
#      x y z
#    x 4.542630 0.068630 0.187350 
#    y 0.068630 6.723210 2.331230 
#    z 0.187350 2.331230 7.032640 
# 
# 
# High freq. dielectric constant tensor:
#      x y z
#    x 1.996890 -0.010670 -0.003430 
#    y -0.010670 1.982510 0.001080 
#    z -0.003430 0.001080 2.013320 
# 
# From -- ./inp_files/524626.got.cif
#   From: 2010.06.25/outbox.cif.g09.slc.cpg/sg2_263_cif.got.tgz:524626.got - 2010.06.27 13:26:56.
