data_PCOD8036190
_publ_section_title
;
Structure prediction by ZEFSAII (Michael W. Deem and Ramdas Pophale) SiO2 
 PCOD8036190
Probable space group: P -1
;
_chemical_formula_sum "Si O2"
_cell_formula_units_Z 14
_cell_length_a 14.850417
_cell_length_b 26.415401
_cell_length_c 15.128897
_cell_angle_alpha 158.866633
_cell_angle_beta 19.416490
_cell_angle_gamma 161.703103
_cell_volume 578.469712
_symmetry_space_group_name_H-M "P -1"
_symmetry_group_IT_number 2
_symmetry_cell_setting 'triclinic'
loop_
_space_group_symop_operation_xyz
x,y,z
-x,-y,-z
loop_
_atom_site_type_symbol
_atom_site_label
_atom_site_fract_x
_atom_site_fract_y
_atom_site_fract_z
Si Si1 0.838766 0.684559 0.490414
Si Si2 0.492453 0.849259 0.383373
Si Si3 0.560165 0.852466 0.129840
Si Si4 0.271451 0.827254 0.873286
Si Si5 0.801362 0.910317 0.381631
Si Si6 0.757970 0.705743 0.406927
Si Si7 0.038317 0.546641 0.774023
O O1 0.500000 0.500000 0.500000
O O2 0.946295 0.747200 0.392783
O O3 0.158705 0.697831 0.254717
O O4 0.777425 0.807738 0.801865
O O5 0.678532 0.875979 0.160697
O O6 0.752475 0.900349 0.304869
O O7 0.171603 0.655179 0.381221
O O8 0.379058 0.977658 0.694086
O O9 0.454405 0.837061 0.630518
O O10 0.171343 0.656525 0.739865
O O11 0.932162 0.798756 0.109401
O O12 0.500000 0.000000 0.000000
O O13 0.077676 0.105480 0.479462
O O14 0.363297 0.602558 0.621189
O O15 0.812893 0.588259 0.103438
#
# Coordination Sequence:
#
# PCOD8036190 Si02
#       7
#     2   2   2   2   2   2   2
#     4  12  24  43  72 107 136 182 240 287 335 412
#     4  11  28  48  69 106 143 190 227 284 353 422
#     4  11  26  46  71  98 147 188 223 283 356 410
#     4  12  24  44  73 103 134 183 230 297 348 401
#     4  12  25  44  73  99 139 181 235 282 350 417
#     4  12  23  43  71 103 135 185 231 293 341 408
#     4  12  26  44  72 102 145 179 237 288 348 414
#
# _framework density 24.201785999999998
#
# number of rings (size 3 to 8) (size 9 to 14) (size 15 to 20)
#    0.000    0.286    4.286    4.286    2.000    6.857 
#    0.000    0.000    0.000    0.000    0.000    0.000 
#    0.000    0.000    0.000    0.000    0.000    0.000 
#
# Total GULP energy -173640.443464 kJ/mol
# GULP energy per Si atom -12402.888819 kJ/mol
# Density = 2.414670 g / cm^3
# Si number density = 24.201786 Si / 1000 Ang^3
#
#
#
# Elastic Constant Matrix: (Units=GPa)
#
#
# Indices 1 2 3 4 5 6 
#
# 1 125.4435 16.7944 23.4294 4.2019 2.2376 7.2463
# 2 16.7944 125.1438 9.4705 17.0875 1.1036 7.2233
# 3 23.4294 9.4705 53.8453 -7.1929 2.3491 9.8852
# 4 4.2019 17.0875 -7.1929 27.4465 3.7807 -2.4152
# 5 2.2376 1.1036 2.3491 3.7807 30.9647 -9.8795
# 6 7.2463 7.2233 9.8852 -2.4152 -9.8795 32.3355
#
#
#
# Elastic Compliance Matrix: (Units=1/GPa)
#
#
# Indices 1 2 3 4 5 6 
#
# 1 0.008898 -0.000563 -0.003854 -0.002053 -0.000387 -0.000962
# 2 -0.000563 0.009170 -0.001878 -0.006280 0.000048 -0.001802
# 3 -0.003854 -0.001878 0.023016 0.007828 -0.004438 -0.006524
# 4 -0.002053 -0.006280 0.007828 0.043523 -0.005172 0.001140
# 5 -0.000387 0.000048 -0.004438 -0.005172 0.037255 0.012429
# 6 -0.000962 -0.001802 -0.006524 0.001140 0.012429 0.037421
#
#
# Mechanical properties :
#
#
# Convention : Reuss Voigt Hill
#
# Bulk Modulus (GPa) = 35.09462 44.86902 39.98182
# Shear Modulus (GPa) = 27.56808 35.13190 31.34999
#
# Velocity S-wave (km/s) = 3.37871 3.81415 3.60301
# Velocity P-wave (km/s) = 5.45465 6.16253 5.81936
#
# Compressibility (1/GPa) = 0.02849440
#
# Stress axis : x y z
#
# Youngs Moduli (GPa) = 112.38395 109.05619 43.44831
#
# Poissons Ratio (x) = 0.06143 0.16743
# Poissons Ratio (y) = 0.06331 0.08159
# Poissons Ratio (z) = 0.43307 0.20478
#
# Static dielectric constant tensor:
#      x y z
#    x 4.700630 -0.088060 -0.016750 
#    y -0.088060 4.421130 0.077480 
#    z -0.016750 0.077480 4.250510 
# 
# 
# High freq. dielectric constant tensor:
#      x y z
#    x 1.970810 -0.002550 -0.002940 
#    y -0.002550 1.972550 -0.002260 
#    z -0.002940 -0.002260 1.955800 
# 
# From -- ./inp_files/535730.got.cif
#   From: 2010.06.25/outbox.cif.g09.slc.cpg/sg2_268_cif.got.tgz:535730.got - 2010.06.27 13:26:56.
