data_PCOD8036203
_publ_section_title
;
Structure prediction by ZEFSAII (Michael W. Deem and Ramdas Pophale) SiO2 
 PCOD8036203
Probable space group: P -1
;
_chemical_formula_sum "Si O2"
_cell_formula_units_Z 12
_cell_length_a 10.373276
_cell_length_b 13.762792
_cell_length_c 13.278217
_cell_angle_alpha 159.118736
_cell_angle_beta 67.461748
_cell_angle_gamma 123.451330
_cell_volume 505.436894
_symmetry_space_group_name_H-M "P -1"
_symmetry_group_IT_number 2
_symmetry_cell_setting 'triclinic'
loop_
_space_group_symop_operation_xyz
x,y,z
-x,-y,-z
loop_
_atom_site_type_symbol
_atom_site_label
_atom_site_fract_x
_atom_site_fract_y
_atom_site_fract_z
Si Si1 0.032556 0.271688 0.830654
Si Si2 0.240840 0.216953 0.405254
Si Si3 0.493974 0.534753 0.263824
Si Si4 0.858641 0.624111 0.718049
Si Si5 0.154358 0.667420 0.762006
Si Si6 0.410397 0.831338 0.260288
O O1 0.911961 0.110537 0.807403
O O2 0.230153 0.494553 0.020894
O O3 0.000000 0.000000 0.500000
O O4 0.000000 0.500000 0.000000
O O5 0.414696 0.445792 0.639809
O O6 0.173008 0.437507 0.610104
O O7 0.271649 0.056675 0.143195
O O8 0.297260 0.398761 0.205230
O O9 0.607662 0.910733 0.548139
O O10 0.485016 0.267452 0.933196
O O11 0.781540 0.351469 0.386238
O O12 0.954410 0.536437 0.685010
O O13 0.000000 0.000000 0.000000
O O14 0.500000 0.000000 0.500000
#
# Coordination Sequence:
#
# PCOD8036203 Si02
#       6
#     2   2   2   2   2   2
#     4  12  23  46  73 104 150 191 238 294 366 433
#     4  12  24  45  76 107 140 192 243 296 363 433
#     4  12  28  47  74 107 149 188 246 309 360 431
#     4  11  27  51  72 105 149 190 242 304 373 435
#     4  11  26  46  73 106 139 192 240 296 367 434
#     4  12  27  47  71 111 148 196 243 301 363 435
#
# _framework density 23.741834999999998
#
# number of rings (size 3 to 8) (size 9 to 14) (size 15 to 20)
#    0.000    0.333    5.000    2.500    7.000    1.333 
#    0.000    0.000    0.000    0.000    0.000    0.000 
#    0.000    0.000    0.000    0.000    0.000    0.000 
#
# Total GULP energy -148828.513576 kJ/mol
# GULP energy per Si atom -12402.376131 kJ/mol
# Density = 2.368780 g / cm^3
# Si number density = 23.741835 Si / 1000 Ang^3
#
#
#
# Elastic Constant Matrix: (Units=GPa)
#
#
# Indices 1 2 3 4 5 6 
#
# 1 170.0436 41.0584 59.4938 -12.7505 -8.0296 -18.1759
# 2 41.0584 46.6197 30.9615 -19.8696 3.9380 -4.4948
# 3 59.4938 30.9615 163.6385 -40.5272 -3.2924 -4.4868
# 4 -12.7505 -19.8696 -40.5272 53.9848 -3.3892 -6.5233
# 5 -8.0296 3.9380 -3.2924 -3.3892 49.4223 4.9026
# 6 -18.1759 -4.4948 -4.4868 -6.5233 4.9026 35.3733
#
#
#
# Elastic Compliance Matrix: (Units=1/GPa)
#
#
# Indices 1 2 3 4 5 6 
#
# 1 0.008446 -0.006559 -0.002121 -0.001593 0.001371 0.002754
# 2 -0.006559 0.032834 -0.001444 0.009583 -0.003404 0.002857
# 3 -0.002121 -0.001444 0.008556 0.005520 0.000646 0.000740
# 4 -0.001593 0.009583 0.005520 0.026571 0.000580 0.005919
# 5 0.001371 -0.003404 0.000646 0.000580 0.021054 -0.002457
# 6 0.002754 0.002857 0.000740 0.005919 -0.002457 0.031574
#
#
# Mechanical properties :
#
#
# Convention : Reuss Voigt Hill
#
# Bulk Modulus (GPa) = 33.79963 71.48104 52.64034
# Shear Modulus (GPa) = 31.41751 44.34195 37.87973
#
# Velocity S-wave (km/s) = 3.64166 4.32634 3.99868
# Velocity P-wave (km/s) = 5.65239 7.42491 6.59844
#
# Compressibility (1/GPa) = 0.02958613
#
# Stress axis : x y z
#
# Youngs Moduli (GPa) = 118.39286 30.45660 116.87651
#
# Poissons Ratio (x) = 0.19978 0.24792
# Poissons Ratio (y) = 0.77658 0.16882
# Poissons Ratio (z) = 0.25113 0.04399
#
# Static dielectric constant tensor:
#      x y z
#    x 4.518800 -0.056320 -0.116070 
#    y -0.056320 4.869980 0.427860 
#    z -0.116070 0.427860 5.043250 
# 
# 
# High freq. dielectric constant tensor:
#      x y z
#    x 1.956800 -0.009290 -0.009300 
#    y -0.009290 1.927800 -0.015280 
#    z -0.009300 -0.015280 1.960290 
# 
# From -- ./inp_files/29415.got.cif
#   From: 2010.06.25/outbox.cif.g09.slc.cpg/sg2_15_cif.got.tgz:29415.got - 2010.06.27 13:26:56.
