data_PCOD8036996
_publ_section_title
;
Structure prediction by ZEFSAII (Michael W. Deem and Ramdas Pophale) SiO2 
 PCOD8036996
Probable space group: P -1
;
_chemical_formula_sum "Si O2"
_cell_formula_units_Z 16
_cell_length_a 8.036719
_cell_length_b 12.710838
_cell_length_c 8.994987
_cell_angle_alpha 103.911532
_cell_angle_beta 61.163140
_cell_angle_gamma 118.816265
_cell_volume 705.214065
_symmetry_space_group_name_H-M "P -1"
_symmetry_group_IT_number 2
_symmetry_cell_setting 'triclinic'
loop_
_space_group_symop_operation_xyz
x,y,z
-x,-y,-z
loop_
_atom_site_type_symbol
_atom_site_label
_atom_site_fract_x
_atom_site_fract_y
_atom_site_fract_z
Si Si1 0.299361 0.873348 0.539356
Si Si2 0.413820 0.196831 0.113187
Si Si3 0.694119 0.627112 0.965260
Si Si4 0.979835 0.017251 0.187208
Si Si5 0.000606 0.485546 0.172798
Si Si6 0.197086 0.752755 0.231195
Si Si7 0.577738 0.300867 0.388024
Si Si8 0.206942 0.244006 0.727695
O O1 0.213091 0.829820 0.396438
O O2 0.347916 0.769256 0.550531
O O3 0.114818 0.886580 0.715220
O O4 0.500000 0.000000 0.500000
O O5 0.328149 0.293446 0.132131
O O6 0.214560 0.068213 0.170951
O O7 0.525046 0.229081 0.233594
O O8 0.577551 0.185132 0.923761
O O9 0.906534 0.608729 0.853858
O O10 0.500000 0.500000 0.000000
O O11 0.690626 0.691070 0.142318
O O12 0.831877 0.894303 0.291254
O O13 0.000000 0.000000 0.000000
O O14 0.762830 0.433120 0.321044
O O15 0.139774 0.612298 0.236154
O O16 0.000000 0.500000 0.000000
O O17 0.013249 0.751582 0.203967
O O18 0.371772 0.309708 0.546462
#
# Coordination Sequence:
#
# PCOD8036996 Si02
#       8
#     2   2   2   2   2   2   2   2
#     4  12  27  50  73 107 151 188 242 310 360 428
#     4  12  25  45  75 108 139 199 239 292 370 430
#     4  12  23  46  77 103 149 187 241 300 360 436
#     4  12  26  47  75 104 144 191 247 297 365 434
#     4  12  24  50  75 109 145 191 243 298 361 439
#     4  12  27  49  74 106 149 190 245 297 367 432
#     4  12  27  47  74 107 148 190 241 300 365 426
#     4  12  27  47  71 109 145 189 243 305 360 432
#
# _framework density 22.688148000000002
#
# number of rings (size 3 to 8) (size 9 to 14) (size 15 to 20)
#    0.000    0.000    6.250    3.000    3.500    2.500 
#    2.250    0.000    0.000    0.000    0.000    0.000 
#    0.000    0.000    0.000    0.000    0.000    0.000 
#
# Total GULP energy -198491.908538 kJ/mol
# GULP energy per Si atom -12405.744284 kJ/mol
# Density = 2.263651 g / cm^3
# Si number density = 22.688148 Si / 1000 Ang^3
#
#
#
# Elastic Constant Matrix: (Units=GPa)
#
#
# Indices 1 2 3 4 5 6 
#
# 1 91.9338 18.5019 21.7243 -3.8673 -11.0543 10.2852
# 2 18.5019 97.8567 35.6911 -1.5752 -4.8418 28.1514
# 3 21.7243 35.6911 93.0280 0.9007 -14.5956 18.3838
# 4 -3.8673 -1.5752 0.9007 40.9268 5.9820 -1.1901
# 5 -11.0543 -4.8418 -14.5956 5.9820 46.2225 2.7485
# 6 10.2852 28.1514 18.3838 -1.1901 2.7485 51.1595
#
#
#
# Elastic Compliance Matrix: (Units=1/GPa)
#
#
# Indices 1 2 3 4 5 6 
#
# 1 0.011957 -0.001136 -0.001782 0.000775 0.002151 -0.001236
# 2 -0.001136 0.013495 -0.003710 0.000282 0.000283 -0.005873
# 3 -0.001782 -0.003710 0.013756 -0.001259 0.003857 -0.002780
# 4 0.000775 0.000282 -0.001259 0.025081 -0.003483 0.000912
# 5 0.002151 0.000283 0.003857 -0.003483 0.024046 -0.003347
# 6 -0.001236 -0.005873 -0.002780 0.000912 -0.003347 0.024227
#
#
# Mechanical properties :
#
#
# Convention : Reuss Voigt Hill
#
# Bulk Modulus (GPa) = 38.53444 48.29480 43.41462
# Shear Modulus (GPa) = 37.18352 41.45518 39.31935
#
# Velocity S-wave (km/s) = 4.05272 4.27918 4.16749
# Velocity P-wave (km/s) = 6.23864 6.76371 6.50647
#
# Compressibility (1/GPa) = 0.02595081
#
# Stress axis : x y z
#
# Youngs Moduli (GPa) = 83.63542 74.10133 72.69782
#
# Poissons Ratio (x) = 0.08420 0.12955
# Poissons Ratio (y) = 0.09504 0.26970
# Poissons Ratio (z) = 0.14904 0.27491
#
# Static dielectric constant tensor:
#      x y z
#    x 4.272720 0.138680 -0.148140 
#    y 0.138680 4.498990 0.023770 
#    z -0.148140 0.023770 4.108870 
# 
# 
# High freq. dielectric constant tensor:
#      x y z
#    x 1.910990 0.013910 -0.008020 
#    y 0.013910 1.902200 0.001200 
#    z -0.008020 0.001200 1.894160 
# 
# From -- ./inp_files/189046.got.cif
#   From: 2010.06.25/outbox.cif.g09.slc.cpg/sg2_95_cif.got.tgz:189046.got - 2010.06.27 13:26:56.
