data_PCOD8036827
_publ_section_title
;
Structure prediction by ZEFSAII (Michael W. Deem and Ramdas Pophale) SiO2 
 PCOD8036827
Probable space group: P -1
;
_chemical_formula_sum "Si O2"
_cell_formula_units_Z 12
_cell_length_a 18.839667
_cell_length_b 4.901286
_cell_length_c 13.304542
_cell_angle_alpha 102.767882
_cell_angle_beta 27.028235
_cell_angle_gamma 100.538581
_cell_volume 544.202264
_symmetry_space_group_name_H-M "P -1"
_symmetry_group_IT_number 2
_symmetry_cell_setting 'triclinic'
loop_
_space_group_symop_operation_xyz
x,y,z
-x,-y,-z
loop_
_atom_site_type_symbol
_atom_site_label
_atom_site_fract_x
_atom_site_fract_y
_atom_site_fract_z
Si Si1 0.057207 0.079655 0.042647
Si Si2 0.626212 0.487406 0.930245
Si Si3 0.907089 0.649355 0.324831
Si Si4 0.595580 0.535082 0.605098
Si Si5 0.840111 0.949901 0.638697
Si Si6 0.611460 0.939409 0.445537
O O1 0.955323 0.324464 0.243603
O O2 0.043775 0.811223 0.109486
O O3 0.232784 0.174978 0.815558
O O4 0.000000 0.000000 0.000000
O O5 0.718196 0.776224 0.844558
O O6 0.753412 0.235086 0.733981
O O7 0.500000 0.500000 0.000000
O O8 0.542717 0.448461 0.138577
O O9 0.745726 0.689501 0.470986
O O10 0.885140 0.757119 0.472766
O O11 0.641236 0.216053 0.495465
O O12 0.542173 0.702637 0.585984
O O13 0.000000 0.000000 0.500000
O O14 0.500000 0.000000 0.500000
#
# Coordination Sequence:
#
# PCOD8036827 Si02
#       6
#     2   2   2   2   2   2
#     4  12  23  42  70  98 133 179 234 282 341 413
#     4  12  26  46  78 105 141 192 244 289 355 436
#     4  12  24  42  74 100 133 185 235 280 346 421
#     4  12  24  44  73  99 136 184 238 280 347 425
#     4  12  28  48  71 110 150 182 237 307 358 415
#     4  12  27  44  66 103 141 177 229 296 348 409
#
# _framework density 22.050623000000002
#
# number of rings (size 3 to 8) (size 9 to 14) (size 15 to 20)
#    0.000    0.000    5.000    5.000    2.333    4.000 
#    0.000    0.000    0.000    0.000    0.000    0.000 
#    0.000    0.000    0.000    0.000    0.000    0.000 
#
# Total GULP energy -148864.209369 kJ/mol
# GULP energy per Si atom -12405.350781 kJ/mol
# Density = 2.200043 g / cm^3
# Si number density = 22.050623 Si / 1000 Ang^3
#
#
#
# Elastic Constant Matrix: (Units=GPa)
#
#
# Indices 1 2 3 4 5 6 
#
# 1 109.2629 29.3357 55.1628 8.8157 -17.5115 -7.7751
# 2 29.3357 115.3203 32.6961 0.8261 -5.5005 -4.9237
# 3 55.1628 32.6961 127.4183 -10.9162 2.1081 -5.9167
# 4 8.8157 0.8261 -10.9162 54.8788 -0.8857 6.2662
# 5 -17.5115 -5.5005 2.1081 -0.8857 40.3885 3.1256
# 6 -7.7751 -4.9237 -5.9167 6.2662 3.1256 32.0609
#
#
#
# Elastic Compliance Matrix: (Units=1/GPa)
#
#
# Indices 1 2 3 4 5 6 
#
# 1 0.013944 -0.001456 -0.005965 -0.003558 0.005912 0.002176
# 2 -0.001456 0.009636 -0.001848 -0.000357 0.000709 0.000786
# 3 -0.005965 -0.001848 0.011233 0.003160 -0.003359 0.000053
# 4 -0.003558 -0.000357 0.003160 0.019882 -0.001001 -0.004123
# 5 0.005912 0.000709 -0.003359 -0.001001 0.027695 -0.001582
# 6 0.002176 0.000786 0.000053 -0.004123 -0.001582 0.032809
#
#
# Mechanical properties :
#
#
# Convention : Reuss Voigt Hill
#
# Bulk Modulus (GPa) = 61.43994 65.15450 63.29722
# Shear Modulus (GPa) = 35.92941 41.11941 38.52441
#
# Velocity S-wave (km/s) = 4.04097 4.32299 4.18435
# Velocity P-wave (km/s) = 7.04955 7.38441 7.21892
#
# Compressibility (1/GPa) = 0.01627606
#
# Stress axis : x y z
#
# Youngs Moduli (GPa) = 71.71602 103.78021 89.01956
#
# Poissons Ratio (x) = 0.15106 0.53098
# Poissons Ratio (y) = 0.10439 0.16453
# Poissons Ratio (z) = 0.42777 0.19181
#
# Static dielectric constant tensor:
#      x y z
#    x 4.085140 -0.107720 -0.128770 
#    y -0.107720 3.654780 0.002930 
#    z -0.128770 0.002930 4.155550 
# 
# 
# High freq. dielectric constant tensor:
#      x y z
#    x 1.862360 -0.001770 0.005630 
#    y -0.001770 1.883830 -0.003840 
#    z 0.005630 -0.003840 1.883440 
# 
# From -- ./inp_files/458835.got.cif
#   From: 2010.06.25/outbox.cif.g09.slc.cpg/sg2_230_cif.got.tgz:458835.got - 2010.06.27 13:26:56.
