data_PCOD8036153
_publ_section_title
;
Structure prediction by ZEFSAII (Michael W. Deem and Ramdas Pophale) SiO2 
 PCOD8036153
Probable space group: P -1
;
_chemical_formula_sum "Si O2"
_cell_formula_units_Z 14
_cell_length_a 8.706437
_cell_length_b 16.523127
_cell_length_c 6.361626
_cell_angle_alpha 43.133650
_cell_angle_beta 91.814222
_cell_angle_gamma 89.603100
_cell_volume 624.784836
_symmetry_space_group_name_H-M "P -1"
_symmetry_group_IT_number 2
_symmetry_cell_setting 'triclinic'
loop_
_space_group_symop_operation_xyz
x,y,z
-x,-y,-z
loop_
_atom_site_type_symbol
_atom_site_label
_atom_site_fract_x
_atom_site_fract_y
_atom_site_fract_z
Si Si1 0.842441 0.714204 0.267251
Si Si2 0.880822 0.420610 0.273179
Si Si3 0.717241 0.899487 0.208348
Si Si4 0.682919 0.498568 0.482302
Si Si5 0.937805 0.886305 0.604924
Si Si6 0.225397 0.721605 0.835555
Si Si7 0.566410 0.070002 0.569413
O O1 0.770449 0.770437 0.369892
O O2 0.733823 0.609966 0.402821
O O3 0.017108 0.665560 0.405727
O O4 0.833118 0.813972 0.896471
O O5 0.755597 0.503476 0.240642
O O6 0.774430 0.341473 0.272043
O O7 0.000000 0.500000 0.000000
O O8 0.842406 0.940941 0.301118
O O9 0.557738 0.892080 0.334722
O O10 0.701269 0.991008 0.839602
O O11 0.500000 0.500000 0.500000
O O12 0.762068 0.378413 0.799727
O O13 0.066784 0.795054 0.701495
O O14 0.000000 0.000000 0.500000
O O15 0.364553 0.806698 0.728618
O O16 0.500000 0.000000 0.500000
#
# Coordination Sequence:
#
# PCOD8036153 Si02
#       7
#     2   2   2   2   2   2   2
#     4  12  25  46  73 104 146 190 242 310 370 438
#     4  12  25  48  74 105 144 194 250 305 371 443
#     4  11  26  45  73 105 143 196 243 300 371 438
#     4  12  30  46  75 109 149 195 246 307 379 445
#     4  12  26  45  74 108 145 191 247 304 365 437
#     4  12  26  46  73 105 144 191 245 303 369 446
#     4  11  27  48  71 104 152 193 243 303 375 439
#
# _framework density 22.407716000000001
#
# number of rings (size 3 to 8) (size 9 to 14) (size 15 to 20)
#    0.000    0.286    4.286    3.857    8.000    2.857 
#    0.000    0.000    0.000    0.000    0.000    0.000 
#    0.000    0.000    0.000    0.000    0.000    0.000 
#
# Total GULP energy -173603.635316 kJ/mol
# GULP energy per Si atom -12400.259665 kJ/mol
# Density = 2.235672 g / cm^3
# Si number density = 22.407716 Si / 1000 Ang^3
#
#
#
# Elastic Constant Matrix: (Units=GPa)
#
#
# Indices 1 2 3 4 5 6 
#
# 1 113.0934 64.7352 37.0455 2.3667 -0.0445 0.7592
# 2 64.7352 162.5431 42.9483 -0.1076 -9.8827 16.7632
# 3 37.0455 42.9483 115.6096 -3.2299 3.6646 19.4006
# 4 2.3667 -0.1076 -3.2299 36.0657 6.6389 -5.0432
# 5 -0.0445 -9.8827 3.6646 6.6389 42.8514 0.0784
# 6 0.7592 16.7632 19.4006 -5.0432 0.0784 58.2712
#
#
#
# Elastic Compliance Matrix: (Units=1/GPa)
#
#
# Indices 1 2 3 4 5 6 
#
# 1 0.012224 -0.004424 -0.002592 -0.000652 -0.000688 0.001921
# 2 -0.004424 0.008661 -0.001555 -0.000504 0.002208 -0.001963
# 3 -0.002592 -0.001555 0.010629 0.000962 -0.001414 -0.002972
# 4 -0.000652 -0.000504 0.000962 0.029050 -0.004704 0.002354
# 5 -0.000688 0.002208 -0.001414 -0.004704 0.024696 -0.000596
# 6 0.001921 -0.001963 -0.002972 0.002354 -0.000596 0.018895
#
#
# Mechanical properties :
#
#
# Convention : Reuss Voigt Hill
#
# Bulk Modulus (GPa) = 69.57939 75.63377 72.60658
# Shear Modulus (GPa) = 39.65528 43.87214 41.76371
#
# Velocity S-wave (km/s) = 4.21136 4.42962 4.32187
# Velocity P-wave (km/s) = 7.40043 7.74524 7.57480
#
# Compressibility (1/GPa) = 0.01437207
#
# Stress axis : x y z
#
# Youngs Moduli (GPa) = 81.80539 115.45761 94.08631
#
# Poissons Ratio (x) = 0.51077 0.24391
# Poissons Ratio (y) = 0.36190 0.14627
# Poissons Ratio (z) = 0.21207 0.17950
#
# Static dielectric constant tensor:
#      x y z
#    x 4.116800 -0.103150 0.106390 
#    y -0.103150 4.201470 0.037210 
#    z 0.106390 0.037210 4.368040 
# 
# 
# High freq. dielectric constant tensor:
#      x y z
#    x 1.885470 -0.008330 0.004790 
#    y -0.008330 1.904280 0.000890 
#    z 0.004790 0.000890 1.884960 
# 
# From -- ./inp_files/27306.got.cif
#   From: 2010.06.25/outbox.cif.g09.slc.cpg/sg2_14_cif.got.tgz:27306.got - 2010.06.27 13:26:56.
