data_PCOD8036629
_publ_section_title
;
Structure prediction by ZEFSAII (Michael W. Deem and Ramdas Pophale) SiO2 
 PCOD8036629
Probable space group: P -1
;
_chemical_formula_sum "Si O2"
_cell_formula_units_Z 16
_cell_length_a 8.561215
_cell_length_b 13.675890
_cell_length_c 22.130423
_cell_angle_alpha 22.629638
_cell_angle_beta 125.624374
_cell_angle_gamma 125.261690
_cell_volume 803.845187
_symmetry_space_group_name_H-M "P -1"
_symmetry_group_IT_number 2
_symmetry_cell_setting 'triclinic'
loop_
_space_group_symop_operation_xyz
x,y,z
-x,-y,-z
loop_
_atom_site_type_symbol
_atom_site_label
_atom_site_fract_x
_atom_site_fract_y
_atom_site_fract_z
Si Si1 0.985074 0.535695 0.047503
Si Si2 0.716906 0.468298 0.493555
Si Si3 0.431680 0.610321 0.824886
Si Si4 0.235539 0.138762 0.324466
Si Si5 0.700632 0.653296 0.512993
Si Si6 0.038136 0.914879 0.287761
Si Si7 0.594590 0.205842 0.161232
Si Si8 0.919392 0.193950 0.416858
O O1 0.147584 0.376468 0.201349
O O2 0.778030 0.417585 0.091673
O O3 0.000000 0.500000 0.000000
O O4 0.013628 0.834197 0.902348
O O5 0.728963 0.468927 0.568558
O O6 0.491060 0.460627 0.427332
O O7 0.789358 0.205216 0.638192
O O8 0.844139 0.714572 0.354086
O O9 0.557368 0.744062 0.721645
O O10 0.503932 0.787422 0.798526
O O11 0.203949 0.613142 0.756731
O O12 0.469159 0.315078 0.016173
O O13 0.097401 0.990810 0.326488
O O14 0.235846 0.939605 0.493041
O O15 0.890758 0.656680 0.594397
O O16 0.660377 0.930695 0.318544
O O17 0.000000 0.000000 0.500000
#
# Coordination Sequence:
#
# PCOD8036629 Si02
#       8
#     2   2   2   2   2   2   2   2
#     4  10  17  31  58  87 122 146 186 261 303 344
#     4  10  22  35  58  86 118 172 199 249 278 350
#     4  11  23  33  57  95 121 158 184 245 326 353
#     4  11  20  37  59  91 125 155 194 253 312 363
#     4  11  21  39  60  88 123 156 208 243 296 360
#     4  10  19  35  56  93 120 151 212 249 289 347
#     4  11  20  37  60  93 123 149 202 252 307 357
#     4  12  23  39  58  90 129 157 192 251 317 365
#
# _framework density 19.904330000000002
#
# number of rings (size 3 to 8) (size 9 to 14) (size 15 to 20)
#    0.000    1.250    6.250    1.875    1.750    0.000 
#    0.000    0.000    0.000    3.000    0.000    5.250 
#    0.000    0.000    0.000    0.000    0.000    0.000 
#
# Total GULP energy -198250.562951 kJ/mol
# GULP energy per Si atom -12390.660184 kJ/mol
# Density = 1.985903 g / cm^3
# Si number density = 19.904330 Si / 1000 Ang^3
#
#
#
# Elastic Constant Matrix: (Units=GPa)
#
#
# Indices 1 2 3 4 5 6 
#
# 1 93.1077 30.4115 30.6732 4.1590 12.2555 4.6688
# 2 30.4115 75.2664 44.4754 7.0346 9.5726 16.5064
# 3 30.6732 44.4754 97.5090 0.4681 20.0260 8.3656
# 4 4.1590 7.0346 0.4681 34.8644 0.2726 8.0104
# 5 12.2555 9.5726 20.0260 0.2726 27.3180 3.8684
# 6 4.6688 16.5064 8.3656 8.0104 3.8684 33.9391
#
#
#
# Elastic Compliance Matrix: (Units=1/GPa)
#
#
# Indices 1 2 3 4 5 6 
#
# 1 0.013031 -0.004019 -0.001671 -0.000967 -0.003371 0.001186
# 2 -0.004019 0.021362 -0.008100 -0.002005 0.001340 -0.007520
# 3 -0.001671 -0.008100 0.016116 0.001500 -0.008354 0.000795
# 4 -0.000967 -0.002005 0.001500 0.030689 0.000663 -0.006580
# 5 -0.003371 0.001340 -0.008354 0.000663 0.044237 -0.003327
# 6 0.001186 -0.007520 0.000795 -0.006580 -0.003327 0.034695
#
#
# Mechanical properties :
#
#
# Convention : Reuss Voigt Hill
#
# Bulk Modulus (GPa) = 43.61136 53.00035 48.30585
# Shear Modulus (GPa) = 25.59475 29.91250 27.75363
#
# Velocity S-wave (km/s) = 3.58982 3.88082 3.73815
# Velocity P-wave (km/s) = 6.25623 6.83859 6.55389
#
# Compressibility (1/GPa) = 0.02292981
#
# Stress axis : x y z
#
# Youngs Moduli (GPa) = 76.74126 46.81132 62.05098
#
# Poissons Ratio (x) = 0.18813 0.10367
# Poissons Ratio (y) = 0.30841 0.50261
# Poissons Ratio (z) = 0.12822 0.37917
#
# Static dielectric constant tensor:
#      x y z
#    x 3.689600 0.159010 -0.034820 
#    y 0.159010 3.355560 -0.003610 
#    z -0.034820 -0.003610 3.822500 
# 
# 
# High freq. dielectric constant tensor:
#      x y z
#    x 1.808410 0.008660 0.006010 
#    y 0.008660 1.731710 -0.008590 
#    z 0.006010 -0.008590 1.764000 
# 
# From -- ./inp_files/397427.got.cif
#   From: 2010.06.25/outbox.cif.g09.slc.cpg/sg2_199_cif.got.tgz:397427.got - 2010.06.27 13:26:56.
