data_PCOD8036949
_publ_section_title
;
Structure prediction by ZEFSAII (Michael W. Deem and Ramdas Pophale) SiO2 
 PCOD8036949
Probable space group: P -1
;
_chemical_formula_sum "Si O2"
_cell_formula_units_Z 16
_cell_length_a 9.297865
_cell_length_b 9.363369
_cell_length_c 13.898381
_cell_angle_alpha 112.528343
_cell_angle_beta 108.275013
_cell_angle_gamma 41.288380
_cell_volume 736.825406
_symmetry_space_group_name_H-M "P -1"
_symmetry_group_IT_number 2
_symmetry_cell_setting 'triclinic'
loop_
_space_group_symop_operation_xyz
x,y,z
-x,-y,-z
loop_
_atom_site_type_symbol
_atom_site_label
_atom_site_fract_x
_atom_site_fract_y
_atom_site_fract_z
Si Si1 0.304282 0.038403 0.001296
Si Si2 0.580653 0.185018 0.680202
Si Si3 0.492438 0.342763 0.905358
Si Si4 0.998697 0.955800 0.597717
Si Si5 0.969280 0.473678 0.154971
Si Si6 0.761900 0.954373 0.216799
Si Si7 0.665666 0.794579 0.686128
Si Si8 0.197218 0.475587 0.530685
O O1 0.108316 0.297948 0.052576
O O2 0.363762 0.885147 0.063278
O O3 0.249428 0.978962 0.879107
O O4 0.500000 0.000000 0.000000
O O5 0.589843 0.284978 0.803602
O O6 0.345472 0.350538 0.623780
O O7 0.751727 0.132622 0.628833
O O8 0.635519 0.970579 0.664076
O O9 0.248074 0.466423 0.870409
O O10 0.500000 0.500000 0.000000
O O11 0.110697 0.710941 0.572935
O O12 0.000000 0.000000 0.500000
O O13 0.135672 0.983010 0.687746
O O14 0.916414 0.691231 0.182215
O O15 0.101146 0.366036 0.254374
O O16 0.524061 0.088050 0.244630
O O17 0.666739 0.654345 0.572781
O O18 0.000000 0.500000 0.500000
#
# Coordination Sequence:
#
# PCOD8036949 Si02
#       8
#     2   2   2   2   2   2   2   2
#     4  12  24  47  71 109 142 192 246 294 356 436
#     4  12  26  49  73 107 146 192 245 294 361 443
#     4  12  29  45  72 109 150 189 246 302 358 432
#     4  12  30  49  72 114 148 185 244 307 368 428
#     4  12  23  45  75 101 148 193 244 289 369 418
#     4  12  27  44  75 107 150 191 243 302 364 429
#     4  12  24  46  77 106 143 191 248 295 356 446
#     4  12  27  46  81 103 142 193 241 299 369 429
#
# _framework density 21.714779
#
# number of rings (size 3 to 8) (size 9 to 14) (size 15 to 20)
#    0.000    0.000    6.250    3.000    5.250    3.500 
#    0.000    0.000    0.000    0.000    0.000    0.000 
#    0.000    0.000    0.000    0.000    0.000    0.000 
#
# Total GULP energy -198454.089322 kJ/mol
# GULP energy per Si atom -12403.380583 kJ/mol
# Density = 2.166535 g / cm^3
# Si number density = 21.714779 Si / 1000 Ang^3
#
#
#
# Elastic Constant Matrix: (Units=GPa)
#
#
# Indices 1 2 3 4 5 6 
#
# 1 112.2747 60.2008 64.5355 -0.5810 1.2891 1.2694
# 2 60.2008 137.5585 77.0394 -5.4869 3.9437 -5.2340
# 3 64.5355 77.0394 203.1716 -4.2529 0.1313 3.7316
# 4 -0.5810 -5.4869 -4.2529 52.0112 -1.0438 -0.2446
# 5 1.2891 3.9437 0.1313 -1.0438 48.2808 7.8104
# 6 1.2694 -5.2340 3.7316 -0.2446 7.8104 22.3508
#
#
#
# Elastic Compliance Matrix: (Units=1/GPa)
#
#
# Indices 1 2 3 4 5 6 
#
# 1 0.012554 -0.004252 -0.002360 -0.000503 0.000235 -0.001402
# 2 -0.004252 0.010943 -0.002849 0.000864 -0.001363 0.003765
# 3 -0.002360 -0.002849 0.006791 0.000231 0.000585 -0.001869
# 4 -0.000503 0.000864 0.000231 0.019339 0.000313 0.000295
# 5 0.000235 -0.001363 0.000585 0.000313 0.022143 -0.008165
# 6 -0.001402 0.003765 -0.001869 0.000295 -0.008165 0.048871
#
#
# Mechanical properties :
#
#
# Convention : Reuss Voigt Hill
#
# Bulk Modulus (GPa) = 87.99122 95.17292 91.58207
# Shear Modulus (GPa) = 34.87928 41.27718 38.07823
#
# Velocity S-wave (km/s) = 4.01215 4.36464 4.19210
# Velocity P-wave (km/s) = 7.87861 8.32610 8.10544
#
# Compressibility (1/GPa) = 0.01136477
#
# Stress axis : x y z
#
# Youngs Moduli (GPa) = 79.65572 91.38272 147.26171
#
# Poissons Ratio (x) = 0.38860 0.34756
# Poissons Ratio (y) = 0.33873 0.41952
# Poissons Ratio (z) = 0.18800 0.26033
#
# Static dielectric constant tensor:
#      x y z
#    x 3.973130 0.158880 -0.001420 
#    y 0.158880 5.209490 0.061350 
#    z -0.001420 0.061350 4.671190 
# 
# 
# High freq. dielectric constant tensor:
#      x y z
#    x 1.844910 -0.008660 -0.004360 
#    y -0.008660 1.866560 0.001110 
#    z -0.004360 0.001110 1.886460 
# 
# From -- ./inp_files/46769.got.cif
#   From: 2010.06.25/outbox.cif.g09.slc.cpg/sg2_24_cif.got.tgz:46769.got - 2010.06.27 13:26:56.
