data_PCOD8036738
_publ_section_title
;
Structure prediction by ZEFSAII (Michael W. Deem and Ramdas Pophale) SiO2 
 PCOD8036738
Probable space group: P -1
;
_chemical_formula_sum "Si O2"
_cell_formula_units_Z 14
_cell_length_a 18.407365
_cell_length_b 12.448448
_cell_length_c 10.564560
_cell_angle_alpha 34.099152
_cell_angle_beta 36.620730
_cell_angle_gamma 24.629279
_cell_volume 552.557942
_symmetry_space_group_name_H-M "P -1"
_symmetry_group_IT_number 2
_symmetry_cell_setting 'triclinic'
loop_
_space_group_symop_operation_xyz
x,y,z
-x,-y,-z
loop_
_atom_site_type_symbol
_atom_site_label
_atom_site_fract_x
_atom_site_fract_y
_atom_site_fract_z
Si Si1 0.261058 0.236077 0.737383
Si Si2 0.979682 0.793386 0.959520
Si Si3 0.134487 0.172707 0.641728
Si Si4 0.468834 0.313861 0.501356
Si Si5 0.539774 0.624692 0.003395
Si Si6 0.117287 0.719189 0.293270
Si Si7 0.392968 0.314169 0.870233
O O1 0.105271 0.260947 0.970274
O O2 0.314942 0.331457 0.673325
O O3 0.190578 0.431422 0.522909
O O4 0.432994 0.901680 0.797170
O O5 0.868756 0.897347 0.142945
O O6 0.184024 0.508873 0.970166
O O7 0.936882 0.068933 0.724020
O O8 0.000000 0.500000 0.500000
O O9 0.064368 0.095871 0.713834
O O10 0.335359 0.002570 0.487947
O O11 0.442745 0.527415 0.237163
O O12 0.443083 0.400815 0.599929
O O13 0.548862 0.672277 0.090376
O O14 0.733779 0.369549 0.923709
O O15 0.500000 0.000000 0.000000
#
# Coordination Sequence:
#
# PCOD8036738 Si02
#       7
#     2   2   2   2   2   2   2
#     4  12  28  44  72 110 151 190 229 299 362 436
#     4  12  26  47  74 107 146 187 240 298 358 423
#     4  12  22  44  74 103 142 184 243 303 344 416
#     4  12  27  47  73 107 146 190 242 293 359 426
#     4  12  25  48  74 108 146 189 240 299 357 425
#     4  12  25  45  76 112 144 183 243 301 362 415
#     4  12  26  51  77 103 143 194 243 298 354 425
#
# _framework density 25.336708999999999
#
# number of rings (size 3 to 8) (size 9 to 14) (size 15 to 20)
#    0.000    0.000    5.714    4.714    2.000    1.714 
#    0.000    1.429    0.000    0.000    0.000    0.000 
#    0.000    0.000    0.000    0.000    0.000    0.000 
#
# Total GULP energy -173501.766128 kJ/mol
# GULP energy per Si atom -12392.983295 kJ/mol
# Density = 2.527904 g / cm^3
# Si number density = 25.336709 Si / 1000 Ang^3
#
#
#
# Elastic Constant Matrix: (Units=GPa)
#
#
# Indices 1 2 3 4 5 6 
#
# 1 82.9093 58.1816 30.0722 -2.7988 -23.8767 -10.1778
# 2 58.1816 118.1480 30.5851 -10.0695 -16.1112 -5.3818
# 3 30.0722 30.5851 88.6473 -17.7483 -18.2106 -0.3648
# 4 -2.7988 -10.0695 -17.7483 42.7639 5.4405 -4.5561
# 5 -23.8767 -16.1112 -18.2106 5.4405 45.8528 0.3304
# 6 -10.1778 -5.3818 -0.3648 -4.5561 0.3304 37.7761
#
#
#
# Elastic Compliance Matrix: (Units=1/GPa)
#
#
# Indices 1 2 3 4 5 6 
#
# 1 0.022211 -0.009087 -0.003397 -0.002568 0.007298 0.004283
# 2 -0.009087 0.013320 -0.001260 0.002088 -0.000797 -0.000304
# 3 -0.003397 -0.001260 0.014488 0.005080 0.002942 -0.000368
# 4 -0.002568 0.002088 0.005080 0.026340 -0.001732 0.002847
# 5 0.007298 -0.000797 0.002942 -0.001732 0.026692 0.001439
# 6 0.004283 -0.000304 -0.000368 0.002847 0.001439 0.027910
#
#
# Mechanical properties :
#
#
# Convention : Reuss Voigt Hill
#
# Bulk Modulus (GPa) = 44.38342 58.59807 51.49074
# Shear Modulus (GPa) = 30.12780 36.66960 33.39870
#
# Velocity S-wave (km/s) = 3.45207 3.80846 3.63463
# Velocity P-wave (km/s) = 5.78312 6.52051 6.16285
#
# Compressibility (1/GPa) = 0.02253094
#
# Stress axis : x y z
#
# Youngs Moduli (GPa) = 45.02279 75.07280 69.02342
#
# Poissons Ratio (x) = 0.68218 0.23447
# Poissons Ratio (y) = 0.40912 0.08699
# Poissons Ratio (z) = 0.15294 0.09461
#
# Static dielectric constant tensor:
#      x y z
#    x 5.049480 0.011320 -0.453170 
#    y 0.011320 4.650530 -0.311820 
#    z -0.453170 -0.311820 4.995310 
# 
# 
# High freq. dielectric constant tensor:
#      x y z
#    x 2.011400 -0.009780 -0.022610 
#    y -0.009780 2.017330 -0.021360 
#    z -0.022610 -0.021360 2.007610 
# 
# From -- ./inp_files/471830.got.cif
#   From: 2010.06.25/outbox.cif.g09.slc.cpg/sg2_236_cif.got.tgz:471830.got - 2010.06.27 13:26:56.
