data_PCOD8036145
_publ_section_title
;
Structure prediction by ZEFSAII (Michael W. Deem and Ramdas Pophale) SiO2 
 PCOD8036145
Probable space group: P -1
;
_chemical_formula_sum "Si O2"
_cell_formula_units_Z 14
_cell_length_a 11.700539
_cell_length_b 17.164873
_cell_length_c 9.177133
_cell_angle_alpha 54.284718
_cell_angle_beta 74.169308
_cell_angle_gamma 30.938795
_cell_volume 644.585928
_symmetry_space_group_name_H-M "P -1"
_symmetry_group_IT_number 2
_symmetry_cell_setting 'triclinic'
loop_
_space_group_symop_operation_xyz
x,y,z
-x,-y,-z
loop_
_atom_site_type_symbol
_atom_site_label
_atom_site_fract_x
_atom_site_fract_y
_atom_site_fract_z
Si Si1 0.178553 0.463092 0.446124
Si Si2 0.106066 0.155676 0.760769
Si Si3 0.599460 0.852473 0.743573
Si Si4 0.753272 0.278481 0.569662
Si Si5 0.145871 0.514172 0.066485
Si Si6 0.245425 0.655052 0.828965
Si Si7 0.223957 0.957907 0.222012
O O1 0.124549 0.537830 0.220757
O O2 0.486908 0.217525 0.632456
O O3 0.000000 0.500000 0.500000
O O4 0.097489 0.607972 0.424229
O O5 0.010832 0.145353 0.689249
O O6 0.389357 0.990338 0.793956
O O7 0.126578 0.098279 0.976746
O O8 0.647047 0.717920 0.792742
O O9 0.500000 0.000000 0.500000
O O10 0.860647 0.701449 0.894120
O O11 0.500000 0.500000 0.500000
O O12 0.725377 0.317073 0.367028
O O13 0.779091 0.146507 0.728055
O O14 0.249519 0.537892 0.936161
O O15 0.500000 0.500000 0.000000
O O16 0.976247 0.887662 0.742010
#
# Coordination Sequence:
#
# PCOD8036145 Si02
#       7
#     2   2   2   2   2   2   2
#     4  12  26  45  73 104 146 184 238 287 348 423
#     4  12  26  45  73 106 138 186 236 289 353 416
#     4  11  26  45  72 104 142 188 235 290 357 409
#     4  12  26  47  73 103 141 179 236 295 348 419
#     4  11  26  46  69 105 143 184 238 289 347 428
#     4  12  27  47  74 104 142 188 236 288 355 425
#     4  12  27  48  72 103 143 190 231 290 360 414
#
# _framework density 21.719370999999999
#
# number of rings (size 3 to 8) (size 9 to 14) (size 15 to 20)
#    0.000    0.286    2.857    5.143   10.000    3.429 
#    0.000    0.000    0.000    0.000    0.000    0.000 
#    0.000    0.000    0.000    0.000    0.000    0.000 
#
# Total GULP energy -173721.446929 kJ/mol
# GULP energy per Si atom -12408.674781 kJ/mol
# Density = 2.166994 g / cm^3
# Si number density = 21.719371 Si / 1000 Ang^3
#
#
#
# Elastic Constant Matrix: (Units=GPa)
#
#
# Indices 1 2 3 4 5 6 
#
# 1 125.5126 39.2553 31.8977 -19.3958 -2.4224 -0.1800
# 2 39.2553 145.6552 44.4437 -10.1112 -1.2127 -2.8894
# 3 31.8977 44.4437 98.2497 -6.8710 4.4789 0.4527
# 4 -19.3958 -10.1112 -6.8710 43.1472 2.7334 -1.4672
# 5 -2.4224 -1.2127 4.4789 2.7334 41.9607 -0.9833
# 6 -0.1800 -2.8894 0.4527 -1.4672 -0.9833 35.4336
#
#
#
# Elastic Compliance Matrix: (Units=1/GPa)
#
#
# Indices 1 2 3 4 5 6 
#
# 1 0.009593 -0.001683 -0.002128 0.003551 0.000503 0.000100
# 2 -0.001683 0.008367 -0.003214 0.000689 0.000461 0.000756
# 3 -0.002128 -0.003214 0.012422 0.000352 -0.001575 -0.000461
# 4 0.003551 0.000689 0.000352 0.025117 -0.001424 0.001070
# 5 0.000503 0.000461 -0.001575 -0.001424 0.024151 0.000672
# 6 0.000100 0.000756 -0.000461 0.001070 0.000672 0.028353
#
#
# Mechanical properties :
#
#
# Convention : Reuss Voigt Hill
#
# Bulk Modulus (GPa) = 61.23882 66.73456 63.98669
# Shear Modulus (GPa) = 39.21656 41.02969 40.12312
#
# Velocity S-wave (km/s) = 4.25385 4.35107 4.30274
# Velocity P-wave (km/s) = 7.23766 7.48565 7.36270
#
# Compressibility (1/GPa) = 0.01632951
#
# Stress axis : x y z
#
# Youngs Moduli (GPa) = 104.24033 119.52142 80.50413
#
# Poissons Ratio (x) = 0.20121 0.17132
# Poissons Ratio (y) = 0.17549 0.25878
# Poissons Ratio (z) = 0.22183 0.38420
#
# Static dielectric constant tensor:
#      x y z
#    x 4.236200 0.049380 -0.090760 
#    y 0.049380 4.074340 -0.055030 
#    z -0.090760 -0.055030 3.969580 
# 
# 
# High freq. dielectric constant tensor:
#      x y z
#    x 1.874520 -0.000580 -0.002760 
#    y -0.000580 1.866940 -0.002470 
#    z -0.002760 -0.002470 1.865390 
# 
# From -- ./inp_files/39650.got.cif
#   From: 2010.06.25/outbox.cif.g09.slc.cpg/sg2_20_cif.got.tgz:39650.got - 2010.06.27 13:26:56.
