data_PCOD8036676
_publ_section_title
;
Structure prediction by ZEFSAII (Michael W. Deem and Ramdas Pophale) SiO2 
 PCOD8036676
Probable space group: P -1
;
_chemical_formula_sum "Si O2"
_cell_formula_units_Z 16
_cell_length_a 16.433216
_cell_length_b 12.560111
_cell_length_c 10.795509
_cell_angle_alpha 110.660555
_cell_angle_beta 83.638488
_cell_angle_gamma 154.725919
_cell_volume 759.634005
_symmetry_space_group_name_H-M "P -1"
_symmetry_group_IT_number 2
_symmetry_cell_setting 'triclinic'
loop_
_space_group_symop_operation_xyz
x,y,z
-x,-y,-z
loop_
_atom_site_type_symbol
_atom_site_label
_atom_site_fract_x
_atom_site_fract_y
_atom_site_fract_z
Si Si1 0.650621 0.375778 0.780013
Si Si2 0.423355 0.274364 0.898209
Si Si3 0.811750 0.329705 0.390311
Si Si4 0.866056 0.816095 0.323746
Si Si5 0.380217 0.146853 0.118777
Si Si6 0.035645 0.269050 0.898344
Si Si7 0.974487 0.755093 0.659028
Si Si8 0.264902 0.757754 0.921078
O O1 0.579769 0.415827 0.828263
O O2 0.789259 0.556512 0.705109
O O3 0.429952 0.013469 0.652919
O O4 0.796114 0.516857 0.927162
O O5 0.500000 0.500000 0.000000
O O6 0.457306 0.245735 0.003734
O O7 0.163871 0.926293 0.765460
O O8 0.856525 0.521867 0.482256
O O9 0.802799 0.298399 0.231465
O O10 0.000000 0.500000 0.500000
O O11 0.617271 0.472512 0.278872
O O12 0.956153 0.832735 0.227407
O O13 0.000000 0.000000 0.500000
O O14 0.892433 0.967865 0.308391
O O15 0.215298 0.037374 0.134014
O O16 0.272437 0.883563 0.052720
O O17 0.077902 0.433588 0.873913
O O18 0.500000 0.000000 0.000000
#
# Coordination Sequence:
#
# PCOD8036676 Si02
#       8
#     2   2   2   2   2   2   2   2
#     4  12  24  44  71 103 132 175 232 274 342 414
#     4  12  22  42  69  99 136 173 218 281 337 398
#     4  12  24  46  69  99 144 179 222 287 347 397
#     4  12  27  47  66  97 140 180 223 281 341 405
#     4  12  24  44  70 101 133 176 230 277 332 408
#     4  12  25  44  73 100 132 179 231 282 334 414
#     4  12  26  41  71 100 134 180 221 282 343 403
#     4  12  22  46  75  97 135 186 229 280 342 403
#
# _framework density 21.062774000000001
#
# number of rings (size 3 to 8) (size 9 to 14) (size 15 to 20)
#    0.000    0.000    8.750    1.500    1.750    1.500 
#    2.250    0.000    0.000    0.000    0.000    0.000 
#    0.000    0.000    0.000    0.000    0.000    0.000 
#
# Total GULP energy -198396.409814 kJ/mol
# GULP energy per Si atom -12399.775613 kJ/mol
# Density = 2.101483 g / cm^3
# Si number density = 21.062774 Si / 1000 Ang^3
#
#
#
# Elastic Constant Matrix: (Units=GPa)
#
#
# Indices 1 2 3 4 5 6 
#
# 1 107.2592 32.8128 47.4126 11.4880 -13.4950 14.0790
# 2 32.8128 82.4433 37.0389 8.0619 -3.4968 16.1502
# 3 47.4126 37.0389 130.3929 18.2632 -0.9651 8.9276
# 4 11.4880 8.0619 18.2632 26.0843 -4.8331 1.5868
# 5 -13.4950 -3.4968 -0.9651 -4.8331 44.3083 5.2004
# 6 14.0790 16.1502 8.9276 1.5868 5.2004 50.5470
#
#
#
# Elastic Compliance Matrix: (Units=1/GPa)
#
#
# Indices 1 2 3 4 5 6 
#
# 1 0.012592 -0.002715 -0.003409 -0.001498 0.003661 -0.002368
# 2 -0.002715 0.015403 -0.002972 -0.001144 0.000630 -0.003669
# 3 -0.003409 -0.002972 0.010446 -0.005225 -0.001661 0.000389
# 4 -0.001498 -0.001144 -0.005225 0.043779 0.004126 -0.000093
# 5 0.003661 0.000630 -0.001661 0.004126 0.024569 -0.003585
# 6 -0.002368 -0.003669 0.000389 -0.000093 -0.003585 0.021918
#
#
# Mechanical properties :
#
#
# Convention : Reuss Voigt Hill
#
# Bulk Modulus (GPa) = 49.38309 61.62489 55.50399
# Shear Modulus (GPa) = 32.54203 37.71001 35.12602
#
# Velocity S-wave (km/s) = 3.93492 4.23586 4.08816
# Velocity P-wave (km/s) = 6.64389 7.29689 6.97803
#
# Compressibility (1/GPa) = 0.02024985
#
# Stress axis : x y z
#
# Youngs Moduli (GPa) = 79.41358 64.92408 95.73350
#
# Poissons Ratio (x) = 0.17626 0.32631
# Poissons Ratio (y) = 0.21560 0.28451
# Poissons Ratio (z) = 0.27069 0.19295
#
# Static dielectric constant tensor:
#      x y z
#    x 2.592480 0.674040 0.221600 
#    y 0.674040 3.616250 0.054780 
#    z 0.221600 0.054780 3.993880 
# 
# 
# High freq. dielectric constant tensor:
#      x y z
#    x 1.838180 0.001780 -0.005180 
#    y 0.001780 1.822420 0.014540 
#    z -0.005180 0.014540 1.833740 
# 
# From -- ./inp_files/452556.got.cif
#   From: 2010.06.25/outbox.cif.g09.slc.cpg/sg2_227_cif.got.tgz:452556.got - 2010.06.27 13:26:56.
