data_PCOD8036380
_publ_section_title
;
Structure prediction by ZEFSAII (Michael W. Deem and Ramdas Pophale) SiO2 
 PCOD8036380
Probable space group: P -1
;
_chemical_formula_sum "Si O2"
_cell_formula_units_Z 16
_cell_length_a 8.756677
_cell_length_b 14.584428
_cell_length_c 13.983970
_cell_angle_alpha 147.797843
_cell_angle_beta 103.410001
_cell_angle_gamma 98.199695
_cell_volume 700.581885
_symmetry_space_group_name_H-M "P -1"
_symmetry_group_IT_number 2
_symmetry_cell_setting 'triclinic'
loop_
_space_group_symop_operation_xyz
x,y,z
-x,-y,-z
loop_
_atom_site_type_symbol
_atom_site_label
_atom_site_fract_x
_atom_site_fract_y
_atom_site_fract_z
Si Si1 0.214877 0.955795 0.043710
Si Si2 0.068803 0.238248 0.746000
Si Si3 0.933563 0.514645 0.337909
Si Si4 0.637114 0.063069 0.484049
Si Si5 0.379728 0.588451 0.946185
Si Si6 0.637821 0.279654 0.494325
Si Si7 0.714746 0.666669 0.947396
Si Si8 0.049852 0.945553 0.814738
O O1 0.117796 0.694261 0.794842
O O2 0.200195 0.023025 0.994976
O O3 0.099151 0.997904 0.138678
O O4 0.454103 0.118019 0.250339
O O5 0.267611 0.419756 0.869881
O O6 0.880781 0.236715 0.699072
O O7 0.131024 0.298388 0.918917
O O8 0.000000 0.000000 0.500000
O O9 0.169921 0.686074 0.489735
O O10 0.782780 0.408925 0.131292
O O11 0.910349 0.674697 0.536612
O O12 0.583548 0.172957 0.497870
O O13 0.500000 0.000000 0.500000
O O14 0.575505 0.835735 0.230781
O O15 0.485039 0.528801 0.836333
O O16 0.693369 0.519931 0.726272
O O17 0.810548 0.910101 0.130776
#
# Coordination Sequence:
#
# PCOD8036380 Si02
#       8
#     2   2   2   2   2   2   2   2
#     4  11  26  50  74 104 144 187 237 295 361 421
#     4  12  26  44  69 101 140 187 237 287 350 425
#     4  12  24  48  75 104 143 185 238 295 356 421
#     4  12  27  42  69 103 139 186 235 288 352 419
#     4  12  25  47  68 101 142 184 236 288 352 422
#     4  12  26  46  71 105 142 184 239 294 354 426
#     4  12  26  45  73 103 144 190 235 294 354 421
#     4  11  26  49  74 107 142 186 240 295 355 427
#
# _framework density 22.838159000000001
#
# number of rings (size 3 to 8) (size 9 to 14) (size 15 to 20)
#    0.000    0.250    5.000    3.750    5.250    2.000 
#    2.250    0.000    0.000    0.000    0.000    0.000 
#    0.000    0.000    0.000    0.000    0.000    0.000 
#
# Total GULP energy -198510.072327 kJ/mol
# GULP energy per Si atom -12406.879520 kJ/mol
# Density = 2.278618 g / cm^3
# Si number density = 22.838159 Si / 1000 Ang^3
#
#
#
# Elastic Constant Matrix: (Units=GPa)
#
#
# Indices 1 2 3 4 5 6 
#
# 1 96.5579 30.3211 43.4781 -2.0491 14.2971 -4.9357
# 2 30.3211 117.1803 31.1263 -3.5270 16.8385 -6.3727
# 3 43.4781 31.1263 116.6876 3.4969 3.5369 -7.9623
# 4 -2.0491 -3.5270 3.4969 36.6370 -11.7656 0.1921
# 5 14.2971 16.8385 3.5369 -11.7656 46.6733 -0.9732
# 6 -4.9357 -6.3727 -7.9623 0.1921 -0.9732 32.1512
#
#
#
# Elastic Compliance Matrix: (Units=1/GPa)
#
#
# Indices 1 2 3 4 5 6 
#
# 1 0.013384 -0.001829 -0.004369 -0.000009 -0.003100 0.000516
# 2 -0.001829 0.009964 -0.001814 0.000110 -0.002845 0.001158
# 3 -0.004369 -0.001814 0.010804 -0.001165 0.000916 0.001680
# 4 -0.000009 0.000110 -0.001165 0.029849 0.007571 -0.000217
# 5 -0.003100 -0.002845 0.000916 0.007571 0.025239 -0.000094
# 6 0.000516 0.001158 0.001680 -0.000217 -0.000094 0.031826
#
#
# Mechanical properties :
#
#
# Convention : Reuss Voigt Hill
#
# Bulk Modulus (GPa) = 55.17074 60.03077 57.60075
# Shear Modulus (GPa) = 34.93253 38.12564 36.52909
#
# Velocity S-wave (km/s) = 3.91521 4.09024 4.00368
# Velocity P-wave (km/s) = 6.68193 6.97489 6.82998
#
# Compressibility (1/GPa) = 0.01812555
#
# Stress axis : x y z
#
# Youngs Moduli (GPa) = 74.71867 100.35857 92.56078
#
# Poissons Ratio (x) = 0.18357 0.40443
# Poissons Ratio (y) = 0.13667 0.16795
# Poissons Ratio (z) = 0.32647 0.18210
#
# Static dielectric constant tensor:
#      x y z
#    x 4.113450 0.010960 0.024360 
#    y 0.010960 1.961300 0.241000 
#    z 0.024360 0.241000 4.178970 
# 
# 
# High freq. dielectric constant tensor:
#      x y z
#    x 1.904300 -0.008520 0.000600 
#    y -0.008520 1.905960 0.000500 
#    z 0.000600 0.000500 1.909890 
# 
# From -- ./inp_files/90157.got.cif
#   From: 2010.06.25/outbox.cif.g09.slc.cpg/sg2_46_cif.got.tgz:90157.got - 2010.06.27 13:26:56.
