data_PCOD8036474
_publ_section_title
;
Structure prediction by ZEFSAII (Michael W. Deem and Ramdas Pophale) SiO2 
 PCOD8036474
Probable space group: P -1
;
_chemical_formula_sum "Si O2"
_cell_formula_units_Z 16
_cell_length_a 20.523634
_cell_length_b 11.742493
_cell_length_c 9.549328
_cell_angle_alpha 58.168607
_cell_angle_beta 30.247947
_cell_angle_gamma 46.021633
_cell_volume 817.414515
_symmetry_space_group_name_H-M "P -1"
_symmetry_group_IT_number 2
_symmetry_cell_setting 'triclinic'
loop_
_space_group_symop_operation_xyz
x,y,z
-x,-y,-z
loop_
_atom_site_type_symbol
_atom_site_label
_atom_site_fract_x
_atom_site_fract_y
_atom_site_fract_z
Si Si1 0.927395 0.826311 0.091716
Si Si2 0.122950 0.230509 0.475911
Si Si3 0.262916 0.506230 0.694384
Si Si4 0.825553 0.111854 0.903028
Si Si5 0.782189 0.534966 0.876258
Si Si6 0.889540 0.877807 0.707139
Si Si7 0.146559 0.332274 0.881895
Si Si8 0.559507 0.453589 0.262806
O O1 0.876493 0.857575 0.327324
O O2 0.812089 0.790817 0.244179
O O3 0.106919 0.678549 0.838270
O O4 0.911658 0.982416 0.953217
O O5 0.221726 0.308290 0.265843
O O6 0.191884 0.097424 0.309721
O O7 0.950857 0.370482 0.651883
O O8 0.279021 0.365329 0.655450
O O9 0.411225 0.520423 0.390649
O O10 0.266421 0.448573 0.882837
O O11 0.936840 0.164354 0.605907
O O12 0.787096 0.036214 0.892038
O O13 0.667577 0.261098 0.164023
O O14 0.661312 0.529121 0.999804
O O15 0.901593 0.725761 0.855358
O O16 0.000000 0.500000 0.000000
O O17 0.500000 0.500000 0.500000
#
# Coordination Sequence:
#
# PCOD8036474 Si02
#       8
#     2   2   2   2   2   2   2   2
#     4   9  20  33  55  89 109 138 189 238 276 310
#     4  10  17  31  57  86 105 142 187 239 270 317
#     4   9  17  33  55  80 110 147 183 225 279 332
#     4  10  21  37  56  85 113 147 181 233 280 326
#     4   9  17  29  53  82 108 137 190 229 268 320
#     4  10  19  34  57  81 113 143 187 231 276 324
#     4   9  17  32  55  83 113 139 186 238 269 318
#     4  10  20  35  55  83 113 147 185 224 276 343
#
# _framework density 19.573913000000001
#
# number of rings (size 3 to 8) (size 9 to 14) (size 15 to 20)
#    0.000    2.500    2.500    0.000    1.750    0.500 
#    0.000    2.500    0.000   23.250    0.000    0.000 
#    0.000    0.000    0.000    0.000    0.000    0.000 
#
# Total GULP energy -198240.423369 kJ/mol
# GULP energy per Si atom -12390.026461 kJ/mol
# Density = 1.952936 g / cm^3
# Si number density = 19.573913 Si / 1000 Ang^3
#
#
#
# Elastic Constant Matrix: (Units=GPa)
#
#
# Indices 1 2 3 4 5 6 
#
# 1 130.7293 49.1765 52.9511 -6.4242 -8.0597 24.5171
# 2 49.1765 66.4588 40.4685 4.4965 1.9966 15.6204
# 3 52.9511 40.4685 71.6021 -1.8085 -4.2148 10.8774
# 4 -6.4242 4.4965 -1.8085 26.2365 7.8750 0.6505
# 5 -8.0597 1.9966 -4.2148 7.8750 45.3598 -5.5018
# 6 24.5171 15.6204 10.8774 0.6505 -5.5018 25.6727
#
#
#
# Elastic Compliance Matrix: (Units=1/GPa)
#
#
# Indices 1 2 3 4 5 6 
#
# 1 0.013513 -0.004892 -0.005982 0.003764 0.000512 -0.007379
# 2 -0.004892 0.027881 -0.011242 -0.005607 -0.003145 -0.008061
# 3 -0.005982 -0.011242 0.024506 0.001567 0.001741 0.002504
# 4 0.003764 -0.005607 0.001567 0.042190 -0.006669 -0.003345
# 5 0.000512 -0.003145 0.001741 -0.006669 0.024331 0.006071
# 6 -0.007379 -0.008061 0.002504 -0.003345 0.006071 0.051229
#
#
# Mechanical properties :
#
#
# Convention : Reuss Voigt Hill
#
# Bulk Modulus (GPa) = 46.15354 61.55360 53.85357
# Shear Modulus (GPa) = 21.26704 27.86674 24.56689
#
# Velocity S-wave (km/s) = 3.29978 3.77725 3.54656
# Velocity P-wave (km/s) = 6.17644 7.10904 6.65909
#
# Compressibility (1/GPa) = 0.02166681
#
# Stress axis : x y z
#
# Youngs Moduli (GPa) = 74.00227 35.86650 40.80685
#
# Poissons Ratio (x) = 0.17546 0.24411
# Poissons Ratio (y) = 0.36203 0.45877
# Poissons Ratio (z) = 0.44268 0.40323
#
# Static dielectric constant tensor:
#      x y z
#    x 3.932270 0.475220 -0.193040 
#    y 0.475220 3.483580 -0.196010 
#    z -0.193040 -0.196010 3.550020 
# 
# 
# High freq. dielectric constant tensor:
#      x y z
#    x 1.766810 0.036230 0.007370 
#    y 0.036230 1.741580 -0.019120 
#    z 0.007370 -0.019120 1.737900 
# 
# From -- ./inp_files/345120.got.cif
#   From: 2010.06.25/outbox.cif.g09.slc.cpg/sg2_173_cif.got.tgz:345120.got - 2010.06.27 13:26:56.
