data_PCOD8036666
_publ_section_title
;
Structure prediction by ZEFSAII (Michael W. Deem and Ramdas Pophale) SiO2 
 PCOD8036666
Probable space group: P -1
;
_chemical_formula_sum "Si O2"
_cell_formula_units_Z 16
_cell_length_a 23.639236
_cell_length_b 14.774329
_cell_length_c 9.410154
_cell_angle_alpha 29.768338
_cell_angle_beta 45.032887
_cell_angle_gamma 26.980892
_cell_volume 706.949147
_symmetry_space_group_name_H-M "P -1"
_symmetry_group_IT_number 2
_symmetry_cell_setting 'triclinic'
loop_
_space_group_symop_operation_xyz
x,y,z
-x,-y,-z
loop_
_atom_site_type_symbol
_atom_site_label
_atom_site_fract_x
_atom_site_fract_y
_atom_site_fract_z
Si Si1 0.597158 0.190109 0.665157
Si Si2 0.909106 0.141872 0.101142
Si Si3 0.536008 0.256777 0.352779
Si Si4 0.725047 0.736602 0.505444
Si Si5 0.945320 0.626647 0.269253
Si Si6 0.655095 0.730185 0.336647
Si Si7 0.888518 0.769750 0.725692
Si Si8 0.081884 0.928134 0.322384
O O1 0.500000 0.500000 0.500000
O O2 0.577531 0.238042 0.464763
O O3 0.743187 0.977212 0.746258
O O4 0.580686 0.008521 0.987948
O O5 0.894794 0.974352 0.427441
O O6 0.766920 0.467565 0.864357
O O7 0.975486 0.151783 0.084427
O O8 0.000000 0.000000 0.000000
O O9 0.416074 0.334023 0.463174
O O10 0.650313 0.965231 0.454746
O O11 0.500000 0.500000 0.000000
O O12 0.849122 0.636871 0.380138
O O13 0.645582 0.832674 0.372506
O O14 0.000000 0.500000 0.500000
O O15 0.079205 0.375581 0.285006
O O16 0.867571 0.953586 0.917538
O O17 0.804317 0.420778 0.444845
O O18 0.000000 0.500000 0.000000
O O19 0.000000 0.000000 0.500000
#
# Coordination Sequence:
#
# PCOD8036666 Si02
#       8
#     2   2   2   2   2   2   2   2
#     4  12  29  51  76 108 151 198 243 303 375 444
#     4  12  23  43  70 105 142 188 240 301 367 437
#     4  12  29  50  76 106 142 195 252 302 363 443
#     4  12  25  44  76 104 144 191 248 301 370 429
#     4  12  22  41  68 105 144 186 239 305 359 432
#     4  12  27  49  72 104 150 193 248 302 365 440
#     4  12  26  46  72 107 147 190 242 299 367 443
#     4  12  25  41  69 107 146 188 240 305 371 429
#
# _framework density 22.632460999999999
#
# number of rings (size 3 to 8) (size 9 to 14) (size 15 to 20)
#    0.000    0.000    3.750    6.000    5.250    2.000 
#    0.000    0.000    0.000    0.000    0.000    0.000 
#    0.000    0.000    0.000    0.000    0.000    0.000 
#
# Total GULP energy -198333.079241 kJ/mol
# GULP energy per Si atom -12395.817453 kJ/mol
# Density = 2.258095 g / cm^3
# Si number density = 22.632461 Si / 1000 Ang^3
#
#
#
# Elastic Constant Matrix: (Units=GPa)
#
#
# Indices 1 2 3 4 5 6 
#
# 1 109.2390 43.4029 51.9574 5.3206 8.5706 1.8554
# 2 43.4029 138.2058 50.3415 -6.7187 5.1741 20.9967
# 3 51.9574 50.3415 196.8842 1.4137 -6.7154 5.4639
# 4 5.3206 -6.7187 1.4137 38.1947 1.9584 -8.7034
# 5 8.5706 5.1741 -6.7154 1.9584 44.9043 3.2272
# 6 1.8554 20.9967 5.4639 -8.7034 3.2272 41.7017
#
#
#
# Elastic Compliance Matrix: (Units=1/GPa)
#
#
# Indices 1 2 3 4 5 6 
#
# 1 0.011731 -0.002964 -0.002434 -0.001696 -0.002267 0.001111
# 2 -0.002964 0.009432 -0.001541 0.001216 -0.000508 -0.004122
# 3 -0.002434 -0.001541 0.006174 -0.000265 0.001584 -0.000103
# 4 -0.001696 0.001216 -0.000265 0.027958 -0.001467 0.005447
# 5 -0.002267 -0.000508 0.001584 -0.001467 0.023202 -0.001952
# 6 0.001111 -0.004122 -0.000103 0.005447 -0.001952 0.027307
#
#
# Mechanical properties :
#
#
# Convention : Reuss Voigt Hill
#
# Bulk Modulus (GPa) = 74.29698 81.74807 78.02252
# Shear Modulus (GPa) = 40.26753 44.86863 42.56808
#
# Velocity S-wave (km/s) = 4.22263 4.45735 4.34157
# Velocity P-wave (km/s) = 7.52814 7.91763 7.72534
#
# Compressibility (1/GPa) = 0.01345950
#
# Stress axis : x y z
#
# Youngs Moduli (GPa) = 85.24312 106.02034 161.96094
#
# Poissons Ratio (x) = 0.31423 0.39421
# Poissons Ratio (y) = 0.25265 0.24962
# Poissons Ratio (z) = 0.20748 0.16340
#
# Static dielectric constant tensor:
#      x y z
#    x 4.078740 0.082680 0.056890 
#    y 0.082680 4.035920 -0.057410 
#    z 0.056890 -0.057410 3.951520 
# 
# 
# High freq. dielectric constant tensor:
#      x y z
#    x 1.899240 0.012280 -0.006310 
#    y 0.012280 1.895340 0.005530 
#    z -0.006310 0.005530 1.918250 
# 
# From -- ./inp_files/354489.got.cif
#   From: 2010.06.25/outbox.cif.g09.slc.cpg/sg2_178_cif.got.tgz:354489.got - 2010.06.27 13:26:56.
