data_PCOD8036484
_publ_section_title
;
Structure prediction by ZEFSAII (Michael W. Deem and Ramdas Pophale) SiO2 
 PCOD8036484
Probable space group: P -1
;
_chemical_formula_sum "Si O2"
_cell_formula_units_Z 16
_cell_length_a 11.269953
_cell_length_b 23.102189
_cell_length_c 16.952450
_cell_angle_alpha 20.120652
_cell_angle_beta 142.918191
_cell_angle_gamma 153.873009
_cell_volume 638.083343
_symmetry_space_group_name_H-M "P -1"
_symmetry_group_IT_number 2
_symmetry_cell_setting 'triclinic'
loop_
_space_group_symop_operation_xyz
x,y,z
-x,-y,-z
loop_
_atom_site_type_symbol
_atom_site_label
_atom_site_fract_x
_atom_site_fract_y
_atom_site_fract_z
Si Si1 0.030866 0.422486 0.422067
Si Si2 0.322356 0.200392 0.493522
Si Si3 0.295079 0.224148 0.271313
Si Si4 0.271923 0.776388 0.221344
Si Si5 0.458576 0.995785 0.574924
Si Si6 0.451919 0.628886 0.256366
Si Si7 0.009161 0.162170 0.876020
Si Si8 0.601539 0.406092 0.899321
O O1 0.134456 0.328032 0.651572
O O2 0.020109 0.562856 0.302443
O O3 0.247049 0.614436 0.222116
O O4 0.738341 0.196586 0.517042
O O5 0.399795 0.225083 0.411288
O O6 0.577071 0.287559 0.571214
O O7 0.266751 0.366563 0.267209
O O8 0.032708 0.917939 0.717448
O O9 0.284983 0.059651 0.416419
O O10 0.500000 0.500000 0.000000
O O11 0.117668 0.797296 0.175375
O O12 0.500000 0.000000 0.000000
O O13 0.500000 0.000000 0.500000
O O14 0.300062 0.725493 0.862195
O O15 0.500000 0.500000 0.500000
O O16 0.298718 0.493247 0.266196
O O17 0.745273 0.893538 0.049999
O O18 0.260931 0.204292 0.991004
#
# Coordination Sequence:
#
# PCOD8036484 Si02
#       8
#     2   2   2   2   2   2   2   2
#     4  12  25  47  72 109 151 196 248 314 383 445
#     4  11  27  51  77 110 150 199 256 313 375 440
#     4  11  28  54  80 105 148 204 259 311 367 449
#     4  12  26  45  76 117 152 198 247 315 384 453
#     4  12  29  50  76 111 150 207 257 309 375 452
#     4  12  23  42  69 107 153 193 239 298 385 456
#     4  12  24  45  74 110 157 192 241 309 386 452
#     4  12  26  47  75 110 155 198 248 316 375 451
#
# _framework density 25.075094
#
# number of rings (size 3 to 8) (size 9 to 14) (size 15 to 20)
#    0.000    0.250    5.000    3.000    5.250    1.500 
#    2.250    0.000    0.000    0.000    0.000    0.000 
#    0.000    0.000    0.000    0.000    0.000    0.000 
#
# Total GULP energy -198288.644680 kJ/mol
# GULP energy per Si atom -12393.040292 kJ/mol
# Density = 2.501802 g / cm^3
# Si number density = 25.075094 Si / 1000 Ang^3
#
#
#
# Elastic Constant Matrix: (Units=GPa)
#
#
# Indices 1 2 3 4 5 6 
#
# 1 147.5747 27.3975 52.9978 3.5857 -5.3483 -32.5454
# 2 27.3975 71.1972 8.7318 -11.9773 -5.9510 -25.0100
# 3 52.9978 8.7318 116.9610 -2.7771 -5.0113 -8.8982
# 4 3.5857 -11.9773 -2.7771 40.2137 0.6313 -2.6482
# 5 -5.3483 -5.9510 -5.0113 0.6313 54.6255 -7.3444
# 6 -32.5454 -25.0100 -8.8982 -2.6482 -7.3444 48.3093
#
#
#
# Elastic Compliance Matrix: (Units=1/GPa)
#
#
# Indices 1 2 3 4 5 6 
#
# 1 0.009640 -0.001580 -0.003847 -0.001280 0.001115 0.005067
# 2 -0.001580 0.019482 0.000313 0.006568 0.003256 0.009934
# 3 -0.003847 0.000313 0.010289 0.001112 0.000536 -0.000392
# 4 -0.001280 0.006568 0.001112 0.027288 0.000967 0.004386
# 5 0.001115 0.003256 0.000536 0.000967 0.019556 0.005562
# 6 0.005067 0.009934 -0.000392 0.004386 0.005562 0.030270
#
#
# Mechanical properties :
#
#
# Convention : Reuss Voigt Hill
#
# Bulk Modulus (GPa) = 34.26736 57.10968 45.68852
# Shear Modulus (GPa) = 36.63476 45.07008 40.85242
#
# Velocity S-wave (km/s) = 3.82645 4.24418 4.04072
# Velocity P-wave (km/s) = 5.76350 6.84414 6.32693
#
# Compressibility (1/GPa) = 0.02918229
#
# Stress axis : x y z
#
# Youngs Moduli (GPa) = 103.73192 51.32987 97.18774
#
# Poissons Ratio (x) = 0.08109 0.37392
# Poissons Ratio (y) = 0.16388 -0.03039
# Poissons Ratio (z) = 0.39910 -0.01605
#
# Static dielectric constant tensor:
#      x y z
#    x 5.556170 -0.139680 -0.127110 
#    y -0.139680 4.474230 -0.215420 
#    z -0.127110 -0.215420 4.768800 
# 
# 
# High freq. dielectric constant tensor:
#      x y z
#    x 2.026850 -0.013180 -0.001050 
#    y -0.013180 1.994960 -0.016970 
#    z -0.001050 -0.016970 1.995370 
# 
# From -- ./inp_files/571022.got.cif
#   From: 2010.06.25/outbox.cif.g09.slc.cpg/sg2_286_cif.got.tgz:571022.got - 2010.06.27 13:26:56.
