data_PCOD8036864
_publ_section_title
;
Structure prediction by ZEFSAII (Michael W. Deem and Ramdas Pophale) SiO2 
 PCOD8036864
Probable space group: P -1
;
_chemical_formula_sum "Si O2"
_cell_formula_units_Z 16
_cell_length_a 9.236099
_cell_length_b 9.241327
_cell_length_c 22.634873
_cell_angle_alpha 47.823715
_cell_angle_beta 131.857120
_cell_angle_gamma 148.037736
_cell_volume 734.057422
_symmetry_space_group_name_H-M "P -1"
_symmetry_group_IT_number 2
_symmetry_cell_setting 'triclinic'
loop_
_space_group_symop_operation_xyz
x,y,z
-x,-y,-z
loop_
_atom_site_type_symbol
_atom_site_label
_atom_site_fract_x
_atom_site_fract_y
_atom_site_fract_z
Si Si1 0.208582 0.686414 0.357614
Si Si2 0.444137 0.490760 0.918986
Si Si3 0.330782 0.609636 0.209530
Si Si4 0.834517 0.057931 0.411954
Si Si5 0.808536 0.187851 0.556525
Si Si6 0.915629 0.012752 0.316593
Si Si7 0.814229 0.127167 0.824901
Si Si8 0.318923 0.678683 0.050660
O O1 0.508581 0.795030 0.412548
O O2 0.188091 0.822596 0.368574
O O3 0.173769 0.774628 0.263469
O O4 0.960648 0.349244 0.392314
O O5 0.590061 0.428284 0.938290
O O6 0.109487 0.237186 0.887653
O O7 0.563568 0.787380 0.850695
O O8 0.500000 0.500000 0.000000
O O9 0.621859 0.743633 0.279567
O O10 0.245801 0.755972 0.173439
O O11 0.364041 0.646432 0.138760
O O12 0.093018 0.276206 0.248672
O O13 0.860586 0.093482 0.338810
O O14 0.000000 0.000000 0.500000
O O15 0.000000 0.500000 0.500000
O O16 0.922491 0.064523 0.598419
O O17 0.500000 0.000000 0.500000
O O18 0.000000 0.500000 0.000000
O O19 0.500000 0.000000 0.000000
#
# Coordination Sequence:
#
# PCOD8036864 Si02
#       8
#     2   2   2   2   2   2   2   2
#     4  12  25  43  68 100 134 178 226 279 335 394
#     4  12  26  44  73 103 136 179 221 271 330 397
#     4  12  25  44  69 100 138 177 221 282 332 403
#     4  12  23  43  69  97 131 177 231 280 330 398
#     4  12  27  46  66  97 138 181 225 286 342 400
#     4  12  24  44  66 100 134 180 226 277 344 395
#     4  12  24  45  69 100 138 174 225 275 332 394
#     4  12  26  47  72 103 139 178 222 271 333 398
#
# _framework density 21.796658000000001
#
# number of rings (size 3 to 8) (size 9 to 14) (size 15 to 20)
#    0.000    0.000    2.500    8.250    3.500    0.000 
#    0.000    0.000    0.000    0.000    0.000    0.000 
#    0.000    0.000    0.000    0.000    0.000    0.000 
#
# Total GULP energy -198544.370322 kJ/mol
# GULP energy per Si atom -12409.023145 kJ/mol
# Density = 2.174705 g / cm^3
# Si number density = 21.796658 Si / 1000 Ang^3
#
#
#
# Elastic Constant Matrix: (Units=GPa)
#
#
# Indices 1 2 3 4 5 6 
#
# 1 133.0922 28.5855 29.7951 8.1214 -0.9697 -11.1284
# 2 28.5855 105.6048 21.0966 0.2970 2.7440 5.9553
# 3 29.7951 21.0966 83.5954 7.4443 -7.3210 -2.6372
# 4 8.1214 0.2970 7.4443 55.7950 0.7913 6.9966
# 5 -0.9697 2.7440 -7.3210 0.7913 49.7228 6.3567
# 6 -11.1284 5.9553 -2.6372 6.9966 6.3567 40.6982
#
#
#
# Elastic Compliance Matrix: (Units=1/GPa)
#
#
# Indices 1 2 3 4 5 6 
#
# 1 0.008816 -0.002040 -0.002459 -0.001294 -0.000420 0.002838
# 2 -0.002040 0.010595 -0.002150 0.000823 -0.000662 -0.002286
# 3 -0.002459 -0.002150 0.013714 -0.001549 0.002054 0.000476
# 4 -0.001294 0.000823 -0.001549 0.018790 -0.000114 -0.003787
# 5 -0.000420 -0.000662 0.002054 -0.000114 0.020843 -0.003121
# 6 0.002838 -0.002286 0.000476 -0.003787 -0.003121 0.026851
#
#
# Mechanical properties :
#
#
# Convention : Reuss Voigt Hill
#
# Bulk Modulus (GPa) = 50.43954 53.47188 51.95571
# Shear Modulus (GPa) = 41.83536 45.43087 43.63312
#
# Velocity S-wave (km/s) = 4.38579 4.57037 4.47903
# Velocity P-wave (km/s) = 6.98842 7.24130 7.11599
#
# Compressibility (1/GPa) = 0.01982572
#
# Stress axis : x y z
#
# Youngs Moduli (GPa) = 113.43607 94.38547 72.91672
#
# Poissons Ratio (x) = 0.19259 0.17931
# Poissons Ratio (y) = 0.23146 0.15677
# Poissons Ratio (z) = 0.27895 0.20292
#
# Static dielectric constant tensor:
#      x y z
#    x 4.186350 -0.032200 -0.103290 
#    y -0.032200 4.006570 0.249120 
#    z -0.103290 0.249120 3.753240 
# 
# 
# High freq. dielectric constant tensor:
#      x y z
#    x 1.870370 0.003520 -0.006860 
#    y 0.003520 1.876590 0.004820 
#    z -0.006860 0.004820 1.870190 
# 
# From -- ./inp_files/99829.got.cif
#   From: 2010.06.25/outbox.cif.g09.slc.cpg/sg2_50_cif.got.tgz:99829.got - 2010.06.27 13:26:56.
