data_PCOD8036931
_publ_section_title
;
Structure prediction by ZEFSAII (Michael W. Deem and Ramdas Pophale) SiO2 
 PCOD8036931
Probable space group: P -1
;
_chemical_formula_sum "Si O2"
_cell_formula_units_Z 14
_cell_length_a 15.253485
_cell_length_b 9.311290
_cell_length_c 10.925374
_cell_angle_alpha 118.751679
_cell_angle_beta 30.062409
_cell_angle_gamma 131.787786
_cell_volume 560.234108
_symmetry_space_group_name_H-M "P -1"
_symmetry_group_IT_number 2
_symmetry_cell_setting 'triclinic'
loop_
_space_group_symop_operation_xyz
x,y,z
-x,-y,-z
loop_
_atom_site_type_symbol
_atom_site_label
_atom_site_fract_x
_atom_site_fract_y
_atom_site_fract_z
Si Si1 0.482444 0.303706 0.652024
Si Si2 0.292179 0.712025 0.849478
Si Si3 0.895553 0.674910 0.949015
Si Si4 0.118167 0.910036 0.006469
Si Si5 0.325741 0.536901 0.261451
Si Si6 0.983178 0.102170 0.443182
Si Si7 0.692552 0.113838 0.635545
O O1 0.615799 0.368344 0.392625
O O2 0.312306 0.360788 0.878887
O O3 0.652809 0.415406 0.600535
O O4 0.353424 0.064948 0.729064
O O5 0.162254 0.543762 0.040111
O O6 0.120387 0.741583 0.008092
O O7 0.482234 0.919020 0.759392
O O8 0.943618 0.805311 0.067258
O O9 0.101750 0.790498 0.661885
O O10 0.070004 0.040783 0.201601
O O11 0.103027 0.336163 0.416554
O O12 0.354442 0.718021 0.221382
O O13 0.500000 0.500000 0.000000
O O14 0.748758 0.045991 0.666265
O O15 0.000000 0.000000 0.500000
#
# Coordination Sequence:
#
# PCOD8036931 Si02
#       7
#     2   2   2   2   2   2   2
#     4  12  23  45  71 104 148 184 235 295 362 418
#     4  12  26  43  75 111 139 186 237 299 360 423
#     4  12  26  43  78 108 142 184 235 302 360 419
#     4  12  23  49  68 106 147 183 237 296 357 419
#     4  12  25  48  72 101 143 195 237 286 357 426
#     4  12  29  46  72 104 142 193 241 290 349 431
#     4  12  25  51  74 104 145 186 239 299 360 415
#
# _framework density 24.989554999999999
#
# number of rings (size 3 to 8) (size 9 to 14) (size 15 to 20)
#    0.000    0.000    5.714    3.857    6.000    0.000 
#    0.000    1.429    0.000    0.000    0.000    0.000 
#    0.000    0.000    0.000    0.000    0.000    0.000 
#
# Total GULP energy -173611.640885 kJ/mol
# GULP energy per Si atom -12400.831492 kJ/mol
# Density = 2.493268 g / cm^3
# Si number density = 24.989555 Si / 1000 Ang^3
#
#
#
# Elastic Constant Matrix: (Units=GPa)
#
#
# Indices 1 2 3 4 5 6 
#
# 1 116.9525 35.2469 15.1748 14.6267 -22.1243 -26.3218
# 2 35.2469 122.4853 17.6280 9.2765 5.7284 -11.8582
# 3 15.1748 17.6280 40.1250 12.1220 -11.6898 -1.2049
# 4 14.6267 9.2765 12.1220 32.7213 -9.5515 -4.3469
# 5 -22.1243 5.7284 -11.6898 -9.5515 28.8788 0.9493
# 6 -26.3218 -11.8582 -1.2049 -4.3469 0.9493 43.2356
#
#
#
# Elastic Compliance Matrix: (Units=1/GPa)
#
#
# Indices 1 2 3 4 5 6 
#
# 1 0.013206 -0.003564 0.000083 -0.001023 0.010298 0.006736
# 2 -0.003564 0.010405 -0.004847 -0.001623 -0.007311 0.000546
# 3 0.000083 -0.004847 0.032690 -0.007507 0.011820 -0.001382
# 4 -0.001023 -0.001623 -0.007507 0.037098 0.008695 0.002262
# 5 0.010298 -0.007311 0.011820 0.008695 0.051485 0.004337
# 6 0.006736 0.000546 -0.001382 0.002262 0.004337 0.027473
#
#
# Mechanical properties :
#
#
# Convention : Reuss Voigt Hill
#
# Bulk Modulus (GPa) = 25.22382 46.18469 35.70426
# Shear Modulus (GPa) = 24.72456 35.06801 29.89629
#
# Velocity S-wave (km/s) = 3.14888 3.75014 3.46258
# Velocity P-wave (km/s) = 4.83076 6.10517 5.50497
#
# Compressibility (1/GPa) = 0.03964506
#
# Stress axis : x y z
#
# Youngs Moduli (GPa) = 75.72424 96.10651 30.59042
#
# Poissons Ratio (x) = 0.34254 -0.00254
# Poissons Ratio (y) = 0.26990 0.14826
# Poissons Ratio (z) = -0.00628 0.46579
#
# Static dielectric constant tensor:
#      x y z
#    x 5.415080 0.789070 -0.335090 
#    y 0.789070 6.302180 -0.355140 
#    z -0.335090 -0.355140 4.423800 
# 
# 
# High freq. dielectric constant tensor:
#      x y z
#    x 2.013130 -0.002210 -0.015670 
#    y -0.002210 2.008530 0.004050 
#    z -0.015670 0.004050 1.981590 
# 
# From -- ./inp_files/177323.got.cif
#   From: 2010.06.25/outbox.cif.g09.slc.cpg/sg2_89_cif.got.tgz:177323.got - 2010.06.27 13:26:56.
