data_PCOD8036327
_publ_section_title
;
Structure prediction by ZEFSAII (Michael W. Deem and Ramdas Pophale) SiO2 
 PCOD8036327
Probable space group: P -1
;
_chemical_formula_sum "Si O2"
_cell_formula_units_Z 14
_cell_length_a 8.593798
_cell_length_b 10.946594
_cell_length_c 6.314399
_cell_angle_alpha 87.910630
_cell_angle_beta 101.866993
_cell_angle_gamma 80.570911
_cell_volume 571.947848
_symmetry_space_group_name_H-M "P -1"
_symmetry_group_IT_number 2
_symmetry_cell_setting 'triclinic'
loop_
_space_group_symop_operation_xyz
x,y,z
-x,-y,-z
loop_
_atom_site_type_symbol
_atom_site_label
_atom_site_fract_x
_atom_site_fract_y
_atom_site_fract_z
Si Si1 0.033840 0.213620 0.223731
Si Si2 0.543773 0.611626 0.145746
Si Si3 0.549953 0.157968 0.138997
Si Si4 0.716374 0.989892 0.841771
Si Si5 0.184913 0.837707 0.491678
Si Si6 0.837879 0.572232 0.551347
Si Si7 0.802297 0.355196 0.821491
O O1 0.135954 0.126500 0.078618
O O2 0.151809 0.288411 0.383544
O O3 0.954311 0.127202 0.371413
O O4 0.896969 0.315528 0.067689
O O5 0.693954 0.569811 0.343891
O O6 0.381862 0.666099 0.223783
O O7 0.500000 0.500000 0.000000
O O8 0.575836 0.729798 0.008710
O O9 0.451765 0.060681 0.225861
O O10 0.647626 0.218680 0.339830
O O11 0.689846 0.086027 0.022831
O O12 0.772450 0.048756 0.639459
O O13 0.121036 0.732727 0.342493
O O14 0.806087 0.498516 0.761106
O O15 0.000000 0.500000 0.500000
#
# Coordination Sequence:
#
# PCOD8036327 Si02
#       7
#     2   2   2   2   2   2   2
#     4  12  27  46  76 110 149 195 240 302 368 433
#     4  12  26  48  79 106 144 195 240 299 366 440
#     4  11  26  48  72 111 151 188 250 300 365 432
#     4  11  27  45  74 106 151 195 245 302 360 431
#     4  12  23  48  73 104 151 192 247 292 367 430
#     4  12  27  47  75 111 144 185 243 305 367 430
#     4  12  26  49  73 108 150 189 243 300 367 438
#
# _framework density 24.477754999999998
#
# number of rings (size 3 to 8) (size 9 to 14) (size 15 to 20)
#    0.000    0.286    4.286    3.429    6.000    5.714 
#    0.000    0.000    0.000    0.000    0.000    0.000 
#    0.000    0.000    0.000    0.000    0.000    0.000 
#
# Total GULP energy -173548.290830 kJ/mol
# GULP energy per Si atom -12396.306488 kJ/mol
# Density = 2.442204 g / cm^3
# Si number density = 24.477755 Si / 1000 Ang^3
#
#
#
# Elastic Constant Matrix: (Units=GPa)
#
#
# Indices 1 2 3 4 5 6 
#
# 1 116.1673 43.3162 58.4303 -12.2396 5.2458 1.4355
# 2 43.3162 119.1033 49.8053 -7.3550 -6.3323 8.0448
# 3 58.4303 49.8053 114.8702 -9.6402 10.7643 8.8291
# 4 -12.2396 -7.3550 -9.6402 41.2574 5.8208 -6.6095
# 5 5.2458 -6.3323 10.7643 5.8208 40.8744 -5.5358
# 6 1.4355 8.0448 8.8291 -6.6095 -5.5358 47.6776
#
#
#
# Elastic Compliance Matrix: (Units=1/GPa)
#
#
# Indices 1 2 3 4 5 6 
#
# 1 0.012292 -0.002330 -0.005064 0.002349 -0.000777 0.001196
# 2 -0.002330 0.011045 -0.003833 -0.000155 0.002938 -0.000764
# 3 -0.005064 -0.003833 0.013572 0.001223 -0.003964 -0.002005
# 4 0.002349 -0.000155 0.001223 0.026221 -0.003989 0.002901
# 5 -0.000777 0.002938 -0.003964 -0.003989 0.027017 0.002846
# 6 0.001196 -0.000764 -0.002005 0.002901 0.002846 0.022171
#
#
# Mechanical properties :
#
#
# Convention : Reuss Voigt Hill
#
# Bulk Modulus (GPa) = 69.18640 72.58270 70.88455
# Shear Modulus (GPa) = 35.81917 39.20114 37.51015
#
# Velocity S-wave (km/s) = 3.82951 4.00622 3.91886
# Velocity P-wave (km/s) = 6.91953 7.14959 7.03550
#
# Compressibility (1/GPa) = 0.01445371
#
# Stress axis : x y z
#
# Youngs Moduli (GPa) = 81.35283 90.54241 73.68255
#
# Poissons Ratio (x) = 0.21094 0.37316
# Poissons Ratio (y) = 0.18953 0.28244
# Poissons Ratio (z) = 0.41200 0.34707
#
# Static dielectric constant tensor:
#      x y z
#    x 4.543310 0.119180 -0.204090 
#    y 0.119180 4.438300 -0.140360 
#    z -0.204090 -0.140360 4.263860 
# 
# 
# High freq. dielectric constant tensor:
#      x y z
#    x 1.983950 0.010880 -0.010260 
#    y 0.010880 1.977540 -0.002430 
#    z -0.010260 -0.002430 1.965940 
# 
# From -- ./inp_files/27815.got.cif
#   From: 2010.06.25/outbox.cif.g09.slc.cpg/sg2_14_cif.got.tgz:27815.got - 2010.06.27 13:26:56.
