data_PCOD8036831
_publ_section_title
;
Structure prediction by ZEFSAII (Michael W. Deem and Ramdas Pophale) SiO2 
 PCOD8036831
Probable space group: P -1
;
_chemical_formula_sum "Si O2"
_cell_formula_units_Z 14
_cell_length_a 17.141493
_cell_length_b 6.884138
_cell_length_c 8.599290
_cell_angle_alpha 60.288235
_cell_angle_beta 76.669604
_cell_angle_gamma 117.977150
_cell_volume 620.487985
_symmetry_space_group_name_H-M "P -1"
_symmetry_group_IT_number 2
_symmetry_cell_setting 'triclinic'
loop_
_space_group_symop_operation_xyz
x,y,z
-x,-y,-z
loop_
_atom_site_type_symbol
_atom_site_label
_atom_site_fract_x
_atom_site_fract_y
_atom_site_fract_z
Si Si1 0.594001 0.860479 0.336029
Si Si2 0.115574 0.285700 0.407513
Si Si3 0.881510 0.832776 0.188081
Si Si4 0.505219 0.112178 0.123552
Si Si5 0.271455 0.244658 0.196381
Si Si6 0.702145 0.133637 0.504704
Si Si7 0.794211 0.076234 0.963189
O O1 0.500000 0.500000 0.500000
O O2 0.541417 0.000206 0.277918
O O3 0.638661 0.938087 0.458216
O O4 0.689054 0.994722 0.116013
O O5 0.120579 0.208459 0.611093
O O6 0.213424 0.358114 0.236986
O O7 0.126501 0.575556 0.277609
O O8 0.000000 0.000000 0.500000
O O9 0.787890 0.497174 0.285099
O O10 0.856216 0.043612 0.076491
O O11 0.000000 0.000000 0.000000
O O12 0.383325 0.963153 0.281422
O O13 0.596070 0.483909 0.944248
O O14 0.500000 0.000000 0.000000
O O15 0.229684 0.948520 0.429703
O O16 0.242820 0.160906 0.062378
#
# Coordination Sequence:
#
# PCOD8036831 Si02
#       7
#     2   2   2   2   2   2   2
#     4  12  24  43  68 106 147 187 241 297 359 432
#     4  12  28  49  76 108 142 193 247 298 362 431
#     4  12  28  48  75 108 145 191 245 298 363 430
#     4  12  23  42  71 105 144 188 242 292 364 435
#     4  12  24  47  74 105 145 188 239 300 362 430
#     4  12  25  44  71 107 146 191 240 298 362 431
#     4  12  26  49  76 105 148 189 243 299 362 431
#
# _framework density 22.562885000000001
#
# number of rings (size 3 to 8) (size 9 to 14) (size 15 to 20)
#    0.000    0.000    2.857    7.714    4.000    1.714 
#    0.000    0.000    0.000    0.000    0.000    0.000 
#    0.000    0.000    0.000    0.000    0.000    0.000 
#
# Total GULP energy -173714.367526 kJ/mol
# GULP energy per Si atom -12408.169109 kJ/mol
# Density = 2.251153 g / cm^3
# Si number density = 22.562885 Si / 1000 Ang^3
#
#
#
# Elastic Constant Matrix: (Units=GPa)
#
#
# Indices 1 2 3 4 5 6 
#
# 1 99.7888 34.7465 43.8231 -14.6904 15.3110 0.1074
# 2 34.7465 141.5068 59.8577 5.1017 -0.2477 17.3386
# 3 43.8231 59.8577 115.3109 -4.4357 5.0628 4.5897
# 4 -14.6904 5.1017 -4.4357 41.7379 4.0064 3.4156
# 5 15.3110 -0.2477 5.0628 4.0064 58.6399 -1.2072
# 6 0.1074 17.3386 4.5897 3.4156 -1.2072 42.4703
#
#
#
# Elastic Compliance Matrix: (Units=1/GPa)
#
#
# Indices 1 2 3 4 5 6 
#
# 1 0.013679 -0.002005 -0.003839 0.004937 -0.003572 0.000700
# 2 -0.002005 0.009902 -0.004374 -0.002204 0.001024 -0.003358
# 3 -0.003839 -0.004374 0.012409 0.000479 -0.000112 0.000413
# 4 0.004937 -0.002204 0.000479 0.026435 -0.003174 -0.001381
# 5 -0.003572 0.001024 -0.000112 -0.003174 0.018224 0.000376
# 6 0.000700 -0.003358 0.000413 -0.001381 0.000376 0.024992
#
#
# Mechanical properties :
#
#
# Convention : Reuss Voigt Hill
#
# Bulk Modulus (GPa) = 64.29399 70.38457 67.33928
# Shear Modulus (GPa) = 38.09130 43.11489 40.60309
#
# Velocity S-wave (km/s) = 4.11326 4.37610 4.24672
# Velocity P-wave (km/s) = 7.14954 7.53633 7.34548
#
# Compressibility (1/GPa) = 0.01555355
#
# Stress axis : x y z
#
# Youngs Moduli (GPa) = 73.10265 100.98696 80.58770
#
# Poissons Ratio (x) = 0.20248 0.30938
# Poissons Ratio (y) = 0.14657 0.35252
# Poissons Ratio (z) = 0.28065 0.44175
#
# Static dielectric constant tensor:
#      x y z
#    x 4.222060 -0.037870 0.090290 
#    y -0.037870 4.307840 -0.168500 
#    z 0.090290 -0.168500 4.293230 
# 
# 
# High freq. dielectric constant tensor:
#      x y z
#    x 1.899080 0.000670 0.010000 
#    y 0.000670 1.902880 -0.002780 
#    z 0.010000 -0.002780 1.901520 
# 
# From -- ./inp_files/37652.got.cif
#   From: 2010.06.25/outbox.cif.g09.slc.cpg/sg2_19_cif.got.tgz:37652.got - 2010.06.27 13:26:56.
