data_PCOD8036779
_publ_section_title
;
Structure prediction by ZEFSAII (Michael W. Deem and Ramdas Pophale) SiO2 
 PCOD8036779
Probable space group: P -1
;
_chemical_formula_sum "Si O2"
_cell_formula_units_Z 16
_cell_length_a 11.926659
_cell_length_b 22.454807
_cell_length_c 20.334036
_cell_angle_alpha 159.392506
_cell_angle_beta 24.781375
_cell_angle_gamma 143.380872
_cell_volume 761.160779
_symmetry_space_group_name_H-M "P -1"
_symmetry_group_IT_number 2
_symmetry_cell_setting 'triclinic'
loop_
_space_group_symop_operation_xyz
x,y,z
-x,-y,-z
loop_
_atom_site_type_symbol
_atom_site_label
_atom_site_fract_x
_atom_site_fract_y
_atom_site_fract_z
Si Si1 0.032901 0.233258 0.100796
Si Si2 0.204168 0.091510 0.332654
Si Si3 0.865217 0.946192 0.814983
Si Si4 0.324446 0.645832 0.459634
Si Si5 0.116415 0.637230 0.117613
Si Si6 0.662131 0.164696 0.894545
Si Si7 0.319631 0.000560 0.814603
Si Si8 0.085462 0.381932 0.460161
O O1 0.761423 0.309120 0.371721
O O2 0.059039 0.406818 0.226494
O O3 0.015486 0.082015 0.903156
O O4 0.308190 0.133172 0.896236
O O5 0.050034 0.091809 0.345730
O O6 0.070186 0.284407 0.637992
O O7 0.155291 0.939572 0.248903
O O8 0.535304 0.050343 0.104370
O O9 0.968038 0.752952 0.596473
O O10 0.468320 0.789565 0.502614
O O11 0.042630 0.650072 0.574729
O O12 0.558703 0.454039 0.128728
O O13 0.113338 0.798629 0.236733
O O14 0.000000 0.500000 0.000000
O O15 0.479351 0.047577 0.840135
O O16 0.422298 0.344409 0.233333
O O17 0.000000 0.000000 0.000000
#
# Coordination Sequence:
#
# PCOD8036779 Si02
#       8
#     2   2   2   2   2   2   2   2
#     4  11  18  32  60  93 118 147 197 253 313 349
#     4  10  23  42  58  81 123 173 199 244 306 363
#     4  10  22  42  60  85 126 160 212 252 287 375
#     4  11  19  34  59  97 125 145 196 269 308 351
#     4  12  24  38  58  91 127 161 203 253 309 366
#     4  11  20  37  62  90 122 155 205 259 305 363
#     4  10  17  31  59  93 123 148 188 259 317 349
#     4  11  19  35  63 100 117 151 204 261 317 343
#
# _framework density 21.020526
#
# number of rings (size 3 to 8) (size 9 to 14) (size 15 to 20)
#    0.000    1.250    5.000    5.250    0.000    0.000 
#    2.250    2.500    0.000    1.500    0.000    0.000 
#    0.000    0.000    0.000    0.000    0.000    0.000 
#
# Total GULP energy -198285.175654 kJ/mol
# GULP energy per Si atom -12392.823478 kJ/mol
# Density = 2.097268 g / cm^3
# Si number density = 21.020526 Si / 1000 Ang^3
#
#
#
# Elastic Constant Matrix: (Units=GPa)
#
#
# Indices 1 2 3 4 5 6 
#
# 1 135.2980 42.0198 49.7355 16.3923 12.3297 -20.4497
# 2 42.0198 75.9818 30.8578 28.4339 9.7262 -8.1392
# 3 49.7355 30.8578 90.1527 22.1377 11.1195 -19.9229
# 4 16.3923 28.4339 22.1377 40.0478 0.2210 -2.8782
# 5 12.3297 9.7262 11.1195 0.2210 29.5531 3.4715
# 6 -20.4497 -8.1392 -19.9229 -2.8782 3.4715 21.4664
#
#
#
# Elastic Compliance Matrix: (Units=1/GPa)
#
#
# Indices 1 2 3 4 5 6 
#
# 1 0.010920 -0.003906 -0.002941 0.000429 -0.002957 0.006728
# 2 -0.003906 0.021486 -0.000682 -0.013039 -0.005431 0.002923
# 3 -0.002941 -0.000682 0.019012 -0.007721 -0.007376 0.014742
# 4 0.000429 -0.013039 -0.007721 0.037712 0.007662 -0.007884
# 5 -0.002957 -0.005431 -0.007376 0.007662 0.041623 -0.017426
# 6 0.006728 0.002923 0.014742 -0.007884 -0.017426 0.069545
#
#
# Mechanical properties :
#
#
# Convention : Reuss Voigt Hill
#
# Bulk Modulus (GPa) = 27.50285 60.73986 44.12136
# Shear Modulus (GPa) = 21.98050 30.13475 26.05763
#
# Velocity S-wave (km/s) = 3.23719 3.79038 3.52465
# Velocity P-wave (km/s) = 5.20430 6.93644 6.13184
#
# Compressibility (1/GPa) = 0.03635987
#
# Stress axis : x y z
#
# Youngs Moduli (GPa) = 91.57833 46.54235 52.59882
#
# Poissons Ratio (x) = 0.18178 0.15470
# Poissons Ratio (y) = 0.35768 0.03586
# Poissons Ratio (z) = 0.26935 0.03173
#
# Static dielectric constant tensor:
#      x y z
#    x 3.868960 -0.223110 -0.316470 
#    y -0.223110 3.679050 0.534060 
#    z -0.316470 0.534060 4.197120 
# 
# 
# High freq. dielectric constant tensor:
#      x y z
#    x 1.811850 0.001940 -0.022340 
#    y 0.001940 1.795850 0.034880 
#    z -0.022340 0.034880 1.823210 
# 
# From -- ./inp_files/280948.got.cif
#   From: 2010.06.25/outbox.cif.g09.slc.cpg/sg2_141_cif.got.tgz:280948.got - 2010.06.27 13:26:56.
