data_PCOD8036480
_publ_section_title
;
Structure prediction by ZEFSAII (Michael W. Deem and Ramdas Pophale) SiO2 
 PCOD8036480
Probable space group: P -1
;
_chemical_formula_sum "Si O2"
_cell_formula_units_Z 14
_cell_length_a 6.402218
_cell_length_b 8.567180
_cell_length_c 11.630662
_cell_angle_alpha 77.126342
_cell_angle_beta 76.597370
_cell_angle_gamma 100.111646
_cell_volume 587.336771
_symmetry_space_group_name_H-M "P -1"
_symmetry_group_IT_number 2
_symmetry_cell_setting 'triclinic'
loop_
_space_group_symop_operation_xyz
x,y,z
-x,-y,-z
loop_
_atom_site_type_symbol
_atom_site_label
_atom_site_fract_x
_atom_site_fract_y
_atom_site_fract_z
Si Si1 0.974933 0.808597 0.039762
Si Si2 0.778094 0.256355 0.205924
Si Si3 0.926787 0.250228 0.709578
Si Si4 0.236138 0.156766 0.515359
Si Si5 0.117251 0.415586 0.321900
Si Si6 0.589174 0.062429 0.622463
Si Si7 0.447484 0.462419 0.881296
O O1 0.716253 0.717057 0.082768
O O2 0.085042 0.769156 0.149523
O O3 0.102758 0.749217 0.929156
O O4 0.000000 0.000000 0.000000
O O5 0.597407 0.090043 0.282338
O O6 0.660473 0.405256 0.189356
O O7 0.958779 0.286602 0.279438
O O8 0.003723 0.446181 0.635782
O O9 0.087662 0.143571 0.651250
O O10 0.685020 0.175237 0.699282
O O11 0.207182 0.317439 0.426031
O O12 0.206715 0.997888 0.458339
O O13 0.488389 0.172630 0.526396
O O14 0.321868 0.532226 0.209853
O O15 0.500000 0.500000 0.000000
#
# Coordination Sequence:
#
# PCOD8036480 Si02
#       7
#     2   2   2   2   2   2   2
#     4  12  28  47  75 110 149 186 243 307 361 437
#     4  12  26  50  73 111 147 195 241 297 373 437
#     4  12  28  48  73 112 150 190 246 308 361 435
#     4  11  27  50  73 109 149 195 249 300 367 436
#     4  12  27  47  78 107 150 193 243 305 366 435
#     4  11  28  47  78 108 145 198 248 300 369 432
#     4  12  25  48  74 106 148 198 240 290 371 441
#
# _framework density 23.836410999999998
#
# number of rings (size 3 to 8) (size 9 to 14) (size 15 to 20)
#    0.000    0.286    4.286    3.000   14.000    1.143 
#    0.000    0.000    0.000    0.000    0.000    0.000 
#    0.000    0.000    0.000    0.000    0.000    0.000 
#
# Total GULP energy -173600.479882 kJ/mol
# GULP energy per Si atom -12400.034277 kJ/mol
# Density = 2.378216 g / cm^3
# Si number density = 23.836411 Si / 1000 Ang^3
#
#
#
# Elastic Constant Matrix: (Units=GPa)
#
#
# Indices 1 2 3 4 5 6 
#
# 1 61.0561 38.1060 41.8601 8.1313 29.4163 -12.3403
# 2 38.1060 126.3196 39.5771 4.0706 25.1545 5.0322
# 3 41.8601 39.5771 105.4870 1.5578 15.1278 8.8164
# 4 8.1313 4.0706 1.5578 35.9795 -8.9928 10.8774
# 5 29.4163 25.1545 15.1278 -8.9928 47.0292 4.9671
# 6 -12.3403 5.0322 8.8164 10.8774 4.9671 45.3650
#
#
#
# Elastic Compliance Matrix: (Units=1/GPa)
#
#
# Indices 1 2 3 4 5 6 
#
# 1 0.065786 -0.005340 -0.020519 -0.034575 -0.042039 0.035369
# 2 -0.005340 0.010313 -0.001363 0.000436 -0.001413 -0.002281
# 3 -0.020519 -0.001363 0.017404 0.010687 0.011341 -0.012617
# 4 -0.034575 0.000436 0.010687 0.050921 0.030553 -0.027085
# 5 -0.042039 -0.001413 0.011341 0.030553 0.053323 -0.026647
# 6 0.035369 -0.002281 -0.012617 -0.027085 -0.026647 0.043782
#
#
# Mechanical properties :
#
#
# Convention : Reuss Voigt Hill
#
# Bulk Modulus (GPa) = 25.60252 59.10547 42.35399
# Shear Modulus (GPa) = 16.18167 37.22938 26.70552
#
# Velocity S-wave (km/s) = 2.60833 3.95634 3.35082
# Velocity P-wave (km/s) = 4.45370 6.76168 5.72519
#
# Compressibility (1/GPa) = 0.03905866
#
# Stress axis : x y z
#
# Youngs Moduli (GPa) = 15.20076 96.96840 57.45812
#
# Poissons Ratio (x) = 0.51781 1.17898
# Poissons Ratio (y) = 0.08117 0.07833
# Poissons Ratio (z) = 0.31190 0.13219
#
# Static dielectric constant tensor:
#      x y z
#    x 4.559290 -0.166060 -0.021880 
#    y -0.166060 4.377090 0.180440 
#    z -0.021880 0.180440 4.399000 
# 
# 
# High freq. dielectric constant tensor:
#      x y z
#    x 1.957190 -0.006860 0.008760 
#    y -0.006860 1.951590 0.008930 
#    z 0.008760 0.008930 1.957080 
# 
# From -- ./inp_files/68227.got.cif
#   From: 2010.06.25/outbox.cif.g09.slc.cpg/sg2_35_cif.got.tgz:68227.got - 2010.06.27 13:26:56.
