data_PCOD8036247
_publ_section_title
;
Structure prediction by ZEFSAII (Michael W. Deem and Ramdas Pophale) SiO2 
 PCOD8036247
Probable space group: P -1
;
_chemical_formula_sum "Si O2"
_cell_formula_units_Z 12
_cell_length_a 14.783581
_cell_length_b 4.927976
_cell_length_c 9.770277
_cell_angle_alpha 59.890277
_cell_angle_beta 61.440769
_cell_angle_gamma 80.797096
_cell_volume 537.829499
_symmetry_space_group_name_H-M "P -1"
_symmetry_group_IT_number 2
_symmetry_cell_setting 'triclinic'
loop_
_space_group_symop_operation_xyz
x,y,z
-x,-y,-z
loop_
_atom_site_type_symbol
_atom_site_label
_atom_site_fract_x
_atom_site_fract_y
_atom_site_fract_z
Si Si1 0.885964 0.238284 0.404003
Si Si2 0.459415 0.040146 0.868402
Si Si3 0.540921 0.736504 0.631187
Si Si4 0.772257 0.123347 0.998437
Si Si5 0.120912 0.205246 0.223369
Si Si6 0.775285 0.833684 0.364664
O O1 0.847927 0.557940 0.408086
O O2 0.006469 0.308512 0.263283
O O3 0.865885 0.964591 0.599439
O O4 0.821867 0.137431 0.339435
O O5 0.519998 0.819119 0.782518
O O6 0.338161 0.930588 0.980791
O O7 0.479470 0.404568 0.716474
O O8 0.500000 0.000000 0.000000
O O9 0.661742 0.714303 0.530174
O O10 0.500000 0.000000 0.500000
O O11 0.771812 0.918922 0.187119
O O12 0.795676 0.491003 0.922934
O O13 0.859770 0.025572 0.857067
#
# Coordination Sequence:
#
# PCOD8036247 Si02
#       6
#     2   2   2   2   2   2
#     4  11  26  47  71 102 134 182 231 277 350 405
#     4  12  28  46  70 105 138 181 230 279 341 402
#     4  12  26  48  70 100 143 182 223 281 338 409
#     4  12  26  44  71 104 138 179 228 284 340 400
#     4  11  26  47  71  99 141 177 226 291 338 406
#     4  12  26  43  73 103 135 184 227 278 341 409
#
# _framework density 22.311904999999999
#
# number of rings (size 3 to 8) (size 9 to 14) (size 15 to 20)
#    0.000    0.333    1.667    6.000    9.333    6.667 
#    0.000    0.000    0.000    0.000    0.000    0.000 
#    0.000    0.000    0.000    0.000    0.000    0.000 
#
# Total GULP energy -148937.189182 kJ/mol
# GULP energy per Si atom -12411.432432 kJ/mol
# Density = 2.226112 g / cm^3
# Si number density = 22.311905 Si / 1000 Ang^3
#
#
#
# Elastic Constant Matrix: (Units=GPa)
#
#
# Indices 1 2 3 4 5 6 
#
# 1 89.9726 3.2487 47.4587 4.4203 -4.9084 2.6272
# 2 3.2487 82.6773 19.6216 5.6361 -9.0465 3.7955
# 3 47.4587 19.6216 91.1819 11.6524 -17.5912 -4.1464
# 4 4.4203 5.6361 11.6524 54.1202 2.7800 -6.1436
# 5 -4.9084 -9.0465 -17.5912 2.7800 27.8792 0.1230
# 6 2.6272 3.7955 -4.1464 -6.1436 0.1230 41.2868
#
#
#
# Elastic Compliance Matrix: (Units=1/GPa)
#
#
# Indices 1 2 3 4 5 6 
#
# 1 0.015787 0.001327 -0.009152 0.000453 -0.002601 -0.001971
# 2 0.001327 0.013206 -0.002919 -0.001201 0.002805 -0.001779
# 3 -0.009152 -0.002919 0.018715 -0.003217 0.009562 0.002223
# 4 0.000453 -0.001201 -0.003217 0.019789 -0.004325 0.002716
# 5 -0.002601 0.002805 0.009562 -0.004325 0.042785 0.000097
# 6 -0.001971 -0.001779 0.002223 0.002716 0.000097 0.025137
#
#
# Mechanical properties :
#
#
# Convention : Reuss Voigt Hill
#
# Bulk Modulus (GPa) = 38.13680 44.94330 41.54005
# Shear Modulus (GPa) = 30.18452 37.55741 33.87097
#
# Velocity S-wave (km/s) = 3.68209 4.10724 3.90046
# Velocity P-wave (km/s) = 5.93353 6.53296 6.24044
#
# Compressibility (1/GPa) = 0.02622139
#
# Stress axis : x y z
#
# Youngs Moduli (GPa) = 63.34174 75.72194 53.43199
#
# Poissons Ratio (x) = -0.10045 0.48900
# Poissons Ratio (y) = -0.08403 0.15595
# Poissons Ratio (z) = 0.57969 0.22100
#
# Static dielectric constant tensor:
#      x y z
#    x 3.562470 0.070500 0.192000 
#    y 0.070500 4.253450 0.076330 
#    z 0.192000 0.076330 3.892830 
# 
# 
# High freq. dielectric constant tensor:
#      x y z
#    x 1.886680 0.001350 -0.003280 
#    y 0.001350 1.897170 0.004830 
#    z -0.003280 0.004830 1.891620 
# 
# From -- ./inp_files/287605.got.cif
#   From: 2010.06.25/outbox.cif.g09.slc.cpg/sg2_144_cif.got.tgz:287605.got - 2010.06.27 13:26:56.
