data_PCOD8036877
_publ_section_title
;
Structure prediction by ZEFSAII (Michael W. Deem and Ramdas Pophale) SiO2 
 PCOD8036877
Probable space group: P -1
;
_chemical_formula_sum "Si O2"
_cell_formula_units_Z 16
_cell_length_a 8.494472
_cell_length_b 12.389331
_cell_length_c 12.089720
_cell_angle_alpha 65.772432
_cell_angle_beta 120.285457
_cell_angle_gamma 140.075632
_cell_volume 704.471662
_symmetry_space_group_name_H-M "P -1"
_symmetry_group_IT_number 2
_symmetry_cell_setting 'triclinic'
loop_
_space_group_symop_operation_xyz
x,y,z
-x,-y,-z
loop_
_atom_site_type_symbol
_atom_site_label
_atom_site_fract_x
_atom_site_fract_y
_atom_site_fract_z
Si Si1 0.384427 0.687385 0.769345
Si Si2 0.717001 0.898768 0.398719
Si Si3 0.967180 0.393042 0.132588
Si Si4 0.482623 0.570404 0.356029
Si Si5 0.731990 0.054368 0.132181
Si Si6 0.019924 0.984752 0.138973
Si Si7 0.172968 0.362734 0.733212
Si Si8 0.351024 0.811524 0.493731
O O1 0.290165 0.694164 0.851286
O O2 0.687701 0.854401 0.787739
O O3 0.290241 0.506343 0.807109
O O4 0.260928 0.698360 0.617353
O O5 0.662189 0.765611 0.354228
O O6 0.533081 0.819926 0.473215
O O7 0.675750 0.997319 0.266272
O O8 0.000000 0.000000 0.500000
O O9 0.945917 0.255621 0.125298
O O10 0.202265 0.495011 0.259399
O O11 0.000000 0.500000 0.000000
O O12 0.500000 0.500000 0.500000
O O13 0.590045 0.540756 0.307796
O O14 0.832967 0.982193 0.143107
O O15 0.500000 0.000000 0.000000
O O16 0.915962 0.803735 0.182208
O O17 0.000000 0.000000 0.000000
O O18 0.918783 0.297009 0.616020
O O19 0.500000 0.000000 0.500000
#
# Coordination Sequence:
#
# PCOD8036877 Si02
#       8
#     2   2   2   2   2   2   2   2
#     4  12  26  49  74 108 148 188 242 301 361 435
#     4  12  24  43  73 105 141 189 239 292 358 428
#     4  12  28  47  73 106 142 191 243 296 363 431
#     4  12  24  46  70 103 145 185 239 294 358 428
#     4  12  26  48  72 104 147 188 241 300 359 434
#     4  12  28  47  74 106 143 195 243 296 364 431
#     4  12  26  46  75 108 147 187 242 299 364 431
#     4  12  23  43  74 108 145 187 241 295 362 430
#
# _framework density 22.712057000000001
#
# number of rings (size 3 to 8) (size 9 to 14) (size 15 to 20)
#    0.000    0.000    2.500    7.875    5.250    0.500 
#    0.000    0.000    0.000    0.000    0.000    0.000 
#    0.000    0.000    0.000    0.000    0.000    0.000 
#
# Total GULP energy -198360.625820 kJ/mol
# GULP energy per Si atom -12397.539114 kJ/mol
# Density = 2.266036 g / cm^3
# Si number density = 22.712057 Si / 1000 Ang^3
#
#
#
# Elastic Constant Matrix: (Units=GPa)
#
#
# Indices 1 2 3 4 5 6 
#
# 1 100.5641 16.6351 28.6501 -11.2928 -2.6201 4.4814
# 2 16.6351 141.5718 40.4835 -15.7468 7.3793 -18.9576
# 3 28.6501 40.4835 155.2742 -26.5709 1.1693 6.9946
# 4 -11.2928 -15.7468 -26.5709 41.6886 5.4703 -0.5701
# 5 -2.6201 7.3793 1.1693 5.4703 39.0057 1.4574
# 6 4.4814 -18.9576 6.9946 -0.5701 1.4574 41.3489
#
#
#
# Elastic Compliance Matrix: (Units=1/GPa)
#
#
# Indices 1 2 3 4 5 6 
#
# 1 0.010754 -0.000903 -0.001430 0.001541 0.000770 -0.001344
# 2 -0.000903 0.008668 -0.001912 0.002149 -0.002113 0.004500
# 3 -0.001430 -0.001912 0.007983 0.004011 -0.000461 -0.002001
# 4 0.001541 0.002149 0.004011 0.028364 -0.004427 0.000687
# 5 0.000770 -0.002113 -0.000461 -0.004427 0.026797 -0.001980
# 6 -0.001344 0.004500 -0.002001 0.000687 -0.001980 0.026811
#
#
# Mechanical properties :
#
#
# Convention : Reuss Voigt Hill
#
# Bulk Modulus (GPa) = 52.87381 63.21640 58.04510
# Shear Modulus (GPa) = 40.26650 45.18474 42.72562
#
# Velocity S-wave (km/s) = 4.21517 4.46518 4.34197
# Velocity P-wave (km/s) = 6.85717 7.38092 7.12386
#
# Compressibility (1/GPa) = 0.01891296
#
# Stress axis : x y z
#
# Youngs Moduli (GPa) = 92.99060 115.36295 125.27028
#
# Poissons Ratio (x) = 0.10420 0.17918
# Poissons Ratio (y) = 0.08400 0.23956
# Poissons Ratio (z) = 0.13301 0.22061
#
# Static dielectric constant tensor:
#      x y z
#    x 4.231050 0.045800 0.020920 
#    y 0.045800 4.833460 0.152760 
#    z 0.020920 0.152760 4.332040 
# 
# 
# High freq. dielectric constant tensor:
#      x y z
#    x 1.901830 -0.005280 -0.000580 
#    y -0.005280 1.915090 -0.000900 
#    z -0.000580 -0.000900 1.911820 
# 
# From -- ./inp_files/392417.got.cif
#   From: 2010.06.25/outbox.cif.g09.slc.cpg/sg2_197_cif.got.tgz:392417.got - 2010.06.27 13:26:56.
