data_PCOD8036345
_publ_section_title
;
Structure prediction by ZEFSAII (Michael W. Deem and Ramdas Pophale) SiO2 
 PCOD8036345
Probable space group: P -1
;
_chemical_formula_sum "Si O2"
_cell_formula_units_Z 16
_cell_length_a 9.110425
_cell_length_b 8.602683
_cell_length_c 17.947263
_cell_angle_alpha 50.401076
_cell_angle_beta 128.715927
_cell_angle_gamma 111.999344
_cell_volume 844.980143
_symmetry_space_group_name_H-M "P -1"
_symmetry_group_IT_number 2
_symmetry_cell_setting 'triclinic'
loop_
_space_group_symop_operation_xyz
x,y,z
-x,-y,-z
loop_
_atom_site_type_symbol
_atom_site_label
_atom_site_fract_x
_atom_site_fract_y
_atom_site_fract_z
Si Si1 0.462259 0.250046 0.525104
Si Si2 0.737418 0.551710 0.477808
Si Si3 0.067917 0.445274 0.708733
Si Si4 0.079021 0.972697 0.150216
Si Si5 0.862554 0.619225 0.719978
Si Si6 0.331638 0.146583 0.301126
Si Si7 0.430967 0.456133 0.734608
Si Si8 0.208463 0.778367 0.103962
O O1 0.657673 0.362507 0.556512
O O2 0.361981 0.248069 0.575642
O O3 0.334529 0.384618 0.386279
O O4 0.508486 0.026184 0.576759
O O5 0.696932 0.537302 0.382301
O O6 0.959385 0.534802 0.573272
O O7 0.289472 0.434455 0.765527
O O8 0.997281 0.225704 0.774532
O O9 0.031837 0.603581 0.718264
O O10 0.192023 0.925897 0.124394
O O11 0.229536 0.089487 0.210472
O O12 0.900651 0.124004 0.030955
O O13 0.837237 0.824454 0.698998
O O14 0.884885 0.431462 0.840351
O O15 0.445745 0.350154 0.271447
O O16 0.572561 0.259986 0.836763
#
# Coordination Sequence:
#
# PCOD8036345 Si02
#       8
#     2   2   2   2   2   2   2   2
#     4  10  17  31  57  81 100 138 185 217 250 307
#     4  10  18  33  55  78 108 141 176 218 255 315
#     4  10  21  37  52  76 112 148 173 209 269 316
#     4  10  20  36  61  80  99 136 187 225 251 314
#     4   9  19  33  52  78 110 139 171 222 263 308
#     4  11  20  32  56  82 104 135 181 220 262 311
#     4  11  22  34  53  80 115 140 168 220 273 314
#     4   9  19  37  58  80 102 135 185 221 259 308
#
# _framework density 18.935355999999999
#
# number of rings (size 3 to 8) (size 9 to 14) (size 15 to 20)
#    0.000    2.000    3.750    1.500    0.000    2.500 
#    0.000    5.000    0.000    7.500    0.000    0.000 
#    0.000    0.000    0.000    0.000    0.000    0.000 
#
# Total GULP energy -198218.430891 kJ/mol
# GULP energy per Si atom -12388.651931 kJ/mol
# Density = 1.889226 g / cm^3
# Si number density = 18.935356 Si / 1000 Ang^3
#
#
#
# Elastic Constant Matrix: (Units=GPa)
#
#
# Indices 1 2 3 4 5 6 
#
# 1 119.6234 30.5180 35.4649 -5.9270 23.0484 -17.3362
# 2 30.5180 75.4710 24.0997 -4.5841 4.8190 -23.7181
# 3 35.4649 24.0997 86.2873 -12.9396 13.8709 -11.4728
# 4 -5.9270 -4.5841 -12.9396 17.9925 -6.6025 4.2216
# 5 23.0484 4.8190 13.8709 -6.6025 23.8234 -2.3719
# 6 -17.3362 -23.7181 -11.4728 4.2216 -2.3719 22.7421
#
#
#
# Elastic Compliance Matrix: (Units=1/GPa)
#
#
# Indices 1 2 3 4 5 6 
#
# 1 0.012255 -0.001914 -0.002612 -0.003436 -0.010344 0.005587
# 2 -0.001914 0.020817 -0.002836 -0.001591 0.000762 0.019195
# 3 -0.002612 -0.002836 0.015338 0.007927 -0.003539 0.000948
# 4 -0.003436 -0.001591 0.007927 0.068590 0.016920 -0.011247
# 5 -0.010344 0.000762 -0.003539 0.016920 0.057984 -0.005969
# 6 0.005587 0.019195 0.000948 -0.011247 -0.005969 0.070193
#
#
# Mechanical properties :
#
#
# Convention : Reuss Voigt Hill
#
# Bulk Modulus (GPa) = 29.68567 51.28298 40.48433
# Shear Modulus (GPa) = 18.44133 25.66489 22.05311
#
# Velocity S-wave (km/s) = 3.12414 3.68556 3.41640
# Velocity P-wave (km/s) = 5.35958 6.72705 6.08187
#
# Compressibility (1/GPa) = 0.03368628
#
# Stress axis : x y z
#
# Youngs Moduli (GPa) = 81.60180 48.03802 65.19546
#
# Poissons Ratio (x) = 0.09193 0.17028
# Poissons Ratio (y) = 0.15616 0.18492
# Poissons Ratio (z) = 0.21313 0.13625
#
# Static dielectric constant tensor:
#      x y z
#    x 3.549930 -0.529940 0.216830 
#    y -0.529940 3.394480 -0.071360 
#    z 0.216830 -0.071360 3.449770 
# 
# 
# High freq. dielectric constant tensor:
#      x y z
#    x 1.724010 -0.039340 0.017000 
#    y -0.039340 1.715230 0.000730 
#    z 0.017000 0.000730 1.732410 
# 
# From -- ./inp_files/169440.got.cif
#   From: 2010.06.25/outbox.cif.g09.slc.cpg/sg2_85_cif.got.tgz:169440.got - 2010.06.27 13:26:56.
