data_PCOD8036374
_publ_section_title
;
Structure prediction by ZEFSAII (Michael W. Deem and Ramdas Pophale) SiO2 
 PCOD8036374
Probable space group: P -1
;
_chemical_formula_sum "Si O2"
_cell_formula_units_Z 12
_cell_length_a 12.751775
_cell_length_b 15.934652
_cell_length_c 6.570109
_cell_angle_alpha 65.521043
_cell_angle_beta 115.016287
_cell_angle_gamma 153.325927
_cell_volume 540.895911
_symmetry_space_group_name_H-M "P -1"
_symmetry_group_IT_number 2
_symmetry_cell_setting 'triclinic'
loop_
_space_group_symop_operation_xyz
x,y,z
-x,-y,-z
loop_
_atom_site_type_symbol
_atom_site_label
_atom_site_fract_x
_atom_site_fract_y
_atom_site_fract_z
Si Si1 0.427230 0.504418 0.135875
Si Si2 0.516069 0.225744 0.550577
Si Si3 0.284514 0.895540 0.548469
Si Si4 0.200335 0.703809 0.038789
Si Si5 0.737934 0.779219 0.471760
Si Si6 0.901868 0.579670 0.258208
O O1 0.650516 0.705597 0.238457
O O2 0.281423 0.334869 0.331195
O O3 0.500000 0.500000 0.000000
O O4 0.248921 0.460301 0.971788
O O5 0.580922 0.211565 0.818694
O O6 0.434577 0.270754 0.501727
O O7 0.734398 0.385723 0.412641
O O8 0.317760 0.028253 0.473132
O O9 0.030914 0.719763 0.409648
O O10 0.500000 0.000000 0.500000
O O11 0.274020 0.834809 0.814599
O O12 0.115699 0.686510 0.199396
O O13 0.000000 0.500000 0.000000
O O14 0.000000 0.000000 0.500000
#
# Coordination Sequence:
#
# PCOD8036374 Si02
#       6
#     2   2   2   2   2   2
#     4  11  26  49  73 101 143 189 237 292 360 413
#     4  12  25  46  69 105 144 184 240 290 354 421
#     4  12  27  44  70 108 143 186 235 287 356 424
#     4  12  24  44  73  99 143 184 230 291 355 419
#     4  11  28  47  74 105 140 188 242 296 352 423
#     4  12  26  46  71 103 143 187 233 293 352 427
#
# _framework density 22.185411999999999
#
# number of rings (size 3 to 8) (size 9 to 14) (size 15 to 20)
#    0.000    0.333    5.000    3.000    4.667    2.000 
#    0.000    0.000    0.000    0.000    0.000    0.000 
#    0.000    0.000    0.000    0.000    0.000    0.000 
#
# Total GULP energy -148781.400944 kJ/mol
# GULP energy per Si atom -12398.450079 kJ/mol
# Density = 2.213492 g / cm^3
# Si number density = 22.185412 Si / 1000 Ang^3
#
#
#
# Elastic Constant Matrix: (Units=GPa)
#
#
# Indices 1 2 3 4 5 6 
#
# 1 67.6366 22.4780 30.2163 2.3747 -1.5846 -11.1395
# 2 22.4780 159.0270 66.6379 7.0761 6.1305 -18.6228
# 3 30.2163 66.6379 136.6506 9.6154 9.3781 -4.9513
# 4 2.3747 7.0761 9.6154 41.5984 8.9896 -0.7797
# 5 -1.5846 6.1305 9.3781 8.9896 38.8257 -0.5209
# 6 -11.1395 -18.6228 -4.9513 -0.7797 -0.5209 37.5410
#
#
#
# Elastic Compliance Matrix: (Units=1/GPa)
#
#
# Indices 1 2 3 4 5 6 
#
# 1 0.017310 -0.000505 -0.003515 -0.000392 0.001786 0.004439
# 2 -0.000505 0.008393 -0.003807 -0.000391 -0.000289 0.003499
# 3 -0.003515 -0.003807 0.010092 -0.001140 -0.001738 -0.001649
# 4 -0.000392 -0.000391 -0.001140 0.025603 -0.005607 -0.000007
# 5 0.001786 -0.000289 -0.001738 -0.005607 0.027598 0.000424
# 6 0.004439 0.003499 -0.001649 -0.000007 0.000424 0.029479
#
#
# Mechanical properties :
#
#
# Convention : Reuss Voigt Hill
#
# Bulk Modulus (GPa) = 49.65412 66.88652 58.27032
# Shear Modulus (GPa) = 35.50024 39.85848 37.67936
#
# Velocity S-wave (km/s) = 4.00454 4.24324 4.12562
# Velocity P-wave (km/s) = 6.61905 7.36350 7.00118
#
# Compressibility (1/GPa) = 0.02013932
#
# Stress axis : x y z
#
# Youngs Moduli (GPa) = 57.77036 119.14226 99.09263
#
# Poissons Ratio (x) = 0.06020 0.34834
# Poissons Ratio (y) = 0.02919 0.37726
# Poissons Ratio (z) = 0.20308 0.45360
#
# Static dielectric constant tensor:
#      x y z
#    x 33.485500 -1.546260 -29.825980 
#    y -1.546260 4.233820 1.461780 
#    z -29.825980 1.461780 34.726820 
# 
# 
# High freq. dielectric constant tensor:
#      x y z
#    x 1.869810 -0.013590 0.003630 
#    y -0.013590 1.889160 0.008240 
#    z 0.003630 0.008240 1.887400 
# 
# From -- ./inp_files/21298.got.cif
#   From: 2010.06.25/outbox.cif.g09.slc.cpg/sg2_11_cif.got.tgz:21298.got - 2010.06.27 13:26:56.
