data_PCOD8036491
_publ_section_title
;
Structure prediction by ZEFSAII (Michael W. Deem and Ramdas Pophale) SiO2 
 PCOD8036491
Probable space group: P -1
;
_chemical_formula_sum "Si O2"
_cell_formula_units_Z 12
_cell_length_a 9.020458
_cell_length_b 6.889879
_cell_length_c 11.736184
_cell_angle_alpha 112.099769
_cell_angle_beta 74.783579
_cell_angle_gamma 129.787412
_cell_volume 519.069731
_symmetry_space_group_name_H-M "P -1"
_symmetry_group_IT_number 2
_symmetry_cell_setting 'triclinic'
loop_
_space_group_symop_operation_xyz
x,y,z
-x,-y,-z
loop_
_atom_site_type_symbol
_atom_site_label
_atom_site_fract_x
_atom_site_fract_y
_atom_site_fract_z
Si Si1 0.916177 0.824285 0.228287
Si Si2 0.597225 0.410740 0.042060
Si Si3 0.722015 0.713309 0.467896
Si Si4 0.354915 0.907279 0.404920
Si Si5 0.661800 0.024339 0.825635
Si Si6 0.077021 0.356109 0.391983
O O1 0.797922 0.669909 0.105248
O O2 0.785523 0.649441 0.325391
O O3 0.115039 0.859682 0.200893
O O4 0.945379 0.103516 0.280382
O O5 0.450926 0.241542 0.137421
O O6 0.500000 0.500000 0.000000
O O7 0.648606 0.241978 0.929465
O O8 0.500000 0.500000 0.500000
O O9 0.847476 0.745918 0.554960
O O10 0.776426 0.005506 0.505622
O O11 0.438293 0.048212 0.296251
O O12 0.248920 0.598786 0.335314
O O13 0.500000 0.000000 0.500000
O O14 0.000000 0.500000 0.500000
#
# Coordination Sequence:
#
# PCOD8036491 Si02
#       6
#     2   2   2   2   2   2
#     4  12  26  48  76 107 156 197 250 319 372 449
#     4  11  29  53  80 107 143 202 263 320 376 444
#     4  12  24  45  71 109 155 197 247 306 375 454
#     4  12  25  43  76 111 152 197 246 309 379 454
#     4  11  27  53  76 110 151 196 260 313 378 452
#     4  12  25  42  68 113 152 198 243 299 383 453
#
# _framework density 23.118279000000001
#
# number of rings (size 3 to 8) (size 9 to 14) (size 15 to 20)
#    0.000    0.333    5.000    3.000    4.667    0.667 
#    9.000    0.000    0.000    0.000    0.000    0.000 
#    0.000    0.000    0.000    0.000    0.000    0.000 
#
# Total GULP energy -148718.610416 kJ/mol
# GULP energy per Si atom -12393.217535 kJ/mol
# Density = 2.306566 g / cm^3
# Si number density = 23.118279 Si / 1000 Ang^3
#
#
#
# Elastic Constant Matrix: (Units=GPa)
#
#
# Indices 1 2 3 4 5 6 
#
# 1 140.6456 67.8389 65.1780 -4.5112 5.4070 -9.3773
# 2 67.8389 141.8975 57.1350 4.8595 9.6806 -15.4209
# 3 65.1780 57.1350 128.7525 -6.7693 13.7511 -1.1719
# 4 -4.5112 4.8595 -6.7693 46.9169 -1.1390 0.7822
# 5 5.4070 9.6806 13.7511 -1.1390 45.7046 -2.3199
# 6 -9.3773 -15.4209 -1.1719 0.7822 -2.3199 44.2084
#
#
#
# Elastic Compliance Matrix: (Units=1/GPa)
#
#
# Indices 1 2 3 4 5 6 
#
# 1 0.010656 -0.003514 -0.003859 0.000833 0.000714 0.000955
# 2 -0.003514 0.010257 -0.002756 -0.001864 -0.000834 0.002748
# 3 -0.003859 -0.002756 0.011264 0.001509 -0.002394 -0.001634
# 4 0.000833 -0.001864 0.001509 0.021827 0.000346 -0.000802
# 5 0.000714 -0.000834 -0.002394 0.000346 0.022751 0.000985
# 6 0.000955 0.002748 -0.001634 -0.000802 0.000985 0.023804
#
#
# Mechanical properties :
#
#
# Convention : Reuss Voigt Hill
#
# Bulk Modulus (GPa) = 83.90855 87.95550 85.93203
# Shear Modulus (GPa) = 40.06737 42.10889 41.08813
#
# Velocity S-wave (km/s) = 4.16762 4.27248 4.22038
# Velocity P-wave (km/s) = 7.71576 7.90362 7.81025
#
# Compressibility (1/GPa) = 0.01191774
#
# Stress axis : x y z
#
# Youngs Moduli (GPa) = 93.84055 97.49627 88.78216
#
# Poissons Ratio (x) = 0.34264 0.34259
# Poissons Ratio (y) = 0.32979 0.24471
# Poissons Ratio (z) = 0.36211 0.26873
#
# Static dielectric constant tensor:
#      x y z
#    x 3.944060 -0.149740 -0.016540 
#    y -0.149740 5.051630 0.023450 
#    z -0.016540 0.023450 4.247990 
# 
# 
# High freq. dielectric constant tensor:
#      x y z
#    x 1.914620 -0.003840 -0.008720 
#    y -0.003840 1.936910 0.005170 
#    z -0.008720 0.005170 1.916630 
# 
# From -- ./inp_files/372226.got.cif
#   From: 2010.06.25/outbox.cif.g09.slc.cpg/sg2_187_cif.got.tgz:372226.got - 2010.06.27 13:26:56.
