data_PCOD8036084
_publ_section_title
;
Structure prediction by ZEFSAII (Michael W. Deem and Ramdas Pophale) SiO2 
 PCOD8036084
Probable space group: P -1
;
_chemical_formula_sum "Si O2"
_cell_formula_units_Z 14
_cell_length_a 20.076451
_cell_length_b 20.971643
_cell_length_c 11.674755
_cell_angle_alpha 149.500915
_cell_angle_beta 158.437476
_cell_angle_gamma 20.004429
_cell_volume 615.049589
_symmetry_space_group_name_H-M "P -1"
_symmetry_group_IT_number 2
_symmetry_cell_setting 'triclinic'
loop_
_space_group_symop_operation_xyz
x,y,z
-x,-y,-z
loop_
_atom_site_type_symbol
_atom_site_label
_atom_site_fract_x
_atom_site_fract_y
_atom_site_fract_z
Si Si1 0.350250 0.947059 0.656818
Si Si2 0.489837 0.618509 0.330405
Si Si3 0.029518 0.474451 0.686043
Si Si4 0.094290 0.714689 0.680837
Si Si5 0.949757 0.074071 0.404820
Si Si6 0.671257 0.463083 0.614474
Si Si7 0.569920 0.815138 0.320899
O O1 0.556257 0.734416 0.608278
O O2 0.147523 0.079591 0.435392
O O3 0.213533 0.947300 0.548829
O O4 0.500000 0.000000 0.000000
O O5 0.703477 0.414309 0.300154
O O6 0.460680 0.598691 0.386286
O O7 0.205992 0.740503 0.003442
O O8 0.247449 0.317008 0.698689
O O9 0.975864 0.384825 0.540123
O O10 0.749983 0.677419 0.504185
O O11 0.162140 0.502868 0.028691
O O12 0.880830 0.254549 0.582378
O O13 0.713398 0.113841 0.028220
O O14 0.000000 0.000000 0.500000
O O15 0.500000 0.500000 0.500000
O O16 0.500000 0.000000 0.500000
#
# Coordination Sequence:
#
# PCOD8036084 Si02
#       7
#     2   2   2   2   2   2   2
#     4  12  28  46  72 105 144 188 241 293 357 426
#     4  11  26  47  73 101 140 190 235 292 357 423
#     4  11  26  43  75 105 140 190 237 293 356 422
#     4  11  26  47  72 102 142 188 239 292 355 427
#     4  12  26  46  72 106 144 188 236 297 359 421
#     4  12  23  45  71 103 143 180 233 294 353 420
#     4  11  26  47  71 107 147 187 241 292 355 427
#
# _framework density 22.762391999999998
#
# number of rings (size 3 to 8) (size 9 to 14) (size 15 to 20)
#    0.000    0.571    2.857    3.857   10.000    2.286 
#    0.000    0.000    0.000    0.000    0.000    0.000 
#    0.000    0.000    0.000    0.000    0.000    0.000 
#
# Total GULP energy -173509.021911 kJ/mol
# GULP energy per Si atom -12393.501565 kJ/mol
# Density = 2.271058 g / cm^3
# Si number density = 22.762392 Si / 1000 Ang^3
#
#
#
# Elastic Constant Matrix: (Units=GPa)
#
#
# Indices 1 2 3 4 5 6 
#
# 1 116.8724 24.8058 59.2132 -6.3571 -14.5639 31.5280
# 2 24.8058 117.6156 26.7498 16.6170 -17.1517 10.8850
# 3 59.2132 26.7498 142.0297 15.2297 -14.3411 1.6625
# 4 -6.3571 16.6170 15.2297 47.0403 4.1549 -1.7180
# 5 -14.5639 -17.1517 -14.3411 4.1549 41.8304 -4.4934
# 6 31.5280 10.8850 1.6625 -1.7180 -4.4934 34.7314
#
#
#
# Elastic Compliance Matrix: (Units=1/GPa)
#
#
# Indices 1 2 3 4 5 6 
#
# 1 0.016288 -0.001060 -0.006774 0.004175 0.001018 -0.013791
# 2 -0.001060 0.010150 -0.000648 -0.003920 0.003756 -0.001896
# 3 -0.006774 -0.000648 0.010560 -0.004069 0.002035 0.005909
# 4 0.004175 -0.003920 -0.004069 0.024834 -0.004196 -0.001681
# 5 0.001018 0.003756 0.002035 -0.004196 0.027032 0.001091
# 6 -0.013791 -0.001896 0.005909 -0.001681 0.001091 0.041681
#
#
# Mechanical properties :
#
#
# Convention : Reuss Voigt Hill
#
# Bulk Modulus (GPa) = 49.91633 66.45059 58.18346
# Shear Modulus (GPa) = 32.42817 42.43699 37.43258
#
# Velocity S-wave (km/s) = 3.77853 4.32249 4.05963
# Velocity P-wave (km/s) = 6.40416 7.35992 6.89861
#
# Compressibility (1/GPa) = 0.02003352
#
# Stress axis : x y z
#
# Youngs Moduli (GPa) = 61.39607 98.51968 94.69871
#
# Poissons Ratio (x) = 0.10439 0.64153
# Poissons Ratio (y) = 0.06505 0.06138
# Poissons Ratio (z) = 0.41592 0.06385
#
# Static dielectric constant tensor:
#      x y z
#    x 2.715910 0.948170 0.275280 
#    y 0.948170 3.967820 -0.238460 
#    z 0.275280 -0.238460 4.029340 
# 
# 
# High freq. dielectric constant tensor:
#      x y z
#    x 1.903520 0.010510 -0.014030 
#    y 0.010510 1.921260 0.011960 
#    z -0.014030 0.011960 1.907690 
# 
# From -- ./inp_files/244603.got.cif
#   From: 2010.06.25/outbox.cif.g09.slc.cpg/sg2_123_cif.got.tgz:244603.got - 2010.06.27 13:26:56.
