data_PCOD8036689
_publ_section_title
;
Structure prediction by ZEFSAII (Michael W. Deem and Ramdas Pophale) SiO2 
 PCOD8036689
Probable space group: P -1
;
_chemical_formula_sum "Si O2"
_cell_formula_units_Z 16
_cell_length_a 21.457933
_cell_length_b 8.883158
_cell_length_c 12.259192
_cell_angle_alpha 142.979872
_cell_angle_beta 148.734071
_cell_angle_gamma 40.171095
_cell_volume 704.859151
_symmetry_space_group_name_H-M "P -1"
_symmetry_group_IT_number 2
_symmetry_cell_setting 'triclinic'
loop_
_space_group_symop_operation_xyz
x,y,z
-x,-y,-z
loop_
_atom_site_type_symbol
_atom_site_label
_atom_site_fract_x
_atom_site_fract_y
_atom_site_fract_z
Si Si1 0.735640 0.379370 0.046474
Si Si2 0.706788 0.645329 0.375883
Si Si3 0.913519 0.864167 0.072530
Si Si4 0.048580 0.241684 0.176096
Si Si5 0.270675 0.422158 0.259766
Si Si6 0.830203 0.643929 0.151344
Si Si7 0.176730 0.776014 0.511263
Si Si8 0.461805 0.896893 0.493777
O O1 0.645455 0.246837 0.768425
O O2 0.669844 0.520292 0.138148
O O3 0.769857 0.592916 0.144653
O O4 0.862913 0.168099 0.146978
O O5 0.809134 0.804929 0.600059
O O6 0.763614 0.421161 0.418507
O O7 0.416610 0.147608 0.648589
O O8 0.028373 0.808306 0.296194
O O9 0.962637 0.714593 0.946753
O O10 0.798672 0.769939 0.894566
O O11 0.976649 0.500751 0.283320
O O12 0.000000 0.000000 0.000000
O O13 0.246719 0.681113 0.446928
O O14 0.416769 0.298247 0.388349
O O15 0.221878 0.492492 0.105923
O O16 0.801351 0.949184 0.265916
O O17 0.500000 0.000000 0.500000
#
# Coordination Sequence:
#
# PCOD8036689 Si02
#       8
#     2   2   2   2   2   2   2   2
#     4  12  27  46  69 104 142 181 235 280 344 420
#     4  12  26  45  74 103 139 183 234 285 343 416
#     4  12  22  45  72 103 138 180 231 285 342 417
#     4  12  22  42  74 102 141 186 228 280 350 410
#     4  12  25  47  73 100 136 181 237 291 340 401
#     4  12  28  43  70 107 142 182 222 286 355 413
#     4  12  25  42  69 107 140 174 222 288 351 406
#     4  12  24  49  77  98 131 188 241 287 339 401
#
# _framework density 22.699569
#
# number of rings (size 3 to 8) (size 9 to 14) (size 15 to 20)
#    0.000    0.000    7.500    2.625    1.750    5.500 
#    0.000    1.250    0.000    0.000    0.000    0.000 
#    0.000    0.000    0.000    0.000    0.000    0.000 
#
# Total GULP energy -198454.408243 kJ/mol
# GULP energy per Si atom -12403.400515 kJ/mol
# Density = 2.264790 g / cm^3
# Si number density = 22.699569 Si / 1000 Ang^3
#
#
#
# Elastic Constant Matrix: (Units=GPa)
#
#
# Indices 1 2 3 4 5 6 
#
# 1 120.0386 50.5650 41.1062 3.0329 -21.6088 -22.5122
# 2 50.5650 93.6962 32.2323 12.9616 3.6244 -24.6316
# 3 41.1062 32.2323 60.0358 8.1233 -17.8227 -8.4093
# 4 3.0329 12.9616 8.1233 36.3067 -5.4037 -3.4115
# 5 -21.6088 3.6244 -17.8227 -5.4037 39.6986 -0.8596
# 6 -22.5122 -24.6316 -8.4093 -3.4115 -0.8596 39.7862
#
#
#
# Elastic Compliance Matrix: (Units=1/GPa)
#
#
# Indices 1 2 3 4 5 6 
#
# 1 0.014173 -0.005791 -0.004481 0.003260 0.006760 0.003913
# 2 -0.005791 0.019033 -0.007229 -0.005399 -0.008733 0.006327
# 3 -0.004481 -0.007229 0.026584 -0.001643 0.009903 -0.001319
# 4 0.003260 -0.005399 -0.001643 0.030498 0.005701 0.000893
# 5 0.006760 -0.008733 0.009903 0.005701 0.034927 0.001755
# 6 0.003913 0.006327 -0.001319 0.000893 0.001755 0.031101
#
#
# Mechanical properties :
#
#
# Convention : Reuss Voigt Hill
#
# Bulk Modulus (GPa) = 40.34456 57.95307 49.14881
# Shear Modulus (GPa) = 25.05253 33.14945 29.10099
#
# Velocity S-wave (km/s) = 3.32574 3.82561 3.58440
# Velocity P-wave (km/s) = 5.70607 6.71562 6.23132
#
# Compressibility (1/GPa) = 0.02478649
#
# Stress axis : x y z
#
# Youngs Moduli (GPa) = 70.55712 52.54065 37.61683
#
# Poissons Ratio (x) = 0.30426 0.16857
# Poissons Ratio (y) = 0.40859 0.27195
# Poissons Ratio (z) = 0.31619 0.37983
#
# Static dielectric constant tensor:
#      x y z
#    x 3.725120 0.377990 -0.746670 
#    y 0.377990 3.516690 0.695280 
#    z -0.746670 0.695280 3.428240 
# 
# 
# High freq. dielectric constant tensor:
#      x y z
#    x 1.901950 -0.009410 -0.010870 
#    y -0.009410 1.896960 0.004840 
#    z -0.010870 0.004840 1.887250 
# 
# From -- ./inp_files/474361.got.cif
#   From: 2010.06.25/outbox.cif.g09.slc.cpg/sg2_238_cif.got.tgz:474361.got - 2010.06.27 13:26:56.
