data_PCOD8036375
_publ_section_title
;
Structure prediction by ZEFSAII (Michael W. Deem and Ramdas Pophale) SiO2 
 PCOD8036375
Probable space group: P -1
;
_chemical_formula_sum "Si O2"
_cell_formula_units_Z 16
_cell_length_a 17.635067
_cell_length_b 8.113786
_cell_length_c 19.715161
_cell_angle_alpha 133.811222
_cell_angle_beta 159.831775
_cell_angle_gamma 46.345837
_cell_volume 692.515592
_symmetry_space_group_name_H-M "P -1"
_symmetry_group_IT_number 2
_symmetry_cell_setting 'triclinic'
loop_
_space_group_symop_operation_xyz
x,y,z
-x,-y,-z
loop_
_atom_site_type_symbol
_atom_site_label
_atom_site_fract_x
_atom_site_fract_y
_atom_site_fract_z
Si Si1 0.884935 0.554010 0.262203
Si Si2 0.667545 0.424461 0.286962
Si Si3 0.830305 0.215259 0.229076
Si Si4 0.220309 0.688809 0.019512
Si Si5 0.760982 0.824689 0.878583
Si Si6 0.428302 0.978627 0.830991
Si Si7 0.005224 0.556206 0.129354
Si Si8 0.266199 0.880719 0.522510
O O1 0.795492 0.346030 0.166294
O O2 0.717874 0.784398 0.202496
O O3 0.129777 0.581753 0.494719
O O4 0.894169 0.484877 0.172204
O O5 0.747411 0.408743 0.271810
O O6 0.485660 0.647029 0.214929
O O7 0.560520 0.195124 0.146198
O O8 0.683722 0.010745 0.042509
O O9 0.091742 0.117815 0.432030
O O10 0.138871 0.958718 0.009238
O O11 0.157018 0.608434 0.018865
O O12 0.493410 0.887603 0.674517
O O13 0.819311 0.606596 0.816231
O O14 0.864827 0.756002 0.020910
O O15 0.323612 0.864847 0.646028
O O16 0.149365 0.668511 0.338224
#
# Coordination Sequence:
#
# PCOD8036375 Si02
#       8
#     2   2   2   2   2   2   2   2
#     4  12  25  40  62  97 137 182 220 260 320 397
#     4  12  25  40  62  97 137 182 220 260 320 397
#     4  12  25  40  63  96 139 182 219 260 321 396
#     4  12  25  44  70 100 138 176 221 276 336 392
#     4  11  26  49  73  99 129 172 229 286 340 394
#     4  12  25  40  63  96 139 182 219 260 321 396
#     4  11  26  49  73  99 129 172 229 286 340 394
#     4  12  23  42  72  98 136 178 219 274 338 392
#
# _framework density 23.104171000000001
#
# number of rings (size 3 to 8) (size 9 to 14) (size 15 to 20)
#    0.000    0.250    2.500    7.500    3.500    0.000 
#    0.000    0.000    0.000    7.500    0.000    0.000 
#    0.000    0.000    0.000    0.000    0.000    0.000 
#
# Total GULP energy -198407.470808 kJ/mol
# GULP energy per Si atom -12400.466925 kJ/mol
# Density = 2.305158 g / cm^3
# Si number density = 23.104171 Si / 1000 Ang^3
#
#
#
# Elastic Constant Matrix: (Units=GPa)
#
#
# Indices 1 2 3 4 5 6 
#
# 1 98.0266 27.6633 17.4554 -10.4793 21.3922 10.4238
# 2 27.6633 99.4913 24.2299 3.4123 -5.2803 9.4627
# 3 17.4554 24.2299 108.3250 -15.5894 12.4302 -2.0422
# 4 -10.4793 3.4123 -15.5894 37.7322 -7.1979 2.3429
# 5 21.3922 -5.2803 12.4302 -7.1979 47.1292 7.1511
# 6 10.4238 9.4627 -2.0422 2.3429 7.1511 44.2563
#
#
#
# Elastic Compliance Matrix: (Units=1/GPa)
#
#
# Indices 1 2 3 4 5 6 
#
# 1 0.013010 -0.003820 -0.000210 0.002896 -0.005607 -0.001504
# 2 -0.003820 0.012364 -0.003005 -0.002532 0.003886 -0.002376
# 3 -0.000210 -0.003005 0.010863 0.004100 -0.002694 0.001412
# 4 0.002896 -0.002532 0.004100 0.029756 0.002150 -0.001874
# 5 -0.005607 0.003886 -0.002694 0.002150 0.025833 -0.003922
# 6 -0.001504 -0.002376 0.001412 -0.001874 -0.003922 0.024256
#
#
# Mechanical properties :
#
#
# Convention : Reuss Voigt Hill
#
# Bulk Modulus (GPa) = 45.11217 49.39333 47.25275
# Shear Modulus (GPa) = 36.35245 41.58984 38.97114
#
# Velocity S-wave (km/s) = 3.97093 4.24736 4.11147
# Velocity P-wave (km/s) = 6.37121 6.74377 6.56014
#
# Compressibility (1/GPa) = 0.02216697
#
# Stress axis : x y z
#
# Youngs Moduli (GPa) = 76.86424 80.87860 92.05252
#
# Poissons Ratio (x) = 0.30896 0.01935
# Poissons Ratio (y) = 0.29362 0.27663
# Poissons Ratio (z) = 0.01616 0.24305
#
# Static dielectric constant tensor:
#      x y z
#    x 4.232310 0.004350 -0.029680 
#    y 0.004350 4.171260 -0.078090 
#    z -0.029680 -0.078090 4.263300 
# 
# 
# High freq. dielectric constant tensor:
#      x y z
#    x 1.920770 0.002180 0.001880 
#    y 0.002180 1.916690 -0.002860 
#    z 0.001880 -0.002860 1.918060 
# 
# From -- ./inp_files/599789.got.cif
#   From: 2010.06.25/outbox.cif.g09.slc.cpg/sg2_300_cif.got.tgz:599789.got - 2010.06.27 13:26:56.
