data_PCOD8036905
_publ_section_title
;
Structure prediction by ZEFSAII (Michael W. Deem and Ramdas Pophale) SiO2 
 PCOD8036905
Probable space group: P -1
;
_chemical_formula_sum "Si O2"
_cell_formula_units_Z 14
_cell_length_a 7.028879
_cell_length_b 14.975949
_cell_length_c 10.714231
_cell_angle_alpha 64.796228
_cell_angle_beta 92.419147
_cell_angle_gamma 44.633821
_cell_volume 601.995247
_symmetry_space_group_name_H-M "P -1"
_symmetry_group_IT_number 2
_symmetry_cell_setting 'triclinic'
loop_
_space_group_symop_operation_xyz
x,y,z
-x,-y,-z
loop_
_atom_site_type_symbol
_atom_site_label
_atom_site_fract_x
_atom_site_fract_y
_atom_site_fract_z
Si Si1 0.287728 0.647933 0.305421
Si Si2 0.585669 0.352494 0.096634
Si Si3 0.280505 0.460976 0.270423
Si Si4 0.422787 0.306407 0.869566
Si Si5 0.289494 0.994633 0.824440
Si Si6 0.819322 0.098857 0.565424
Si Si7 0.333323 0.041852 0.340844
O O1 0.500000 0.500000 0.500000
O O2 0.250659 0.590651 0.219720
O O3 0.443568 0.687984 0.247740
O O4 0.929777 0.824427 0.238236
O O5 0.342465 0.409046 0.158580
O O6 0.948285 0.198501 0.250245
O O7 0.500000 0.500000 0.000000
O O8 0.527038 0.320200 0.987388
O O9 0.594586 0.289348 0.453982
O O10 0.959408 0.537370 0.254386
O O11 0.556360 0.137238 0.982181
O O12 0.566634 0.928693 0.786788
O O13 0.097125 0.996956 0.734631
O O14 0.580628 0.108752 0.592456
O O15 0.000000 0.000000 0.500000
O O16 0.500000 0.000000 0.500000
#
# Coordination Sequence:
#
# PCOD8036905 Si02
#       7
#     2   2   2   2   2   2   2
#     4  12  29  51  73 106 149 195 250 301 352 450
#     4  12  24  45  73 110 148 180 242 307 363 428
#     4  12  26  46  76 109 147 192 242 294 374 434
#     4  12  28  48  76 108 148 194 241 309 368 426
#     4  12  26  49  73 106 147 192 246 297 368 425
#     4  12  23  44  71 108 147 187 238 297 357 437
#     4  12  26  42  75 109 147 192 236 300 367 431
#
# _framework density 23.255997000000001
#
# number of rings (size 3 to 8) (size 9 to 14) (size 15 to 20)
#    0.000    0.000    7.143    1.714    4.000    2.286 
#    0.000    0.000    0.000    0.000    0.000    0.000 
#    0.000    0.000    0.000    0.000    0.000    0.000 
#
# Total GULP energy -173552.622684 kJ/mol
# GULP energy per Si atom -12396.615906 kJ/mol
# Density = 2.320307 g / cm^3
# Si number density = 23.255997 Si / 1000 Ang^3
#
#
#
# Elastic Constant Matrix: (Units=GPa)
#
#
# Indices 1 2 3 4 5 6 
#
# 1 128.5613 28.2500 29.0403 -3.6563 -16.5850 -10.9585
# 2 28.2500 103.6786 31.7437 -16.4955 -6.0820 -1.5595
# 3 29.0403 31.7437 91.3287 -12.9950 -20.5849 -8.8308
# 4 -3.6563 -16.4955 -12.9950 34.9125 -0.9247 -7.0539
# 5 -16.5850 -6.0820 -20.5849 -0.9247 51.2339 -1.6243
# 6 -10.9585 -1.5595 -8.8308 -7.0539 -1.6243 38.9012
#
#
#
# Elastic Compliance Matrix: (Units=1/GPa)
#
#
# Indices 1 2 3 4 5 6 
#
# 1 0.008989 -0.001820 -0.001525 0.000016 0.002151 0.002206
# 2 -0.001820 0.011702 -0.002950 0.004241 -0.000308 0.000043
# 3 -0.001525 -0.002950 0.014716 0.004850 0.005280 0.003893
# 4 0.000016 0.004241 0.004850 0.034076 0.003313 0.007593
# 5 0.002151 -0.000308 0.005280 0.003313 0.022465 0.003331
# 6 0.002206 0.000043 0.003893 0.007593 0.003331 0.028729
#
#
# Mechanical properties :
#
#
# Convention : Reuss Voigt Hill
#
# Bulk Modulus (GPa) = 43.82937 55.73737 49.78337
# Shear Modulus (GPa) = 35.49295 40.64517 38.06906
#
# Velocity S-wave (km/s) = 3.91088 4.18512 4.05032
# Velocity P-wave (km/s) = 6.26743 6.88277 6.58230
#
# Compressibility (1/GPa) = 0.02281575
#
# Stress axis : x y z
#
# Youngs Moduli (GPa) = 111.24851 85.45711 67.95118
#
# Poissons Ratio (x) = 0.15556 0.10363
# Poissons Ratio (y) = 0.20251 0.20047
# Poissons Ratio (z) = 0.16966 0.25212
#
# Static dielectric constant tensor:
#      x y z
#    x 4.462740 0.060900 -0.228140 
#    y 0.060900 3.784470 -0.301750 
#    z -0.228140 -0.301750 4.211420 
# 
# 
# High freq. dielectric constant tensor:
#      x y z
#    x 1.930190 0.005380 -0.010010 
#    y 0.005380 1.919260 -0.012770 
#    z -0.010010 -0.012770 1.927280 
# 
# From -- ./inp_files/367595.got.cif
#   From: 2010.06.25/outbox.cif.g09.slc.cpg/sg2_184_cif.got.tgz:367595.got - 2010.06.27 13:26:56.
