data_PCOD8036727
_publ_section_title
;
Structure prediction by ZEFSAII (Michael W. Deem and Ramdas Pophale) SiO2 
 PCOD8036727
Probable space group: P -1
;
_chemical_formula_sum "Si O2"
_cell_formula_units_Z 16
_cell_length_a 15.546240
_cell_length_b 13.635704
_cell_length_c 13.550304
_cell_angle_alpha 158.606945
_cell_angle_beta 46.479312
_cell_angle_gamma 133.820438
_cell_volume 745.374241
_symmetry_space_group_name_H-M "P -1"
_symmetry_group_IT_number 2
_symmetry_cell_setting 'triclinic'
loop_
_space_group_symop_operation_xyz
x,y,z
-x,-y,-z
loop_
_atom_site_type_symbol
_atom_site_label
_atom_site_fract_x
_atom_site_fract_y
_atom_site_fract_z
Si Si1 0.601761 0.696985 0.279480
Si Si2 0.225638 0.423366 0.633075
Si Si3 0.106001 0.620685 0.456141
Si Si4 0.734923 0.816272 0.087694
Si Si5 0.557758 0.893894 0.134262
Si Si6 0.154468 0.198669 0.691966
Si Si7 0.025173 0.606950 0.284412
Si Si8 0.623041 0.993861 0.952871
O O1 0.633032 0.749182 0.189099
O O2 0.721390 0.736260 0.286282
O O3 0.517613 0.901263 0.567937
O O4 0.529643 0.396053 0.074136
O O5 0.173246 0.293076 0.654144
O O6 0.329108 0.276394 0.370409
O O7 0.116485 0.392987 0.613137
O O8 0.279991 0.740794 0.906199
O O9 0.052603 0.588491 0.359661
O O10 0.000000 0.500000 0.500000
O O11 0.156695 0.939235 0.737044
O O12 0.214257 0.457577 0.228824
O O13 0.675550 0.892298 0.105299
O O14 0.603673 0.996691 0.087251
O O15 0.106155 0.875136 0.424185
O O16 0.055633 0.344190 0.958192
O O17 0.500000 0.000000 0.000000
#
# Coordination Sequence:
#
# PCOD8036727 Si02
#       8
#     2   2   2   2   2   2   2   2
#     4  12  22  44  66  99 130 176 222 273 330 379
#     4  12  26  43  72  97 135 174 220 276 325 395
#     4  12  26  44  69  98 140 175 214 271 332 395
#     4  12  25  45  67 100 132 176 225 270 327 392
#     4  12  26  41  70  95 135 175 224 276 324 392
#     4  12  23  44  70  99 135 171 221 272 333 387
#     4  12  24  44  68 102 132 173 222 269 328 394
#     4  12  26  47  66 101 135 174 222 266 337 394
#
# _framework density 21.465726
#
# number of rings (size 3 to 8) (size 9 to 14) (size 15 to 20)
#    0.000    0.000    2.500    8.250    3.500    0.000 
#    0.000    0.000    0.000    0.000    0.000    0.000 
#    0.000    0.000    0.000    0.000    0.000    0.000 
#
# Total GULP energy -198568.448166 kJ/mol
# GULP energy per Si atom -12410.528010 kJ/mol
# Density = 2.141687 g / cm^3
# Si number density = 21.465726 Si / 1000 Ang^3
#
#
#
# Elastic Constant Matrix: (Units=GPa)
#
#
# Indices 1 2 3 4 5 6 
#
# 1 161.4384 16.4380 -13.5795 7.0655 -25.1573 24.3223
# 2 16.4380 103.0445 34.6435 -16.5957 -4.2112 -20.0415
# 3 -13.5795 34.6435 172.0518 -61.9109 -8.7633 -36.0671
# 4 7.0655 -16.5957 -61.9109 88.4068 -3.5767 36.0179
# 5 -25.1573 -4.2112 -8.7633 -3.5767 25.5746 0.1497
# 6 24.3223 -20.0415 -36.0671 36.0179 0.1497 60.8619
#
#
#
# Elastic Compliance Matrix: (Units=1/GPa)
#
#
# Indices 1 2 3 4 5 6 
#
# 1 0.008456 -0.001974 0.001308 0.002054 0.008755 -0.004491
# 2 -0.001974 0.011251 -0.001905 -0.000620 -0.000850 0.003734
# 3 0.001308 -0.001905 0.008672 0.005509 0.004711 0.000717
# 4 0.002054 -0.000620 0.005509 0.018771 0.006483 -0.008885
# 5 0.008755 -0.000850 0.004711 0.006483 0.050124 -0.004947
# 6 -0.004491 0.003734 0.000717 -0.008885 -0.004947 0.025150
#
#
# Mechanical properties :
#
#
# Convention : Reuss Voigt Hill
#
# Bulk Modulus (GPa) = 43.03111 56.83764 49.93437
# Shear Modulus (GPa) = 36.95197 61.57083 49.26140
#
# Velocity S-wave (km/s) = 4.15353 5.36149 4.79569
# Velocity P-wave (km/s) = 6.56447 8.05377 7.34696
#
# Compressibility (1/GPa) = 0.02323900
#
# Stress axis : x y z
#
# Youngs Moduli (GPa) = 118.25327 88.87712 115.31836
#
# Poissons Ratio (x) = 0.17542 -0.15088
# Poissons Ratio (y) = 0.23340 0.21967
# Poissons Ratio (z) = -0.15472 0.16930
#
# Static dielectric constant tensor:
#      x y z
#    x 4.091970 -0.046920 -0.046580 
#    y -0.046920 3.994730 0.068680 
#    z -0.046580 0.068680 4.190370 
# 
# 
# High freq. dielectric constant tensor:
#      x y z
#    x 1.862170 -0.001980 -0.003440 
#    y -0.001980 1.854710 0.003640 
#    z -0.003440 0.003640 1.861850 
# 
# From -- ./inp_files/519780.got.cif
#   From: 2010.06.25/outbox.cif.g09.slc.cpg/sg2_260_cif.got.tgz:519780.got - 2010.06.27 13:26:56.
