data_PCOD8036318
_publ_section_title
;
Structure prediction by ZEFSAII (Michael W. Deem and Ramdas Pophale) SiO2 
 PCOD8036318
Probable space group: P -1
;
_chemical_formula_sum "Si O2"
_cell_formula_units_Z 14
_cell_length_a 9.220154
_cell_length_b 14.791393
_cell_length_c 15.744711
_cell_angle_alpha 28.137052
_cell_angle_beta 134.218533
_cell_angle_gamma 114.113990
_cell_volume 574.627266
_symmetry_space_group_name_H-M "P -1"
_symmetry_group_IT_number 2
_symmetry_cell_setting 'triclinic'
loop_
_space_group_symop_operation_xyz
x,y,z
-x,-y,-z
loop_
_atom_site_type_symbol
_atom_site_label
_atom_site_fract_x
_atom_site_fract_y
_atom_site_fract_z
Si Si1 0.023209 0.643004 0.644495
Si Si2 0.237593 0.929910 0.482504
Si Si3 0.879592 0.719863 0.155400
Si Si4 0.437806 0.530846 0.547173
Si Si5 0.488694 0.928275 0.424328
Si Si6 0.140609 0.519043 0.146891
Si Si7 0.509502 0.101211 0.008101
O O1 0.061460 0.473696 0.879243
O O2 0.056880 0.515102 0.673902
O O3 0.735804 0.887661 0.334489
O O4 0.203275 0.725371 0.659115
O O5 0.452628 0.890902 0.666367
O O6 0.334858 0.886979 0.461645
O O7 0.981689 0.207988 0.157179
O O8 0.131458 0.701924 0.290520
O O9 0.756679 0.750094 0.172099
O O10 0.683501 0.957627 0.823671
O O11 0.500000 0.500000 0.500000
O O12 0.585988 0.621684 0.574949
O O13 0.571390 0.280331 0.858686
O O14 0.767946 0.665678 0.741931
O O15 0.500000 0.000000 0.000000
#
# Coordination Sequence:
#
# PCOD8036318 Si02
#       7
#     2   2   2   2   2   2   2
#     4  12  25  45  73 102 146 183 235 294 351 424
#     4  11  26  48  74 101 140 190 235 297 350 411
#     4  12  26  46  70 110 146 185 236 290 358 423
#     4  12  24  44  72 102 145 185 229 293 354 420
#     4  11  26  48  71 105 140 183 243 290 354 419
#     4  12  24  48  70 106 139 185 239 288 352 425
#     4  12  25  45  68 106 145 187 240 283 352 427
#
# _framework density 24.363619
#
# number of rings (size 3 to 8) (size 9 to 14) (size 15 to 20)
#    0.000    0.286    7.143    0.857    2.000    1.714 
#    0.000    0.000    0.000    0.000    0.000    0.000 
#    0.000    0.000    0.000    0.000    0.000    0.000 
#
# Total GULP energy -173562.525148 kJ/mol
# GULP energy per Si atom -12397.323225 kJ/mol
# Density = 2.430817 g / cm^3
# Si number density = 24.363619 Si / 1000 Ang^3
#
#
#
# Elastic Constant Matrix: (Units=GPa)
#
#
# Indices 1 2 3 4 5 6 
#
# 1 125.1628 38.2800 1.5352 -20.7859 5.9504 2.7167
# 2 38.2800 64.4005 -5.7023 -16.5539 8.3175 4.9797
# 3 1.5352 -5.7023 64.3564 -14.8305 7.8766 4.7427
# 4 -20.7859 -16.5539 -14.8305 30.5933 -0.8559 7.6804
# 5 5.9504 8.3175 7.8766 -0.8559 39.2293 -5.6432
# 6 2.7167 4.9797 4.7427 7.6804 -5.6432 48.1856
#
#
#
# Elastic Compliance Matrix: (Units=1/GPa)
#
#
# Indices 1 2 3 4 5 6 
#
# 1 0.010283 -0.004549 0.000707 0.005119 -0.000782 -0.001087
# 2 -0.004549 0.023765 0.006709 0.014321 -0.006228 -0.005872
# 3 0.000707 0.006709 0.020915 0.015583 -0.006254 -0.006008
# 4 0.005119 0.014321 0.015583 0.054488 -0.007605 -0.012878
# 5 -0.000782 -0.006228 -0.006254 -0.007605 0.028868 0.005896
# 6 -0.001087 -0.005872 -0.006008 -0.012878 0.005896 0.024756
#
#
# Mechanical properties :
#
#
# Convention : Reuss Voigt Hill
#
# Bulk Modulus (GPa) = 16.47477 35.79395 26.13436
# Shear Modulus (GPa) = 28.15737 38.25543 33.20640
#
# Velocity S-wave (km/s) = 3.40327 3.96686 3.69582
# Velocity P-wave (km/s) = 4.71378 5.97534 5.38165
#
# Compressibility (1/GPa) = 0.06069887
#
# Stress axis : x y z
#
# Youngs Moduli (GPa) = 97.24768 42.07800 47.81201
#
# Poissons Ratio (x) = 0.19141 -0.03381
# Poissons Ratio (y) = 0.44237 -0.32079
# Poissons Ratio (z) = -0.06876 -0.28232
#
# Static dielectric constant tensor:
#      x y z
#    x 4.363180 0.081010 0.120570 
#    y 0.081010 4.830170 -0.296860 
#    z 0.120570 -0.296860 4.560340 
# 
# 
# High freq. dielectric constant tensor:
#      x y z
#    x 1.967830 -0.000460 0.010440 
#    y -0.000460 1.968060 -0.001100 
#    z 0.010440 -0.001100 1.983950 
# 
# From -- ./inp_files/221242.got.cif
#   From: 2010.06.25/outbox.cif.g09.slc.cpg/sg2_111_cif.got.tgz:221242.got - 2010.06.27 13:26:56.
