data_PCOD8036352
_publ_section_title
;
Structure prediction by ZEFSAII (Michael W. Deem and Ramdas Pophale) SiO2 
 PCOD8036352
Probable space group: P -1
;
_chemical_formula_sum "Si O2"
_cell_formula_units_Z 14
_cell_length_a 4.879730
_cell_length_b 7.858213
_cell_length_c 13.162004
_cell_angle_alpha 92.221424
_cell_angle_beta 98.441629
_cell_angle_gamma 99.463286
_cell_volume 491.423212
_symmetry_space_group_name_H-M "P -1"
_symmetry_group_IT_number 2
_symmetry_cell_setting 'triclinic'
loop_
_space_group_symop_operation_xyz
x,y,z
-x,-y,-z
loop_
_atom_site_type_symbol
_atom_site_label
_atom_site_fract_x
_atom_site_fract_y
_atom_site_fract_z
Si Si1 0.432653 0.473938 0.169694
Si Si2 0.284677 0.022474 0.231904
Si Si3 0.954325 0.423502 0.301102
Si Si4 0.266973 0.886278 0.590597
Si Si5 0.015993 0.796925 0.372721
Si Si6 0.548452 0.828076 0.082619
Si Si7 0.976354 0.804455 0.946303
O O1 0.691556 0.373434 0.206854
O O2 0.578980 0.663805 0.147209
O O3 0.236929 0.381070 0.064959
O O4 0.248030 0.481183 0.261034
O O5 0.437315 0.126239 0.339212
O O6 0.072995 0.136691 0.171634
O O7 0.111713 0.843781 0.262546
O O8 0.504105 0.982966 0.157659
O O9 0.967384 0.262054 0.373185
O O10 0.892534 0.592896 0.364775
O O11 0.272892 0.844162 0.469703
O O12 0.209835 0.081329 0.608486
O O13 0.838799 0.905282 0.035854
O O14 0.292791 0.784512 0.987544
#
# Coordination Sequence:
#
# PCOD8036352 Si02
#       7
#     2   2   2   2   2   2   2
#     4  12  24  47  75 103 152 195 245 307 370 434
#     4  12  25  46  72 100 154 186 249 308 366 442
#     4  12  25  49  78 111 150 199 242 307 375 440
#     4  11  26  48  77 111 147 196 248 308 375 445
#     4  11  26  48  77 111 147 196 248 308 375 445
#     4  12  26  44  71 106 144 195 247 300 367 437
#     4  12  26  44  71 106 144 195 247 300 367 437
#
# _framework density 28.488683999999999
#
# number of rings (size 3 to 8) (size 9 to 14) (size 15 to 20)
#    0.000    0.286    2.857    6.000    4.000    0.000 
#    0.000    1.429    0.000    0.000    0.000    0.000 
#    0.000    0.000    0.000    0.000    0.000    0.000 
#
# Total GULP energy -173634.145346 kJ/mol
# GULP energy per Si atom -12402.438953 kJ/mol
# Density = 2.842384 g / cm^3
# Si number density = 28.488684 Si / 1000 Ang^3
#
#
#
# Elastic Constant Matrix: (Units=GPa)
#
#
# Indices 1 2 3 4 5 6 
#
# 1 107.8606 -3.6421 23.1393 -15.5557 9.0059 16.9419
# 2 -3.6421 90.0156 14.6847 -18.4170 8.2746 1.4826
# 3 23.1393 14.6847 106.6959 -15.7126 1.3670 2.5813
# 4 -15.5557 -18.4170 -15.7126 50.5168 8.6642 4.5138
# 5 9.0059 8.2746 1.3670 8.6642 43.6231 -6.0043
# 6 16.9419 1.4826 2.5813 4.5138 -6.0043 28.3544
#
#
#
# Elastic Compliance Matrix: (Units=1/GPa)
#
#
# Indices 1 2 3 4 5 6 
#
# 1 0.012654 0.002757 -0.001913 0.006139 -0.005630 -0.009700
# 2 0.002757 0.013292 -0.001299 0.006523 -0.004938 -0.004308
# 3 -0.001913 -0.001299 0.010289 0.002168 -0.000125 -0.000097
# 4 0.006139 0.006523 0.002168 0.027302 -0.009448 -0.010553
# 5 -0.005630 -0.004938 -0.000125 -0.009448 0.028439 0.011160
# 6 -0.009700 -0.004308 -0.000097 -0.010553 0.011160 0.045341
#
#
# Mechanical properties :
#
#
# Convention : Reuss Voigt Hill
#
# Bulk Modulus (GPa) = 28.30796 41.43729 34.87262
# Shear Modulus (GPa) = 33.33287 42.52486 37.92887
#
# Velocity S-wave (km/s) = 3.42429 3.86773 3.65275
# Velocity P-wave (km/s) = 5.05891 5.87559 5.48247
#
# Compressibility (1/GPa) = 0.03532576
#
# Stress axis : x y z
#
# Youngs Moduli (GPa) = 79.02762 75.23201 97.18833
#
# Poissons Ratio (x) = -0.20744 0.18591
# Poissons Ratio (y) = -0.21791 0.12628
# Poissons Ratio (z) = 0.15117 0.09775
#
# Static dielectric constant tensor:
#      x y z
#    x 4.895840 0.095180 0.049250 
#    y 0.095180 5.563110 -0.064780 
#    z 0.049250 -0.064780 5.467050 
# 
# 
# High freq. dielectric constant tensor:
#      x y z
#    x 2.145700 0.012440 0.006040 
#    y 0.012440 2.175320 -0.003640 
#    z 0.006040 -0.003640 2.161470 
# 
# From -- ./inp_files/27242.got.cif
#   From: 2010.06.25/outbox.cif.g09.slc.cpg/sg2_14_cif.got.tgz:27242.got - 2010.06.27 13:26:56.
