data_PCOD8036037
_publ_section_title
;
Structure prediction by ZEFSAII (Michael W. Deem and Ramdas Pophale) SiO2 
 PCOD8036037
Probable space group: P -1
;
_chemical_formula_sum "Si O2"
_cell_formula_units_Z 16
_cell_length_a 11.625766
_cell_length_b 11.832075
_cell_length_c 12.326468
_cell_angle_alpha 38.454439
_cell_angle_beta 109.660841
_cell_angle_gamma 80.604364
_cell_volume 680.085862
_symmetry_space_group_name_H-M "P -1"
_symmetry_group_IT_number 2
_symmetry_cell_setting 'triclinic'
loop_
_space_group_symop_operation_xyz
x,y,z
-x,-y,-z
loop_
_atom_site_type_symbol
_atom_site_label
_atom_site_fract_x
_atom_site_fract_y
_atom_site_fract_z
Si Si1 0.010487 0.001269 0.825221
Si Si2 0.369975 0.777873 0.190319
Si Si3 0.260343 0.146661 0.378365
Si Si4 0.656348 0.684395 0.901167
Si Si5 0.136252 0.874115 0.543260
Si Si6 0.220611 0.258431 0.902655
Si Si7 0.719705 0.553131 0.416324
Si Si8 0.122416 0.486996 0.292472
O O1 0.937985 0.137335 0.581632
O O2 0.864632 0.230777 0.694820
O O3 0.211231 0.861442 0.007572
O O4 0.018429 0.776137 0.999686
O O5 0.500000 0.500000 0.500000
O O6 0.511135 0.731922 0.191702
O O7 0.280469 0.990078 0.097971
O O8 0.210536 0.347518 0.115927
O O9 0.210383 0.282523 0.376292
O O10 0.468391 0.881410 0.635187
O O11 0.172835 0.046390 0.404743
O O12 0.701809 0.426052 0.136937
O O13 0.643825 0.804992 0.919811
O O14 0.000000 0.000000 0.500000
O O15 0.217494 0.363052 0.708962
O O16 0.021012 0.486812 0.714484
O O17 0.727591 0.619048 0.492464
#
# Coordination Sequence:
#
# PCOD8036037 Si02
#       8
#     2   2   2   2   2   2   2   2
#     4  12  26  48  73 109 144 197 248 303 370 446
#     4  12  26  46  73 107 148 194 245 304 370 445
#     4  11  27  48  77 107 146 202 248 315 370 442
#     4  11  25  50  73 111 148 191 260 307 374 444
#     4  12  26  48  74 106 149 196 249 309 373 441
#     4  12  25  44  73 106 151 187 240 312 369 447
#     4  12  25  47  72 110 149 191 242 305 378 441
#     4  12  24  46  76 102 148 194 247 303 372 445
#
# _framework density 23.526440999999998
#
# number of rings (size 3 to 8) (size 9 to 14) (size 15 to 20)
#    0.000    0.250    3.750    5.250    0.000    2.500 
#    4.500    0.000    0.000    0.000    0.000    0.000 
#    0.000    0.000    0.000    0.000    0.000    0.000 
#
# Total GULP energy -198383.279410 kJ/mol
# GULP energy per Si atom -12398.954963 kJ/mol
# Density = 2.347289 g / cm^3
# Si number density = 23.526441 Si / 1000 Ang^3
#
#
#
# Elastic Constant Matrix: (Units=GPa)
#
#
# Indices 1 2 3 4 5 6 
#
# 1 109.1009 36.8214 34.2070 -0.6077 3.1730 -1.9261
# 2 36.8214 138.3074 42.5355 -1.1902 -5.7665 -0.4577
# 3 34.2070 42.5355 92.9120 6.3353 -2.0264 1.2153
# 4 -0.6077 -1.1902 6.3353 33.8827 -1.3609 -0.5843
# 5 3.1730 -5.7665 -2.0264 -1.3609 42.1113 2.1773
# 6 -1.9261 -0.4577 1.2153 -0.5843 2.1773 36.5558
#
#
#
# Elastic Compliance Matrix: (Units=1/GPa)
#
#
# Indices 1 2 3 4 5 6 
#
# 1 0.010882 -0.001959 -0.003193 0.000686 -0.001258 0.000741
# 2 -0.001959 0.008847 -0.003368 0.000956 0.001225 0.000062
# 3 -0.003193 -0.003368 0.013685 -0.002731 0.000387 -0.000732
# 4 0.000686 0.000956 -0.002731 0.030116 0.000892 0.000567
# 5 -0.001258 0.001225 0.000387 0.000892 0.024133 -0.001487
# 6 0.000741 0.000062 -0.000732 0.000567 -0.001487 0.027517
#
#
# Mechanical properties :
#
#
# Convention : Reuss Voigt Hill
#
# Bulk Modulus (GPa) = 61.07816 63.04979 62.06397
# Shear Modulus (GPa) = 36.31641 37.62708 36.97175
#
# Velocity S-wave (km/s) = 3.93318 4.00353 3.96851
# Velocity P-wave (km/s) = 6.82967 6.94469 6.88742
#
# Compressibility (1/GPa) = 0.01637246
#
# Stress axis : x y z
#
# Youngs Moduli (GPa) = 91.89748 113.02996 73.07368
#
# Poissons Ratio (x) = 0.22143 0.23335
# Poissons Ratio (y) = 0.18003 0.24613
# Poissons Ratio (z) = 0.29346 0.38072
#
# Static dielectric constant tensor:
#      x y z
#    x 6.077440 0.159370 -0.752710 
#    y 0.159370 4.436780 -0.411390 
#    z -0.752710 -0.411390 4.918650 
# 
# 
# High freq. dielectric constant tensor:
#      x y z
#    x 1.941400 -0.000670 -0.006860 
#    y -0.000670 1.934870 -0.002790 
#    z -0.006860 -0.002790 1.940760 
# 
# From -- ./inp_files/427444.got.cif
#   From: 2010.06.25/outbox.cif.g09.slc.cpg/sg2_214_cif.got.tgz:427444.got - 2010.06.27 13:26:56.
