data_PCOD8036348
_publ_section_title
;
Structure prediction by ZEFSAII (Michael W. Deem and Ramdas Pophale) SiO2 
 PCOD8036348
Probable space group: P -1
;
_chemical_formula_sum "Si O2"
_cell_formula_units_Z 14
_cell_length_a 15.077178
_cell_length_b 4.875880
_cell_length_c 8.985871
_cell_angle_alpha 80.462090
_cell_angle_beta 75.860987
_cell_angle_gamma 52.074641
_cell_volume 505.192618
_symmetry_space_group_name_H-M "P -1"
_symmetry_group_IT_number 2
_symmetry_cell_setting 'triclinic'
loop_
_space_group_symop_operation_xyz
x,y,z
-x,-y,-z
loop_
_atom_site_type_symbol
_atom_site_label
_atom_site_fract_x
_atom_site_fract_y
_atom_site_fract_z
Si Si1 0.482619 0.312925 0.894227
Si Si2 0.351955 0.337933 0.694756
Si Si3 0.785878 0.479173 0.683670
Si Si4 0.124486 0.144806 0.499440
Si Si5 0.075445 0.032354 0.080530
Si Si6 0.858071 0.686959 0.210742
Si Si7 0.420894 0.432115 0.351490
O O1 0.364447 0.494070 0.829483
O O2 0.571935 0.258089 0.734040
O O3 0.500000 0.500000 0.000000
O O4 0.500000 0.000000 0.000000
O O5 0.232173 0.397956 0.741126
O O6 0.362986 0.524212 0.530545
O O7 0.452460 0.926417 0.677475
O O8 0.787699 0.804779 0.622931
O O9 0.656400 0.604633 0.728296
O O10 0.859935 0.186245 0.550524
O O11 0.838952 0.327535 0.837105
O O12 0.159112 0.066951 0.667155
O O13 0.000000 0.500000 0.500000
O O14 0.987143 0.330667 0.207043
O O15 0.150000 0.131462 0.957462
O O16 0.000000 0.000000 0.000000
#
# Coordination Sequence:
#
# PCOD8036348 Si02
#       7
#     2   2   2   2   2   2   2
#     4  12  27  50  77 111 154 205 259 319 381 463
#     4  11  26  52  78 112 162 206 264 319 390 471
#     4  12  28  46  79 113 153 197 257 325 378 459
#     4  12  25  48  77 111 151 198 260 317 383 454
#     4  11  27  48  75 110 158 203 260 324 395 460
#     4  11  26  48  76 113 149 210 254 323 393 460
#     4  11  27  49  79 116 156 204 261 316 390 462
#
# _framework density 27.712201
#
# number of rings (size 3 to 8) (size 9 to 14) (size 15 to 20)
#    0.000    0.571    4.286    1.714    8.000    3.429 
#    0.000    0.000    0.000    0.000    0.000    0.000 
#    0.000    0.000    0.000    0.000    0.000    0.000 
#
# Total GULP energy -173546.996748 kJ/mol
# GULP energy per Si atom -12396.214053 kJ/mol
# Density = 2.764913 g / cm^3
# Si number density = 27.712201 Si / 1000 Ang^3
#
#
#
# Elastic Constant Matrix: (Units=GPa)
#
#
# Indices 1 2 3 4 5 6 
#
# 1 137.8537 18.0598 76.2771 -26.1367 -9.8067 7.5871
# 2 18.0598 35.4457 35.2959 -11.0878 -18.8013 14.2641
# 3 76.2771 35.2959 181.6497 -38.9280 -2.2511 8.6789
# 4 -26.1367 -11.0878 -38.9280 51.5822 3.9491 0.1709
# 5 -9.8067 -18.8013 -2.2511 3.9491 73.3166 1.0247
# 6 7.5871 14.2641 8.6789 0.1709 1.0247 43.3885
#
#
#
# Elastic Compliance Matrix: (Units=1/GPa)
#
#
# Indices 1 2 3 4 5 6 
#
# 1 0.009785 0.000455 -0.003653 0.002210 0.001211 -0.001167
# 2 0.000455 0.050298 -0.008241 0.003901 0.012710 -0.015282
# 3 -0.003653 -0.008241 0.009305 0.003588 -0.002531 0.001532
# 4 0.002210 0.003901 0.003588 0.024050 0.000145 -0.002485
# 5 0.001211 0.012710 -0.002531 0.000145 0.017035 -0.004287
# 6 -0.001167 -0.015282 0.001532 -0.002485 -0.004287 0.028080
#
#
# Mechanical properties :
#
#
# Convention : Reuss Voigt Hill
#
# Bulk Modulus (GPa) = 21.50039 68.24606 44.87323
# Shear Modulus (GPa) = 28.25919 48.67855 38.46887
#
# Velocity S-wave (km/s) = 3.19680 4.19570 3.72984
# Velocity P-wave (km/s) = 4.62616 6.93917 5.89718
#
# Compressibility (1/GPa) = 0.04651079
#
# Stress axis : x y z
#
# Youngs Moduli (GPa) = 102.19632 19.88158 107.47299
#
# Poissons Ratio (x) = -0.00905 0.39259
# Poissons Ratio (y) = -0.04652 0.88566
# Poissons Ratio (z) = 0.37331 0.16384
#
# Static dielectric constant tensor:
#      x y z
#    x 5.328940 -0.132610 0.043060 
#    y -0.132610 5.073750 -0.294280 
#    z 0.043060 -0.294280 5.717800 
# 
# 
# High freq. dielectric constant tensor:
#      x y z
#    x 2.134970 0.001900 -0.004160 
#    y 0.001900 2.116290 -0.012070 
#    z -0.004160 -0.012070 2.132050 
# 
# From -- ./inp_files/287103.got.cif
#   From: 2010.06.25/outbox.cif.g09.slc.cpg/sg2_144_cif.got.tgz:287103.got - 2010.06.27 13:26:56.
