data_PCOD8036346
_publ_section_title
;
Structure prediction by ZEFSAII (Michael W. Deem and Ramdas Pophale) SiO2 
 PCOD8036346
Probable space group: P -1
;
_chemical_formula_sum "Si O2"
_cell_formula_units_Z 16
_cell_length_a 8.268680
_cell_length_b 18.904429
_cell_length_c 12.327472
_cell_angle_alpha 27.675944
_cell_angle_beta 131.812118
_cell_angle_gamma 131.261446
_cell_volume 653.670892
_symmetry_space_group_name_H-M "P -1"
_symmetry_group_IT_number 2
_symmetry_cell_setting 'triclinic'
loop_
_space_group_symop_operation_xyz
x,y,z
-x,-y,-z
loop_
_atom_site_type_symbol
_atom_site_label
_atom_site_fract_x
_atom_site_fract_y
_atom_site_fract_z
Si Si1 0.767004 0.431639 0.439359
Si Si2 0.624424 0.268342 0.814386
Si Si3 0.567633 0.232951 0.449132
Si Si4 0.165808 0.293365 0.329353
Si Si5 0.757009 0.405901 0.904489
Si Si6 0.409894 0.271462 0.093201
Si Si7 0.936609 0.059703 0.168598
Si Si8 0.236358 0.011826 0.036108
O O1 0.619864 0.341543 0.593300
O O2 0.785686 0.326902 0.483002
O O3 0.000000 0.500000 0.500000
O O4 0.664436 0.566833 0.159051
O O5 0.697594 0.402630 0.754696
O O6 0.798450 0.149584 0.065810
O O7 0.369643 0.184807 0.834636
O O8 0.365049 0.283087 0.352148
O O9 0.560187 0.264990 0.275520
O O10 0.591919 0.055815 0.718355
O O11 0.989190 0.354238 0.093239
O O12 0.074998 0.121459 0.568015
O O13 0.237329 0.420000 0.284896
O O14 0.572149 0.273360 0.060894
O O15 0.198577 0.131271 0.185952
O O16 0.816062 0.083399 0.969734
O O17 0.000000 0.000000 0.000000
#
# Coordination Sequence:
#
# PCOD8036346 Si02
#       8
#     2   2   2   2   2   2   2   2
#     4  12  25  46  76 113 154 205 259 311 380 466
#     4  12  25  48  81 109 154 207 262 312 387 469
#     4  12  25  49  79 109 153 208 258 319 387 468
#     4  11  26  48  76 109 157 202 262 317 391 457
#     4  11  28  47  73 118 152 205 255 328 384 449
#     4  12  27  46  76 115 157 201 259 320 383 460
#     4  12  25  50  77 113 152 208 259 316 389 467
#     4  12  27  48  77 118 153 199 260 330 392 449
#
# _framework density 24.477150000000002
#
# number of rings (size 3 to 8) (size 9 to 14) (size 15 to 20)
#    0.000    0.250    5.000    3.000    3.500    3.000 
#    2.250    0.000    0.000    0.000    0.000    0.000 
#    0.000    0.000    0.000    0.000    0.000    0.000 
#
# Total GULP energy -198336.972083 kJ/mol
# GULP energy per Si atom -12396.060755 kJ/mol
# Density = 2.442144 g / cm^3
# Si number density = 24.477150 Si / 1000 Ang^3
#
#
#
# Elastic Constant Matrix: (Units=GPa)
#
#
# Indices 1 2 3 4 5 6 
#
# 1 66.9723 18.3072 14.4264 -17.9363 -0.6471 11.1056
# 2 18.3072 129.2715 29.0493 2.5291 -22.6445 4.5468
# 3 14.4264 29.0493 124.6084 2.3395 -13.5544 0.5536
# 4 -17.9363 2.5291 2.3395 43.1227 2.3027 -8.8129
# 5 -0.6471 -22.6445 -13.5544 2.3027 35.4315 2.1493
# 6 11.1056 4.5468 0.5536 -8.8129 2.1493 46.7162
#
#
#
# Elastic Compliance Matrix: (Units=1/GPa)
#
#
# Indices 1 2 3 4 5 6 
#
# 1 0.018504 -0.002675 -0.001915 0.007561 -0.002439 -0.002577
# 2 -0.002675 0.009467 -0.001231 -0.002097 0.005723 -0.000930
# 3 -0.001915 -0.001231 0.008846 -0.001325 0.002642 0.000099
# 4 0.007561 -0.002097 -0.001325 0.027501 -0.003725 0.003782
# 5 -0.002439 0.005723 0.002642 -0.003725 0.033226 -0.002240
# 6 -0.002577 -0.000930 0.000099 0.003782 -0.002240 0.022924
#
#
# Mechanical properties :
#
#
# Convention : Reuss Voigt Hill
#
# Bulk Modulus (GPa) = 39.72084 49.37978 44.55031
# Shear Modulus (GPa) = 35.58693 42.32537 38.95615
#
# Velocity S-wave (km/s) = 3.81712 4.16285 3.99373
# Velocity P-wave (km/s) = 5.97412 6.58205 6.28544
#
# Compressibility (1/GPa) = 0.02517570
#
# Stress axis : x y z
#
# Youngs Moduli (GPa) = 54.04309 105.62496 113.04943
#
# Poissons Ratio (x) = 0.28252 0.21643
# Poissons Ratio (y) = 0.14455 0.13920
# Poissons Ratio (z) = 0.10347 0.13006
#
# Static dielectric constant tensor:
#      x y z
#    x 4.454810 0.094710 -0.107400 
#    y 0.094710 4.748960 0.002930 
#    z -0.107400 0.002930 4.465170 
# 
# 
# High freq. dielectric constant tensor:
#      x y z
#    x 1.968260 0.008520 0.003540 
#    y 0.008520 1.985100 0.003450 
#    z 0.003540 0.003450 1.984520 
# 
# From -- ./inp_files/402743.got.cif
#   From: 2010.06.25/outbox.cif.g09.slc.cpg/sg2_202_cif.got.tgz:402743.got - 2010.06.27 13:26:56.
