data_PCOD8036248
_publ_section_title
;
Structure prediction by ZEFSAII (Michael W. Deem and Ramdas Pophale) SiO2 
 PCOD8036248
Probable space group: P -1
;
_chemical_formula_sum "Si O2"
_cell_formula_units_Z 16
_cell_length_a 11.954351
_cell_length_b 17.772576
_cell_length_c 9.018399
_cell_angle_alpha 129.614256
_cell_angle_beta 130.501569
_cell_angle_gamma 30.361489
_cell_volume 721.399042
_symmetry_space_group_name_H-M "P -1"
_symmetry_group_IT_number 2
_symmetry_cell_setting 'triclinic'
loop_
_space_group_symop_operation_xyz
x,y,z
-x,-y,-z
loop_
_atom_site_type_symbol
_atom_site_label
_atom_site_fract_x
_atom_site_fract_y
_atom_site_fract_z
Si Si1 0.397135 0.635108 0.790725
Si Si2 0.022831 0.088612 0.047063
Si Si3 0.614430 0.985904 0.219778
Si Si4 0.522115 0.364545 0.459334
Si Si5 0.246089 0.416725 0.787633
Si Si6 0.720431 0.669686 0.614120
Si Si7 0.968919 0.119771 0.692023
Si Si8 0.535029 0.891962 0.288921
O O1 0.387001 0.532961 0.580767
O O2 0.397982 0.699981 0.722454
O O3 0.165364 0.748900 0.829795
O O4 0.608424 0.569263 0.992025
O O5 0.973409 0.110031 0.859015
O O6 0.000000 0.000000 0.000000
O O7 0.279894 0.990466 0.158682
O O8 0.444058 0.155800 0.349873
O O9 0.855854 0.900137 0.264670
O O10 0.660920 0.873750 0.232163
O O11 0.500000 0.000000 0.000000
O O12 0.380188 0.340512 0.349043
O O13 0.723421 0.283616 0.644992
O O14 0.285028 0.396557 0.618876
O O15 0.315198 0.275000 0.733177
O O16 0.973265 0.574964 0.767473
O O17 0.000000 0.000000 0.500000
O O18 0.500000 0.000000 0.500000
#
# Coordination Sequence:
#
# PCOD8036248 Si02
#       8
#     2   2   2   2   2   2   2   2
#     4  11  27  46  71 103 141 184 237 287 357 418
#     4  12  26  45  73 103 138 185 237 290 349 418
#     4  12  27  47  70 106 144 187 237 290 352 419
#     4  11  27  46  70 104 140 186 233 293 352 420
#     4  11  26  47  72 104 141 187 234 295 350 423
#     4  11  26  47  71 103 144 184 238 290 354 418
#     4  12  26  45  73 102 141 184 235 294 346 414
#     4  12  27  45  72 106 143 186 234 291 353 418
#
# _framework density 22.179124999999999
#
# number of rings (size 3 to 8) (size 9 to 14) (size 15 to 20)
#    0.000    0.500    5.000    1.500    8.750    3.500 
#    0.000    0.000    0.000    0.000    0.000    0.000 
#    0.000    0.000    0.000    0.000    0.000    0.000 
#
# Total GULP energy -198254.159867 kJ/mol
# GULP energy per Si atom -12390.884992 kJ/mol
# Density = 2.212864 g / cm^3
# Si number density = 22.179125 Si / 1000 Ang^3
#
#
#
# Elastic Constant Matrix: (Units=GPa)
#
#
# Indices 1 2 3 4 5 6 
#
# 1 146.8958 22.0902 19.1634 -7.7054 -18.5886 -8.7462
# 2 22.0902 72.8498 -0.7334 -6.9986 -15.9782 -9.4126
# 3 19.1634 -0.7334 80.1151 -9.2401 -16.1281 -4.1671
# 4 -7.7054 -6.9986 -9.2401 37.9348 3.4816 0.1399
# 5 -18.5886 -15.9782 -16.1281 3.4816 37.4632 1.0792
# 6 -8.7462 -9.4126 -4.1671 0.1399 1.0792 34.1404
#
#
#
# Elastic Compliance Matrix: (Units=1/GPa)
#
#
# Indices 1 2 3 4 5 6 
#
# 1 0.007627 -0.001532 -0.001178 0.000744 0.002517 0.001305
# 2 -0.001532 0.016554 0.002454 0.002684 0.006985 0.004239
# 3 -0.001178 0.002454 0.014534 0.003162 0.006370 0.001935
# 4 0.000744 0.002684 0.003162 0.027749 0.000262 0.001194
# 5 0.002517 0.006985 0.006370 0.000262 0.033573 0.002286
# 6 0.001305 0.004239 0.001935 0.001194 0.002286 0.030953
#
#
# Mechanical properties :
#
#
# Convention : Reuss Voigt Hill
#
# Bulk Modulus (GPa) = 26.17654 42.32236 34.24945
# Shear Modulus (GPa) = 34.66548 39.19705 36.93127
#
# Velocity S-wave (km/s) = 3.95774 4.20848 4.08504
# Velocity P-wave (km/s) = 5.71952 6.53747 6.14213
#
# Compressibility (1/GPa) = 0.03820215
#
# Stress axis : x y z
#
# Youngs Moduli (GPa) = 131.11514 60.40891 68.80485
#
# Poissons Ratio (x) = 0.09258 0.08106
# Poissons Ratio (y) = 0.20093 -0.16887
# Poissons Ratio (z) = 0.15446 -0.14826
#
# Static dielectric constant tensor:
#      x y z
#    x 4.639210 -0.004000 -0.131110 
#    y -0.004000 4.018940 0.023840 
#    z -0.131110 0.023840 4.137220 
# 
# 
# High freq. dielectric constant tensor:
#      x y z
#    x 1.891680 -0.001520 -0.006550 
#    y -0.001520 1.875710 -0.003340 
#    z -0.006550 -0.003340 1.885940 
# 
# From -- ./inp_files/226494.got.cif
#   From: 2010.06.25/outbox.cif.g09.slc.cpg/sg2_114_cif.got.tgz:226494.got - 2010.06.27 13:26:56.
