data_PCOD8036296
_publ_section_title
;
Structure prediction by ZEFSAII (Michael W. Deem and Ramdas Pophale) SiO2 
 PCOD8036296
Probable space group: P -1
;
_chemical_formula_sum "Si O2"
_cell_formula_units_Z 10
_cell_length_a 7.446914
_cell_length_b 12.870953
_cell_length_c 4.987158
_cell_angle_alpha 80.253138
_cell_angle_beta 56.867571
_cell_angle_gamma 59.765287
_cell_volume 342.114204
_symmetry_space_group_name_H-M "P -1"
_symmetry_group_IT_number 2
_symmetry_cell_setting 'triclinic'
loop_
_space_group_symop_operation_xyz
x,y,z
-x,-y,-z
loop_
_atom_site_type_symbol
_atom_site_label
_atom_site_fract_x
_atom_site_fract_y
_atom_site_fract_z
Si Si1 0.319302 0.015768 0.381569
Si Si2 0.304359 0.384945 0.853929
Si Si3 0.103620 0.237106 0.779251
Si Si4 0.811895 0.183068 0.445005
Si Si5 0.764079 0.467893 0.674381
O O1 0.338533 0.098708 0.575177
O O2 0.034871 0.112513 0.496627
O O3 0.318215 0.893759 0.509885
O O4 0.500000 0.000000 0.000000
O O5 0.208373 0.295418 0.877444
O O6 0.598909 0.306850 0.703213
O O7 0.255629 0.490461 0.634693
O O8 0.161452 0.452432 0.217103
O O9 0.974284 0.325029 0.590563
O O10 0.891830 0.219336 0.092426
O O11 0.500000 0.500000 0.000000
#
# Coordination Sequence:
#
# PCOD8036296 Si02
#       5
#     2   2   2   2   2
#     4  11  27  49  77 110 150 202 261 317 380 449
#     4  12  28  47  81 116 155 199 254 315 387 459
#     4  12  27  46  78 108 157 199 254 317 381 455
#     4  11  26  47  77 108 152 199 259 308 390 445
#     4  12  26  50  79 115 156 201 252 312 388 462
#
# _framework density 29.230007000000001
#
# number of rings (size 3 to 8) (size 9 to 14) (size 15 to 20)
#    0.000    0.400    2.000    4.800    8.400    4.800 
#    0.000    0.000    0.000    0.000    0.000    0.000 
#    0.000    0.000    0.000    0.000    0.000    0.000 
#
# Total GULP energy -124052.472941 kJ/mol
# GULP energy per Si atom -12405.247294 kJ/mol
# Density = 2.916348 g / cm^3
# Si number density = 29.230007 Si / 1000 Ang^3
#
#
#
# Elastic Constant Matrix: (Units=GPa)
#
#
# Indices 1 2 3 4 5 6 
#
# 1 38.4280 -14.8880 11.5116 -7.8640 -6.2176 6.2268
# 2 -14.8880 155.2575 68.0048 11.7628 -2.1627 -0.0513
# 3 11.5116 68.0048 161.1768 7.6881 15.2756 13.2743
# 4 -7.8640 11.7628 7.6881 73.7655 -1.9549 -10.0614
# 5 -6.2176 -2.1627 15.2756 -1.9549 52.4800 6.4927
# 6 6.2268 -0.0513 13.2743 -10.0614 6.4927 48.0613
#
#
#
# Elastic Compliance Matrix: (Units=1/GPa)
#
#
# Indices 1 2 3 4 5 6 
#
# 1 0.031360 0.004966 -0.004775 0.002802 0.005777 -0.002933
# 2 0.004966 0.008855 -0.004295 -0.000352 0.002167 0.000186
# 3 -0.004775 -0.004295 0.008840 -0.001050 -0.003154 -0.001621
# 4 0.002802 -0.000352 -0.001050 0.014429 0.000810 0.002838
# 5 0.005777 0.002167 -0.003154 0.000810 0.021093 -0.002555
# 6 -0.002933 0.000186 -0.001621 0.002838 -0.002555 0.022574
#
#
# Mechanical properties :
#
#
# Convention : Reuss Voigt Hill
#
# Bulk Modulus (GPa) = 24.48093 53.79100 39.13597
# Shear Modulus (GPa) = 38.76708 54.21027 46.48867
#
# Velocity S-wave (km/s) = 3.64576 4.31119 3.99236
# Velocity P-wave (km/s) = 5.11034 6.57453 5.88812
#
# Compressibility (1/GPa) = 0.04084813
#
# Stress axis : x y z
#
# Youngs Moduli (GPa) = 31.88750 112.92787 113.12147
#
# Poissons Ratio (x) = -0.56077 0.54011
# Poissons Ratio (y) = -0.15835 0.48584
# Poissons Ratio (z) = 0.15225 0.48500
#
# Static dielectric constant tensor:
#      x y z
#    x 6.350310 0.121130 -0.428010 
#    y 0.121130 6.118650 0.427340 
#    z -0.428010 0.427340 5.287390 
# 
# 
# High freq. dielectric constant tensor:
#      x y z
#    x 2.236730 0.002000 -0.027730 
#    y 0.002000 2.225140 0.018860 
#    z -0.027730 0.018860 2.191080 
# 
# From -- ./inp_files/18691.got.cif
#   From: 2010.06.25/outbox.cif.g09.slc.cpg/sg2_10_cif.got.tgz:18691.got - 2010.06.27 13:26:56.
