data_PCOD8036923
_publ_section_title
;
Structure prediction by ZEFSAII (Michael W. Deem and Ramdas Pophale) SiO2 
 PCOD8036923
Probable space group: P -1
;
_chemical_formula_sum "Si O2"
_cell_formula_units_Z 16
_cell_length_a 18.182820
_cell_length_b 12.775550
_cell_length_c 14.754691
_cell_angle_alpha 131.526549
_cell_angle_beta 29.568621
_cell_angle_gamma 151.545418
_cell_volume 726.522362
_symmetry_space_group_name_H-M "P -1"
_symmetry_group_IT_number 2
_symmetry_cell_setting 'triclinic'
loop_
_space_group_symop_operation_xyz
x,y,z
-x,-y,-z
loop_
_atom_site_type_symbol
_atom_site_label
_atom_site_fract_x
_atom_site_fract_y
_atom_site_fract_z
Si Si1 0.956912 0.879036 0.067133
Si Si2 0.464016 0.140620 0.752199
Si Si3 0.267182 0.690671 0.770355
Si Si4 0.278612 0.575113 0.018333
Si Si5 0.890913 0.513952 0.365355
Si Si6 0.146945 0.470186 0.305170
Si Si7 0.146613 0.998573 0.400897
Si Si8 0.761584 0.932163 0.455889
O O1 0.793388 0.835712 0.292730
O O2 0.794995 0.614920 0.071707
O O3 0.000000 0.000000 0.000000
O O4 0.239695 0.062905 0.907344
O O5 0.684498 0.285237 0.523202
O O6 0.576549 0.312298 0.815725
O O7 0.362342 0.913576 0.762586
O O8 0.230917 0.564070 0.648817
O O9 0.478093 0.783619 0.663907
O O10 0.000000 0.500000 0.000000
O O11 0.185684 0.475035 0.161382
O O12 0.140908 0.605986 0.143169
O O13 0.585469 0.836648 0.840265
O O14 0.968068 0.724245 0.441040
O O15 0.000000 0.500000 0.500000
O O16 0.981809 0.216338 0.373155
O O17 0.208286 0.105421 0.496489
O O18 0.000000 0.000000 0.500000
#
# Coordination Sequence:
#
# PCOD8036923 Si02
#       8
#     2   2   2   2   2   2   2   2
#     4  12  28  46  75 112 153 193 239 308 365 444
#     4  12  26  46  76 108 144 193 249 294 368 433
#     4  12  27  45  77 112 144 190 248 305 364 432
#     4  12  26  48  75 108 148 193 249 301 369 431
#     4  12  25  49  76 104 145 192 249 305 357 445
#     4  12  23  44  78 109 139 189 249 310 351 433
#     4  12  31  49  72 107 151 197 241 308 378 437
#     4  12  26  50  73 105 151 194 245 299 375 436
#
# _framework density 22.02272
#
# number of rings (size 3 to 8) (size 9 to 14) (size 15 to 20)
#    0.000    0.000    6.250    2.250    7.000    1.000 
#    0.000    0.000    0.000    0.000    0.000    0.000 
#    0.000    0.000    0.000    0.000    0.000    0.000 
#
# Total GULP energy -198523.543054 kJ/mol
# GULP energy per Si atom -12407.721441 kJ/mol
# Density = 2.197260 g / cm^3
# Si number density = 22.022720 Si / 1000 Ang^3
#
#
#
# Elastic Constant Matrix: (Units=GPa)
#
#
# Indices 1 2 3 4 5 6 
#
# 1 167.1231 48.1639 57.6080 3.6120 -13.9986 8.1098
# 2 48.1639 116.3636 54.0206 3.1472 -1.1278 7.2299
# 3 57.6080 54.0206 126.1862 -5.4034 -5.2817 -7.7031
# 4 3.6120 3.1472 -5.4034 40.7614 3.3705 0.2935
# 5 -13.9986 -1.1278 -5.2817 3.3705 40.9790 -1.7251
# 6 8.1098 7.2299 -7.7031 0.2935 -1.7251 36.3423
#
#
#
# Elastic Compliance Matrix: (Units=1/GPa)
#
#
# Indices 1 2 3 4 5 6 
#
# 1 0.007775 -0.001709 -0.002887 -0.001112 0.002249 -0.001891
# 2 -0.001709 0.011565 -0.004436 -0.001238 -0.000857 -0.002891
# 3 -0.002887 -0.004436 0.011488 0.002062 0.000369 0.003963
# 4 -0.001112 -0.001238 0.002062 0.025177 -0.002193 0.000624
# 5 0.002249 -0.000857 0.000369 -0.002193 0.025416 0.000971
# 6 -0.001891 -0.002891 0.003963 0.000624 0.000971 0.029394
#
#
# Mechanical properties :
#
#
# Convention : Reuss Voigt Hill
#
# Bulk Modulus (GPa) = 78.34504 81.02864 79.68684
# Shear Modulus (GPa) = 37.55568 40.27523 38.91546
#
# Velocity S-wave (km/s) = 4.13403 4.28109 4.20820
# Velocity P-wave (km/s) = 7.64453 7.83007 7.73786
#
# Compressibility (1/GPa) = 0.01276405
#
# Stress axis : x y z
#
# Youngs Moduli (GPa) = 128.61006 86.46561 87.04841
#
# Poissons Ratio (x) = 0.14773 0.25133
# Poissons Ratio (y) = 0.21974 0.38619
# Poissons Ratio (z) = 0.37133 0.38360
#
# Static dielectric constant tensor:
#      x y z
#    x 4.449750 0.237020 -0.011210 
#    y 0.237020 4.002670 -0.014990 
#    z -0.011210 -0.014990 3.990080 
# 
# 
# High freq. dielectric constant tensor:
#      x y z
#    x 1.886640 0.010520 0.002010 
#    y 0.010520 1.875140 -0.006640 
#    z 0.002010 -0.006640 1.870030 
# 
# From -- ./inp_files/184347.got.cif
#   From: 2010.06.25/outbox.cif.g09.slc.cpg/sg2_93_cif.got.tgz:184347.got - 2010.06.27 13:26:56.
