data_PCOD8036262
_publ_section_title
;
Structure prediction by ZEFSAII (Michael W. Deem and Ramdas Pophale) SiO2 
 PCOD8036262
Probable space group: P -1
;
_chemical_formula_sum "Si O2"
_cell_formula_units_Z 16
_cell_length_a 27.707866
_cell_length_b 5.640839
_cell_length_c 8.368644
_cell_angle_alpha 90.310580
_cell_angle_beta 149.019016
_cell_angle_gamma 83.134578
_cell_volume 656.293921
_symmetry_space_group_name_H-M "P -1"
_symmetry_group_IT_number 2
_symmetry_cell_setting 'triclinic'
loop_
_space_group_symop_operation_xyz
x,y,z
-x,-y,-z
loop_
_atom_site_type_symbol
_atom_site_label
_atom_site_fract_x
_atom_site_fract_y
_atom_site_fract_z
Si Si1 0.010659 0.969296 0.712244
Si Si2 0.616504 0.126253 0.099643
Si Si3 0.806138 0.313521 0.635527
Si Si4 0.179320 0.198026 0.798838
Si Si5 0.419101 0.430552 0.535102
Si Si6 0.925510 0.390537 0.687676
Si Si7 0.370842 0.953949 0.223765
Si Si8 0.290601 0.287342 0.418033
O O1 0.928118 0.837179 0.533475
O O2 0.120177 0.824065 0.026315
O O3 0.000000 0.000000 0.500000
O O4 0.997292 0.214557 0.773995
O O5 0.714904 0.203920 0.353228
O O6 0.628970 0.932210 0.278807
O O7 0.530376 0.352626 0.905875
O O8 0.593152 0.032227 0.856380
O O9 0.865952 0.269614 0.642749
O O10 0.770017 0.586268 0.601786
O O11 0.163750 0.456889 0.668615
O O12 0.215952 0.199416 0.085783
O O13 0.255293 0.999247 0.912934
O O14 0.409888 0.681330 0.409182
O O15 0.346540 0.468297 0.481963
O O16 0.399312 0.186043 0.391581
O O17 0.000000 0.500000 0.000000
#
# Coordination Sequence:
#
# PCOD8036262 Si02
#       8
#     2   2   2   2   2   2   2   2
#     4  12  27  44  73 104 148 197 253 316 386 465
#     4  12  27  47  76 110 152 198 256 323 386 464
#     4  12  28  43  75 109 149 194 258 313 388 460
#     4  11  26  47  73 101 153 197 253 315 383 462
#     4  11  28  51  78 112 154 202 260 322 392 464
#     4  12  27  47  72 108 150 199 255 318 386 459
#     4  11  27  48  80 111 150 203 261 317 393 462
#     4  11  28  46  76 110 152 202 255 317 392 458
#
# _framework density 24.379321000000001
#
# number of rings (size 3 to 8) (size 9 to 14) (size 15 to 20)
#    0.000    0.500    1.250    4.500   21.000    1.500 
#    0.000    0.000    0.000    0.000    0.000    0.000 
#    0.000    0.000    0.000    0.000    0.000    0.000 
#
# Total GULP energy -198218.258111 kJ/mol
# GULP energy per Si atom -12388.641132 kJ/mol
# Density = 2.432383 g / cm^3
# Si number density = 24.379321 Si / 1000 Ang^3
#
#
#
# Elastic Constant Matrix: (Units=GPa)
#
#
# Indices 1 2 3 4 5 6 
#
# 1 90.6194 11.6368 15.7224 0.3474 -6.4032 -3.5166
# 2 11.6368 118.7403 50.1965 -8.4852 -7.2199 -12.7667
# 3 15.7224 50.1965 147.7493 -19.4282 4.2573 -5.3587
# 4 0.3474 -8.4852 -19.4282 42.1737 4.2777 -3.8253
# 5 -6.4032 -7.2199 4.2573 4.2777 54.3875 -10.4456
# 6 -3.5166 -12.7667 -5.3587 -3.8253 -10.4456 48.6867
#
#
#
# Elastic Compliance Matrix: (Units=1/GPa)
#
#
# Indices 1 2 3 4 5 6 
#
# 1 0.011452 -0.000497 -0.001173 -0.000820 0.001601 0.000847
# 2 -0.000497 0.010354 -0.003345 0.000590 0.002069 0.002801
# 3 -0.001173 -0.003345 0.008519 0.003409 -0.001534 -0.000085
# 4 -0.000820 0.000590 0.003409 0.025791 -0.001913 0.002087
# 5 0.001601 0.002069 -0.001534 -0.001913 0.020010 0.004632
# 6 0.000847 0.002801 -0.000085 0.002087 0.004632 0.022484
#
#
# Mechanical properties :
#
#
# Convention : Reuss Voigt Hill
#
# Bulk Modulus (GPa) = 49.27434 56.91337 53.09386
# Shear Modulus (GPa) = 43.32640 47.68647 45.50644
#
# Velocity S-wave (km/s) = 4.22023 4.42749 4.32510
# Velocity P-wave (km/s) = 6.63344 7.03793 6.83868
#
# Compressibility (1/GPa) = 0.02029454
#
# Stress axis : x y z
#
# Youngs Moduli (GPa) = 87.32378 96.58344 117.38637
#
# Poissons Ratio (x) = 0.04795 0.13772
# Poissons Ratio (y) = 0.04336 0.39267
# Poissons Ratio (z) = 0.10245 0.32309
#
# Static dielectric constant tensor:
#      x y z
#    x 0.160250 -0.653550 -3.854420 
#    y -0.653550 4.201850 -0.618890 
#    z -3.854420 -0.618890 1.164490 
# 
# 
# High freq. dielectric constant tensor:
#      x y z
#    x 1.983800 -0.005960 0.005030 
#    y -0.005960 1.955790 -0.003320 
#    z 0.005030 -0.003320 1.995970 
# 
# From -- ./inp_files/358233.got.cif
#   From: 2010.06.25/outbox.cif.g09.slc.cpg/sg2_180_cif.got.tgz:358233.got - 2010.06.27 13:26:56.
