data_PCOD8036956
_publ_section_title
;
Structure prediction by ZEFSAII (Michael W. Deem and Ramdas Pophale) SiO2 
 PCOD8036956
Probable space group: P -1
;
_chemical_formula_sum "Si O2"
_cell_formula_units_Z 16
_cell_length_a 24.069514
_cell_length_b 9.152901
_cell_length_c 20.842597
_cell_angle_alpha 29.196196
_cell_angle_beta 19.107328
_cell_angle_gamma 28.961854
_cell_volume 696.197244
_symmetry_space_group_name_H-M "P -1"
_symmetry_group_IT_number 2
_symmetry_cell_setting 'triclinic'
loop_
_space_group_symop_operation_xyz
x,y,z
-x,-y,-z
loop_
_atom_site_type_symbol
_atom_site_label
_atom_site_fract_x
_atom_site_fract_y
_atom_site_fract_z
Si Si1 0.919741 0.772099 0.875694
Si Si2 0.826310 0.208245 0.927448
Si Si3 0.170611 0.816059 0.841173
Si Si4 0.780099 0.280387 0.520246
Si Si5 0.335772 0.718529 0.133819
Si Si6 0.141789 0.401971 0.566086
Si Si7 0.412060 0.752514 0.713990
Si Si8 0.409643 0.169114 0.096129
O O1 0.122419 0.639432 0.679106
O O2 0.919098 0.909771 0.895168
O O3 0.815428 0.050062 0.834175
O O4 0.851982 0.467932 0.068792
O O5 0.663502 0.451439 0.973584
O O6 0.957472 0.396322 0.737700
O O7 0.743827 0.089825 0.124856
O O8 0.328635 0.645170 0.783167
O O9 0.227257 0.059489 0.638820
O O10 0.000000 0.000000 0.000000
O O11 0.883113 0.332626 0.452389
O O12 0.568936 0.471046 0.681841
O O13 0.769361 0.928223 0.657121
O O14 0.259270 0.487054 0.349325
O O15 0.500000 0.500000 0.000000
O O16 0.425826 0.933622 0.994345
O O17 0.500000 0.000000 0.500000
O O18 0.500000 0.000000 0.000000
#
# Coordination Sequence:
#
# PCOD8036956 Si02
#       8
#     2   2   2   2   2   2   2   2
#     4  12  28  48  75 108 154 193 244 306 378 431
#     4  12  27  46  72 108 149 189 243 311 365 435
#     4  12  24  50  75 110 145 196 246 303 362 451
#     4  12  25  44  75 108 139 197 243 300 364 441
#     4  12  27  49  74 108 153 193 244 315 373 433
#     4  12  26  47  75 105 150 192 250 297 370 436
#     4  12  23  45  76 103 144 191 247 295 358 444
#     4  12  24  43  74 105 140 186 250 296 363 437
#
# _framework density 22.981992999999999
#
# number of rings (size 3 to 8) (size 9 to 14) (size 15 to 20)
#    0.000    0.000    7.500    1.500    3.500    2.500 
#    0.000    1.250    0.000    0.000    0.000    0.000 
#    0.000    0.000    0.000    0.000    0.000    0.000 
#
# Total GULP energy -198281.148335 kJ/mol
# GULP energy per Si atom -12392.571771 kJ/mol
# Density = 2.292968 g / cm^3
# Si number density = 22.981993 Si / 1000 Ang^3
#
#
#
# Elastic Constant Matrix: (Units=GPa)
#
#
# Indices 1 2 3 4 5 6 
#
# 1 115.3418 27.2371 52.8234 0.4389 -11.8695 8.9841
# 2 27.2371 65.0490 32.6288 -4.5387 5.5778 9.8857
# 3 52.8234 32.6288 161.2313 -14.4871 7.0995 19.2114
# 4 0.4389 -4.5387 -14.4871 42.3460 -0.3837 3.4001
# 5 -11.8695 5.5778 7.0995 -0.3837 48.0222 -2.5979
# 6 8.9841 9.8857 19.2114 3.4001 -2.5979 37.3036
#
#
#
# Elastic Compliance Matrix: (Units=1/GPa)
#
#
# Indices 1 2 3 4 5 6 
#
# 1 0.011425 -0.003581 -0.003373 -0.001650 0.003744 0.000345
# 2 -0.003581 0.018733 -0.001928 0.001637 -0.002950 -0.003464
# 3 -0.003373 -0.001928 0.008466 0.002983 -0.002024 -0.003449
# 4 -0.001650 0.001637 0.002983 0.025135 -0.001051 -0.003937
# 5 0.003744 -0.002950 -0.002024 -0.001051 0.022522 0.002587
# 6 0.000345 -0.003464 -0.003449 -0.003937 0.002587 0.029957
#
#
# Mechanical properties :
#
#
# Convention : Reuss Voigt Hill
#
# Bulk Modulus (GPa) = 47.93806 63.00009 55.46908
# Shear Modulus (GPa) = 35.47254 40.79654 38.13454
#
# Velocity S-wave (km/s) = 3.93299 4.21783 4.07790
# Velocity P-wave (km/s) = 6.44429 7.15489 6.80886
#
# Compressibility (1/GPa) = 0.02086025
#
# Stress axis : x y z
#
# Youngs Moduli (GPa) = 87.53019 53.38159 118.12452
#
# Poissons Ratio (x) = 0.19114 0.39839
# Poissons Ratio (y) = 0.31341 0.22778
# Poissons Ratio (z) = 0.29521 0.10294
#
# Static dielectric constant tensor:
#      x y z
#    x 4.200210 0.348810 -0.181310 
#    y 0.348810 3.727660 -0.153740 
#    z -0.181310 -0.153740 4.465770 
# 
# 
# High freq. dielectric constant tensor:
#      x y z
#    x 1.916550 -0.005450 -0.007920 
#    y -0.005450 1.893990 -0.011790 
#    z -0.007920 -0.011790 1.923630 
# 
# From -- ./inp_files/601912.got.cif
#   From: 2010.06.25/outbox.cif.g09.slc.cpg/sg2_301_cif.got.tgz:601912.got - 2010.06.27 13:26:56.
