data_PCOD8036482
_publ_section_title
;
Structure prediction by ZEFSAII (Michael W. Deem and Ramdas Pophale) SiO2 
 PCOD8036482
Probable space group: P -1
;
_chemical_formula_sum "Si O2"
_cell_formula_units_Z 14
_cell_length_a 5.332264
_cell_length_b 12.291157
_cell_length_c 13.080571
_cell_angle_alpha 49.056663
_cell_angle_beta 69.671523
_cell_angle_gamma 86.323983
_cell_volume 590.825614
_symmetry_space_group_name_H-M "P -1"
_symmetry_group_IT_number 2
_symmetry_cell_setting 'triclinic'
loop_
_space_group_symop_operation_xyz
x,y,z
-x,-y,-z
loop_
_atom_site_type_symbol
_atom_site_label
_atom_site_fract_x
_atom_site_fract_y
_atom_site_fract_z
Si Si1 0.982907 0.562888 0.802296
Si Si2 0.342418 0.657582 0.157582
Si Si3 0.848092 0.697704 0.937111
Si Si4 0.178193 0.921862 0.091711
Si Si5 0.700067 0.189435 0.532821
Si Si6 0.922323 0.967179 0.310565
Si Si7 0.308234 0.591711 0.421862
O O1 0.798706 0.504606 0.765556
O O2 0.809692 0.626061 0.873939
O O3 0.220113 0.695627 0.643599
O O4 0.078635 0.421364 0.921365
O O5 0.131824 0.762243 0.141704
O O6 0.464230 0.641703 0.262243
O O7 0.568869 0.734444 0.995394
O O8 0.059339 0.856401 0.804372
O O9 0.053601 0.906484 0.231310
O O10 0.500000 0.000000 0.000000
O O11 0.000000 0.000000 0.000000
O O12 0.691395 0.268690 0.593516
O O13 0.598002 0.901998 0.401999
O O14 0.916706 0.083294 0.583294
O O15 0.500000 0.500000 0.500000
O O16 0.000000 0.500000 0.500000
#
# Coordination Sequence:
#
# PCOD8036482 Si02
#       7
#     2   2   2   2   2   2   2
#     4  11  27  50  77 107 148 206 261 313 370 447
#     4  12  25  44  76 110 147 196 256 312 374 450
#     4  11  27  50  77 107 148 206 261 313 370 447
#     4  12  25  43  71 108 150 194 241 303 380 449
#     4  12  27  48  75 114 152 196 249 312 382 449
#     4  12  27  48  75 114 152 196 249 312 382 449
#     4  12  25  43  71 108 150 194 241 303 380 449
#
# _framework density 23.695651999999999
#
# number of rings (size 3 to 8) (size 9 to 14) (size 15 to 20)
#    0.000    0.286    4.286    3.857    4.000    1.143 
#    0.000    0.000    0.000    0.000    0.000    0.000 
#    0.000    0.000    0.000    0.000    0.000    0.000 
#
# Total GULP energy -173543.987523 kJ/mol
# GULP energy per Si atom -12395.999109 kJ/mol
# Density = 2.364172 g / cm^3
# Si number density = 23.695652 Si / 1000 Ang^3
#
#
#
# Elastic Constant Matrix: (Units=GPa)
#
#
# Indices 1 2 3 4 5 6 
#
# 1 156.4526 35.6982 59.4407 -23.8347 5.7434 -3.9298
# 2 35.6982 140.9650 73.5303 4.0906 5.4973 -4.3685
# 3 59.4407 73.5303 152.0361 -15.3014 7.2462 -3.2182
# 4 -23.8347 4.0906 -15.3014 51.0921 -0.4962 1.1059
# 5 5.7434 5.4973 7.2462 -0.4962 39.6753 -17.2189
# 6 -3.9298 -4.3685 -3.2182 1.1059 -17.2189 22.4981
#
#
#
# Elastic Compliance Matrix: (Units=1/GPa)
#
#
# Indices 1 2 3 4 5 6 
#
# 1 0.007978 -0.000841 -0.002377 0.003064 -0.000367 0.000459
# 2 -0.000841 0.009861 -0.004682 -0.002612 0.000165 0.001353
# 3 -0.002377 -0.004682 0.010039 0.002281 -0.001216 -0.000931
# 4 0.003064 -0.002612 0.002281 0.021915 -0.000806 -0.001339
# 5 -0.000367 0.000165 -0.001216 -0.000806 0.037995 0.028913
# 6 0.000459 0.001353 -0.000931 -0.001339 0.028913 0.066852
#
#
# Mechanical properties :
#
#
# Convention : Reuss Voigt Hill
#
# Bulk Modulus (GPa) = 82.79771 87.42137 85.10954
# Shear Modulus (GPa) = 28.65875 41.37208 35.01541
#
# Velocity S-wave (km/s) = 3.48149 4.18302 3.84828
# Velocity P-wave (km/s) = 7.15395 7.76555 7.46602
#
# Compressibility (1/GPa) = 0.01207763
#
# Stress axis : x y z
#
# Youngs Moduli (GPa) = 125.33745 101.41432 99.61128
#
# Poissons Ratio (x) = 0.08529 0.23678
# Poissons Ratio (y) = 0.10540 0.46640
# Poissons Ratio (z) = 0.29793 0.47484
#
# Static dielectric constant tensor:
#      x y z
#    x 4.179860 -0.040920 0.068200 
#    y -0.040920 4.577560 -0.027470 
#    z 0.068200 -0.027470 4.604450 
# 
# 
# High freq. dielectric constant tensor:
#      x y z
#    x 1.930430 -0.001540 0.002580 
#    y -0.001540 1.950880 -0.003530 
#    z 0.002580 -0.003530 1.954380 
# 
# From -- ./inp_files/118205.got.cif
#   From: 2010.06.25/outbox.cif.g09.slc.cpg/sg2_60_cif.got.tgz:118205.got - 2010.06.27 13:26:56.
