data_PCOD8036181
_publ_section_title
;
Structure prediction by ZEFSAII (Michael W. Deem and Ramdas Pophale) SiO2 
 PCOD8036181
Probable space group: P -1
;
_chemical_formula_sum "Si O2"
_cell_formula_units_Z 12
_cell_length_a 21.796559
_cell_length_b 23.848802
_cell_length_c 8.565469
_cell_angle_alpha 146.260815
_cell_angle_beta 32.997248
_cell_angle_gamma 167.954208
_cell_volume 503.519712
_symmetry_space_group_name_H-M "P -1"
_symmetry_group_IT_number 2
_symmetry_cell_setting 'triclinic'
loop_
_space_group_symop_operation_xyz
x,y,z
-x,-y,-z
loop_
_atom_site_type_symbol
_atom_site_label
_atom_site_fract_x
_atom_site_fract_y
_atom_site_fract_z
Si Si1 0.726032 0.410096 0.479484
Si Si2 0.676123 0.751436 0.194383
Si Si3 0.174226 0.055461 0.332236
Si Si4 0.788949 0.538849 0.982352
Si Si5 0.971566 0.415747 0.210563
Si Si6 0.669096 0.175456 0.875062
O O1 0.531090 0.343572 0.683967
O O2 0.064654 0.681592 0.308727
O O3 0.789647 0.466668 0.661082
O O4 0.575494 0.176855 0.215864
O O5 0.724900 0.840063 0.464493
O O6 0.500000 0.500000 0.000000
O O7 0.000000 0.000000 0.000000
O O8 0.445660 0.270338 0.132205
O O9 0.000000 0.000000 0.500000
O O10 0.960569 0.782590 0.138530
O O11 0.942870 0.625808 0.013673
O O12 0.000000 0.500000 0.500000
O O13 0.213674 0.658488 0.133434
O O14 0.626069 0.133595 0.243635
#
# Coordination Sequence:
#
# PCOD8036181 Si02
#       6
#     2   2   2   2   2   2
#     4  11  26  46  70 107 142 188 235 287 362 409
#     4  12  26  47  74 101 141 183 234 293 351 419
#     4  12  26  47  71 103 136 182 237 287 347 412
#     4  12  25  42  73 100 142 181 231 289 342 419
#     4  12  24  45  68 102 138 185 235 281 352 409
#     4  11  27  45  71 102 147 187 235 293 344 429
#
# _framework density 23.832234
#
# number of rings (size 3 to 8) (size 9 to 14) (size 15 to 20)
#    0.000    0.333    1.667    7.000    2.333    6.667 
#    0.000    0.000    0.000    0.000    0.000    0.000 
#    0.000    0.000    0.000    0.000    0.000    0.000 
#
# Total GULP energy -148714.047914 kJ/mol
# GULP energy per Si atom -12392.837326 kJ/mol
# Density = 2.377799 g / cm^3
# Si number density = 23.832234 Si / 1000 Ang^3
#
#
#
# Elastic Constant Matrix: (Units=GPa)
#
#
# Indices 1 2 3 4 5 6 
#
# 1 155.4369 51.1376 35.4563 -11.0655 -8.1243 9.7061
# 2 51.1376 151.9515 63.9801 8.5709 -8.6352 -21.4931
# 3 35.4563 63.9801 137.8958 5.5173 10.2270 -2.9567
# 4 -11.0655 8.5709 5.5173 49.1679 17.1269 1.5300
# 5 -8.1243 -8.6352 10.2270 17.1269 51.6231 -12.0888
# 6 9.7061 -21.4931 -2.9567 1.5300 -12.0888 47.3303
#
#
#
# Elastic Compliance Matrix: (Units=1/GPa)
#
#
# Indices 1 2 3 4 5 6 
#
# 1 0.007975 -0.003044 -0.000762 0.002802 -0.000821 -0.003366
# 2 -0.003044 0.010921 -0.004358 -0.004107 0.005157 0.006761
# 3 -0.000762 -0.004358 0.009653 0.000801 -0.003530 -0.002147
# 4 0.002802 -0.004107 0.000801 0.025316 -0.010163 -0.005803
# 5 -0.000821 0.005157 -0.003530 -0.010163 0.026366 0.009352
# 6 -0.003366 0.006761 -0.002147 -0.005803 0.009352 0.027331
#
#
# Mechanical properties :
#
#
# Convention : Reuss Voigt Hill
#
# Bulk Modulus (GPa) = 81.81206 82.93691 82.37449
# Shear Modulus (GPa) = 39.07366 49.27162 44.17264
#
# Velocity S-wave (km/s) = 4.05350 4.55184 4.30988
# Velocity P-wave (km/s) = 7.50405 7.90579 7.70754
#
# Compressibility (1/GPa) = 0.01222314
#
# Stress axis : x y z
#
# Youngs Moduli (GPa) = 125.38544 91.56321 103.59189
#
# Poissons Ratio (x) = 0.27872 0.07890
# Poissons Ratio (y) = 0.38168 0.45143
# Poissons Ratio (z) = 0.09550 0.39901
#
# Static dielectric constant tensor:
#      x y z
#    x 17.893820 2.842980 0.211390 
#    y 2.842980 4.950290 -0.069280 
#    z 0.211390 -0.069280 4.526700 
# 
# 
# High freq. dielectric constant tensor:
#      x y z
#    x 1.972340 0.003120 0.004370 
#    y 0.003120 1.959590 0.000350 
#    z 0.004370 0.000350 1.962780 
# 
# From -- ./inp_files/54059.got.cif
#   From: 2010.06.25/outbox.cif.g09.slc.cpg/sg2_28_cif.got.tgz:54059.got - 2010.06.27 13:26:56.
