data_PCOD8036791
_publ_section_title
;
Structure prediction by ZEFSAII (Michael W. Deem and Ramdas Pophale) SiO2 
 PCOD8036791
Probable space group: P -1
;
_chemical_formula_sum "Si O2"
_cell_formula_units_Z 14
_cell_length_a 17.691814
_cell_length_b 9.760478
_cell_length_c 8.412279
_cell_angle_alpha 148.608965
_cell_angle_beta 115.807066
_cell_angle_gamma 72.801297
_cell_volume 672.189455
_symmetry_space_group_name_H-M "P -1"
_symmetry_group_IT_number 2
_symmetry_cell_setting 'triclinic'
loop_
_space_group_symop_operation_xyz
x,y,z
-x,-y,-z
loop_
_atom_site_type_symbol
_atom_site_label
_atom_site_fract_x
_atom_site_fract_y
_atom_site_fract_z
Si Si1 0.511286 0.252832 0.873634
Si Si2 0.660395 0.829480 0.223489
Si Si3 0.299583 0.660756 0.743941
Si Si4 0.261438 0.625742 0.315058
Si Si5 0.754525 0.862713 0.653807
Si Si6 0.066788 0.529457 0.949241
Si Si7 0.064587 0.043280 0.245527
O O1 0.442064 0.209857 0.911035
O O2 0.500000 0.000000 0.500000
O O3 0.500000 0.500000 0.000000
O O4 0.600768 0.292040 0.083269
O O5 0.682394 0.765126 0.361240
O O6 0.702225 0.132917 0.528591
O O7 0.693963 0.629329 0.933505
O O8 0.284065 0.725444 0.611634
O O9 0.256544 0.356918 0.435231
O O10 0.252237 0.850524 0.996865
O O11 0.160845 0.544529 0.121393
O O12 0.842826 0.871407 0.655757
O O13 0.041107 0.275624 0.563613
O O14 0.000000 0.500000 0.000000
O O15 0.058611 0.784817 0.091412
O O16 0.000000 0.000000 0.000000
#
# Coordination Sequence:
#
# PCOD8036791 Si02
#       7
#     2   2   2   2   2   2   2
#     4  12  23  40  67  99 129 168 223 272 318 372
#     4  12  23  44  70  92 134 179 213 266 326 389
#     4  12  26  42  68 101 130 173 221 269 320 387
#     4  12  26  44  66  98 135 174 214 264 336 389
#     4  12  23  44  70  94 132 175 220 263 321 390
#     4  12  26  46  67  97 136 173 210 271 333 386
#     4  12  27  44  70 101 128 170 224 268 320 389
#
# _framework density 20.827463000000002
#
# number of rings (size 3 to 8) (size 9 to 14) (size 15 to 20)
#    0.000    0.000    5.714    4.286    4.000    1.143 
#    0.000    0.000    0.000    0.000    0.000    0.000 
#    0.000    0.000    0.000    0.000    0.000    0.000 
#
# Total GULP energy -173708.824389 kJ/mol
# GULP energy per Si atom -12407.773171 kJ/mol
# Density = 2.078006 g / cm^3
# Si number density = 20.827463 Si / 1000 Ang^3
#
#
#
# Elastic Constant Matrix: (Units=GPa)
#
#
# Indices 1 2 3 4 5 6 
#
# 1 161.6857 42.8777 61.5387 1.6081 1.3321 5.0964
# 2 42.8777 96.3472 46.6704 -11.3642 -1.3344 -3.2116
# 3 61.5387 46.6704 128.4086 1.9469 -8.3727 -6.0381
# 4 1.6081 -11.3642 1.9469 43.3355 8.6160 -3.0991
# 5 1.3321 -1.3344 -8.3727 8.6160 38.5580 7.6654
# 6 5.0964 -3.2116 -6.0381 -3.0991 7.6654 24.1252
#
#
#
# Elastic Compliance Matrix: (Units=1/GPa)
#
#
# Indices 1 2 3 4 5 6 
#
# 1 0.008103 -0.002260 -0.003201 -0.000895 -0.000289 -0.002837
# 2 -0.002260 0.013928 -0.004049 0.004453 -0.001804 0.002463
# 3 -0.003201 -0.004049 0.011066 -0.001778 0.002389 0.001919
# 4 -0.000895 0.004453 -0.001778 0.026229 -0.007257 0.006012
# 5 -0.000289 -0.001804 0.002389 -0.007257 0.030021 -0.010052
# 6 -0.002837 0.002463 0.001919 0.006012 -0.010052 0.046824
#
#
# Mechanical properties :
#
#
# Convention : Reuss Voigt Hill
#
# Bulk Modulus (GPa) = 71.02671 76.51280 73.76975
# Shear Modulus (GPa) = 31.27278 36.89406 34.08342
#
# Velocity S-wave (km/s) = 3.87914 4.21338 4.04971
# Velocity P-wave (km/s) = 7.36479 7.77730 7.57385
#
# Compressibility (1/GPa) = 0.01407921
#
# Stress axis : x y z
#
# Youngs Moduli (GPa) = 123.41096 71.79619 90.36722
#
# Poissons Ratio (x) = 0.16225 0.28923
# Poissons Ratio (y) = 0.27889 0.36586
# Poissons Ratio (z) = 0.39499 0.29067
#
# Static dielectric constant tensor:
#      x y z
#    x 3.808750 -0.065350 -0.094290 
#    y -0.065350 3.760460 0.075310 
#    z -0.094290 0.075310 3.798780 
# 
# 
# High freq. dielectric constant tensor:
#      x y z
#    x 1.834860 -0.001210 -0.000560 
#    y -0.001210 1.819800 0.008440 
#    z -0.000560 0.008440 1.830970 
# 
# From -- ./inp_files/52823.got.cif
#   From: 2010.06.25/outbox.cif.g09.slc.cpg/sg2_27_cif.got.tgz:52823.got - 2010.06.27 13:26:56.
