data_PCOD8036494
_publ_section_title
;
Structure prediction by ZEFSAII (Michael W. Deem and Ramdas Pophale) SiO2 
 PCOD8036494
Probable space group: P -1
;
_chemical_formula_sum "Si O2"
_cell_formula_units_Z 12
_cell_length_a 18.015566
_cell_length_b 16.328886
_cell_length_c 6.512374
_cell_angle_alpha 74.109154
_cell_angle_beta 78.417487
_cell_angle_gamma 15.712765
_cell_volume 484.274418
_symmetry_space_group_name_H-M "P -1"
_symmetry_group_IT_number 2
_symmetry_cell_setting 'triclinic'
loop_
_space_group_symop_operation_xyz
x,y,z
-x,-y,-z
loop_
_atom_site_type_symbol
_atom_site_label
_atom_site_fract_x
_atom_site_fract_y
_atom_site_fract_z
Si Si1 0.870329 0.722252 0.027153
Si Si2 0.157003 0.725113 0.571097
Si Si3 0.342104 0.716986 0.232525
Si Si4 0.579200 0.827892 0.687916
Si Si5 0.443908 0.832659 0.432612
Si Si6 0.324353 0.791743 0.761828
O O1 0.095684 0.522923 0.186059
O O2 0.605985 0.982161 0.135208
O O3 0.000000 0.500000 0.000000
O O4 0.789475 0.873745 0.785663
O O5 0.402118 0.533582 0.578947
O O6 0.303498 0.473953 0.645056
O O7 0.963640 0.943788 0.728101
O O8 0.959785 0.951774 0.324055
O O9 0.397408 0.564169 0.208773
O O10 0.331862 0.797412 0.998580
O O11 0.555028 0.778025 0.575378
O O12 0.500000 0.000000 0.500000
O O13 0.316648 0.890096 0.583942
#
# Coordination Sequence:
#
# PCOD8036494 Si02
#       6
#     2   2   2   2   2   2
#     4  12  29  52  81 111 149 199 250 309 381 452
#     4  12  27  47  74 110 151 199 253 311 370 448
#     4  11  28  48  77 107 154 207 248 311 378 435
#     4  12  29  52  81 110 151 197 249 312 381 449
#     4  12  31  45  79 116 152 197 256 310 372 448
#     4  11  28  48  75 112 154 199 259 307 374 445
#
# _framework density 24.779340999999999
#
# number of rings (size 3 to 8) (size 9 to 14) (size 15 to 20)
#    0.000    0.333    3.333    2.000   11.667    1.333 
#    0.000    0.000    0.000    0.000    0.000    0.000 
#    0.000    0.000    0.000    0.000    0.000    0.000 
#
# Total GULP energy -148820.996896 kJ/mol
# GULP energy per Si atom -12401.749741 kJ/mol
# Density = 2.472294 g / cm^3
# Si number density = 24.779341 Si / 1000 Ang^3
#
#
#
# Elastic Constant Matrix: (Units=GPa)
#
#
# Indices 1 2 3 4 5 6 
#
# 1 132.0951 43.2170 33.5034 1.4990 3.9323 7.9827
# 2 43.2170 120.9506 12.0614 0.2454 -3.6644 8.5039
# 3 33.5034 12.0614 113.2965 -15.8685 -7.9250 -9.5684
# 4 1.4990 0.2454 -15.8685 48.4683 0.8294 -2.3138
# 5 3.9323 -3.6644 -7.9250 0.8294 45.3464 1.8069
# 6 7.9827 8.5039 -9.5684 -2.3138 1.8069 50.1581
#
#
#
# Elastic Compliance Matrix: (Units=1/GPa)
#
#
# Indices 1 2 3 4 5 6 
#
# 1 0.009441 -0.003020 -0.002882 -0.001269 -0.001482 -0.001546
# 2 -0.003020 0.009478 -0.000155 -0.000081 0.001050 -0.001198
# 3 -0.002882 -0.000155 0.010558 0.003638 0.001913 0.002598
# 4 -0.001269 -0.000081 0.003638 0.021950 0.000262 0.001913
# 5 -0.001482 0.001050 0.001913 0.000262 0.022610 -0.000380
# 6 -0.001546 -0.001198 0.002598 0.001913 -0.000380 0.020984
#
#
# Mechanical properties :
#
#
# Convention : Reuss Voigt Hill
#
# Bulk Modulus (GPa) = 57.59212 60.43399 59.01306
# Shear Modulus (GPa) = 44.27794 47.29857 45.78825
#
# Velocity S-wave (km/s) = 4.23175 4.37371 4.30331
# Velocity P-wave (km/s) = 6.86800 7.06736 6.96839
#
# Compressibility (1/GPa) = 0.01736349
#
# Stress axis : x y z
#
# Youngs Moduli (GPa) = 105.91885 105.50277 94.71508
#
# Poissons Ratio (x) = 0.31858 0.27300
# Poissons Ratio (y) = 0.31984 0.01469
# Poissons Ratio (z) = 0.30529 0.01636
#
# Static dielectric constant tensor:
#      x y z
#    x 4.545370 0.106600 0.083770 
#    y 0.106600 4.733180 0.004450 
#    z 0.083770 0.004450 4.789750 
# 
# 
# High freq. dielectric constant tensor:
#      x y z
#    x 1.991520 0.001650 0.006720 
#    y 0.001650 2.000570 0.003450 
#    z 0.006720 0.003450 2.009150 
# 
# From -- ./inp_files/110703.got.cif
#   From: 2010.06.25/outbox.cif.g09.slc.cpg/sg2_56_cif.got.tgz:110703.got - 2010.06.27 13:26:56.
