data_PCOD8036128
_publ_section_title
;
Structure prediction by ZEFSAII (Michael W. Deem and Ramdas Pophale) SiO2 
 PCOD8036128
Probable space group: P -1
;
_chemical_formula_sum "Si O2"
_cell_formula_units_Z 12
_cell_length_a 9.194094
_cell_length_b 5.187754
_cell_length_c 13.219951
_cell_angle_alpha 113.149921
_cell_angle_beta 113.475256
_cell_angle_gamma 54.380649
_cell_volume 459.039927
_symmetry_space_group_name_H-M "P -1"
_symmetry_group_IT_number 2
_symmetry_cell_setting 'triclinic'
loop_
_space_group_symop_operation_xyz
x,y,z
-x,-y,-z
loop_
_atom_site_type_symbol
_atom_site_label
_atom_site_fract_x
_atom_site_fract_y
_atom_site_fract_z
Si Si1 0.079970 0.438697 0.352823
Si Si2 0.673640 0.971227 0.322659
Si Si3 0.954982 0.747575 0.899681
Si Si4 0.284805 0.826055 0.430619
Si Si5 0.484816 0.579349 0.241740
Si Si6 0.307124 0.291710 0.030805
O O1 0.219942 0.565867 0.387699
O O2 0.889529 0.765022 0.366125
O O3 0.077157 0.224234 0.224511
O O4 0.125787 0.205954 0.427472
O O5 0.590102 0.740593 0.243796
O O6 0.599169 0.185992 0.439045
O O7 0.626410 0.200866 0.247567
O O8 0.767887 0.792516 0.902261
O O9 0.143662 0.401858 0.920120
O O10 0.000000 0.000000 0.000000
O O11 0.401198 0.758417 0.350913
O O12 0.339217 0.588816 0.120560
O O13 0.500000 0.000000 0.000000
#
# Coordination Sequence:
#
# PCOD8036128 Si02
#       6
#     2   2   2   2   2   2
#     4  12  25  45  71 101 140 180 231 286 346 412
#     4  12  26  43  71 103 137 183 231 282 345 418
#     4  11  26  45  71 101 138 183 232 289 349 413
#     4  12  24  46  70 100 140 183 227 284 346 413
#     4  12  25  45  68 102 140 177 232 286 345 410
#     4  11  26  46  71 101 138 183 233 288 349 416
#
# _framework density 26.141518000000001
#
# number of rings (size 3 to 8) (size 9 to 14) (size 15 to 20)
#    0.000    0.333    1.667    7.000    7.000    0.667 
#    0.000    0.000    0.000    0.000    0.000    0.000 
#    0.000    0.000    0.000    0.000    0.000    0.000 
#
# Total GULP energy -148810.130911 kJ/mol
# GULP energy per Si atom -12400.844243 kJ/mol
# Density = 2.608202 g / cm^3
# Si number density = 26.141518 Si / 1000 Ang^3
#
#
#
# Elastic Constant Matrix: (Units=GPa)
#
#
# Indices 1 2 3 4 5 6 
#
# 1 98.0371 29.4443 30.1037 10.1766 26.1866 -4.6126
# 2 29.4443 79.9309 14.0774 0.5194 18.8896 9.6063
# 3 30.1037 14.0774 96.9063 -6.4539 15.2816 18.7001
# 4 10.1766 0.5194 -6.4539 44.4800 3.9455 2.9939
# 5 26.1866 18.8896 15.2816 3.9455 31.8498 11.4236
# 6 -4.6126 9.6063 18.7001 2.9939 11.4236 54.8270
#
#
#
# Elastic Compliance Matrix: (Units=1/GPa)
#
#
# Indices 1 2 3 4 5 6 
#
# 1 0.016009 -0.003274 -0.004147 -0.003653 -0.010857 0.005797
# 2 -0.003274 0.015309 0.000172 0.001248 -0.005965 -0.001842
# 3 -0.004147 0.000172 0.012956 0.003285 -0.001654 -0.004633
# 4 -0.003653 0.001248 0.003285 0.024079 -0.001333 -0.002684
# 5 -0.010857 -0.005965 -0.001654 -0.001333 0.048143 -0.009262
# 6 0.005797 -0.001842 -0.004633 -0.002684 -0.009262 0.022706
#
#
# Mechanical properties :
#
#
# Convention : Reuss Voigt Hill
#
# Bulk Modulus (GPa) = 33.58344 46.90278 40.24311
# Shear Modulus (GPa) = 30.55749 39.64795 35.10272
#
# Velocity S-wave (km/s) = 3.42266 3.89866 3.66839
# Velocity P-wave (km/s) = 5.33799 6.18441 5.77673
#
# Compressibility (1/GPa) = 0.02977658
#
# Stress axis : x y z
#
# Youngs Moduli (GPa) = 62.46437 65.31973 77.18290
#
# Poissons Ratio (x) = 0.21385 0.32011
# Poissons Ratio (y) = 0.20450 -0.01329
# Poissons Ratio (z) = 0.25906 -0.01125
#
# Static dielectric constant tensor:
#      x y z
#    x 4.535060 -0.076970 0.082750 
#    y -0.076970 5.307810 -0.354680 
#    z 0.082750 -0.354680 5.120220 
# 
# 
# High freq. dielectric constant tensor:
#      x y z
#    x 2.034570 -0.005070 0.007080 
#    y -0.005070 2.072610 -0.004870 
#    z 0.007080 -0.004870 2.060740 
# 
# From -- ./inp_files/21832.got.cif
#   From: 2010.06.25/outbox.cif.g09.slc.cpg/sg2_11_cif.got.tgz:21832.got - 2010.06.27 13:26:56.
