data_PCOD8036812
_publ_section_title
;
Structure prediction by ZEFSAII (Michael W. Deem and Ramdas Pophale) SiO2 
 PCOD8036812
Probable space group: P -1
;
_chemical_formula_sum "Si O2"
_cell_formula_units_Z 14
_cell_length_a 14.538598
_cell_length_b 12.597656
_cell_length_c 20.900834
_cell_angle_alpha 30.768510
_cell_angle_beta 29.177855
_cell_angle_gamma 20.335221
_cell_volume 629.697841
_symmetry_space_group_name_H-M "P -1"
_symmetry_group_IT_number 2
_symmetry_cell_setting 'triclinic'
loop_
_space_group_symop_operation_xyz
x,y,z
-x,-y,-z
loop_
_atom_site_type_symbol
_atom_site_label
_atom_site_fract_x
_atom_site_fract_y
_atom_site_fract_z
Si Si1 0.659537 0.383875 0.895620
Si Si2 0.823265 0.356419 0.040519
Si Si3 0.697145 0.659531 0.083836
Si Si4 0.454147 0.699170 0.340891
Si Si5 0.954803 0.419233 0.272011
Si Si6 0.667383 0.655927 0.444767
Si Si7 0.891170 0.619620 0.576423
O O1 0.795675 0.492008 0.738267
O O2 0.500000 0.500000 0.000000
O O3 0.441023 0.509713 0.907749
O O4 0.908665 0.011779 0.940648
O O5 0.898614 0.528832 0.887277
O O6 0.730314 0.441419 0.126980
O O7 0.548026 0.692165 0.218479
O O8 0.000000 0.500000 0.000000
O O9 0.500000 0.000000 0.000000
O O10 0.708302 0.506038 0.337379
O O11 0.364878 0.536157 0.471865
O O12 0.189144 0.057635 0.339469
O O13 0.835511 0.637746 0.294942
O O14 0.850703 0.490901 0.483576
O O15 0.368578 0.005839 0.462498
O O16 0.000000 0.500000 0.500000
#
# Coordination Sequence:
#
# PCOD8036812 Si02
#       7
#     2   2   2   2   2   2   2
#     4  12  26  46  70  98 129 174 230 280 329 386
#     4  12  24  41  72  96 133 174 214 273 339 384
#     4  12  23  42  62 100 137 174 212 267 327 405
#     4  12  24  41  69 100 136 174 217 261 333 410
#     4  12  23  44  67 105 134 169 217 271 330 409
#     4  12  26  46  70  94 135 178 218 275 334 386
#     4  12  28  48  68  98 133 176 233 281 325 390
#
# _framework density 22.232885
#
# number of rings (size 3 to 8) (size 9 to 14) (size 15 to 20)
#    0.000    0.000    2.857    7.714    4.000    0.000 
#    0.000    0.000    0.000    0.000    0.000    0.000 
#    0.000    0.000    0.000    0.000    0.000    0.000 
#
# Total GULP energy -173650.338388 kJ/mol
# GULP energy per Si atom -12403.595599 kJ/mol
# Density = 2.218228 g / cm^3
# Si number density = 22.232885 Si / 1000 Ang^3
#
#
#
# Elastic Constant Matrix: (Units=GPa)
#
#
# Indices 1 2 3 4 5 6 
#
# 1 101.6987 11.5053 11.7803 12.1936 4.8355 7.3452
# 2 11.5053 152.9245 17.3368 -4.7155 8.9993 8.7458
# 3 11.7803 17.3368 76.9144 0.4552 3.0464 1.5804
# 4 12.1936 -4.7155 0.4552 31.0335 9.8339 3.8036
# 5 4.8355 8.9993 3.0464 9.8339 44.2893 14.6268
# 6 7.3452 8.7458 1.5804 3.8036 14.6268 45.8348
#
#
#
# Elastic Compliance Matrix: (Units=1/GPa)
#
#
# Indices 1 2 3 4 5 6 
#
# 1 0.010666 -0.000723 -0.001437 -0.004265 0.000463 -0.001315
# 2 -0.000723 0.006941 -0.001393 0.001900 -0.001366 -0.000882
# 3 -0.001437 -0.001393 0.013554 0.000330 -0.000633 0.000203
# 4 -0.004265 0.001900 0.000330 0.036754 -0.008047 -0.000173
# 5 0.000463 -0.001366 -0.000633 -0.008047 0.027215 -0.007809
# 6 -0.001315 -0.000882 0.000203 -0.000173 -0.007809 0.024696
#
#
# Mechanical properties :
#
#
# Convention : Reuss Voigt Hill
#
# Bulk Modulus (GPa) = 41.56981 45.86471 43.71726
# Shear Modulus (GPa) = 37.05100 43.62587 40.33843
#
# Velocity S-wave (km/s) = 4.08670 4.43450 4.26415
# Velocity P-wave (km/s) = 6.40361 6.84790 6.62948
#
# Compressibility (1/GPa) = 0.02405592
#
# Stress axis : x y z
#
# Youngs Moduli (GPa) = 93.75988 144.07322 73.77692
#
# Poissons Ratio (x) = 0.10417 0.10599
# Poissons Ratio (y) = 0.06779 0.10275
# Poissons Ratio (z) = 0.13470 0.20066
#
# Static dielectric constant tensor:
#      x y z
#    x 3.805580 -0.148820 -0.955460 
#    y -0.148820 4.171650 -0.318970 
#    z -0.955460 -0.318970 1.803150 
# 
# 
# High freq. dielectric constant tensor:
#      x y z
#    x 1.898340 -0.000110 0.009470 
#    y -0.000110 1.898060 0.009900 
#    z 0.009470 0.009900 1.881450 
# 
# From -- ./inp_files/82523.got.cif
#   From: 2010.06.25/outbox.cif.g09.slc.cpg/sg2_42_cif.got.tgz:82523.got - 2010.06.27 13:26:56.
