data_PCOD8036951
_publ_section_title
;
Structure prediction by ZEFSAII (Michael W. Deem and Ramdas Pophale) SiO2 
 PCOD8036951
Probable space group: P -1
;
_chemical_formula_sum "Si O2"
_cell_formula_units_Z 16
_cell_length_a 11.823976
_cell_length_b 8.775076
_cell_length_c 15.249455
_cell_angle_alpha 105.259291
_cell_angle_beta 65.680359
_cell_angle_gamma 50.061833
_cell_volume 724.819437
_symmetry_space_group_name_H-M "P -1"
_symmetry_group_IT_number 2
_symmetry_cell_setting 'triclinic'
loop_
_space_group_symop_operation_xyz
x,y,z
-x,-y,-z
loop_
_atom_site_type_symbol
_atom_site_label
_atom_site_fract_x
_atom_site_fract_y
_atom_site_fract_z
Si Si1 0.081755 0.648778 0.644919
Si Si2 0.215049 0.655892 0.913368
Si Si3 0.410533 0.425602 0.635505
Si Si4 0.866957 0.748202 0.347883
Si Si5 0.132547 0.730632 0.354461
Si Si6 0.366412 0.697539 0.156625
Si Si7 0.953812 0.688137 0.111646
Si Si8 0.443154 0.375637 0.352175
O O1 0.174393 0.682150 0.688959
O O2 0.127633 0.429942 0.639891
O O3 0.228502 0.518162 0.490006
O O4 0.799393 0.970597 0.762338
O O5 0.324983 0.451917 0.761405
O O6 0.444749 0.492987 0.854326
O O7 0.124463 0.642727 0.017902
O O8 0.000000 0.000000 0.000000
O O9 0.528961 0.470210 0.607473
O O10 0.594725 0.104513 0.481964
O O11 0.996790 0.603395 0.188490
O O12 0.989683 0.728072 0.377446
O O13 0.182623 0.759199 0.250306
O O14 0.381139 0.420268 0.276300
O O15 0.000000 0.000000 0.500000
O O16 0.500000 0.500000 0.000000
O O17 0.681903 0.026768 0.241956
O O18 0.000000 0.500000 0.000000
#
# Coordination Sequence:
#
# PCOD8036951 Si02
#       8
#     2   2   2   2   2   2   2   2
#     4  12  27  43  71 111 144 191 242 297 368 427
#     4  12  24  45  73 106 141 188 243 298 359 434
#     4  12  23  45  75 106 142 190 249 299 359 435
#     4  12  27  46  73 107 151 191 242 302 362 439
#     4  12  23  47  71 108 142 185 243 302 361 432
#     4  12  25  44  72 105 144 189 241 297 361 431
#     4  12  28  48  70 107 149 195 241 300 368 431
#     4  12  25  45  77 105 144 191 245 303 358 434
#
# _framework density 22.074463999999999
#
# number of rings (size 3 to 8) (size 9 to 14) (size 15 to 20)
#    0.000    0.000    6.250    3.000    3.500    2.500 
#    0.000    1.875    0.000    0.000    0.000    0.000 
#    0.000    0.000    0.000    0.000    0.000    0.000 
#
# Total GULP energy -198319.657023 kJ/mol
# GULP energy per Si atom -12394.978564 kJ/mol
# Density = 2.202422 g / cm^3
# Si number density = 22.074464 Si / 1000 Ang^3
#
#
#
# Elastic Constant Matrix: (Units=GPa)
#
#
# Indices 1 2 3 4 5 6 
#
# 1 103.5839 47.3021 31.7016 -1.3885 -1.2846 -6.0422
# 2 47.3021 119.5436 48.3452 -4.1273 -5.0989 5.9238
# 3 31.7016 48.3452 140.4397 -18.3205 -0.1958 10.9408
# 4 -1.3885 -4.1273 -18.3205 43.9336 -6.1090 -3.7903
# 5 -1.2846 -5.0989 -0.1958 -6.1090 33.1477 -3.6371
# 6 -6.0422 5.9238 10.9408 -3.7903 -3.6371 43.7472
#
#
#
# Elastic Compliance Matrix: (Units=1/GPa)
#
#
# Indices 1 2 3 4 5 6 
#
# 1 0.012270 -0.004385 -0.001521 -0.000431 0.000001 0.002632
# 2 -0.004385 0.011368 -0.002841 -0.000178 0.001383 -0.001335
# 3 -0.001521 -0.002841 0.009010 0.003282 -0.000035 -0.001797
# 4 -0.000431 -0.000178 0.003282 0.024907 0.004752 0.001697
# 5 0.000001 0.001383 -0.000035 0.004752 0.031570 0.002858
# 6 0.002632 -0.001335 -0.001797 0.001697 0.002858 0.024237
#
#
# Mechanical properties :
#
#
# Convention : Reuss Voigt Hill
#
# Bulk Modulus (GPa) = 65.99218 68.69612 67.34415
# Shear Modulus (GPa) = 36.78972 39.91361 38.35166
#
# Velocity S-wave (km/s) = 4.08685 4.25683 4.17271
# Velocity P-wave (km/s) = 7.22703 7.43966 7.33412
#
# Compressibility (1/GPa) = 0.01515331
#
# Stress axis : x y z
#
# Youngs Moduli (GPa) = 81.50081 87.96551 110.98738
#
# Poissons Ratio (x) = 0.38573 0.16887
# Poissons Ratio (y) = 0.35738 0.31530
# Poissons Ratio (z) = 0.12400 0.24990
#
# Static dielectric constant tensor:
#      x y z
#    x 1.941000 3.301330 0.799440 
#    y 3.301330 -1.961780 -1.792500 
#    z 0.799440 -1.792500 3.667050 
# 
# 
# High freq. dielectric constant tensor:
#      x y z
#    x 1.865610 -0.013680 -0.011820 
#    y -0.013680 1.881430 -0.014800 
#    z -0.011820 -0.014800 1.877280 
# 
# From -- ./inp_files/306600.got.cif
#   From: 2010.06.25/outbox.cif.g09.slc.cpg/sg2_154_cif.got.tgz:306600.got - 2010.06.27 13:26:56.
