data_PCOD8036806
_publ_section_title
;
Structure prediction by ZEFSAII (Michael W. Deem and Ramdas Pophale) SiO2 
 PCOD8036806
Probable space group: P -1
;
_chemical_formula_sum "Si O2"
_cell_formula_units_Z 16
_cell_length_a 9.590251
_cell_length_b 23.757020
_cell_length_c 9.590095
_cell_angle_alpha 127.525716
_cell_angle_beta 148.721659
_cell_angle_gamma 43.408511
_cell_volume 779.148475
_symmetry_space_group_name_H-M "P -1"
_symmetry_group_IT_number 2
_symmetry_cell_setting 'triclinic'
loop_
_space_group_symop_operation_xyz
x,y,z
-x,-y,-z
loop_
_atom_site_type_symbol
_atom_site_label
_atom_site_fract_x
_atom_site_fract_y
_atom_site_fract_z
Si Si1 0.162099 0.602033 0.633010
Si Si2 0.219554 0.748016 0.285067
Si Si3 0.857919 0.031861 0.078498
Si Si4 0.870526 0.859211 0.410920
Si Si5 0.842853 0.144155 0.868442
Si Si6 0.143325 0.211764 0.433178
Si Si7 0.889873 0.512622 0.083979
Si Si8 0.064344 0.363964 0.207186
O O1 0.995014 0.697974 0.607872
O O2 0.020886 0.563339 0.350876
O O3 0.104268 0.587017 0.721484
O O4 0.521458 0.563319 0.850938
O O5 0.192505 0.800616 0.208365
O O6 0.573211 0.691424 0.543118
O O7 0.033864 0.812240 0.341268
O O8 0.074891 0.691456 0.044155
O O9 0.991752 0.084471 0.340270
O O10 0.490977 0.084615 0.839723
O O11 0.955178 0.952435 0.139678
O O12 0.000000 0.000000 0.000000
O O13 0.943227 0.788582 0.480093
O O14 0.510749 0.162379 0.663384
O O15 0.011412 0.162636 0.164107
O O16 0.013388 0.425996 0.133196
O O17 0.000000 0.500000 0.000000
#
# Coordination Sequence:
#
# PCOD8036806 Si02
#       8
#     2   2   2   2   2   2   2   2
#     4  12  24  46  71  97 133 179 219 259 324 397
#     4  12  26  45  66 101 133 172 219 276 329 378
#     4  12  23  42  67  96 132 174 222 273 325 393
#     4  12  26  41  67 100 132 173 218 276 337 377
#     4  12  23  43  68  95 132 171 225 270 319 391
#     4  12  23  41  70  98 126 175 226 268 315 392
#     4  12  28  44  69 105 135 168 215 273 329 381
#     4  12  25  47  70  94 136 177 216 266 323 400
#
# _framework density 20.535238
#
# number of rings (size 3 to 8) (size 9 to 14) (size 15 to 20)
#    0.000    0.000    5.000    5.250    3.500    1.000 
#    0.000    0.000    0.000    0.000    0.000    0.000 
#    0.000    0.000    0.000    0.000    0.000    0.000 
#
# Total GULP energy -198489.480010 kJ/mol
# GULP energy per Si atom -12405.592501 kJ/mol
# Density = 2.048850 g / cm^3
# Si number density = 20.535238 Si / 1000 Ang^3
#
#
#
# Elastic Constant Matrix: (Units=GPa)
#
#
# Indices 1 2 3 4 5 6 
#
# 1 234.8728 21.8215 57.3383 0.4706 -32.9660 -7.7703
# 2 21.8215 112.6786 55.7580 2.9250 8.2932 5.1624
# 3 57.3383 55.7580 185.9247 10.9535 22.4435 -16.7159
# 4 0.4706 2.9250 10.9535 52.9033 -3.0796 -2.5712
# 5 -32.9660 8.2932 22.4435 -3.0796 47.6524 -6.4321
# 6 -7.7703 5.1624 -16.7159 -2.5712 -6.4321 51.1170
#
#
#
# Elastic Compliance Matrix: (Units=1/GPa)
#
#
# Indices 1 2 3 4 5 6 
#
# 1 0.005575 -0.000441 -0.002173 0.000765 0.005123 0.000865
# 2 -0.000441 0.010704 -0.003155 -0.000105 -0.001001 -0.002311
# 3 -0.002173 -0.003155 0.007799 -0.001589 -0.004474 0.001896
# 4 0.000765 -0.000105 -0.001589 0.019431 0.002676 0.000921
# 5 0.005123 -0.001001 -0.004474 0.002676 0.027389 0.002998
# 6 0.000865 -0.002311 0.001896 0.000921 0.002998 0.020971
#
#
# Mechanical properties :
#
#
# Convention : Reuss Voigt Hill
#
# Bulk Modulus (GPa) = 79.74201 89.25686 84.49943
# Shear Modulus (GPa) = 46.47456 56.90510 51.68983
#
# Velocity S-wave (km/s) = 4.76243 5.26983 5.02254
# Velocity P-wave (km/s) = 8.31607 8.97707 8.65288
#
# Compressibility (1/GPa) = 0.01254044
#
# Stress axis : x y z
#
# Youngs Moduli (GPa) = 179.36575 93.42705 128.22393
#
# Poissons Ratio (x) = 0.04120 0.27861
# Poissons Ratio (y) = 0.07910 0.40451
# Poissons Ratio (z) = 0.38974 0.29473
#
# Static dielectric constant tensor:
#      x y z
#    x 3.971680 0.088280 0.022100 
#    y 0.088280 4.051660 -0.021450 
#    z 0.022100 -0.021450 4.074980 
# 
# 
# High freq. dielectric constant tensor:
#      x y z
#    x 1.811620 0.009920 0.004780 
#    y 0.009920 1.820310 -0.001620 
#    z 0.004780 -0.001620 1.831360 
# 
# From -- ./inp_files/111631.got.cif
#   From: 2010.06.25/outbox.cif.g09.slc.cpg/sg2_56_cif.got.tgz:111631.got - 2010.06.27 13:26:56.
