data_PCOD8036594
_publ_section_title
;
Structure prediction by ZEFSAII (Michael W. Deem and Ramdas Pophale) SiO2 
 PCOD8036594
Probable space group: P -1
;
_chemical_formula_sum "Si O2"
_cell_formula_units_Z 16
_cell_length_a 8.840214
_cell_length_b 22.146667
_cell_length_c 7.969445
_cell_angle_alpha 58.002526
_cell_angle_beta 97.066888
_cell_angle_gamma 48.366662
_cell_volume 654.743398
_symmetry_space_group_name_H-M "P -1"
_symmetry_group_IT_number 2
_symmetry_cell_setting 'triclinic'
loop_
_space_group_symop_operation_xyz
x,y,z
-x,-y,-z
loop_
_atom_site_type_symbol
_atom_site_label
_atom_site_fract_x
_atom_site_fract_y
_atom_site_fract_z
Si Si1 0.812126 0.630990 0.672283
Si Si2 0.517550 0.511069 0.791467
Si Si3 0.254556 0.792067 0.934479
Si Si4 0.194827 0.226430 0.329725
Si Si5 0.556044 0.816052 0.889345
Si Si6 0.766542 0.221535 0.680362
Si Si7 0.834236 0.919245 0.379876
Si Si8 0.155305 0.534684 0.544146
O O1 0.820665 0.707572 0.627739
O O2 0.459803 0.752066 0.428535
O O3 0.981222 0.560772 0.622706
O O4 0.000000 0.500000 0.000000
O O5 0.430973 0.627104 0.577076
O O6 0.284475 0.557672 0.587428
O O7 0.500000 0.500000 0.000000
O O8 0.861599 0.356748 0.003199
O O9 0.087422 0.850612 0.007342
O O10 0.576479 0.622769 0.257477
O O11 0.312757 0.850668 0.809122
O O12 0.069023 0.833366 0.694386
O O13 0.457526 0.139441 0.358490
O O14 0.274952 0.118410 0.585243
O O15 0.459277 0.911598 0.879367
O O16 0.904455 0.649799 0.197968
O O17 0.026456 0.116579 0.728256
#
# Coordination Sequence:
#
# PCOD8036594 Si02
#       8
#     2   2   2   2   2   2   2   2
#     4  12  22  40  73 109 144 183 232 303 362 419
#     4  12  21  42  71 109 142 186 238 299 360 422
#     4  12  26  47  77 108 142 189 241 301 362 424
#     4  12  24  45  73 101 143 194 237 289 363 424
#     4  12  28  47  70 105 147 188 241 296 358 431
#     4  12  25  44  75 108 143 187 241 298 360 426
#     4  12  27  52  71 104 149 195 238 292 366 434
#     4  12  24  44  71 109 144 178 243 301 352 425
#
# _framework density 24.437051
#
# number of rings (size 3 to 8) (size 9 to 14) (size 15 to 20)
#    0.000    0.000    6.250    4.125    1.750    1.500 
#    2.250    1.250    0.000    0.000    0.000    0.000 
#    0.000    0.000    0.000    0.000    0.000    0.000 
#
# Total GULP energy -198454.019387 kJ/mol
# GULP energy per Si atom -12403.376212 kJ/mol
# Density = 2.438143 g / cm^3
# Si number density = 24.437051 Si / 1000 Ang^3
#
#
#
# Elastic Constant Matrix: (Units=GPa)
#
#
# Indices 1 2 3 4 5 6 
#
# 1 132.7358 43.3399 19.1502 15.9121 -22.1815 -0.7561
# 2 43.3399 122.6543 13.8798 8.5701 -15.7226 -28.9683
# 3 19.1502 13.8798 47.5979 -1.2700 1.2331 -6.3572
# 4 15.9121 8.5701 -1.2700 41.6388 2.9910 -12.5075
# 5 -22.1815 -15.7226 1.2331 2.9910 13.2357 7.9793
# 6 -0.7561 -28.9683 -6.3572 -12.5075 7.9793 56.7315
#
#
#
# Elastic Compliance Matrix: (Units=1/GPa)
#
#
# Indices 1 2 3 4 5 6 
#
# 1 0.016257 -0.001774 -0.008378 -0.011186 0.033779 -0.008845
# 2 -0.001774 0.011112 -0.002235 -0.001069 0.008264 0.004002
# 3 -0.008378 -0.002235 0.026881 0.008476 -0.025462 0.007209
# 4 -0.011186 -0.001069 0.008476 0.035385 -0.036778 0.013229
# 5 0.033779 0.008264 -0.025462 -0.036778 0.170950 -0.030336
# 6 -0.008845 0.004002 0.007209 0.013229 -0.030336 0.027544
#
#
# Mechanical properties :
#
#
# Convention : Reuss Voigt Hill
#
# Bulk Modulus (GPa) = 33.92640 50.63645 42.28142
# Shear Modulus (GPa) = 15.49297 37.42907 26.46102
#
# Velocity S-wave (km/s) = 2.52066 3.91788 3.29420
# Velocity P-wave (km/s) = 4.73127 6.42126 5.63992
#
# Compressibility (1/GPa) = 0.02947557
#
# Stress axis : x y z
#
# Youngs Moduli (GPa) = 61.51179 89.99406 37.20168
#
# Poissons Ratio (x) = 0.15963 0.31169
# Poissons Ratio (y) = 0.10911 0.08314
# Poissons Ratio (z) = 0.51537 0.20111
#
# Static dielectric constant tensor:
#      x y z
#    x 3.323780 -0.396740 1.032520 
#    y -0.396740 4.426040 0.234280 
#    z 1.032520 0.234280 3.376400 
# 
# 
# High freq. dielectric constant tensor:
#      x y z
#    x 1.993710 -0.004770 -0.009820 
#    y -0.004770 1.978360 0.000250 
#    z -0.009820 0.000250 1.957560 
# 
# From -- ./inp_files/223449.got.cif
#   From: 2010.06.25/outbox.cif.g09.slc.cpg/sg2_112_cif.got.tgz:223449.got - 2010.06.27 13:26:56.
