data_PCOD8036643
_publ_section_title
;
Structure prediction by ZEFSAII (Michael W. Deem and Ramdas Pophale) SiO2 
 PCOD8036643
Probable space group: P -1
;
_chemical_formula_sum "Si O2"
_cell_formula_units_Z 16
_cell_length_a 12.656549
_cell_length_b 12.229699
_cell_length_c 12.054597
_cell_angle_alpha 156.318604
_cell_angle_beta 76.076089
_cell_angle_gamma 99.418082
_cell_volume 719.666797
_symmetry_space_group_name_H-M "P -1"
_symmetry_group_IT_number 2
_symmetry_cell_setting 'triclinic'
loop_
_space_group_symop_operation_xyz
x,y,z
-x,-y,-z
loop_
_atom_site_type_symbol
_atom_site_label
_atom_site_fract_x
_atom_site_fract_y
_atom_site_fract_z
Si Si1 0.850636 0.529693 0.263416
Si Si2 0.661490 0.765948 0.372121
Si Si3 0.391674 0.876939 0.942078
Si Si4 0.541185 0.287067 0.988260
Si Si5 0.730322 0.542748 0.519779
Si Si6 0.214958 0.089106 0.741061
Si Si7 0.981147 0.007980 0.642613
Si Si8 0.713241 0.491652 0.725347
O O1 0.740274 0.694981 0.391689
O O2 0.825549 0.432336 0.304306
O O3 0.945385 0.721351 0.423002
O O4 0.887723 0.262355 0.930657
O O5 0.565435 0.012973 0.655232
O O6 0.735157 0.840526 0.322561
O O7 0.595049 0.520128 0.125715
O O8 0.371976 0.629028 0.633876
O O9 0.396633 0.751156 0.946017
O O10 0.500000 0.000000 0.000000
O O11 0.294523 0.131097 0.191901
O O12 0.411598 0.357263 0.105091
O O13 0.767741 0.490289 0.588359
O O14 0.285882 0.818317 0.522125
O O15 0.090300 0.041486 0.713063
O O16 0.214914 0.345696 0.061392
O O17 0.000000 0.000000 0.500000
#
# Coordination Sequence:
#
# PCOD8036643 Si02
#       8
#     2   2   2   2   2   2   2   2
#     4  12  24  44  73 113 131 166 229 310 353 388
#     4  12  25  42  72 105 142 173 230 297 339 404
#     4  12  22  38  68 102 138 182 237 281 322 399
#     4  12  24  41  68 107 142 184 229 276 345 399
#     4  12  25  43  69 103 144 181 228 287 340 399
#     4  12  28  48  68  98 139 186 239 278 348 421
#     4  12  26  46  78 103 131 172 233 299 360 400
#     4  12  28  46  67  97 149 198 225 264 338 432
#
# _framework density 22.232510000000001
#
# number of rings (size 3 to 8) (size 9 to 14) (size 15 to 20)
#    0.000    0.000    5.000    5.250    3.500    3.000 
#    0.000    3.750    0.000    0.000    0.000    0.000 
#    0.000    0.000    0.000    0.000    0.000    0.000 
#
# Total GULP energy -198509.560403 kJ/mol
# GULP energy per Si atom -12406.847525 kJ/mol
# Density = 2.218191 g / cm^3
# Si number density = 22.232510 Si / 1000 Ang^3
#
#
#
# Elastic Constant Matrix: (Units=GPa)
#
#
# Indices 1 2 3 4 5 6 
#
# 1 57.2561 34.2325 10.7636 -3.1017 5.2630 10.1758
# 2 34.2325 120.9351 36.8434 -8.9566 6.2136 17.6333
# 3 10.7636 36.8434 88.9477 2.8033 -9.0582 7.7595
# 4 -3.1017 -8.9566 2.8033 39.9497 2.4509 -0.8349
# 5 5.2630 6.2136 -9.0582 2.4509 35.8474 1.5442
# 6 10.1758 17.6333 7.7595 -0.8349 1.5442 30.0093
#
#
#
# Elastic Compliance Matrix: (Units=1/GPa)
#
#
# Indices 1 2 3 4 5 6 
#
# 1 0.021633 -0.005284 -0.000321 0.000569 -0.002207 -0.004018
# 2 -0.005284 0.011967 -0.004302 0.002639 -0.002397 -0.003931
# 3 -0.000321 -0.004302 0.013692 -0.002249 0.004458 -0.001196
# 4 0.000569 0.002639 -0.002249 0.025995 -0.002874 -0.000291
# 5 -0.002207 -0.002397 0.004458 -0.002874 0.029985 -0.000619
# 6 -0.004018 -0.003931 -0.001196 -0.000291 -0.000619 0.037328
#
#
# Mechanical properties :
#
#
# Convention : Reuss Voigt Hill
#
# Bulk Modulus (GPa) = 36.39286 47.86867 42.13077
# Shear Modulus (GPa) = 29.48549 33.51457 31.50003
#
# Velocity S-wave (km/s) = 3.64570 3.88681 3.76818
# Velocity P-wave (km/s) = 5.84177 6.45916 6.15821
#
# Compressibility (1/GPa) = 0.02747792
#
# Stress axis : x y z
#
# Youngs Moduli (GPa) = 46.22577 83.56300 73.03283
#
# Poissons Ratio (x) = 0.44157 0.02346
# Poissons Ratio (y) = 0.24427 0.31417
# Poissons Ratio (z) = 0.01485 0.35947
#
# Static dielectric constant tensor:
#      x y z
#    x 3.878310 0.006530 0.029460 
#    y 0.006530 4.218060 0.137630 
#    z 0.029460 0.137630 4.399420 
# 
# 
# High freq. dielectric constant tensor:
#      x y z
#    x 1.859280 0.011130 0.006990 
#    y 0.011130 1.882340 0.005220 
#    z 0.006990 0.005220 1.897820 
# 
# From -- ./inp_files/452690.got.cif
#   From: 2010.06.25/outbox.cif.g09.slc.cpg/sg2_227_cif.got.tgz:452690.got - 2010.06.27 13:26:56.
