data_PCOD8036432
_publ_section_title
;
Structure prediction by ZEFSAII (Michael W. Deem and Ramdas Pophale) SiO2 
 PCOD8036432
Probable space group: P -1
;
_chemical_formula_sum "Si O2"
_cell_formula_units_Z 12
_cell_length_a 5.838500
_cell_length_b 16.463294
_cell_length_c 12.340671
_cell_angle_alpha 24.413154
_cell_angle_beta 104.473029
_cell_angle_gamma 112.764328
_cell_volume 435.450746
_symmetry_space_group_name_H-M "P -1"
_symmetry_group_IT_number 2
_symmetry_cell_setting 'triclinic'
loop_
_space_group_symop_operation_xyz
x,y,z
-x,-y,-z
loop_
_atom_site_type_symbol
_atom_site_label
_atom_site_fract_x
_atom_site_fract_y
_atom_site_fract_z
Si Si1 0.844016 0.152222 0.556090
Si Si2 0.616253 0.464743 0.169998
Si Si3 0.538487 0.288655 0.975740
Si Si4 0.736794 0.312323 0.739945
Si Si5 0.780893 0.886747 0.199067
Si Si6 0.907296 0.188605 0.274566
O O1 0.618967 0.229848 0.475366
O O2 0.929416 0.249650 0.328764
O O3 0.104606 0.239976 0.551485
O O4 0.739454 0.893824 0.867691
O O5 0.500000 0.500000 0.000000
O O6 0.486382 0.518432 0.194256
O O7 0.917772 0.613709 0.018802
O O8 0.628386 0.144332 0.245432
O O9 0.708519 0.377498 0.780910
O O10 0.483703 0.293206 0.663405
O O11 0.000000 0.500000 0.500000
O O12 0.732933 0.075475 0.026242
O O13 0.000000 0.000000 0.000000
O O14 0.000000 0.000000 0.500000
#
# Coordination Sequence:
#
# PCOD8036432 Si02
#       6
#     2   2   2   2   2   2
#     4  12  25  51  82 118 167 214 271 356 412 507
#     4  12  27  49  77 124 164 216 276 334 432 508
#     4  12  26  52  80 117 164 217 275 346 426 495
#     4  11  28  57  86 118 167 225 286 352 422 502
#     4  11  26  57  82 122 165 219 290 350 421 495
#     4  12  24  46  77 119 161 206 272 337 423 501
#
# _framework density 27.557651
#
# number of rings (size 3 to 8) (size 9 to 14) (size 15 to 20)
#    0.000    0.333    5.000    3.000    0.000    2.000 
#    9.000    0.833    0.000    0.000    0.000    0.000 
#    0.000    0.000    0.000    0.000    0.000    0.000 
#
# Total GULP energy -148797.186992 kJ/mol
# GULP energy per Si atom -12399.765583 kJ/mol
# Density = 2.749493 g / cm^3
# Si number density = 27.557651 Si / 1000 Ang^3
#
#
#
# Elastic Constant Matrix: (Units=GPa)
#
#
# Indices 1 2 3 4 5 6 
#
# 1 151.5741 101.2229 48.0313 13.1383 16.5734 1.2598
# 2 101.2229 210.1307 62.3782 19.9697 14.6517 -16.9490
# 3 48.0313 62.3782 88.5509 13.6035 -10.6334 -3.0771
# 4 13.1383 19.9697 13.6035 49.2512 -0.9029 5.1085
# 5 16.5734 14.6517 -10.6334 -0.9029 75.7894 1.8779
# 6 1.2598 -16.9490 -3.0771 5.1085 1.8779 67.1483
#
#
#
# Elastic Compliance Matrix: (Units=1/GPa)
#
#
# Indices 1 2 3 4 5 6 
#
# 1 0.010566 -0.004135 -0.003064 -0.000195 -0.001911 -0.001314
# 2 -0.004135 0.008139 -0.003328 -0.001521 -0.001207 0.002129
# 3 -0.003064 -0.003328 0.016064 -0.002208 0.003540 0.000023
# 4 -0.000195 -0.001521 -0.002208 0.021812 0.000340 -0.002150
# 5 -0.001911 -0.001207 0.003540 0.000340 0.014360 -0.000534
# 6 -0.001314 0.002129 0.000023 -0.002150 -0.000534 0.015634
#
#
# Mechanical properties :
#
#
# Convention : Reuss Voigt Hill
#
# Bulk Modulus (GPa) = 72.90556 97.05783 84.98170
# Shear Modulus (GPa) = 44.56320 54.34601 49.45461
#
# Velocity S-wave (km/s) = 4.02567 4.44563 4.24085
# Velocity P-wave (km/s) = 6.93694 7.85162 7.40841
#
# Compressibility (1/GPa) = 0.01371637
#
# Stress axis : x y z
#
# Youngs Moduli (GPa) = 94.64134 122.86534 62.24970
#
# Poissons Ratio (x) = 0.50800 0.19073
# Poissons Ratio (y) = 0.39130 0.20717
# Poissons Ratio (z) = 0.28998 0.40890
#
# Static dielectric constant tensor:
#      x y z
#    x 5.788590 0.082250 0.076930 
#    y 0.082250 5.458440 -0.476340 
#    z 0.076930 -0.476340 5.912470 
# 
# 
# High freq. dielectric constant tensor:
#      x y z
#    x 2.126330 0.003560 -0.000790 
#    y 0.003560 2.123910 -0.001650 
#    z -0.000790 -0.001650 2.116160 
# 
# From -- ./inp_files/367341.got.cif
#   From: 2010.06.25/outbox.cif.g09.slc.cpg/sg2_184_cif.got.tgz:367341.got - 2010.06.27 13:26:56.
