data_PCOD8036452
_publ_section_title
;
Structure prediction by ZEFSAII (Michael W. Deem and Ramdas Pophale) SiO2 
 PCOD8036452
Probable space group: P -1
;
_chemical_formula_sum "Si O2"
_cell_formula_units_Z 16
_cell_length_a 9.523139
_cell_length_b 17.768510
_cell_length_c 21.256512
_cell_angle_alpha 18.699610
_cell_angle_beta 40.961336
_cell_angle_gamma 42.444749
_cell_volume 751.565530
_symmetry_space_group_name_H-M "P -1"
_symmetry_group_IT_number 2
_symmetry_cell_setting 'triclinic'
loop_
_space_group_symop_operation_xyz
x,y,z
-x,-y,-z
loop_
_atom_site_type_symbol
_atom_site_label
_atom_site_fract_x
_atom_site_fract_y
_atom_site_fract_z
Si Si1 0.873175 0.362852 0.988954
Si Si2 0.356243 0.904971 0.816849
Si Si3 0.391568 0.686845 0.337880
Si Si4 0.636686 0.768791 0.067870
Si Si5 0.938289 0.631392 0.481039
Si Si6 0.194344 0.093347 0.394716
Si Si7 0.441779 0.596338 0.145785
Si Si8 0.671260 0.169086 0.328088
O O1 0.713158 0.321825 0.017965
O O2 0.818302 0.205117 0.190689
O O3 0.830465 0.628833 0.814073
O O4 0.119430 0.291685 0.943895
O O5 0.576527 0.994102 0.645696
O O6 0.165553 0.110722 0.708048
O O7 0.382261 0.835947 0.936012
O O8 0.500000 0.500000 0.500000
O O9 0.497663 0.652739 0.259970
O O10 0.141173 0.651421 0.442179
O O11 0.423206 0.950353 0.141838
O O12 0.595118 0.647842 0.111123
O O13 0.777282 0.491170 0.686455
O O14 0.000000 0.500000 0.500000
O O15 0.171381 0.980442 0.559532
O O16 0.000000 0.000000 0.500000
O O17 0.569239 0.410854 0.202673
O O18 0.500000 0.000000 0.500000
#
# Coordination Sequence:
#
# PCOD8036452 Si02
#       8
#     2   2   2   2   2   2   2   2
#     4  12  25  46  71 101 147 192 234 290 353 422
#     4  12  26  47  69 104 146 187 238 288 355 422
#     4  11  27  51  74 101 142 186 235 296 364 416
#     4  11  27  47  69 109 143 179 240 297 350 425
#     4  12  26  48  74 104 139 184 239 297 350 428
#     4  12  26  42  69 103 142 189 237 288 348 418
#     4  12  26  43  73 102 143 184 235 292 353 413
#     4  12  24  45  70 101 143 190 238 286 345 423
#
# _framework density 21.288896000000001
#
# number of rings (size 3 to 8) (size 9 to 14) (size 15 to 20)
#    0.000    0.250    6.250    1.875    5.250    2.500 
#    0.000    0.000    0.000    0.000    0.000    0.000 
#    0.000    0.000    0.000    0.000    0.000    0.000 
#
# Total GULP energy -198473.894670 kJ/mol
# GULP energy per Si atom -12404.618417 kJ/mol
# Density = 2.124044 g / cm^3
# Si number density = 21.288896 Si / 1000 Ang^3
#
#
#
# Elastic Constant Matrix: (Units=GPa)
#
#
# Indices 1 2 3 4 5 6 
#
# 1 148.2816 22.9195 36.9424 -1.1397 -4.2641 -8.2105
# 2 22.9195 -10.0910 12.6905 16.8262 -41.1068 11.5112
# 3 36.9424 12.6905 85.0084 -0.1102 10.2193 -8.1654
# 4 -1.1397 16.8262 -0.1102 35.2279 4.5314 -4.4458
# 5 -4.2641 -41.1068 10.2193 4.5314 33.0378 7.0779
# 6 -8.2105 11.5112 -8.1654 -4.4458 7.0779 36.2139
#
#
#
# Elastic Compliance Matrix: (Units=1/GPa)
#
#
# Indices 1 2 3 4 5 6 
#
# 1 0.007680 0.000550 -0.003753 -0.000380 0.002864 0.000114
# 2 0.000550 -0.009289 0.003755 0.007429 -0.015346 0.007835
# 3 -0.003753 0.003755 0.012843 -0.001849 0.000349 0.000556
# 4 -0.000380 0.007429 -0.001849 0.023788 0.006776 -0.001268
# 5 0.002864 -0.015346 0.000349 0.006776 0.009527 0.004576
# 6 0.000114 0.007835 0.000556 -0.001268 0.004576 0.024224
#
#
# Mechanical properties :
#
#
# Convention : Reuss Voigt Hill
#
# Bulk Modulus (GPa) = 81.06037 40.92263 60.99150
# Shear Modulus (GPa) = 69.65435 30.93903 50.29669
#
# Velocity S-wave (km/s) = 5.72623 3.81635 4.86591
# Velocity P-wave (km/s) = 9.04868 6.21961 7.76409
#
# Compressibility (1/GPa) = 0.01233648
#
# Stress axis : x y z
#
# Youngs Moduli (GPa) = 130.21224 -107.65424 77.86217
#
# Poissons Ratio (x) = 0.05921 0.29225
# Poissons Ratio (y) = -0.07162 -0.29235
# Poissons Ratio (z) = 0.48875 0.40421
#
# Static dielectric constant tensor:
#      x y z
#    x 4.222500 0.127510 -0.190660 
#    y 0.127510 4.015000 0.027070 
#    z -0.190660 0.027070 3.663080 
# 
# 
# High freq. dielectric constant tensor:
#      x y z
#    x 1.850280 -0.001390 -0.000980 
#    y -0.001390 1.838220 0.001920 
#    z -0.000980 0.001920 1.850400 
# 
# From -- ./inp_files/187083.got.cif
#   From: 2010.06.25/outbox.cif.g09.slc.cpg/sg2_94_cif.got.tgz:187083.got - 2010.06.27 13:26:56.
