data_PCOD8036883
_publ_section_title
;
Structure prediction by ZEFSAII (Michael W. Deem and Ramdas Pophale) SiO2 
 PCOD8036883
Probable space group: P -1
;
_chemical_formula_sum "Si O2"
_cell_formula_units_Z 16
_cell_length_a 6.645296
_cell_length_b 19.523776
_cell_length_c 11.048047
_cell_angle_alpha 29.271969
_cell_angle_beta 93.219822
_cell_angle_gamma 95.714060
_cell_volume 695.992401
_symmetry_space_group_name_H-M "P -1"
_symmetry_group_IT_number 2
_symmetry_cell_setting 'triclinic'
loop_
_space_group_symop_operation_xyz
x,y,z
-x,-y,-z
loop_
_atom_site_type_symbol
_atom_site_label
_atom_site_fract_x
_atom_site_fract_y
_atom_site_fract_z
Si Si1 0.374962 0.709552 0.884610
Si Si2 0.641422 0.595311 0.269537
Si Si3 0.600505 0.860744 0.227060
Si Si4 0.898672 0.547625 0.804721
Si Si5 0.297567 0.244568 0.373692
Si Si6 0.100495 0.171542 0.929890
Si Si7 0.066747 0.922811 0.503098
Si Si8 0.785240 0.333547 0.553585
O O1 0.509020 0.702977 0.779785
O O2 0.272777 0.856237 0.649704
O O3 0.514054 0.695199 0.028673
O O4 0.199426 0.580664 0.081756
O O5 0.500000 0.500000 0.500000
O O6 0.786787 0.699751 0.192557
O O7 0.772473 0.491029 0.361272
O O8 0.666074 0.879897 0.341045
O O9 0.789640 0.856190 0.150009
O O10 0.438006 0.726675 0.402202
O O11 0.500000 0.000000 0.000000
O O12 0.723228 0.635601 0.710923
O O13 0.062504 0.648340 0.581666
O O14 0.000000 0.500000 0.000000
O O15 0.103857 0.203288 0.345077
O O16 0.877770 0.222396 0.819021
O O17 0.095200 0.030472 0.226646
O O18 0.000000 0.000000 0.500000
#
# Coordination Sequence:
#
# PCOD8036883 Si02
#       8
#     2   2   2   2   2   2   2   2
#     4  12  27  48  73 106 148 187 240 300 359 427
#     4  12  26  48  76 105 143 191 241 298 362 419
#     4  12  26  44  74 108 148 190 236 294 360 427
#     4  12  23  43  76 106 142 184 236 297 361 419
#     4  12  25  48  71 108 144 185 241 294 363 424
#     4  12  27  48  73 107 147 192 241 294 358 430
#     4  12  30  48  74 106 143 198 241 289 355 432
#     4  12  26  47  74 110 145 186 244 298 361 425
#
# _framework density 22.988758000000001
#
# number of rings (size 3 to 8) (size 9 to 14) (size 15 to 20)
#    0.000    0.000    3.750    6.000    5.250    4.000 
#    0.000    0.000    0.000    0.000    0.000    0.000 
#    0.000    0.000    0.000    0.000    0.000    0.000 
#
# Total GULP energy -198382.165043 kJ/mol
# GULP energy per Si atom -12398.885315 kJ/mol
# Density = 2.293643 g / cm^3
# Si number density = 22.988758 Si / 1000 Ang^3
#
#
#
# Elastic Constant Matrix: (Units=GPa)
#
#
# Indices 1 2 3 4 5 6 
#
# 1 98.1856 25.2328 38.2378 9.5329 12.9953 -13.8105
# 2 25.2328 83.8470 17.1829 8.8803 1.3056 -5.8635
# 3 38.2378 17.1829 121.2378 17.9289 19.7894 -12.3186
# 4 9.5329 8.8803 17.9289 46.7328 1.9044 -0.0554
# 5 12.9953 1.3056 19.7894 1.9044 50.7768 4.0060
# 6 -13.8105 -5.8635 -12.3186 -0.0554 4.0060 37.1828
#
#
#
# Elastic Compliance Matrix: (Units=1/GPa)
#
#
# Indices 1 2 3 4 5 6 
#
# 1 0.012943 -0.002936 -0.002760 -0.000920 -0.002418 0.003689
# 2 -0.002936 0.013173 -0.000747 -0.001646 0.000714 0.000660
# 3 -0.002760 -0.000747 0.010541 -0.003194 -0.003477 0.002719
# 4 -0.000920 -0.001646 -0.003194 0.023090 0.000792 -0.001710
# 5 -0.002418 0.000714 -0.003477 0.000792 0.021959 -0.004302
# 6 0.003689 0.000660 0.002719 -0.001710 -0.004302 0.029730
#
#
# Mechanical properties :
#
#
# Convention : Reuss Voigt Hill
#
# Bulk Modulus (GPa) = 42.07140 51.61972 46.84556
# Shear Modulus (GPa) = 37.80861 41.77960 39.79410
#
# Velocity S-wave (km/s) = 4.05984 4.26771 4.16507
# Velocity P-wave (km/s) = 6.34956 6.84014 6.59941
#
# Compressibility (1/GPa) = 0.02376911
#
# Stress axis : x y z
#
# Youngs Moduli (GPa) = 77.26457 75.91569 94.86852
#
# Poissons Ratio (x) = 0.22290 0.26187
# Poissons Ratio (y) = 0.22686 0.07086
# Poissons Ratio (z) = 0.21328 0.05670
#
# Static dielectric constant tensor:
#      x y z
#    x 3.433580 -0.169250 0.563880 
#    y -0.169250 4.287750 0.442520 
#    z 0.563880 0.442520 3.790830 
# 
# 
# High freq. dielectric constant tensor:
#      x y z
#    x 1.917360 -0.000850 0.012960 
#    y -0.000850 1.913060 0.005970 
#    z 0.012960 0.005970 1.929070 
# 
# From -- ./inp_files/70712.got.cif
#   From: 2010.06.25/outbox.cif.g09.slc.cpg/sg2_36_cif.got.tgz:70712.got - 2010.06.27 13:26:56.
