data_PCOD8036336
_publ_section_title
;
Structure prediction by ZEFSAII (Michael W. Deem and Ramdas Pophale) SiO2 
 PCOD8036336
Probable space group: P -1
;
_chemical_formula_sum "Si O2"
_cell_formula_units_Z 14
_cell_length_a 19.076778
_cell_length_b 5.015291
_cell_length_c 18.965244
_cell_angle_alpha 69.646533
_cell_angle_beta 156.668088
_cell_angle_gamma 121.748783
_cell_volume 559.587239
_symmetry_space_group_name_H-M "P -1"
_symmetry_group_IT_number 2
_symmetry_cell_setting 'triclinic'
loop_
_space_group_symop_operation_xyz
x,y,z
-x,-y,-z
loop_
_atom_site_type_symbol
_atom_site_label
_atom_site_fract_x
_atom_site_fract_y
_atom_site_fract_z
Si Si1 0.300877 0.319054 0.658436
Si Si2 0.824068 0.807977 0.224500
Si Si3 0.195851 0.858952 0.343958
Si Si4 0.552340 0.858159 0.731940
Si Si5 0.062487 0.902589 0.841213
Si Si6 0.852969 0.131414 0.862104
Si Si7 0.572876 0.184781 0.144076
O O1 0.400935 0.474412 0.659388
O O2 0.350011 0.625640 0.726972
O O3 0.413185 0.142145 0.811037
O O4 0.048599 0.056487 0.446881
O O5 0.853844 0.803776 0.167873
O O6 0.722065 0.429039 0.195852
O O7 0.669163 0.937367 0.084948
O O8 0.417063 0.026442 0.576590
O O9 0.236724 0.861680 0.297951
O O10 0.080063 0.049512 0.238943
O O11 0.061741 0.460665 0.279470
O O12 0.652030 0.856840 0.749182
O O13 0.744562 0.086571 0.942544
O O14 0.000000 0.500000 0.000000
O O15 0.000000 0.000000 0.000000
#
# Coordination Sequence:
#
# PCOD8036336 Si02
#       7
#     2   2   2   2   2   2   2
#     4  12  27  45  74 106 144 187 243 295 353 428
#     4  11  26  48  74 104 147 189 241 294 360 420
#     4  12  27  49  73 107 143 191 233 294 359 422
#     4  12  27  47  77 105 146 190 240 289 365 417
#     4  12  27  45  74 105 146 186 240 296 349 428
#     4  12  25  48  75 105 146 185 235 295 352 424
#     4  11  28  47  72 107 143 192 236 298 359 423
#
# _framework density 25.018439000000001
#
# number of rings (size 3 to 8) (size 9 to 14) (size 15 to 20)
#    0.000    0.286    5.714    1.286    4.000    8.000 
#    0.000    2.857    0.000    0.000    0.000    0.000 
#    0.000    0.000    0.000    0.000    0.000    0.000 
#
# Total GULP energy -173614.780268 kJ/mol
# GULP energy per Si atom -12401.055733 kJ/mol
# Density = 2.496150 g / cm^3
# Si number density = 25.018439 Si / 1000 Ang^3
#
#
#
# Elastic Constant Matrix: (Units=GPa)
#
#
# Indices 1 2 3 4 5 6 
#
# 1 110.6487 35.0410 29.3420 2.4074 1.0341 24.1602
# 2 35.0410 76.3036 23.5577 -13.9759 6.1730 15.4080
# 3 29.3420 23.5577 144.7366 -25.6153 9.4041 1.8615
# 4 2.4074 -13.9759 -25.6153 26.2473 16.1330 1.1202
# 5 1.0341 6.1730 9.4041 16.1330 32.8276 2.8868
# 6 24.1602 15.4080 1.8615 1.1202 2.8868 55.9767
#
#
#
# Elastic Compliance Matrix: (Units=1/GPa)
#
#
# Indices 1 2 3 4 5 6 
#
# 1 0.014346 -0.008472 -0.005566 -0.018605 0.012225 -0.003933
# 2 -0.008472 0.023159 0.004554 0.029858 -0.019851 -0.002443
# 3 -0.005566 0.004554 0.013102 0.026449 -0.017528 0.001088
# 4 -0.018605 0.029858 0.026449 0.127903 -0.075486 0.000265
# 5 0.012225 -0.019851 -0.017528 -0.075486 0.076073 -0.001642
# 6 -0.003933 -0.002443 0.001088 0.000265 -0.001642 0.020278
#
#
# Mechanical properties :
#
#
# Convention : Reuss Voigt Hill
#
# Bulk Modulus (GPa) = 31.60750 56.39669 44.00209
# Shear Modulus (GPa) = 16.42713 39.26020 27.84367
#
# Velocity S-wave (km/s) = 2.56520 3.96567 3.33967
# Velocity P-wave (km/s) = 4.62977 6.59998 5.70064
#
# Compressibility (1/GPa) = 0.03163806
#
# Stress axis : x y z
#
# Youngs Moduli (GPa) = 69.70639 43.18061 76.32363
#
# Poissons Ratio (x) = 0.36584 0.42480
# Poissons Ratio (y) = 0.59057 -0.34756
# Poissons Ratio (z) = 0.38797 -0.19663
#
# Static dielectric constant tensor:
#      x y z
#    x 4.820530 0.659450 0.081870 
#    y 0.659450 4.380230 -0.056480 
#    z 0.081870 -0.056480 4.744190 
# 
# 
# High freq. dielectric constant tensor:
#      x y z
#    x 2.000630 0.028520 -0.002090 
#    y 0.028520 1.986450 -0.008460 
#    z -0.002090 -0.008460 2.017140 
# 
# From -- ./inp_files/600748.got.cif
#   From: 2010.06.25/outbox.cif.g09.slc.cpg/sg2_301_cif.got.tgz:600748.got - 2010.06.27 13:26:56.
