data_PCOD8036488
_publ_section_title
;
Structure prediction by ZEFSAII (Michael W. Deem and Ramdas Pophale) SiO2 
 PCOD8036488
Probable space group: P -1
;
_chemical_formula_sum "Si O2"
_cell_formula_units_Z 16
_cell_length_a 15.495093
_cell_length_b 8.724778
_cell_length_c 12.055019
_cell_angle_alpha 55.879114
_cell_angle_beta 134.116204
_cell_angle_gamma 96.830884
_cell_volume 861.616110
_symmetry_space_group_name_H-M "P -1"
_symmetry_group_IT_number 2
_symmetry_cell_setting 'triclinic'
loop_
_space_group_symop_operation_xyz
x,y,z
-x,-y,-z
loop_
_atom_site_type_symbol
_atom_site_label
_atom_site_fract_x
_atom_site_fract_y
_atom_site_fract_z
Si Si1 0.681347 0.474185 0.120939
Si Si2 0.467423 0.766871 0.969613
Si Si3 0.901427 0.361218 0.751649
Si Si4 0.899056 0.469172 0.170197
Si Si5 0.926709 0.725304 0.400127
Si Si6 0.104595 0.853080 0.385160
Si Si7 0.689763 0.779226 0.301572
Si Si8 0.965768 0.310830 0.065504
O O1 0.623240 0.350665 0.042322
O O2 0.759894 0.562760 0.076537
O O3 0.773537 0.320178 0.364131
O O4 0.556397 0.676711 0.975652
O O5 0.366175 0.009667 0.763723
O O6 0.565153 0.735525 0.173906
O O7 0.877971 0.217264 0.699339
O O8 0.788503 0.598407 0.543181
O O9 0.048965 0.355739 0.870969
O O10 0.888398 0.290316 0.894252
O O11 0.878707 0.371859 0.076046
O O12 0.010006 0.281372 0.418985
O O13 0.768219 0.793123 0.252768
O O14 0.000000 0.500000 0.500000
O O15 0.958903 0.879091 0.289190
O O16 0.095927 0.082750 0.290988
O O17 0.000000 0.500000 0.000000
#
# Coordination Sequence:
#
# PCOD8036488 Si02
#       8
#     2   2   2   2   2   2   2   2
#     4  10  21  34  53  85 113 135 179 225 280 323
#     4  10  21  33  51  82 110 149 175 219 271 324
#     4  10  19  37  56  79 111 144 179 218 269 333
#     4   9  19  34  54  81 112 135 171 229 280 322
#     4  10  17  31  57  86 111 133 170 228 288 327
#     4  11  20  33  59  83 110 142 172 228 283 326
#     4  10  19  34  55  80 111 144 178 220 272 323
#     4  10  23  35  51  85 110 145 180 218 280 324
#
# _framework density 18.569755000000001
#
# number of rings (size 3 to 8) (size 9 to 14) (size 15 to 20)
#    0.000    2.000    3.750    1.125    7.000    1.000 
#    0.000    0.000    0.000    1.500    0.000    0.000 
#    0.000    0.000    0.000    0.000    0.000    0.000 
#
# Total GULP energy -198229.292959 kJ/mol
# GULP energy per Si atom -12389.330810 kJ/mol
# Density = 1.852749 g / cm^3
# Si number density = 18.569755 Si / 1000 Ang^3
#
#
#
# Elastic Constant Matrix: (Units=GPa)
#
#
# Indices 1 2 3 4 5 6 
#
# 1 67.4522 40.4371 39.8470 4.9310 1.3263 -14.8928
# 2 40.4371 100.8160 29.5557 -9.0768 3.3067 -11.8756
# 3 39.8470 29.5557 55.2958 -6.6959 -0.5712 -9.8013
# 4 4.9310 -9.0768 -6.6959 35.2668 -6.1810 2.4917
# 5 1.3263 3.3067 -0.5712 -6.1810 28.3753 7.3097
# 6 -14.8928 -11.8756 -9.8013 2.4917 7.3097 28.7504
#
#
#
# Elastic Compliance Matrix: (Units=1/GPa)
#
#
# Indices 1 2 3 4 5 6 
#
# 1 0.035315 -0.007652 -0.021074 -0.012855 -0.006761 0.010781
# 2 -0.007652 0.013877 -0.001192 0.004216 -0.000665 0.001165
# 3 -0.021074 -0.001192 0.034915 0.010152 0.004428 -0.001512
# 4 -0.012855 0.004216 0.010152 0.035384 0.009831 -0.007023
# 5 -0.006761 -0.000665 0.004428 0.009831 0.041380 -0.013640
# 6 0.010781 0.001165 -0.001512 -0.007023 -0.013640 0.044409
#
#
# Mechanical properties :
#
#
# Convention : Reuss Voigt Hill
#
# Bulk Modulus (GPa) = 41.20409 49.24930 45.22669
# Shear Modulus (GPa) = 18.30101 26.06011 22.18056
#
# Velocity S-wave (km/s) = 3.14272 3.75021 3.45982
# Velocity P-wave (km/s) = 5.95028 6.73283 6.35361
#
# Compressibility (1/GPa) = 0.02426944
#
# Stress axis : x y z
#
# Youngs Moduli (GPa) = 28.31623 72.06334 28.64069
#
# Poissons Ratio (x) = 0.55146 0.60358
# Poissons Ratio (y) = 0.21669 0.03415
# Poissons Ratio (z) = 0.59674 0.08593
#
# Static dielectric constant tensor:
#      x y z
#    x 3.624710 -0.109460 -0.074790 
#    y -0.109460 3.659060 0.179990 
#    z -0.074790 0.179990 3.363220 
# 
# 
# High freq. dielectric constant tensor:
#      x y z
#    x 1.702950 -0.014380 0.000400 
#    y -0.014380 1.735580 0.006480 
#    z 0.000400 0.006480 1.687000 
# 
# From -- ./inp_files/252262.got.cif
#   From: 2010.06.25/outbox.cif.g09.slc.cpg/sg2_127_cif.got.tgz:252262.got - 2010.06.27 13:26:56.
