data_PCOD8036839
_publ_section_title
;
Structure prediction by ZEFSAII (Michael W. Deem and Ramdas Pophale) SiO2 
 PCOD8036839
Probable space group: P -1
;
_chemical_formula_sum "Si O2"
_cell_formula_units_Z 14
_cell_length_a 9.829469
_cell_length_b 12.242809
_cell_length_c 9.584605
_cell_angle_alpha 125.251033
_cell_angle_beta 136.858208
_cell_angle_gamma 58.979323
_cell_volume 634.853345
_symmetry_space_group_name_H-M "P -1"
_symmetry_group_IT_number 2
_symmetry_cell_setting 'triclinic'
loop_
_space_group_symop_operation_xyz
x,y,z
-x,-y,-z
loop_
_atom_site_type_symbol
_atom_site_label
_atom_site_fract_x
_atom_site_fract_y
_atom_site_fract_z
Si Si1 0.659803 0.241758 0.593768
Si Si2 0.961136 0.614164 0.440845
Si Si3 0.938369 0.936829 0.260186
Si Si4 0.505933 0.656130 0.160671
Si Si5 0.271559 0.804791 0.854139
Si Si6 0.604349 0.759103 0.840630
Si Si7 0.164526 0.524627 0.247271
O O1 0.547253 0.319679 0.698584
O O2 0.511576 0.166959 0.329100
O O3 0.739211 0.344952 0.622483
O O4 0.852925 0.133179 0.707393
O O5 0.728389 0.682985 0.313431
O O6 0.000000 0.500000 0.500000
O O7 0.078359 0.735370 0.644620
O O8 0.039807 0.539257 0.305425
O O9 0.814327 0.039502 0.132181
O O10 0.789018 0.826896 0.088422
O O11 0.000000 0.000000 0.500000
O O12 0.500000 0.500000 0.000000
O O13 0.354646 0.770150 0.046599
O O14 0.452480 0.748489 0.844960
O O15 0.666605 0.607620 0.717811
O O16 0.000000 0.500000 0.000000
#
# Coordination Sequence:
#
# PCOD8036839 Si02
#       7
#     2   2   2   2   2   2   2
#     4  12  26  47  73 111 144 190 248 303 357 441
#     4  12  25  45  70 106 150 184 236 305 367 430
#     4  12  27  49  75 107 147 191 256 301 352 438
#     4  12  27  46  72 109 153 186 237 302 376 433
#     4  12  27  45  73 105 146 199 238 297 371 429
#     4  12  25  44  79 106 143 189 250 306 362 427
#     4  12  23  42  72 107 141 185 242 303 363 419
#
# _framework density 22.052337999999999
#
# number of rings (size 3 to 8) (size 9 to 14) (size 15 to 20)
#    0.000    0.000    5.714    4.286    2.000    1.714 
#    0.000    1.429    0.000    0.000    0.000    0.000 
#    0.000    0.000    0.000    0.000    0.000    0.000 
#
# Total GULP energy -173547.411711 kJ/mol
# GULP energy per Si atom -12396.243694 kJ/mol
# Density = 2.200215 g / cm^3
# Si number density = 22.052338 Si / 1000 Ang^3
#
#
#
# Elastic Constant Matrix: (Units=GPa)
#
#
# Indices 1 2 3 4 5 6 
#
# 1 135.9723 30.3603 42.8616 4.7311 -9.4839 -21.3391
# 2 30.3603 93.6683 18.5161 -14.7425 1.1450 -6.2279
# 3 42.8616 18.5161 122.7880 -7.4438 3.0596 -5.2188
# 4 4.7311 -14.7425 -7.4438 36.2519 0.3416 1.1994
# 5 -9.4839 1.1450 3.0596 0.3416 44.4765 -11.6873
# 6 -21.3391 -6.2279 -5.2188 1.1994 -11.6873 32.1942
#
#
#
# Elastic Compliance Matrix: (Units=1/GPa)
#
#
# Indices 1 2 3 4 5 6 
#
# 1 0.010730 -0.002922 -0.003305 -0.003571 0.004679 0.007843
# 2 -0.002922 0.012581 -0.000531 0.005403 -0.000992 -0.000151
# 3 -0.003305 -0.000531 0.009494 0.002230 -0.001748 -0.001472
# 4 -0.003571 0.005403 0.002230 0.030819 -0.002039 -0.002849
# 5 0.004679 -0.000992 -0.001748 -0.002039 0.026921 0.012475
# 6 0.007843 -0.000151 -0.001472 -0.002849 0.012475 0.040627
#
#
# Mechanical properties :
#
#
# Convention : Reuss Voigt Hill
#
# Bulk Modulus (GPa) = 51.84481 59.54493 55.69487
# Shear Modulus (GPa) = 33.08679 39.96389 36.52534
#
# Velocity S-wave (km/s) = 3.87767 4.26165 4.07418
# Velocity P-wave (km/s) = 6.60374 7.16071 6.88786
#
# Compressibility (1/GPa) = 0.01928833
#
# Stress axis : x y z
#
# Youngs Moduli (GPa) = 93.19618 79.48712 105.33046
#
# Poissons Ratio (x) = 0.23229 0.34807
# Poissons Ratio (y) = 0.27236 0.05595
# Poissons Ratio (z) = 0.30797 0.04222
#
# Static dielectric constant tensor:
#      x y z
#    x 4.002610 -0.204790 0.252260 
#    y -0.204790 3.597090 -0.479480 
#    z 0.252260 -0.479480 4.165470 
# 
# 
# High freq. dielectric constant tensor:
#      x y z
#    x 1.873310 -0.010120 0.012500 
#    y -0.010120 1.867120 -0.016310 
#    z 0.012500 -0.016310 1.886350 
# 
# From -- ./inp_files/190433.got.cif
#   From: 2010.06.25/outbox.cif.g09.slc.cpg/sg2_96_cif.got.tgz:190433.got - 2010.06.27 13:26:56.
