data_PCOD8036023
_publ_section_title
;
Structure prediction by ZEFSAII (Michael W. Deem and Ramdas Pophale) SiO2 
 PCOD8036023
Probable space group: P -1
;
_chemical_formula_sum "Si O2"
_cell_formula_units_Z 16
_cell_length_a 14.816814
_cell_length_b 10.832243
_cell_length_c 12.495836
_cell_angle_alpha 93.848518
_cell_angle_beta 19.140409
_cell_angle_gamma 92.766000
_cell_volume 655.408991
_symmetry_space_group_name_H-M "P -1"
_symmetry_group_IT_number 2
_symmetry_cell_setting 'triclinic'
loop_
_space_group_symop_operation_xyz
x,y,z
-x,-y,-z
loop_
_atom_site_type_symbol
_atom_site_label
_atom_site_fract_x
_atom_site_fract_y
_atom_site_fract_z
Si Si1 0.260790 0.964167 0.444218
Si Si2 0.073720 0.664142 0.368758
Si Si3 0.295715 0.941810 0.643192
Si Si4 0.344819 0.443839 0.328326
Si Si5 0.067577 0.700379 0.621757
Si Si6 0.727885 0.563297 0.357887
Si Si7 0.179025 0.933986 0.205925
Si Si8 0.434703 0.315801 0.657697
O O1 0.349088 0.988208 0.467673
O O2 0.254426 0.818452 0.419796
O O3 0.964294 0.027573 0.745105
O O4 0.517502 0.023185 0.102352
O O5 0.973127 0.676724 0.604539
O O6 0.184571 0.787649 0.201741
O O7 0.811708 0.620803 0.595684
O O8 0.329920 0.564952 0.062418
O O9 0.320892 0.790740 0.611509
O O10 0.500000 0.000000 0.500000
O O11 0.000000 0.000000 0.000000
O O12 0.262095 0.588463 0.440688
O O13 0.252722 0.381331 0.540596
O O14 0.811361 0.722761 0.990985
O O15 0.509269 0.455744 0.609983
O O16 0.640624 0.677503 0.384230
O O17 0.000000 0.500000 0.000000
O O18 0.000000 0.000000 0.500000
#
# Coordination Sequence:
#
# PCOD8036023 Si02
#       8
#     2   2   2   2   2   2   2   2
#     4  12  27  48  80 105 146 204 257 303 374 449
#     4  12  29  46  75 113 156 194 245 317 382 446
#     4  12  28  48  72 113 152 192 249 319 380 435
#     4  12  27  48  73 116 151 195 244 313 394 438
#     4  12  25  50  79 109 154 196 255 309 377 468
#     4  11  25  49  78 107 149 200 260 309 368 466
#     4  12  26  50  74 107 147 201 257 302 363 453
#     4  11  26  49  79 110 146 206 257 308 378 457
#
# _framework density 24.412237999999999
#
# number of rings (size 3 to 8) (size 9 to 14) (size 15 to 20)
#    0.000    0.250    2.500    5.625    5.250    5.000 
#    0.000    0.000    0.000    0.000    0.000    0.000 
#    0.000    0.000    0.000    0.000    0.000    0.000 
#
# Total GULP energy -198385.675660 kJ/mol
# GULP energy per Si atom -12399.104729 kJ/mol
# Density = 2.435667 g / cm^3
# Si number density = 24.412238 Si / 1000 Ang^3
#
#
#
# Elastic Constant Matrix: (Units=GPa)
#
#
# Indices 1 2 3 4 5 6 
#
# 1 165.3142 14.3336 30.4734 5.1214 14.6570 -22.8629
# 2 14.3336 127.0059 37.8790 7.4311 2.3472 -22.0934
# 3 30.4734 37.8790 70.8803 5.9904 -5.2900 -8.8484
# 4 5.1214 7.4311 5.9904 38.3259 -2.1257 -1.0723
# 5 14.6570 2.3472 -5.2900 -2.1257 40.0959 0.5704
# 6 -22.8629 -22.0934 -8.8484 -1.0723 0.5704 35.8548
#
#
#
# Elastic Compliance Matrix: (Units=1/GPa)
#
#
# Indices 1 2 3 4 5 6 
#
# 1 0.007558 0.001092 -0.003440 -0.000741 -0.003386 0.004675
# 2 0.001092 0.010474 -0.005372 -0.001278 -0.001872 0.005816
# 3 -0.003440 -0.005372 0.018738 -0.001233 0.003993 -0.000980
# 4 -0.000741 -0.001278 -0.001233 0.026699 0.001610 -0.000792
# 5 -0.003386 -0.001872 0.003993 0.001610 0.026938 -0.002708
# 6 0.004675 0.005816 -0.000980 -0.000792 -0.002708 0.034233
#
#
# Mechanical properties :
#
#
# Convention : Reuss Voigt Hill
#
# Bulk Modulus (GPa) = 46.88177 58.73024 52.80601
# Shear Modulus (GPa) = 33.96975 41.55629 37.76302
#
# Velocity S-wave (km/s) = 3.73434 4.13034 3.93732
# Velocity P-wave (km/s) = 6.15139 6.84516 6.50752
#
# Compressibility (1/GPa) = 0.02133025
#
# Stress axis : x y z
#
# Youngs Moduli (GPa) = 132.30603 95.47647 53.36747
#
# Poissons Ratio (x) = -0.10427 0.18356
# Poissons Ratio (y) = -0.14449 0.28671
# Poissons Ratio (z) = 0.45507 0.51294
#
# Static dielectric constant tensor:
#      x y z
#    x 5.704250 -1.234340 -1.339520 
#    y -1.234340 5.749060 1.662480 
#    z -1.339520 1.662480 6.931820 
# 
# 
# High freq. dielectric constant tensor:
#      x y z
#    x 1.994510 -0.013620 0.003590 
#    y -0.013620 1.971900 -0.001740 
#    z 0.003590 -0.001740 1.969810 
# 
# From -- ./inp_files/452241.got.cif
#   From: 2010.06.25/outbox.cif.g09.slc.cpg/sg2_227_cif.got.tgz:452241.got - 2010.06.27 13:26:56.
