data_PCOD8036010
_publ_section_title
;
Structure prediction by ZEFSAII (Michael W. Deem and Ramdas Pophale) SiO2 
 PCOD8036010
Probable space group: P -1
;
_chemical_formula_sum "Si O2"
_cell_formula_units_Z 16
_cell_length_a 9.978446
_cell_length_b 8.004571
_cell_length_c 12.261234
_cell_angle_alpha 99.161925
_cell_angle_beta 134.204894
_cell_angle_gamma 90.070048
_cell_volume 684.315233
_symmetry_space_group_name_H-M "P -1"
_symmetry_group_IT_number 2
_symmetry_cell_setting 'triclinic'
loop_
_space_group_symop_operation_xyz
x,y,z
-x,-y,-z
loop_
_atom_site_type_symbol
_atom_site_label
_atom_site_fract_x
_atom_site_fract_y
_atom_site_fract_z
Si Si1 0.440754 0.081971 0.085997
Si Si2 0.160165 0.884500 0.071129
Si Si3 0.683476 0.631410 0.083051
Si Si4 0.278852 0.734627 0.568306
Si Si5 0.675373 0.246628 0.647185
Si Si6 0.897064 0.806546 0.414613
Si Si7 0.713080 0.643797 0.504004
Si Si8 0.982710 0.558440 0.825255
O O1 0.616632 0.130932 0.272237
O O2 0.289059 0.943927 0.046337
O O3 0.359266 0.257398 0.034052
O O4 0.500000 0.000000 0.000000
O O5 0.282110 0.893515 0.253669
O O6 0.064668 0.688914 0.979315
O O7 0.000000 0.000000 0.000000
O O8 0.744208 0.770166 0.227345
O O9 0.849840 0.526665 0.140105
O O10 0.500000 0.500000 0.000000
O O11 0.294331 0.820757 0.465151
O O12 0.356925 0.554192 0.590963
O O13 0.059453 0.689689 0.474376
O O14 0.462594 0.283246 0.536442
O O15 0.821190 0.419104 0.771476
O O16 0.782749 0.760485 0.454148
O O17 0.000000 0.000000 0.500000
O O18 0.886651 0.660518 0.688501
#
# Coordination Sequence:
#
# PCOD8036010 Si02
#       8
#     2   2   2   2   2   2   2   2
#     4  12  29  48  72 112 153 192 250 315 380 439
#     4  12  30  46  74 110 156 194 239 313 384 441
#     4  12  26  47  78 107 152 204 255 303 383 457
#     4  11  25  49  77 103 150 197 254 305 366 449
#     4  11  26  51  77 107 144 199 258 296 374 451
#     4  12  27  45  74 111 151 197 249 322 374 436
#     4  11  26  45  80 109 143 193 258 305 368 445
#     4  11  25  49  75 106 147 200 255 307 365 464
#
# _framework density 23.381039000000001
#
# number of rings (size 3 to 8) (size 9 to 14) (size 15 to 20)
#    0.000    0.500    2.500    5.250   15.750    0.500 
#    0.000    0.000    0.000    0.000    0.000    0.000 
#    0.000    0.000    0.000    0.000    0.000    0.000 
#
# Total GULP energy -198462.727305 kJ/mol
# GULP energy per Si atom -12403.920457 kJ/mol
# Density = 2.332782 g / cm^3
# Si number density = 23.381039 Si / 1000 Ang^3
#
#
#
# Elastic Constant Matrix: (Units=GPa)
#
#
# Indices 1 2 3 4 5 6 
#
# 1 137.8991 31.5731 48.8945 -6.2260 5.7468 15.3643
# 2 31.5731 84.6261 51.4062 -6.2015 -6.2306 8.9510
# 3 48.8945 51.4062 143.7538 5.6629 -7.1093 6.3959
# 4 -6.2260 -6.2015 5.6629 46.4553 -4.2891 -2.5113
# 5 5.7468 -6.2306 -7.1093 -4.2891 42.4413 -7.3017
# 6 15.3643 8.9510 6.3959 -2.5113 -7.3017 33.5770
#
#
#
# Elastic Compliance Matrix: (Units=1/GPa)
#
#
# Indices 1 2 3 4 5 6 
#
# 1 0.009055 -0.001578 -0.002505 0.000884 -0.002426 -0.003707
# 2 -0.001578 0.016049 -0.005134 0.002597 0.001623 -0.002031
# 3 -0.002505 -0.005134 0.009749 -0.002064 0.001139 0.000752
# 4 0.000884 0.002597 -0.002064 0.022551 0.002456 0.001517
# 5 -0.002426 0.001623 0.001139 0.002456 0.025638 0.006219
# 6 -0.003707 -0.002031 0.000752 0.001517 0.006219 0.033343
#
#
# Mechanical properties :
#
#
# Convention : Reuss Voigt Hill
#
# Bulk Modulus (GPa) = 60.91059 70.00295 65.45677
# Shear Modulus (GPa) = 35.63984 40.12173 37.88079
#
# Velocity S-wave (km/s) = 3.90847 4.14695 4.02948
# Velocity P-wave (km/s) = 6.81733 7.27562 7.05020
#
# Compressibility (1/GPa) = 0.01641751
#
# Stress axis : x y z
#
# Youngs Moduli (GPa) = 110.43088 62.31044 102.57908
#
# Poissons Ratio (x) = 0.09834 0.25701
# Poissons Ratio (y) = 0.17429 0.52663
# Poissons Ratio (z) = 0.27668 0.31989
#
# Static dielectric constant tensor:
#      x y z
#    x 4.573740 0.064570 0.209360 
#    y 0.064570 4.086620 -0.115100 
#    z 0.209360 -0.115100 4.568300 
# 
# 
# High freq. dielectric constant tensor:
#      x y z
#    x 1.935900 0.000830 0.001910 
#    y 0.000830 1.925240 -0.005560 
#    z 0.001910 -0.005560 1.941570 
# 
# From -- ./inp_files/382787.got.cif
#   From: 2010.06.25/outbox.cif.g09.slc.cpg/sg2_192_cif.got.tgz:382787.got - 2010.06.27 13:26:56.
