data_PCOD8036764
_publ_section_title
;
Structure prediction by ZEFSAII (Michael W. Deem and Ramdas Pophale) SiO2 
 PCOD8036764
Probable space group: P -1
;
_chemical_formula_sum "Si O2"
_cell_formula_units_Z 16
_cell_length_a 14.335574
_cell_length_b 11.384969
_cell_length_c 13.600499
_cell_angle_alpha 146.557287
_cell_angle_beta 137.512639
_cell_angle_gamma 65.752148
_cell_volume 690.167610
_symmetry_space_group_name_H-M "P -1"
_symmetry_group_IT_number 2
_symmetry_cell_setting 'triclinic'
loop_
_space_group_symop_operation_xyz
x,y,z
-x,-y,-z
loop_
_atom_site_type_symbol
_atom_site_label
_atom_site_fract_x
_atom_site_fract_y
_atom_site_fract_z
Si Si1 0.442704 0.508166 0.216823
Si Si2 0.942913 0.260545 0.352180
Si Si3 0.587703 0.998634 0.164170
Si Si4 0.592006 0.969257 0.782299
Si Si5 0.917233 0.760770 0.196915
Si Si6 0.949196 0.425275 0.690184
Si Si7 0.084658 0.930821 0.234420
Si Si8 0.476560 0.254696 0.760464
O O1 0.576207 0.730252 0.547469
O O2 0.441899 0.654544 0.220909
O O3 0.275738 0.353009 0.043371
O O4 0.483071 0.298161 0.073483
O O5 0.978627 0.351137 0.555325
O O6 0.000000 0.500000 0.500000
O O7 0.051531 0.146907 0.330059
O O8 0.751487 0.076148 0.049188
O O9 0.554067 0.119609 0.315643
O O10 0.780869 0.181690 0.428253
O O11 0.500000 0.000000 0.000000
O O12 0.582536 0.159221 0.830415
O O13 0.918407 0.537557 0.099257
O O14 0.012229 0.830979 0.217027
O O15 0.000000 0.000000 0.500000
O O16 0.977069 0.703605 0.911853
O O17 0.279350 0.039004 0.454260
O O18 0.500000 0.500000 0.000000
#
# Coordination Sequence:
#
# PCOD8036764 Si02
#       8
#     2   2   2   2   2   2   2   2
#     4  12  27  45  77 106 141 188 240 297 356 424
#     4  12  29  46  70 104 150 192 230 295 358 429
#     4  12  25  45  69 104 145 188 229 291 357 420
#     4  12  27  46  72 107 143 186 242 291 358 428
#     4  12  22  46  76 104 141 183 238 296 353 415
#     4  12  26  47  75 105 143 186 243 291 356 427
#     4  12  27  48  77 107 141 192 240 295 356 427
#     4  12  25  49  78 104 145 186 241 302 357 417
#
# _framework density 23.182773999999998
#
# number of rings (size 3 to 8) (size 9 to 14) (size 15 to 20)
#    0.000    0.000    5.000    4.500    5.250    1.000 
#    0.000    0.000    0.000    0.000    0.000    0.000 
#    0.000    0.000    0.000    0.000    0.000    0.000 
#
# Total GULP energy -198322.999671 kJ/mol
# GULP energy per Si atom -12395.187479 kJ/mol
# Density = 2.313001 g / cm^3
# Si number density = 23.182774 Si / 1000 Ang^3
#
#
#
# Elastic Constant Matrix: (Units=GPa)
#
#
# Indices 1 2 3 4 5 6 
#
# 1 50.0165 -9.8258 23.6773 5.1019 2.9786 -0.1994
# 2 -9.8258 90.2219 18.4000 -5.4426 2.3981 2.3205
# 3 23.6773 18.4000 112.5651 13.8704 -20.3954 -5.3902
# 4 5.1019 -5.4426 13.8704 30.0646 -2.1530 0.6873
# 5 2.9786 2.3981 -20.3954 -2.1530 42.8174 8.2456
# 6 -0.1994 2.3205 -5.3902 0.6873 8.2456 34.4184
#
#
#
# Elastic Compliance Matrix: (Units=1/GPa)
#
#
# Indices 1 2 3 4 5 6 
#
# 1 0.024307 0.004090 -0.006620 -0.000699 -0.005122 0.000069
# 2 0.004090 0.012584 -0.003799 0.003181 -0.002467 -0.000892
# 3 -0.006620 -0.003799 0.012694 -0.004987 0.006317 0.000792
# 4 -0.000699 0.003181 -0.004987 0.036268 -0.000366 -0.001636
# 5 -0.005122 -0.002467 0.006317 -0.000366 0.027909 -0.005553
# 6 0.000069 -0.000892 0.000792 -0.001636 -0.005553 0.030602
#
#
# Mechanical properties :
#
#
# Convention : Reuss Voigt Hill
#
# Bulk Modulus (GPa) = 27.08050 35.25627 31.16838
# Shear Modulus (GPa) = 29.52782 36.16354 32.84568
#
# Velocity S-wave (km/s) = 3.57276 3.95388 3.76814
# Velocity P-wave (km/s) = 5.35968 6.00710 5.69260
#
# Compressibility (1/GPa) = 0.03692694
#
# Stress axis : x y z
#
# Youngs Moduli (GPa) = 41.14018 79.46411 78.77716
#
# Poissons Ratio (x) = -0.32497 0.52150
# Poissons Ratio (y) = -0.16824 0.29926
# Poissons Ratio (z) = 0.27234 0.30187
#
# Static dielectric constant tensor:
#      x y z
#    x 4.574980 0.047130 0.013170 
#    y 0.047130 4.351850 0.343450 
#    z 0.013170 0.343450 4.375380 
# 
# 
# High freq. dielectric constant tensor:
#      x y z
#    x 1.924730 0.002750 -0.008150 
#    y 0.002750 1.920450 0.008680 
#    z -0.008150 0.008680 1.928910 
# 
# From -- ./inp_files/455849.got.cif
#   From: 2010.06.25/outbox.cif.g09.slc.cpg/sg2_228_cif.got.tgz:455849.got - 2010.06.27 13:26:56.
