data_PCOD8036665
_publ_section_title
;
Structure prediction by ZEFSAII (Michael W. Deem and Ramdas Pophale) SiO2 
 PCOD8036665
Probable space group: P -1
;
_chemical_formula_sum "Si O2"
_cell_formula_units_Z 14
_cell_length_a 26.907915
_cell_length_b 15.577833
_cell_length_c 15.008656
_cell_angle_alpha 161.035516
_cell_angle_beta 18.778022
_cell_angle_gamma 160.765843
_cell_volume 582.143678
_symmetry_space_group_name_H-M "P -1"
_symmetry_group_IT_number 2
_symmetry_cell_setting 'triclinic'
loop_
_space_group_symop_operation_xyz
x,y,z
-x,-y,-z
loop_
_atom_site_type_symbol
_atom_site_label
_atom_site_fract_x
_atom_site_fract_y
_atom_site_fract_z
Si Si1 0.195306 0.227314 0.553619
Si Si2 0.301030 0.666340 0.279308
Si Si3 0.711157 0.765852 0.401666
Si Si4 0.552595 0.685024 0.412451
Si Si5 0.071065 0.560187 0.340605
Si Si6 0.991891 0.562343 0.179036
Si Si7 0.394491 0.671866 0.322157
O O1 0.285436 0.197491 0.462114
O O2 0.373117 0.495748 0.474733
O O3 0.118901 0.915155 0.325056
O O4 0.054624 0.352879 0.921990
O O5 0.404029 0.696499 0.224072
O O6 0.101027 0.545753 0.532801
O O7 0.380810 0.971948 0.388111
O O8 0.307250 0.416319 0.958834
O O9 0.536964 0.632270 0.499025
O O10 0.797703 0.098605 0.547527
O O11 0.832908 0.622326 0.031146
O O12 0.000000 0.500000 0.500000
O O13 0.799513 0.489525 0.465388
O O14 0.000000 0.500000 0.000000
O O15 0.500000 0.000000 0.500000
O O16 0.500000 0.500000 0.000000
#
# Coordination Sequence:
#
# PCOD8036665 Si02
#       7
#     2   2   2   2   2   2   2
#     4  12  27  47  74 103 150 190 244 296 362 436
#     4  12  25  42  69 104 145 184 243 288 371 414
#     4  12  23  43  69 105 145 188 244 286 361 423
#     4  12  25  42  70 107 144 196 228 294 350 442
#     4  12  22  41  67 101 143 189 232 295 352 434
#     4  12  29  53  78 107 143 196 247 301 375 433
#     4  12  28  49  78 109 140 181 245 315 361 426
#
# _framework density 24.049047000000002
#
# number of rings (size 3 to 8) (size 9 to 14) (size 15 to 20)
#    0.000    0.000    2.857    7.286    6.000    0.000 
#    0.000    4.286    0.000    0.000    0.000    0.000 
#    0.000    0.000    0.000    0.000    0.000    0.000 
#
# Total GULP energy -173488.242983 kJ/mol
# GULP energy per Si atom -12392.017356 kJ/mol
# Density = 2.399431 g / cm^3
# Si number density = 24.049047 Si / 1000 Ang^3
#
#
#
# Elastic Constant Matrix: (Units=GPa)
#
#
# Indices 1 2 3 4 5 6 
#
# 1 159.2175 34.2083 37.9728 6.6953 -9.4153 11.6097
# 2 34.2083 50.5178 19.8355 10.1294 -4.5692 35.0569
# 3 37.9728 19.8355 126.7792 15.6290 -10.6571 7.7734
# 4 6.6953 10.1294 15.6290 47.5409 1.2194 -3.3637
# 5 -9.4153 -4.5692 -10.6571 1.2194 38.9250 -0.6402
# 6 11.6097 35.0569 7.7734 -3.3637 -0.6402 38.8527
#
#
#
# Elastic Compliance Matrix: (Units=1/GPa)
#
#
# Indices 1 2 3 4 5 6 
#
# 1 0.008342 -0.010903 -0.001511 0.002190 0.000385 0.007843
# 2 -0.010903 0.084128 -0.002262 -0.021031 0.006062 -0.073919
# 3 -0.001511 -0.002262 0.009113 -0.002315 0.001944 0.000501
# 4 0.002190 -0.021031 -0.002315 0.027542 -0.003088 0.021119
# 5 0.000385 0.006062 0.001944 -0.003088 0.027029 -0.005796
# 6 0.007843 -0.073919 0.000501 0.021119 -0.005796 0.091725
#
#
# Mechanical properties :
#
#
# Convention : Reuss Voigt Hill
#
# Bulk Modulus (GPa) = 13.84470 57.83863 35.84166
# Shear Modulus (GPa) = 16.59436 41.36358 28.97897
#
# Velocity S-wave (km/s) = 2.62968 4.15175 3.47507
# Velocity P-wave (km/s) = 3.87164 6.86186 5.57112
#
# Compressibility (1/GPa) = 0.07222981
#
# Stress axis : x y z
#
# Youngs Moduli (GPa) = 119.86944 11.88671 109.73907
#
# Poissons Ratio (x) = 0.12960 0.16587
# Poissons Ratio (y) = 1.30689 0.24826
# Poissons Ratio (z) = 0.18118 0.02689
#
# Static dielectric constant tensor:
#      x y z
#    x 4.374490 -0.861070 0.201100 
#    y -0.861070 2.702500 0.655710 
#    z 0.201100 0.655710 4.125540 
# 
# 
# High freq. dielectric constant tensor:
#      x y z
#    x 1.977670 0.012860 -0.006820 
#    y 0.012860 1.976150 0.007100 
#    z -0.006820 0.007100 1.961180 
# 
# From -- ./inp_files/208602.got.cif
#   From: 2010.06.25/outbox.cif.g09.slc.cpg/sg2_105_cif.got.tgz:208602.got - 2010.06.27 13:26:56.
