data_PCOD8036409
_publ_section_title
;
Structure prediction by ZEFSAII (Michael W. Deem and Ramdas Pophale) SiO2 
 PCOD8036409
Probable space group: P -1
;
_chemical_formula_sum "Si O2"
_cell_formula_units_Z 16
_cell_length_a 8.837838
_cell_length_b 15.479199
_cell_length_c 14.744481
_cell_angle_alpha 152.456841
_cell_angle_beta 96.561362
_cell_angle_gamma 100.976363
_cell_volume 715.812882
_symmetry_space_group_name_H-M "P -1"
_symmetry_group_IT_number 2
_symmetry_cell_setting 'triclinic'
loop_
_space_group_symop_operation_xyz
x,y,z
-x,-y,-z
loop_
_atom_site_type_symbol
_atom_site_label
_atom_site_fract_x
_atom_site_fract_y
_atom_site_fract_z
Si Si1 0.285173 0.276760 0.496647
Si Si2 0.627505 0.074171 0.487259
Si Si3 0.655710 0.344303 0.569920
Si Si4 0.313516 0.597063 0.950361
Si Si5 0.952300 0.257054 0.953366
Si Si6 0.939765 0.758512 0.722494
Si Si7 0.027637 0.238241 0.737976
Si Si8 0.303870 0.777773 0.727688
O O1 0.495129 0.376455 0.562678
O O2 0.323499 0.455529 0.741956
O O3 0.145141 0.256800 0.394602
O O4 0.181718 0.023751 0.301189
O O5 0.607090 0.228084 0.558593
O O6 0.854238 0.218400 0.659055
O O7 0.500000 0.000000 0.500000
O O8 0.539236 0.826108 0.198826
O O9 0.651355 0.182636 0.340445
O O10 0.874327 0.603480 0.830217
O O11 0.230087 0.452992 0.904747
O O12 0.184184 0.669719 0.974799
O O13 0.045010 0.313728 0.912748
O O14 0.771442 0.494996 0.512058
O O15 0.138156 0.795643 0.760196
O O16 0.000000 0.000000 0.000000
O O17 0.000000 0.000000 0.500000
O O18 0.500000 0.000000 0.000000
#
# Coordination Sequence:
#
# PCOD8036409 Si02
#       8
#     2   2   2   2   2   2   2   2
#     4  12  27  43  71 107 135 182 239 288 349 428
#     4  12  25  45  69 100 143 190 235 291 352 409
#     4  12  26  45  73 104 140 189 235 288 353 424
#     4  12  25  43  68  95 140 184 230 292 348 410
#     4  12  24  47  66  99 144 184 237 291 352 412
#     4  11  26  50  75 107 147 183 235 302 362 430
#     4  12  25  43  67  99 138 189 240 291 348 417
#     4  11  27  49  77 108 147 189 235 295 368 430
#
# _framework density 22.352212000000002
#
# number of rings (size 3 to 8) (size 9 to 14) (size 15 to 20)
#    0.000    0.250    5.000    3.375    3.500    5.500 
#    0.000    0.000    0.000    0.000    0.000    0.000 
#    0.000    0.000    0.000    0.000    0.000    0.000 
#
# Total GULP energy -198403.589476 kJ/mol
# GULP energy per Si atom -12400.224342 kJ/mol
# Density = 2.230134 g / cm^3
# Si number density = 22.352212 Si / 1000 Ang^3
#
#
#
# Elastic Constant Matrix: (Units=GPa)
#
#
# Indices 1 2 3 4 5 6 
#
# 1 104.8358 20.7253 21.6605 21.6486 3.9658 4.4806
# 2 20.7253 73.4717 33.9560 -10.7204 -9.7458 1.7599
# 3 21.6605 33.9560 178.4253 -36.8549 -23.8054 3.3847
# 4 21.6486 -10.7204 -36.8549 73.6141 11.5372 -8.2845
# 5 3.9658 -9.7458 -23.8054 11.5372 50.1090 -4.6956
# 6 4.4806 1.7599 3.3847 -8.2845 -4.6956 31.7673
#
#
#
# Elastic Compliance Matrix: (Units=1/GPa)
#
#
# Indices 1 2 3 4 5 6 
#
# 1 0.011825 -0.003288 -0.002013 -0.005025 -0.001639 -0.002824
# 2 -0.003288 0.016000 -0.001960 0.002069 0.002023 0.000625
# 3 -0.002013 -0.001960 0.007295 0.003675 0.002486 0.000941
# 4 -0.005025 0.002069 0.003675 0.017911 -0.001137 0.004705
# 5 -0.001639 0.002023 0.002486 -0.001137 0.022188 0.002838
# 6 -0.002824 0.000625 0.000941 0.004705 0.002838 0.033389
#
#
# Mechanical properties :
#
#
# Convention : Reuss Voigt Hill
#
# Bulk Modulus (GPa) = 48.55209 56.60183 52.57696
# Shear Modulus (GPa) = 38.46268 49.79082 44.12675
#
# Velocity S-wave (km/s) = 4.15270 4.72482 4.44797
# Velocity P-wave (km/s) = 6.69042 7.42583 7.06770
#
# Compressibility (1/GPa) = 0.02059644
#
# Stress axis : x y z
#
# Youngs Moduli (GPa) = 84.56598 62.50190 137.08275
#
# Poissons Ratio (x) = 0.20553 0.27592
# Poissons Ratio (y) = 0.27809 0.26872
# Poissons Ratio (z) = 0.17022 0.12252
#
# Static dielectric constant tensor:
#      x y z
#    x 4.474460 -0.000190 0.323800 
#    y -0.000190 4.192750 0.122940 
#    z 0.323800 0.122940 4.678920 
# 
# 
# High freq. dielectric constant tensor:
#      x y z
#    x 1.881320 0.000740 0.001740 
#    y 0.000740 1.882120 -0.001390 
#    z 0.001740 -0.001390 1.910140 
# 
# From -- ./inp_files/505934.got.cif
#   From: 2010.06.25/outbox.cif.g09.slc.cpg/sg2_253_cif.got.tgz:505934.got - 2010.06.27 13:26:56.
