data_PCOD8036795
_publ_section_title
;
Structure prediction by ZEFSAII (Michael W. Deem and Ramdas Pophale) SiO2 
 PCOD8036795
Probable space group: P -1
;
_chemical_formula_sum "Si O2"
_cell_formula_units_Z 16
_cell_length_a 9.068198
_cell_length_b 14.373530
_cell_length_c 12.061804
_cell_angle_alpha 68.451673
_cell_angle_beta 76.528040
_cell_angle_gamma 29.662080
_cell_volume 710.858962
_symmetry_space_group_name_H-M "P -1"
_symmetry_group_IT_number 2
_symmetry_cell_setting 'triclinic'
loop_
_space_group_symop_operation_xyz
x,y,z
-x,-y,-z
loop_
_atom_site_type_symbol
_atom_site_label
_atom_site_fract_x
_atom_site_fract_y
_atom_site_fract_z
Si Si1 0.333572 0.676650 0.707411
Si Si2 0.704251 0.552922 0.890270
Si Si3 0.222956 0.526826 0.844888
Si Si4 0.539902 0.866034 0.831864
Si Si5 0.642592 0.108577 0.678485
Si Si6 0.387308 0.215216 0.900627
Si Si7 0.386219 0.455200 0.508376
Si Si8 0.313847 0.139343 0.578785
O O1 0.525662 0.587636 0.821348
O O2 0.335253 0.555934 0.739273
O O3 0.495442 0.638663 0.594100
O O4 0.995428 0.911061 0.675879
O O5 0.522061 0.759920 0.850783
O O6 0.043652 0.379705 0.863683
O O7 0.719111 0.482984 0.032034
O O8 0.401312 0.325913 0.868821
O O9 0.865672 0.721499 0.802478
O O10 0.301663 0.062730 0.712438
O O11 0.482268 0.913569 0.954442
O O12 0.591208 0.076347 0.817216
O O13 0.523552 0.290139 0.635010
O O14 0.456645 0.160403 0.590579
O O15 0.500000 0.500000 0.500000
O O16 0.026695 0.649728 0.494158
O O17 0.500000 0.000000 0.500000
#
# Coordination Sequence:
#
# PCOD8036795 Si02
#       8
#     2   2   2   2   2   2   2   2
#     4  12  23  41  64  96 135 169 215 268 323 386
#     4   9  20  36  68  96 129 168 211 267 324 379
#     4   9  18  41  65  95 130 174 209 262 326 383
#     4   9  20  41  68  98 124 172 216 263 323 383
#     4  12  26  44  67  98 129 177 219 267 322 387
#     4   9  20  42  70  93 131 168 219 265 317 390
#     4  12  29  46  65  94 131 174 219 275 327 379
#     4  12  27  45  72  94 129 173 223 269 321 392
#
# _framework density 22.50798
#
# number of rings (size 3 to 8) (size 9 to 14) (size 15 to 20)
#    0.000    1.500    1.250    4.875    7.000    0.500 
#    4.500    1.250    0.000    0.000    0.000    0.000 
#    0.000    0.000    0.000    0.000    0.000    0.000 
#
# Total GULP energy -198430.626546 kJ/mol
# GULP energy per Si atom -12401.914159 kJ/mol
# Density = 2.245675 g / cm^3
# Si number density = 22.507980 Si / 1000 Ang^3
#
#
#
# Elastic Constant Matrix: (Units=GPa)
#
#
# Indices 1 2 3 4 5 6 
#
# 1 84.4479 20.4033 26.2510 -3.4134 1.4093 0.5183
# 2 20.4033 107.8429 36.0871 4.9250 2.1650 -17.2132
# 3 26.2510 36.0871 94.6718 3.1042 -8.1749 -6.8887
# 4 -3.4134 4.9250 3.1042 43.3833 4.9543 -6.4724
# 5 1.4093 2.1650 -8.1749 4.9543 37.8931 -1.6467
# 6 0.5183 -17.2132 -6.8887 -6.4724 -1.6467 22.1984
#
#
#
# Elastic Compliance Matrix: (Units=1/GPa)
#
#
# Indices 1 2 3 4 5 6 
#
# 1 0.013425 -0.001847 -0.003365 0.001291 -0.001398 -0.002517
# 2 -0.001847 0.012177 -0.003619 0.000092 -0.001059 0.008310
# 3 -0.003365 -0.003619 0.013300 -0.000989 0.003390 0.001362
# 4 0.001291 0.000092 -0.000989 0.024570 -0.003190 0.006662
# 5 -0.001398 -0.001059 0.003390 -0.003190 0.027711 0.001389
# 6 -0.002517 0.008310 0.001362 0.006662 0.001389 0.054019
#
#
# Mechanical properties :
#
#
# Convention : Reuss Voigt Hill
#
# Bulk Modulus (GPa) = 47.08112 50.27172 48.67642
# Shear Modulus (GPa) = 29.42166 34.30971 31.86569
#
# Velocity S-wave (km/s) = 3.61940 3.90851 3.76673
# Velocity P-wave (km/s) = 6.19916 6.53851 6.37110
#
# Compressibility (1/GPa) = 0.02123994
#
# Stress axis : x y z
#
# Youngs Moduli (GPa) = 74.48986 82.12394 75.18996
#
# Poissons Ratio (x) = 0.15165 0.25299
# Poissons Ratio (y) = 0.13755 0.27213
# Poissons Ratio (z) = 0.25064 0.29723
#
# Static dielectric constant tensor:
#      x y z
#    x 4.005840 0.081490 -0.081680 
#    y 0.081490 3.886680 0.103490 
#    z -0.081680 0.103490 4.212830 
# 
# 
# High freq. dielectric constant tensor:
#      x y z
#    x 1.888800 0.009530 -0.004580 
#    y 0.009530 1.874710 0.006710 
#    z -0.004580 0.006710 1.900760 
# 
# From -- ./inp_files/207589.got.cif
#   From: 2010.06.25/outbox.cif.g09.slc.cpg/sg2_104_cif.got.tgz:207589.got - 2010.06.27 13:26:56.
