data_PCOD8036595
_publ_section_title
;
Structure prediction by ZEFSAII (Michael W. Deem and Ramdas Pophale) SiO2 
 PCOD8036595
Probable space group: P -1
;
_chemical_formula_sum "Si O2"
_cell_formula_units_Z 16
_cell_length_a 8.702296
_cell_length_b 17.716040
_cell_length_c 8.442708
_cell_angle_alpha 131.014522
_cell_angle_beta 111.376298
_cell_angle_gamma 49.445638
_cell_volume 741.805208
_symmetry_space_group_name_H-M "P -1"
_symmetry_group_IT_number 2
_symmetry_cell_setting 'triclinic'
loop_
_space_group_symop_operation_xyz
x,y,z
-x,-y,-z
loop_
_atom_site_type_symbol
_atom_site_label
_atom_site_fract_x
_atom_site_fract_y
_atom_site_fract_z
Si Si1 0.528497 0.376324 0.385521
Si Si2 0.111044 0.370625 0.782736
Si Si3 0.785687 0.613252 0.510851
Si Si4 0.512058 0.221441 0.904395
Si Si5 0.543993 0.882501 0.761198
Si Si6 0.338719 0.031486 0.348677
Si Si7 0.218418 0.873403 0.434428
Si Si8 0.905144 0.237021 0.532759
O O1 0.500000 0.500000 0.500000
O O2 0.377402 0.410167 0.523566
O O3 0.758153 0.267809 0.371330
O O4 0.478081 0.330645 0.147880
O O5 0.198266 0.380180 0.662039
O O6 0.296655 0.265882 0.813003
O O7 0.946430 0.340416 0.681063
O O8 0.000000 0.500000 0.000000
O O9 0.695733 0.752523 0.733523
O O10 0.000000 0.500000 0.500000
O O11 0.590861 0.101093 0.878308
O O12 0.670649 0.180790 0.765485
O O13 0.341908 0.898571 0.642876
O O14 0.672548 0.873276 0.645647
O O15 0.500000 0.000000 0.000000
O O16 0.500000 0.000000 0.500000
O O17 0.109796 0.098777 0.414778
O O18 0.201293 0.766740 0.352496
O O19 0.000000 0.000000 0.500000
#
# Coordination Sequence:
#
# PCOD8036595 Si02
#       8
#     2   2   2   2   2   2   2   2
#     4  12  28  46  69 102 143 184 230 296 352 408
#     4  12  25  46  75  99 133 192 241 282 346 427
#     4  12  24  49  69 102 143 184 237 289 345 430
#     4  12  24  46  70 103 140 184 234 284 349 429
#     4  12  25  45  73 102 138 186 238 283 349 429
#     4  12  21  42  72 100 137 181 229 285 343 418
#     4  12  24  45  68 106 144 177 223 296 356 415
#     4  12  23  44  68 101 142 173 227 291 349 406
#
# _framework density 21.569004
#
# number of rings (size 3 to 8) (size 9 to 14) (size 15 to 20)
#    0.000    0.000    7.500    3.000    0.000    2.500 
#    0.000    2.500    0.000    0.000    0.000    0.000 
#    0.000    0.000    0.000    0.000    0.000    0.000 
#
# Total GULP energy -198290.343684 kJ/mol
# GULP energy per Si atom -12393.146480 kJ/mol
# Density = 2.151991 g / cm^3
# Si number density = 21.569004 Si / 1000 Ang^3
#
#
#
# Elastic Constant Matrix: (Units=GPa)
#
#
# Indices 1 2 3 4 5 6 
#
# 1 141.8615 50.9749 41.9792 1.6840 6.4431 12.0990
# 2 50.9749 150.5309 32.9976 16.2063 8.0018 -6.8750
# 3 41.9792 32.9976 98.0001 11.9251 8.9454 1.7984
# 4 1.6840 16.2063 11.9251 36.0201 -2.5076 5.9685
# 5 6.4431 8.0018 8.9454 -2.5076 24.5768 4.1409
# 6 12.0990 -6.8750 1.7984 5.9685 4.1409 53.4340
#
#
#
# Elastic Compliance Matrix: (Units=1/GPa)
#
#
# Indices 1 2 3 4 5 6 
#
# 1 0.009201 -0.002793 -0.003275 0.002372 0.000374 -0.002626
# 2 -0.002793 0.008469 -0.000998 -0.003916 -0.002463 0.002384
# 3 -0.003275 -0.000998 0.012791 -0.004072 -0.004048 0.000951
# 4 0.002372 -0.003916 -0.004072 0.032018 0.006239 -0.004964
# 5 0.000374 -0.002463 -0.004048 0.006239 0.044242 -0.004391
# 6 -0.002626 0.002384 0.000951 -0.004964 -0.004391 0.020479
#
#
# Mechanical properties :
#
#
# Convention : Reuss Voigt Hill
#
# Bulk Modulus (GPa) = 61.24258 71.36619 66.30439
# Shear Modulus (GPa) = 34.06582 40.43555 37.25068
#
# Velocity S-wave (km/s) = 3.97846 4.33449 4.16028
# Velocity P-wave (km/s) = 7.03986 7.62952 7.34061
#
# Compressibility (1/GPa) = 0.01632851
#
# Stress axis : x y z
#
# Youngs Moduli (GPa) = 108.68601 118.07697 78.18267
#
# Poissons Ratio (x) = 0.32978 0.25608
# Poissons Ratio (y) = 0.30355 0.07800
# Poissons Ratio (z) = 0.35599 0.11779
#
# Static dielectric constant tensor:
#      x y z
#    x 5.006610 0.452010 -0.669890 
#    y 0.452010 4.492680 -0.141960 
#    z -0.669890 -0.141960 4.335110 
# 
# 
# High freq. dielectric constant tensor:
#      x y z
#    x 1.866950 0.007440 -0.003310 
#    y 0.007440 1.873930 0.014130 
#    z -0.003310 0.014130 1.825830 
# 
# From -- ./inp_files/218698.got.cif
#   From: 2010.06.25/outbox.cif.g09.slc.cpg/sg2_110_cif.got.tgz:218698.got - 2010.06.27 13:26:56.
