data_PCOD8036917
_publ_section_title
;
Structure prediction by ZEFSAII (Michael W. Deem and Ramdas Pophale) SiO2 
 PCOD8036917
Probable space group: P -1
;
_chemical_formula_sum "Si O2"
_cell_formula_units_Z 16
_cell_length_a 11.399405
_cell_length_b 13.443115
_cell_length_c 11.345313
_cell_angle_alpha 117.149811
_cell_angle_beta 85.435226
_cell_angle_gamma 146.565182
_cell_volume 672.547717
_symmetry_space_group_name_H-M "P -1"
_symmetry_group_IT_number 2
_symmetry_cell_setting 'triclinic'
loop_
_space_group_symop_operation_xyz
x,y,z
-x,-y,-z
loop_
_atom_site_type_symbol
_atom_site_label
_atom_site_fract_x
_atom_site_fract_y
_atom_site_fract_z
Si Si1 0.053300 0.000134 0.195020
Si Si2 0.370382 0.799577 0.817087
Si Si3 0.960893 0.624617 0.699611
Si Si4 0.321916 0.490018 0.163599
Si Si5 0.475069 0.488476 0.642446
Si Si6 0.933369 0.673753 0.351400
Si Si7 0.204756 0.996890 0.715754
Si Si8 0.368353 0.088475 0.350179
O O1 0.957935 0.026330 0.289941
O O2 0.799110 0.715615 0.011975
O O3 0.251286 0.207085 0.184610
O O4 0.231451 0.087946 0.325532
O O5 0.600892 0.965671 0.794175
O O6 0.107417 0.630625 0.686256
O O7 0.273095 0.605996 0.790024
O O8 0.500000 0.000000 0.000000
O O9 0.908953 0.622008 0.835851
O O10 0.673016 0.370351 0.520766
O O11 0.161173 0.894891 0.785786
O O12 0.495637 0.598642 0.325326
O O13 0.489920 0.708726 0.177102
O O14 0.500000 0.500000 0.500000
O O15 0.227100 0.345399 0.640771
O O16 0.100045 0.813803 0.534258
O O17 0.158276 0.852954 0.329266
#
# Coordination Sequence:
#
# PCOD8036917 Si02
#       8
#     2   2   2   2   2   2   2   2
#     4  12  24  43  71 106 149 184 227 289 357 412
#     4  12  29  50  73 102 139 181 237 305 359 408
#     4  12  26  46  75 100 137 189 239 288 349 420
#     4  12  26  43  69 109 147 182 228 293 352 416
#     4  12  23  44  75 103 147 190 234 282 350 427
#     4  12  26  44  76 103 137 191 239 288 351 418
#     4  12  25  43  72 106 144 186 234 281 352 428
#     4  12  26  48  74 104 139 183 241 291 348 429
#
# _framework density 23.790133000000001
#
# number of rings (size 3 to 8) (size 9 to 14) (size 15 to 20)
#    0.000    0.000    6.250    3.375    0.000    4.000 
#    0.000    0.000    0.000    0.000    0.000    0.000 
#    0.000    0.000    0.000    0.000    0.000    0.000 
#
# Total GULP energy -198249.629915 kJ/mol
# GULP energy per Si atom -12390.601870 kJ/mol
# Density = 2.373599 g / cm^3
# Si number density = 23.790133 Si / 1000 Ang^3
#
#
#
# Elastic Constant Matrix: (Units=GPa)
#
#
# Indices 1 2 3 4 5 6 
#
# 1 89.9264 34.3582 -8.8292 -10.3157 -3.3053 7.5772
# 2 34.3582 190.8718 27.6871 11.3702 -14.2926 14.6690
# 3 -8.8292 27.6871 69.2725 4.5108 -14.1299 -8.3007
# 4 -10.3157 11.3702 4.5108 26.2813 -1.1896 -9.0600
# 5 -3.3053 -14.2926 -14.1299 -1.1896 38.0478 1.7008
# 6 7.5772 14.6690 -8.3007 -9.0600 1.7008 20.9846
#
#
#
# Elastic Compliance Matrix: (Units=1/GPa)
#
#
# Indices 1 2 3 4 5 6 
#
# 1 0.013345 -0.003252 0.002979 0.006677 0.001189 0.001419
# 2 -0.003252 0.007535 -0.003745 -0.006805 0.001330 -0.008620
# 3 0.002979 -0.003745 0.018360 0.003249 0.005335 0.009775
# 4 0.006677 -0.006805 0.003249 0.052050 -0.000310 0.026129
# 5 0.001189 0.001330 0.005335 -0.000310 0.028934 -0.001728
# 6 0.001419 -0.008620 0.009775 0.026129 -0.001728 0.068455
#
#
# Mechanical properties :
#
#
# Convention : Reuss Voigt Hill
#
# Bulk Modulus (GPa) = 32.04716 50.72254 41.38485
# Shear Modulus (GPa) = 24.14082 36.85305 30.49694
#
# Velocity S-wave (km/s) = 3.18896 3.94012 3.58427
# Velocity P-wave (km/s) = 5.20185 6.48587 5.87902
#
# Compressibility (1/GPa) = 0.03120402
#
# Stress axis : x y z
#
# Youngs Moduli (GPa) = 74.93329 132.71137 54.46613
#
# Poissons Ratio (x) = 0.43158 -0.16223
# Poissons Ratio (y) = 0.24369 0.20396
# Poissons Ratio (z) = -0.22319 0.49696
#
# Static dielectric constant tensor:
#      x y z
#    x 4.427930 0.195640 -0.055180 
#    y 0.195640 4.611900 0.093290 
#    z -0.055180 0.093290 4.302550 
# 
# 
# High freq. dielectric constant tensor:
#      x y z
#    x 1.934830 0.012150 -0.013230 
#    y 0.012150 1.955620 0.009460 
#    z -0.013230 0.009460 1.940620 
# 
# From -- ./inp_files/434202.got.cif
#   From: 2010.06.25/outbox.cif.g09.slc.cpg/sg2_218_cif.got.tgz:434202.got - 2010.06.27 13:26:56.
