data_PCOD8036050
_publ_section_title
;
Structure prediction by ZEFSAII (Michael W. Deem and Ramdas Pophale) SiO2 
 PCOD8036050
Probable space group: P -1
;
_chemical_formula_sum "Si O2"
_cell_formula_units_Z 14
_cell_length_a 20.523862
_cell_length_b 11.010615
_cell_length_c 15.355850
_cell_angle_alpha 35.676687
_cell_angle_beta 18.379394
_cell_angle_gamma 28.459354
_cell_volume 515.790546
_symmetry_space_group_name_H-M "P -1"
_symmetry_group_IT_number 2
_symmetry_cell_setting 'triclinic'
loop_
_space_group_symop_operation_xyz
x,y,z
-x,-y,-z
loop_
_atom_site_type_symbol
_atom_site_label
_atom_site_fract_x
_atom_site_fract_y
_atom_site_fract_z
Si Si1 0.114669 0.803319 0.335063
Si Si2 0.511844 0.774669 0.571735
Si Si3 0.584080 0.525404 0.017572
Si Si4 0.958264 0.678746 0.870160
Si Si5 0.765342 0.651450 0.867748
Si Si6 0.499545 0.733155 0.328781
Si Si7 0.159493 0.067204 0.703026
O O1 0.286470 0.704117 0.262592
O O2 0.931522 0.931701 0.790288
O O3 0.844674 0.845149 0.671108
O O4 0.250239 0.588157 0.213320
O O5 0.326236 0.717461 0.889216
O O6 0.779404 0.502723 0.409371
O O7 0.500000 0.000000 0.500000
O O8 0.441339 0.871481 0.504679
O O9 0.651293 0.693428 0.889968
O O10 0.727779 0.745155 0.063815
O O11 0.000000 0.500000 0.000000
O O12 0.030303 0.365910 0.708118
O O13 0.539920 0.710263 0.186209
O O14 0.500000 0.500000 0.500000
O O15 0.225538 0.987961 0.562818
O O16 0.000000 0.000000 0.000000
#
# Coordination Sequence:
#
# PCOD8036050 Si02
#       7
#     2   2   2   2   2   2   2
#     4  11  28  52  80 113 165 210 272 337 405 494
#     4  12  24  45  80 115 157 210 267 330 406 472
#     4  11  25  50  79 113 160 221 265 325 414 482
#     4  12  27  50  80 118 154 205 271 342 407 478
#     4  12  27  53  80 119 166 217 269 336 407 479
#     4  12  26  47  79 120 162 207 271 337 397 479
#     4  12  24  47  80 118 160 206 273 329 395 480
#
# _framework density 27.142799
#
# number of rings (size 3 to 8) (size 9 to 14) (size 15 to 20)
#    0.000    0.286    4.286    3.857    4.000    3.429 
#    2.571    1.429    0.000    0.000    0.000    0.000 
#    0.000    0.000    0.000    0.000    0.000    0.000 
#
# Total GULP energy -173518.651567 kJ/mol
# GULP energy per Si atom -12394.189398 kJ/mol
# Density = 2.708102 g / cm^3
# Si number density = 27.142799 Si / 1000 Ang^3
#
#
#
# Elastic Constant Matrix: (Units=GPa)
#
#
# Indices 1 2 3 4 5 6 
#
# 1 138.4923 42.1078 51.3647 -5.5877 -3.0542 4.2779
# 2 42.1078 136.1641 46.9745 -7.0933 2.8527 9.4552
# 3 51.3647 46.9745 114.7319 -5.0433 11.8389 17.4396
# 4 -5.5877 -7.0933 -5.0433 55.2333 9.8665 -0.5714
# 5 -3.0542 2.8527 11.8389 9.8665 45.1294 -6.1340
# 6 4.2779 9.4552 17.4396 -0.5714 -6.1340 42.4652
#
#
#
# Elastic Compliance Matrix: (Units=1/GPa)
#
#
# Indices 1 2 3 4 5 6 
#
# 1 0.009134 -0.001638 -0.003806 0.000043 0.001885 0.001280
# 2 -0.001638 0.008890 -0.002744 0.000757 -0.000215 -0.000709
# 3 -0.003806 -0.002744 0.012783 0.001157 -0.004352 -0.004869
# 4 0.000043 0.000757 0.001157 0.019137 -0.004677 -0.001066
# 5 0.001885 -0.000215 -0.004352 -0.004677 0.025173 0.005219
# 6 0.001280 -0.000709 -0.004869 -0.001066 0.005219 0.026316
#
#
# Mechanical properties :
#
#
# Convention : Reuss Voigt Hill
#
# Bulk Modulus (GPa) = 69.28657 74.47580 71.88119
# Shear Modulus (GPa) = 40.77689 45.16167 42.96928
#
# Velocity S-wave (km/s) = 3.88017 4.08346 3.98311
# Velocity P-wave (km/s) = 6.75695 7.05202 6.90606
#
# Compressibility (1/GPa) = 0.01443281
#
# Stress axis : x y z
#
# Youngs Moduli (GPa) = 109.48302 112.48406 78.22843
#
# Poissons Ratio (x) = 0.18423 0.29772
# Poissons Ratio (y) = 0.17931 0.21462
# Poissons Ratio (z) = 0.41667 0.30860
#
# Static dielectric constant tensor:
#      x y z
#    x 3.658480 0.499210 -0.357720 
#    y 0.499210 4.754450 0.614800 
#    z -0.357720 0.614800 6.084740 
# 
# 
# High freq. dielectric constant tensor:
#      x y z
#    x 2.096520 -0.003480 0.005560 
#    y -0.003480 2.096660 -0.003110 
#    z 0.005560 -0.003110 2.107220 
# 
# From -- ./inp_files/179181.got.cif
#   From: 2010.06.25/outbox.cif.g09.slc.cpg/sg2_90_cif.got.tgz:179181.got - 2010.06.27 13:26:56.
