data_PCOD8036713
_publ_section_title
;
Structure prediction by ZEFSAII (Michael W. Deem and Ramdas Pophale) SiO2 
 PCOD8036713
Probable space group: P -1
;
_chemical_formula_sum "Si O2"
_cell_formula_units_Z 16
_cell_length_a 8.385527
_cell_length_b 11.877939
_cell_length_c 8.790938
_cell_angle_alpha 113.861572
_cell_angle_beta 114.885644
_cell_angle_gamma 63.067861
_cell_volume 682.931438
_symmetry_space_group_name_H-M "P -1"
_symmetry_group_IT_number 2
_symmetry_cell_setting 'triclinic'
loop_
_space_group_symop_operation_xyz
x,y,z
-x,-y,-z
loop_
_atom_site_type_symbol
_atom_site_label
_atom_site_fract_x
_atom_site_fract_y
_atom_site_fract_z
Si Si1 0.645461 0.832522 0.638588
Si Si2 0.092753 0.990595 0.867067
Si Si3 0.011415 0.764062 0.561036
Si Si4 0.561067 0.114784 0.868232
Si Si5 0.575637 0.296677 0.711441
Si Si6 0.578094 0.440922 0.334983
Si Si7 0.015173 0.737899 0.198906
Si Si8 0.693233 0.714807 0.923268
O O1 0.834574 0.755891 0.580784
O O2 0.472192 0.799250 0.480920
O O3 0.680863 0.783270 0.795668
O O4 0.585223 0.990756 0.701054
O O5 0.022218 0.906094 0.674749
O O6 0.310363 0.920420 0.949105
O O7 0.048437 0.128958 0.848867
O O8 0.000000 0.000000 0.000000
O O9 0.207198 0.653425 0.624505
O O10 0.958149 0.755735 0.361507
O O11 0.597547 0.230467 0.848882
O O12 0.361475 0.175714 0.902472
O O13 0.420298 0.441800 0.714705
O O14 0.762487 0.324485 0.753927
O O15 0.500000 0.500000 0.500000
O O16 0.436697 0.373748 0.171826
O O17 0.912477 0.645765 0.022236
#
# Coordination Sequence:
#
# PCOD8036713 Si02
#       8
#     2   2   2   2   2   2   2   2
#     4  12  25  47  76 109 145 184 234 302 364 425
#     4  12  22  43  72 109 147 182 232 299 367 426
#     4  12  25  46  73 106 146 190 237 292 360 426
#     4  12  25  45  73 112 145 179 237 298 366 423
#     4  12  27  48  73 104 148 193 239 289 354 427
#     4  12  26  52  73 100 145 196 242 290 347 425
#     4  12  25  43  73 109 143 187 237 298 361 422
#     4  12  26  46  75 107 144 191 238 294 356 423
#
# _framework density 23.428412999999999
#
# number of rings (size 3 to 8) (size 9 to 14) (size 15 to 20)
#    0.000    0.000    7.500    1.875    0.000    2.500 
#    0.000    0.000    0.000    0.000    0.000    0.000 
#    0.000    0.000    0.000    0.000    0.000    0.000 
#
# Total GULP energy -198314.004565 kJ/mol
# GULP energy per Si atom -12394.625285 kJ/mol
# Density = 2.337509 g / cm^3
# Si number density = 23.428413 Si / 1000 Ang^3
#
#
#
# Elastic Constant Matrix: (Units=GPa)
#
#
# Indices 1 2 3 4 5 6 
#
# 1 111.9192 31.0799 41.9466 1.9205 -1.6819 -8.7967
# 2 31.0799 112.6388 34.5543 -13.0332 -5.3877 11.3264
# 3 41.9466 34.5543 121.0450 -10.3614 15.8642 -1.8148
# 4 1.9205 -13.0332 -10.3614 25.3912 0.2030 -5.6508
# 5 -1.6819 -5.3877 15.8642 0.2030 49.5173 -3.5906
# 6 -8.7967 11.3264 -1.8148 -5.6508 -3.5906 28.0770
#
#
#
# Elastic Compliance Matrix: (Units=1/GPa)
#
#
# Indices 1 2 3 4 5 6 
#
# 1 0.011417 -0.002720 -0.003562 -0.002819 0.001540 0.004073
# 2 -0.002720 0.011304 -0.002199 0.004088 0.001496 -0.004540
# 3 -0.003562 -0.002199 0.010964 0.003814 -0.003833 0.000757
# 4 -0.002819 0.004088 0.003814 0.044735 -0.000574 0.006644
# 5 0.001540 0.001496 -0.003833 -0.000574 0.021808 0.002304
# 6 0.004073 -0.004540 0.000757 0.006644 0.002304 0.040405
#
#
# Mechanical properties :
#
#
# Convention : Reuss Voigt Hill
#
# Bulk Modulus (GPa) = 59.79449 62.30718 61.05083
# Shear Modulus (GPa) = 30.64334 36.46525 33.55430
#
# Velocity S-wave (km/s) = 3.62049 3.94947 3.78855
# Velocity P-wave (km/s) = 6.56162 6.88841 6.72700
#
# Compressibility (1/GPa) = 0.01672395
#
# Stress axis : x y z
#
# Youngs Moduli (GPa) = 87.58872 88.46457 91.21040
#
# Poissons Ratio (x) = 0.24059 0.32490
# Poissons Ratio (y) = 0.23821 0.20054
# Poissons Ratio (z) = 0.31200 0.19450
#
# Static dielectric constant tensor:
#      x y z
#    x 4.702100 -0.215960 0.366250 
#    y -0.215960 4.370880 -0.150060 
#    z 0.366250 -0.150060 4.776380 
# 
# 
# High freq. dielectric constant tensor:
#      x y z
#    x 1.936960 -0.000010 0.010320 
#    y -0.000010 1.920880 -0.012490 
#    z 0.010320 -0.012490 1.944120 
# 
# From -- ./inp_files/189562.got.cif
#   From: 2010.06.25/outbox.cif.g09.slc.cpg/sg2_95_cif.got.tgz:189562.got - 2010.06.27 13:26:56.
