data_PCOD8036208
_publ_section_title
;
Structure prediction by ZEFSAII (Michael W. Deem and Ramdas Pophale) SiO2 
 PCOD8036208
Probable space group: P -1
;
_chemical_formula_sum "Si O2"
_cell_formula_units_Z 12
_cell_length_a 8.831010
_cell_length_b 16.911866
_cell_length_c 16.709715
_cell_angle_alpha 16.845816
_cell_angle_beta 132.861345
_cell_angle_gamma 131.884317
_cell_volume 528.495654
_symmetry_space_group_name_H-M "P -1"
_symmetry_group_IT_number 2
_symmetry_cell_setting 'triclinic'
loop_
_space_group_symop_operation_xyz
x,y,z
-x,-y,-z
loop_
_atom_site_type_symbol
_atom_site_label
_atom_site_fract_x
_atom_site_fract_y
_atom_site_fract_z
Si Si1 0.981501 0.571259 0.059523
Si Si2 0.958966 0.109592 0.624876
Si Si3 0.630781 0.757418 0.261650
Si Si4 0.646433 0.046697 0.707716
Si Si5 0.227967 0.417131 0.685546
Si Si6 0.191260 0.807181 0.765378
O O1 0.025025 0.333788 0.365519
O O2 0.817274 0.443162 0.058891
O O3 0.184707 0.680285 0.975874
O O4 0.906436 0.820004 0.843109
O O5 0.146280 0.143545 0.720326
O O6 0.755990 0.153103 0.561774
O O7 0.500000 0.500000 0.500000
O O8 0.657908 0.716719 0.216784
O O9 0.500000 0.000000 0.000000
O O10 0.410188 0.969144 0.674890
O O11 0.641989 0.301689 0.518601
O O12 0.768515 0.800475 0.029121
O O13 0.000000 0.500000 0.500000
O O14 0.000000 0.000000 0.500000
#
# Coordination Sequence:
#
# PCOD8036208 Si02
#       6
#     2   2   2   2   2   2
#     4  11  26  46  73  98 148 178 242 302 358 433
#     4  12  26  47  69 108 142 190 243 299 363 431
#     4  12  28  43  72 109 148 191 245 302 366 427
#     4  12  29  45  80 106 147 198 247 296 373 434
#     4  12  27  50  73 107 153 195 244 301 363 447
#     4  11  27  50  74 109 141 196 244 301 375 441
#
# _framework density 22.705957000000001
#
# number of rings (size 3 to 8) (size 9 to 14) (size 15 to 20)
#    0.000    0.333    3.333    3.500   14.000    1.333 
#    0.000    0.000    0.000    0.000    0.000    0.000 
#    0.000    0.000    0.000    0.000    0.000    0.000 
#
# Total GULP energy -148750.551482 kJ/mol
# GULP energy per Si atom -12395.879290 kJ/mol
# Density = 2.265428 g / cm^3
# Si number density = 22.705957 Si / 1000 Ang^3
#
#
#
# Elastic Constant Matrix: (Units=GPa)
#
#
# Indices 1 2 3 4 5 6 
#
# 1 161.6965 77.4729 52.6268 -5.5458 -3.4153 4.5750
# 2 77.4729 135.4681 40.9324 -30.3541 7.1294 -3.1068
# 3 52.6268 40.9324 145.3690 -13.2898 -1.8011 -5.8312
# 4 -5.5458 -30.3541 -13.2898 46.8223 -9.1669 0.3987
# 5 -3.4153 7.1294 -1.8011 -9.1669 38.7237 -6.4608
# 6 4.5750 -3.1068 -5.8312 0.3987 -6.4608 43.3181
#
#
#
# Elastic Compliance Matrix: (Units=1/GPa)
#
#
# Indices 1 2 3 4 5 6 
#
# 1 0.009494 -0.005487 -0.002208 -0.002889 0.000803 -0.001547
# 2 -0.005487 0.012409 -0.000837 0.006958 -0.000969 0.001148
# 3 -0.002208 -0.000837 0.008136 0.001683 0.000969 0.001397
# 4 -0.002889 0.006958 0.001683 0.027007 0.005196 0.001557
# 5 0.000803 -0.000969 0.000969 0.005196 0.028034 0.004110
# 6 -0.001547 0.001148 0.001397 0.001557 0.004110 0.024118
#
#
# Mechanical properties :
#
#
# Convention : Reuss Voigt Hill
#
# Bulk Modulus (GPa) = 77.08093 87.17753 82.12923
# Shear Modulus (GPa) = 38.28821 43.87291 41.08056
#
# Velocity S-wave (km/s) = 4.11087 4.40047 4.25813
# Velocity P-wave (km/s) = 7.52020 8.01850 7.77335
#
# Compressibility (1/GPa) = 0.01297338
#
# Stress axis : x y z
#
# Youngs Moduli (GPa) = 105.33098 80.58424 122.90812
#
# Poissons Ratio (x) = 0.44220 0.27140
# Poissons Ratio (y) = 0.57799 0.10293
# Poissons Ratio (z) = 0.23258 0.06749
#
# Static dielectric constant tensor:
#      x y z
#    x 4.056890 -0.128150 -0.437450 
#    y -0.128150 4.092820 0.236450 
#    z -0.437450 0.236450 3.558290 
# 
# 
# High freq. dielectric constant tensor:
#      x y z
#    x 1.900390 -0.013900 -0.013230 
#    y -0.013900 1.912830 -0.020120 
#    z -0.013230 -0.020120 1.906450 
# 
# From -- ./inp_files/311042.got.cif
#   From: 2010.06.25/outbox.cif.g09.slc.cpg/sg2_156_cif.got.tgz:311042.got - 2010.06.27 13:26:56.
