data_PCOD8036234
_publ_section_title
;
Structure prediction by ZEFSAII (Michael W. Deem and Ramdas Pophale) SiO2 
 PCOD8036234
Probable space group: P -1
;
_chemical_formula_sum "Si O2"
_cell_formula_units_Z 16
_cell_length_a 8.303232
_cell_length_b 9.239228
_cell_length_c 11.175365
_cell_angle_alpha 83.638560
_cell_angle_beta 56.845792
_cell_angle_gamma 87.747832
_cell_volume 713.099265
_symmetry_space_group_name_H-M "P -1"
_symmetry_group_IT_number 2
_symmetry_cell_setting 'triclinic'
loop_
_space_group_symop_operation_xyz
x,y,z
-x,-y,-z
loop_
_atom_site_type_symbol
_atom_site_label
_atom_site_fract_x
_atom_site_fract_y
_atom_site_fract_z
Si Si1 0.333149 0.218366 0.315433
Si Si2 0.642186 0.874499 0.422992
Si Si3 0.005436 0.099880 0.871002
Si Si4 0.340827 0.550972 0.847731
Si Si5 0.657097 0.049026 0.838336
Si Si6 0.985755 0.439022 0.860555
Si Si7 0.020896 0.594630 0.596090
Si Si8 0.582841 0.298135 0.663847
O O1 0.288260 0.199444 0.476103
O O2 0.546301 0.293055 0.207449
O O3 0.161544 0.305963 0.317496
O O4 0.324058 0.066184 0.264997
O O5 0.559952 0.752630 0.377624
O O6 0.814007 0.951364 0.273831
O O7 0.500000 0.000000 0.500000
O O8 0.839173 0.074313 0.845272
O O9 0.020740 0.268840 0.890199
O O10 0.000000 0.000000 0.000000
O O11 0.499663 0.442639 0.744246
O O12 0.143499 0.547165 0.850416
O O13 0.238512 0.520949 0.021399
O O14 0.600732 0.194789 0.780077
O O15 0.500000 0.000000 0.000000
O O16 0.024870 0.470505 0.705012
O O17 0.000000 0.500000 0.500000
O O18 0.218501 0.686118 0.491509
#
# Coordination Sequence:
#
# PCOD8036234 Si02
#       8
#     2   2   2   2   2   2   2   2
#     4  12  27  46  74 110 146 193 241 304 362 434
#     4  12  26  46  74 107 146 188 244 295 365 427
#     4  12  28  49  77 104 149 193 243 301 362 434
#     4  11  26  46  78 102 145 185 249 294 368 423
#     4  12  28  47  74 109 150 190 245 298 369 429
#     4  11  26  48  72 107 142 191 244 300 360 434
#     4  12  26  44  70 105 146 187 238 299 367 425
#     4  12  25  48  76 107 144 193 242 304 360 432
#
# _framework density 22.437269000000001
#
# number of rings (size 3 to 8) (size 9 to 14) (size 15 to 20)
#    0.000    0.250    3.750    4.500    5.250    3.500 
#    0.000    0.000    0.000    0.000    0.000    0.000 
#    0.000    0.000    0.000    0.000    0.000    0.000 
#
# Total GULP energy -198299.106909 kJ/mol
# GULP energy per Si atom -12393.694182 kJ/mol
# Density = 2.238620 g / cm^3
# Si number density = 22.437269 Si / 1000 Ang^3
#
#
#
# Elastic Constant Matrix: (Units=GPa)
#
#
# Indices 1 2 3 4 5 6 
#
# 1 75.1581 7.1063 24.7278 -3.5396 2.0741 11.0341
# 2 7.1063 59.2320 9.1174 -0.0377 3.3433 -0.9349
# 3 24.7278 9.1174 155.1282 -11.3965 -0.9018 -5.6024
# 4 -3.5396 -0.0377 -11.3965 37.9388 -7.0188 2.3408
# 5 2.0741 3.3433 -0.9018 -7.0188 53.2025 0.8067
# 6 11.0341 -0.9349 -5.6024 2.3408 0.8067 37.5279
#
#
#
# Elastic Compliance Matrix: (Units=1/GPa)
#
#
# Indices 1 2 3 4 5 6 
#
# 1 0.015006 -0.001486 -0.002415 0.000910 -0.000339 -0.004859
# 2 -0.001486 0.017261 -0.000801 -0.000622 -0.001135 0.000810
# 3 -0.002415 -0.000801 0.007079 0.001891 0.000489 0.001618
# 4 0.000910 -0.000622 0.001891 0.027813 0.003732 -0.001816
# 5 -0.000339 -0.001135 0.000489 0.003732 0.019389 -0.000505
# 6 -0.004859 0.000810 0.001618 -0.001816 -0.000505 0.028461
#
#
# Mechanical properties :
#
#
# Convention : Reuss Voigt Hill
#
# Bulk Modulus (GPa) = 33.39764 41.26902 37.33333
# Shear Modulus (GPa) = 37.20447 42.30498 39.75472
#
# Velocity S-wave (km/s) = 4.07646 4.34692 4.21386
# Velocity P-wave (km/s) = 6.08884 6.60509 6.35221
#
# Compressibility (1/GPa) = 0.02994224
#
# Stress axis : x y z
#
# Youngs Moduli (GPa) = 66.64003 57.93517 141.27191
#
# Poissons Ratio (x) = 0.08606 0.34121
# Poissons Ratio (y) = 0.09900 0.11311
# Poissons Ratio (z) = 0.16095 0.04639
#
# Static dielectric constant tensor:
#      x y z
#    x 3.960500 0.246610 0.046180 
#    y 0.246610 3.875350 0.093830 
#    z 0.046180 0.093830 4.172760 
# 
# 
# High freq. dielectric constant tensor:
#      x y z
#    x 1.896260 0.010570 -0.004950 
#    y 0.010570 1.885980 0.006210 
#    z -0.004950 0.006210 1.910720 
# 
# From -- ./inp_files/381890.got.cif
#   From: 2010.06.25/outbox.cif.g09.slc.cpg/sg2_191_cif.got.tgz:381890.got - 2010.06.27 13:26:56.
