data_PCOD8036948
_publ_section_title
;
Structure prediction by ZEFSAII (Michael W. Deem and Ramdas Pophale) SiO2 
 PCOD8036948
Probable space group: P -1
;
_chemical_formula_sum "Si O2"
_cell_formula_units_Z 14
_cell_length_a 12.932902
_cell_length_b 16.122527
_cell_length_c 21.938395
_cell_angle_alpha 18.496052
_cell_angle_beta 148.926153
_cell_angle_gamma 152.983737
_cell_volume 657.033316
_symmetry_space_group_name_H-M "P -1"
_symmetry_group_IT_number 2
_symmetry_cell_setting 'triclinic'
loop_
_space_group_symop_operation_xyz
x,y,z
-x,-y,-z
loop_
_atom_site_type_symbol
_atom_site_label
_atom_site_fract_x
_atom_site_fract_y
_atom_site_fract_z
Si Si1 0.847982 0.647790 0.300994
Si Si2 0.417657 0.689530 0.708965
Si Si3 0.439736 0.410933 0.353315
Si Si4 0.665904 0.624500 0.440573
Si Si5 0.115843 0.286868 0.042877
Si Si6 0.857969 0.261699 0.354703
Si Si7 0.164429 0.738497 0.964468
O O1 0.772321 0.577433 0.241445
O O2 0.619118 0.507482 0.322420
O O3 0.000000 0.500000 0.500000
O O4 0.997118 0.001585 0.137607
O O5 0.628325 0.630991 0.868003
O O6 0.311205 0.690735 0.719428
O O7 0.500000 0.000000 0.500000
O O8 0.557085 0.412114 0.475495
O O9 0.234212 0.083604 0.465844
O O10 0.343434 0.643464 0.147475
O O11 0.500000 0.500000 0.500000
O O12 0.898626 0.617049 0.575470
O O13 0.699327 0.951196 0.217613
O O14 0.975424 0.216409 0.083233
O O15 0.118866 0.566971 0.815933
O O16 0.000000 0.500000 0.000000
#
# Coordination Sequence:
#
# PCOD8036948 Si02
#       7
#     2   2   2   2   2   2   2
#     4  12  24  43  74 100 132 182 229 280 340 404
#     4  12  23  45  74  99 135 182 230 280 341 405
#     4  12  25  45  72  98 143 184 224 280 344 406
#     4  12  27  44  69 103 139 179 231 282 336 407
#     4  12  27  45  70 104 140 178 230 284 340 408
#     4  12  27  46  68 106 140 178 229 285 341 405
#     4  12  25  46  72 101 138 184 229 278 343 409
#
# _framework density 21.307898999999999
#
# number of rings (size 3 to 8) (size 9 to 14) (size 15 to 20)
#    0.000    0.000    5.714    4.286    4.000    2.857 
#    0.000    0.000    0.000    0.000    0.000    0.000 
#    0.000    0.000    0.000    0.000    0.000    0.000 
#
# Total GULP energy -173733.532983 kJ/mol
# GULP energy per Si atom -12409.538070 kJ/mol
# Density = 2.125940 g / cm^3
# Si number density = 21.307899 Si / 1000 Ang^3
#
#
#
# Elastic Constant Matrix: (Units=GPa)
#
#
# Indices 1 2 3 4 5 6 
#
# 1 94.1373 32.4112 39.6207 -8.5601 -3.7754 3.9233
# 2 32.4112 120.0149 42.0424 15.7510 3.7477 -9.2422
# 3 39.6207 42.0424 122.6352 16.4914 1.6094 10.4282
# 4 -8.5601 15.7510 16.4914 41.5353 2.8515 3.5938
# 5 -3.7754 3.7477 1.6094 2.8515 38.7223 2.4283
# 6 3.9233 -9.2422 10.4282 3.5938 2.4283 42.1856
#
#
#
# Elastic Compliance Matrix: (Units=1/GPa)
#
#
# Indices 1 2 3 4 5 6 
#
# 1 0.014154 -0.003325 -0.004101 0.005840 0.001544 -0.001617
# 2 -0.003325 0.010945 -0.002426 -0.004112 -0.001214 0.003727
# 3 -0.004101 -0.002426 0.011079 -0.004094 -0.000165 -0.002530
# 4 0.005840 -0.004112 -0.004094 0.028765 -0.000803 -0.002836
# 5 0.001544 -0.001214 -0.000165 -0.000803 0.026273 -0.001812
# 6 -0.001617 0.003727 -0.002530 -0.002836 -0.001812 0.025643
#
#
# Mechanical properties :
#
#
# Convention : Reuss Voigt Hill
#
# Bulk Modulus (GPa) = 60.70397 62.77067 61.73732
# Shear Modulus (GPa) = 35.19820 39.33617 37.26719
#
# Velocity S-wave (km/s) = 4.06875 4.30127 4.18662
# Velocity P-wave (km/s) = 7.11504 7.36143 7.23928
#
# Compressibility (1/GPa) = 0.01647339
#
# Stress axis : x y z
#
# Youngs Moduli (GPa) = 70.65139 91.36947 90.26308
#
# Poissons Ratio (x) = 0.30381 0.37017
# Poissons Ratio (y) = 0.23492 0.21897
# Poissons Ratio (z) = 0.28974 0.22165
#
# Static dielectric constant tensor:
#      x y z
#    x 3.962480 -0.043890 0.131070 
#    y -0.043890 4.421080 0.205020 
#    z 0.131070 0.205020 4.032960 
# 
# 
# High freq. dielectric constant tensor:
#      x y z
#    x 1.844390 -0.002680 0.005160 
#    y -0.002680 1.858820 0.007110 
#    z 0.005160 0.007110 1.841050 
# 
# From -- ./inp_files/201155.got.cif
#   From: 2010.06.25/outbox.cif.g09.slc.cpg/sg2_101_cif.got.tgz:201155.got - 2010.06.27 13:26:56.
