data_PCOD8036317
_publ_section_title
;
Structure prediction by ZEFSAII (Michael W. Deem and Ramdas Pophale) SiO2 
 PCOD8036317
Probable space group: P -1
;
_chemical_formula_sum "Si O2"
_cell_formula_units_Z 16
_cell_length_a 20.485210
_cell_length_b 17.874687
_cell_length_c 12.477134
_cell_angle_alpha 30.255844
_cell_angle_beta 139.643874
_cell_angle_gamma 160.254211
_cell_volume 742.058382
_symmetry_space_group_name_H-M "P -1"
_symmetry_group_IT_number 2
_symmetry_cell_setting 'triclinic'
loop_
_space_group_symop_operation_xyz
x,y,z
-x,-y,-z
loop_
_atom_site_type_symbol
_atom_site_label
_atom_site_fract_x
_atom_site_fract_y
_atom_site_fract_z
Si Si1 0.913276 0.133275 0.720307
Si Si2 0.336502 0.666089 0.685154
Si Si3 0.014780 0.904166 0.367368
Si Si4 0.566720 0.166884 0.028249
Si Si5 0.830861 0.404150 0.881834
Si Si6 0.607607 0.461298 0.889598
Si Si7 0.427696 0.127232 0.468935
Si Si8 0.313449 0.292251 0.839216
O O1 0.954069 0.067274 0.757781
O O2 0.119325 0.452700 0.639499
O O3 0.804467 0.140203 0.525599
O O4 0.759167 0.862487 0.946090
O O5 0.422616 0.671670 0.693430
O O6 0.500000 0.000000 0.500000
O O7 0.300743 0.527810 0.918097
O O8 0.914958 0.625154 0.626633
O O9 0.867650 0.855668 0.265449
O O10 0.220948 0.192718 0.335299
O O11 0.365776 0.927906 0.001493
O O12 0.552540 0.006834 0.285676
O O13 0.764687 0.404293 0.907463
O O14 0.582075 0.338738 0.900278
O O15 0.000000 0.500000 0.000000
O O16 0.392889 0.258444 0.906326
O O17 0.499550 0.353473 0.354455
#
# Coordination Sequence:
#
# PCOD8036317 Si02
#       8
#     2   2   2   2   2   2   2   2
#     4  12  23  39  69 102 141 190 230 265 334 418
#     4  12  24  41  61 100 150 185 229 278 331 402
#     4  12  24  43  71 100 139 181 233 282 336 407
#     4  11  26  48  71 100 140 171 232 297 340 400
#     4  11  26  50  78  99 125 182 236 283 355 415
#     4  12  26  43  66 106 143 179 224 286 343 401
#     4  12  22  41  70  98 140 189 225 273 339 411
#     4  12  23  40  68 102 139 184 224 270 339 417
#
# _framework density 21.561644999999999
#
# number of rings (size 3 to 8) (size 9 to 14) (size 15 to 20)
#    0.000    0.250    7.500    2.250    0.000    2.000 
#    2.250    1.250    0.000    0.000    0.000    0.000 
#    0.000    0.000    0.000    0.000    0.000    0.000 
#
# Total GULP energy -198459.041320 kJ/mol
# GULP energy per Si atom -12403.690082 kJ/mol
# Density = 2.151257 g / cm^3
# Si number density = 21.561645 Si / 1000 Ang^3
#
#
#
# Elastic Constant Matrix: (Units=GPa)
#
#
# Indices 1 2 3 4 5 6 
#
# 1 157.8098 59.1949 33.2169 -0.3530 -1.9607 7.4706
# 2 59.1949 130.2363 23.6772 3.4189 8.1658 25.2956
# 3 33.2169 23.6772 52.7924 -4.7893 0.5344 5.6334
# 4 -0.3530 3.4189 -4.7893 35.4819 2.8319 7.6372
# 5 -1.9607 8.1658 0.5344 2.8319 26.3909 0.6982
# 6 7.4706 25.2956 5.6334 7.6372 0.6982 36.2491
#
#
#
# Elastic Compliance Matrix: (Units=1/GPa)
#
#
# Indices 1 2 3 4 5 6 
#
# 1 0.008432 -0.003481 -0.003961 -0.000559 0.001807 0.001390
# 2 -0.003481 0.011153 -0.002023 0.000354 -0.003528 -0.006757
# 3 -0.003961 -0.002023 0.022911 0.003741 -0.000478 -0.002111
# 4 -0.000559 0.000354 0.003741 0.030432 -0.003305 -0.007061
# 5 0.001807 -0.003528 -0.000478 -0.003305 0.039426 0.002101
# 6 0.001390 -0.006757 -0.002111 -0.007061 0.002101 0.033791
#
#
# Mechanical properties :
#
#
# Convention : Reuss Voigt Hill
#
# Bulk Modulus (GPa) = 42.43487 63.66849 53.05168
# Shear Modulus (GPa) = 28.91333 34.60769 31.76051
#
# Velocity S-wave (km/s) = 3.66589 4.01066 3.84214
# Velocity P-wave (km/s) = 6.13529 7.14422 6.65889
#
# Compressibility (1/GPa) = 0.02356552
#
# Stress axis : x y z
#
# Youngs Moduli (GPa) = 118.60180 89.66560 43.64639
#
# Poissons Ratio (x) = 0.31210 0.17290
# Poissons Ratio (y) = 0.41282 0.08830
# Poissons Ratio (z) = 0.46982 0.18139
#
# Static dielectric constant tensor:
#      x y z
#    x 3.986720 0.161320 -0.072030 
#    y 0.161320 4.161780 -0.124560 
#    z -0.072030 -0.124560 3.980830 
# 
# 
# High freq. dielectric constant tensor:
#      x y z
#    x 1.845120 0.016940 -0.000760 
#    y 0.016940 1.854740 -0.001810 
#    z -0.000760 -0.001810 1.835530 
# 
# From -- ./inp_files/472347.got.cif
#   From: 2010.06.25/outbox.cif.g09.slc.cpg/sg2_237_cif.got.tgz:472347.got - 2010.06.27 13:26:56.
