data_PCOD8036435
_publ_section_title
;
Structure prediction by ZEFSAII (Michael W. Deem and Ramdas Pophale) SiO2 
 PCOD8036435
Probable space group: P -1
;
_chemical_formula_sum "Si O2"
_cell_formula_units_Z 12
_cell_length_a 4.767599
_cell_length_b 13.776110
_cell_length_c 15.405450
_cell_angle_alpha 34.034373
_cell_angle_beta 124.577680
_cell_angle_gamma 123.649955
_cell_volume 458.493179
_symmetry_space_group_name_H-M "P -1"
_symmetry_group_IT_number 2
_symmetry_cell_setting 'triclinic'
loop_
_space_group_symop_operation_xyz
x,y,z
-x,-y,-z
loop_
_atom_site_type_symbol
_atom_site_label
_atom_site_fract_x
_atom_site_fract_y
_atom_site_fract_z
Si Si1 0.596033 0.108171 0.852399
Si Si2 0.452550 0.412015 0.346469
Si Si3 0.184003 0.356945 0.519300
Si Si4 0.707415 0.761003 0.055859
Si Si5 0.597656 0.810109 0.673797
Si Si6 0.241406 0.684056 0.879253
O O1 0.262680 0.175203 0.706812
O O2 0.914630 0.264102 0.822560
O O3 0.500000 0.000000 0.000000
O O4 0.697510 0.967848 0.906580
O O5 0.163487 0.346496 0.417499
O O6 0.445174 0.618764 0.172846
O O7 0.404595 0.298548 0.335167
O O8 0.820777 0.387918 0.470699
O O9 0.500000 0.500000 0.500000
O O10 0.606856 0.713231 0.973536
O O11 0.344923 0.698973 0.784019
O O12 0.006451 0.830745 0.756331
O O13 0.500000 0.000000 0.500000
O O14 0.000000 0.500000 0.000000
#
# Coordination Sequence:
#
# PCOD8036435 Si02
#       6
#     2   2   2   2   2   2
#     4  11  27  45  72 108 147 192 246 306 369 444
#     4  12  27  47  74 104 149 194 241 305 371 439
#     4  12  26  45  74 105 144 191 243 295 369 439
#     4  11  27  45  73 104 149 188 250 299 372 437
#     4  12  29  49  74 112 152 195 254 312 378 444
#     4  12  27  49  79 109 147 201 254 308 376 449
#
# _framework density 26.172691
#
# number of rings (size 3 to 8) (size 9 to 14) (size 15 to 20)
#    0.000    0.333    3.333    3.500   11.667    0.000 
#    0.000    0.000    0.000    0.000    0.000    0.000 
#    0.000    0.000    0.000    0.000    0.000    0.000 
#
# Total GULP energy -148682.264037 kJ/mol
# GULP energy per Si atom -12390.188670 kJ/mol
# Density = 2.611312 g / cm^3
# Si number density = 26.172691 Si / 1000 Ang^3
#
#
#
# Elastic Constant Matrix: (Units=GPa)
#
#
# Indices 1 2 3 4 5 6 
#
# 1 75.7330 -1.0509 7.1410 2.2869 -9.5089 -10.2946
# 2 -1.0509 107.9516 25.8465 5.9941 -7.7675 -6.2564
# 3 7.1410 25.8465 125.7916 6.1977 -5.9882 -7.9963
# 4 2.2869 5.9941 6.1977 35.6403 -0.6058 -0.4522
# 5 -9.5089 -7.7675 -5.9882 -0.6058 59.5411 9.4134
# 6 -10.2946 -6.2564 -7.9963 -0.4522 9.4134 27.8461
#
#
#
# Elastic Compliance Matrix: (Units=1/GPa)
#
#
# Indices 1 2 3 4 5 6 
#
# 1 0.014121 0.000694 -0.000531 -0.000845 0.001542 0.004689
# 2 0.000694 0.009955 -0.001870 -0.001357 0.000953 0.001612
# 3 -0.000531 -0.001870 0.008541 -0.001110 0.000245 0.001735
# 4 -0.000845 -0.001357 -0.001110 0.028527 -0.000062 -0.000452
# 5 0.001542 0.000953 0.000245 -0.000062 0.018018 -0.005237
# 6 0.004689 0.001612 0.001735 -0.000452 -0.005237 0.040269
#
#
# Mechanical properties :
#
#
# Convention : Reuss Voigt Hill
#
# Bulk Modulus (GPa) = 34.24391 41.48328 37.86359
# Shear Modulus (GPa) = 37.71359 43.10815 40.41087
#
# Velocity S-wave (km/s) = 3.80011 4.06281 3.93365
# Velocity P-wave (km/s) = 5.68917 6.15571 5.92703
#
# Compressibility (1/GPa) = 0.02920227
#
# Stress axis : x y z
#
# Youngs Moduli (GPa) = 70.81897 100.44906 117.08580
#
# Poissons Ratio (x) = -0.06974 0.06219
# Poissons Ratio (y) = -0.04917 0.21898
# Poissons Ratio (z) = 0.03762 0.18786
#
# Static dielectric constant tensor:
#      x y z
#    x 5.681470 1.230610 0.496010 
#    y 1.230610 5.196940 0.776690 
#    z 0.496010 0.776690 5.380390 
# 
# 
# High freq. dielectric constant tensor:
#      x y z
#    x 2.043100 0.002680 0.010250 
#    y 0.002680 2.044600 0.012990 
#    z 0.010250 0.012990 2.070880 
# 
# From -- ./inp_files/45751.got.cif
#   From: 2010.06.25/outbox.cif.g09.slc.cpg/sg2_23_cif.got.tgz:45751.got - 2010.06.27 13:26:56.
