data_PCOD8036103
_publ_section_title
;
Structure prediction by ZEFSAII (Michael W. Deem and Ramdas Pophale) SiO2 
 PCOD8036103
Probable space group: P -1
;
_chemical_formula_sum "Si O2"
_cell_formula_units_Z 16
_cell_length_a 6.599470
_cell_length_b 14.193656
_cell_length_c 11.845134
_cell_angle_alpha 48.513426
_cell_angle_beta 73.048609
_cell_angle_gamma 93.969579
_cell_volume 739.845174
_symmetry_space_group_name_H-M "P -1"
_symmetry_group_IT_number 2
_symmetry_cell_setting 'triclinic'
loop_
_space_group_symop_operation_xyz
x,y,z
-x,-y,-z
loop_
_atom_site_type_symbol
_atom_site_label
_atom_site_fract_x
_atom_site_fract_y
_atom_site_fract_z
Si Si1 0.746460 0.595027 0.424401
Si Si2 0.221442 0.124819 0.894327
Si Si3 0.630253 0.145425 0.674195
Si Si4 0.163138 0.491543 0.077229
Si Si5 0.619697 0.728186 0.806189
Si Si6 0.990362 0.434244 0.397147
Si Si7 0.144260 0.068837 0.200244
Si Si8 0.370510 0.072724 0.541038
O O1 0.500000 0.500000 0.500000
O O2 0.781827 0.749201 0.277176
O O3 0.939661 0.562068 0.350804
O O4 0.788523 0.574748 0.566792
O O5 0.439746 0.091043 0.846011
O O6 0.218961 0.154097 0.004870
O O7 0.000000 0.000000 0.000000
O O8 0.769667 0.300440 0.557875
O O9 0.516206 0.131614 0.581296
O O10 0.803529 0.067106 0.712787
O O11 0.241982 0.369707 0.129747
O O12 0.029979 0.455548 0.242773
O O13 0.357629 0.638399 0.939959
O O14 0.000000 0.500000 0.000000
O O15 0.699480 0.841593 0.798524
O O16 0.656203 0.801836 0.620843
O O17 0.878852 0.032878 0.300484
O O18 0.500000 0.000000 0.500000
#
# Coordination Sequence:
#
# PCOD8036103 Si02
#       8
#     2   2   2   2   2   2   2   2
#     4  11  26  47  70 103 142 185 234 298 356 426
#     4  12  26  47  73 105 146 187 246 294 364 420
#     4  12  25  46  73 105 144 194 235 300 359 432
#     4  11  27  45  71 101 142 189 236 298 355 429
#     4  11  27  44  68 105 141 183 242 291 357 433
#     4  11  26  44  74 101 140 188 240 287 363 434
#     4  12  27  44  73 105 146 185 238 302 357 435
#     4  12  26  46  73 106 145 189 234 294 369 432
#
# _framework density 21.626145999999999
#
# number of rings (size 3 to 8) (size 9 to 14) (size 15 to 20)
#    0.000    0.500    3.750    3.000    8.750    2.000 
#    0.000    0.000    0.000    0.000    0.000    0.000 
#    0.000    0.000    0.000    0.000    0.000    0.000 
#
# Total GULP energy -198489.726613 kJ/mol
# GULP energy per Si atom -12405.607913 kJ/mol
# Density = 2.157692 g / cm^3
# Si number density = 21.626146 Si / 1000 Ang^3
#
#
#
# Elastic Constant Matrix: (Units=GPa)
#
#
# Indices 1 2 3 4 5 6 
#
# 1 134.3474 37.6231 52.0498 7.4359 3.6192 7.9383
# 2 37.6231 83.9653 30.1126 1.1785 -6.9121 -0.3076
# 3 52.0498 30.1126 110.5602 14.4702 -1.7512 4.9929
# 4 7.4359 1.1785 14.4702 43.2708 -0.6112 0.9087
# 5 3.6192 -6.9121 -1.7512 -0.6112 39.5251 5.0621
# 6 7.9383 -0.3076 4.9929 0.9087 5.0621 33.9686
#
#
#
# Elastic Compliance Matrix: (Units=1/GPa)
#
#
# Indices 1 2 3 4 5 6 
#
# 1 0.009938 -0.003247 -0.003697 -0.000370 -0.001445 -0.001583
# 2 -0.003247 0.014483 -0.002548 0.001035 0.002625 0.000846
# 3 -0.003697 -0.002548 0.011956 -0.003267 0.000488 -0.000902
# 4 -0.000370 0.001035 -0.003267 0.024248 0.000463 -0.000142
# 5 -0.001445 0.002625 0.000488 0.000463 0.026389 -0.003655
# 6 -0.001583 0.000846 -0.000902 -0.000142 -0.003655 0.030498
#
#
# Mechanical properties :
#
#
# Convention : Reuss Voigt Hill
#
# Bulk Modulus (GPa) = 57.49686 63.16043 60.32864
# Shear Modulus (GPa) = 35.13893 37.29206 36.21550
#
# Velocity S-wave (km/s) = 4.03530 4.15709 4.09665
# Velocity P-wave (km/s) = 6.95384 7.23262 7.09460
#
# Compressibility (1/GPa) = 0.01739225
#
# Stress axis : x y z
#
# Youngs Moduli (GPa) = 100.62440 69.04679 83.64259
#
# Poissons Ratio (x) = 0.22416 0.30925
# Poissons Ratio (y) = 0.32668 0.21314
# Poissons Ratio (z) = 0.37204 0.17595
#
# Static dielectric constant tensor:
#      x y z
#    x 4.166660 -0.071820 0.084740 
#    y -0.071820 4.125120 -0.022360 
#    z 0.084740 -0.022360 3.735880 
# 
# 
# High freq. dielectric constant tensor:
#      x y z
#    x 1.866020 0.003400 0.004590 
#    y 0.003400 1.862130 0.001830 
#    z 0.004590 0.001830 1.855360 
# 
# From -- ./inp_files/367466.got.cif
#   From: 2010.06.25/outbox.cif.g09.slc.cpg/sg2_184_cif.got.tgz:367466.got - 2010.06.27 13:26:56.
