data_PCOD8036005
_publ_section_title
;
Structure prediction by ZEFSAII (Michael W. Deem and Ramdas Pophale) SiO2 
 PCOD8036005
Probable space group: P -1
;
_chemical_formula_sum "Si O2"
_cell_formula_units_Z 16
_cell_length_a 16.519833
_cell_length_b 6.276454
_cell_length_c 8.011841
_cell_angle_alpha 55.461423
_cell_angle_beta 91.000304
_cell_angle_gamma 80.014476
_cell_volume 667.034339
_symmetry_space_group_name_H-M "P -1"
_symmetry_group_IT_number 2
_symmetry_cell_setting 'triclinic'
loop_
_space_group_symop_operation_xyz
x,y,z
-x,-y,-z
loop_
_atom_site_type_symbol
_atom_site_label
_atom_site_fract_x
_atom_site_fract_y
_atom_site_fract_z
Si Si1 0.759633 0.995750 0.406978
Si Si2 0.344800 0.610755 0.543958
Si Si3 0.391885 0.034116 0.831810
Si Si4 0.054827 0.710431 0.440113
Si Si5 0.446008 0.053830 0.313155
Si Si6 0.666292 0.411858 0.815639
Si Si7 0.163495 0.557272 0.193833
Si Si8 0.089837 0.799025 0.768017
O O1 0.735523 0.242288 0.423904
O O2 0.838432 0.033719 0.285822
O O3 0.675930 0.988904 0.304292
O O4 0.792968 0.747230 0.638151
O O5 0.381710 0.334904 0.766224
O O6 0.323734 0.500765 0.413052
O O7 0.406273 0.799234 0.418981
O O8 0.488730 0.934347 0.835640
O O9 0.378051 0.836587 0.066286
O O10 0.122070 0.688940 0.304698
O O11 0.095967 0.654505 0.651286
O O12 0.000000 0.500000 0.500000
O O13 0.000098 0.008231 0.301040
O O14 0.380262 0.334686 0.191348
O O15 0.500000 0.000000 0.500000
O O16 0.761294 0.310627 0.925629
O O17 0.100052 0.593869 0.017013
#
# Coordination Sequence:
#
# PCOD8036005 Si02
#       8
#     2   2   2   2   2   2   2   2
#     4  12  24  46  70 102 144 183 241 294 356 434
#     4  12  24  43  70  99 138 191 240 298 361 424
#     4  12  26  44  70 100 142 188 238 302 357 421
#     4  11  25  49  74 108 146 184 238 295 359 444
#     4  12  23  46  68  95 145 188 239 302 361 426
#     4  12  26  44  70 105 137 188 244 296 361 429
#     4  12  23  49  73 105 147 189 237 298 363 431
#     4  11  26  46  76 106 143 190 233 297 368 428
#
# _framework density 23.986771999999998
#
# number of rings (size 3 to 8) (size 9 to 14) (size 15 to 20)
#    0.000    0.250    7.500    1.875    0.000    3.000 
#    4.500    0.000    0.000    0.000    0.000    0.000 
#    0.000    0.000    0.000    0.000    0.000    0.000 
#
# Total GULP energy -198273.624040 kJ/mol
# GULP energy per Si atom -12392.101502 kJ/mol
# Density = 2.393218 g / cm^3
# Si number density = 23.986772 Si / 1000 Ang^3
#
#
#
# Elastic Constant Matrix: (Units=GPa)
#
#
# Indices 1 2 3 4 5 6 
#
# 1 109.7727 44.6551 26.1127 -9.4539 -5.2814 -27.8743
# 2 44.6551 120.7365 46.3181 -6.2312 1.3703 -27.3799
# 3 26.1127 46.3181 94.5227 -4.5346 -0.1729 -12.0515
# 4 -9.4539 -6.2312 -4.5346 41.4065 11.3081 -3.5871
# 5 -5.2814 1.3703 -0.1729 11.3081 35.6493 1.4861
# 6 -27.8743 -27.3799 -12.0515 -3.5871 1.4861 45.8394
#
#
#
# Elastic Compliance Matrix: (Units=1/GPa)
#
#
# Indices 1 2 3 4 5 6 
#
# 1 0.012168 -0.002621 -0.001232 0.002504 0.000866 0.005678
# 2 -0.002621 0.012155 -0.004569 0.001560 -0.001566 0.004638
# 3 -0.001232 -0.004569 0.013187 0.000507 -0.000105 0.000032
# 4 0.002504 0.001560 0.000507 0.027833 -0.008726 0.005049
# 5 0.000866 -0.001566 -0.000105 -0.008726 0.031096 -0.002127
# 6 0.005678 0.004638 0.000032 0.005049 -0.002127 0.028511
#
#
# Mechanical properties :
#
#
# Convention : Reuss Voigt Hill
#
# Bulk Modulus (GPa) = 48.38662 62.13374 55.26018
# Shear Modulus (GPa) = 33.62932 38.44211 36.03572
#
# Velocity S-wave (km/s) = 3.74838 4.00764 3.88018
# Velocity P-wave (km/s) = 6.24098 6.88291 6.56979
#
# Compressibility (1/GPa) = 0.02066687
#
# Stress axis : x y z
#
# Youngs Moduli (GPa) = 82.18284 82.27366 75.83430
#
# Poissons Ratio (x) = 0.21564 0.09339
# Poissons Ratio (y) = 0.21540 0.34646
# Poissons Ratio (z) = 0.10121 0.37588
#
# Static dielectric constant tensor:
#      x y z
#    x 4.239710 -0.029260 -0.018960 
#    y -0.029260 3.841140 -0.075430 
#    z -0.018960 -0.075430 4.290920 
# 
# 
# High freq. dielectric constant tensor:
#      x y z
#    x 1.966080 -0.004070 -0.002060 
#    y -0.004070 1.943740 0.000500 
#    z -0.002060 0.000500 1.958950 
# 
# From -- ./inp_files/323192.got.cif
#   From: 2010.06.25/outbox.cif.g09.slc.cpg/sg2_162_cif.got.tgz:323192.got - 2010.06.27 13:26:56.
