data_PCOD8036822
_publ_section_title
;
Structure prediction by ZEFSAII (Michael W. Deem and Ramdas Pophale) SiO2 
 PCOD8036822
Probable space group: P -1
;
_chemical_formula_sum "Si O2"
_cell_formula_units_Z 14
_cell_length_a 10.092000
_cell_length_b 20.114359
_cell_length_c 8.727078
_cell_angle_alpha 116.346687
_cell_angle_beta 30.336686
_cell_angle_gamma 129.700857
_cell_volume 661.558319
_symmetry_space_group_name_H-M "P -1"
_symmetry_group_IT_number 2
_symmetry_cell_setting 'triclinic'
loop_
_space_group_symop_operation_xyz
x,y,z
-x,-y,-z
loop_
_atom_site_type_symbol
_atom_site_label
_atom_site_fract_x
_atom_site_fract_y
_atom_site_fract_z
Si Si1 0.203239 0.248739 0.455544
Si Si2 0.743029 0.268125 0.408169
Si Si3 0.657640 0.453879 0.223788
Si Si4 0.260223 0.004619 0.851449
Si Si5 0.391502 0.798627 0.184874
Si Si6 0.798646 0.524201 0.824012
Si Si7 0.933161 0.819863 0.148013
O O1 0.455344 0.349694 0.363349
O O2 0.107985 0.186058 0.634670
O O3 0.899190 0.242587 0.684800
O O4 0.348994 0.217998 0.151195
O O5 0.741845 0.251132 0.571784
O O6 0.399111 0.241394 0.671474
O O7 0.996297 0.372245 0.224547
O O8 0.836592 0.210064 0.161674
O O9 0.500000 0.500000 0.500000
O O10 0.673215 0.461765 0.033890
O O11 0.000000 0.500000 0.000000
O O12 0.446123 0.095528 0.855932
O O13 0.500000 0.000000 0.500000
O O14 0.000000 0.000000 0.000000
O O15 0.095783 0.923620 0.052383
O O16 0.000000 0.500000 0.500000
O O17 0.500000 0.500000 0.000000
#
# Coordination Sequence:
#
# PCOD8036822 Si02
#       7
#     2   2   2   2   2   2   2
#     4  12  26  42  64 101 132 168 213 269 334 371
#     4  12  23  42  68  94 124 178 219 261 318 383
#     4  12  24  44  66  92 133 177 214 262 321 392
#     4  12  23  44  68  98 125 169 221 263 326 388
#     4  12  24  42  67  94 134 166 214 274 324 379
#     4  12  24  41  64  96 131 167 218 272 317 377
#     4  12  24  43  67  95 129 167 221 265 312 400
#
# _framework density 21.162154000000001
#
# number of rings (size 3 to 8) (size 9 to 14) (size 15 to 20)
#    0.000    0.000    2.857    8.571    0.000    1.143 
#    0.000    0.000    0.000    0.000    0.000    0.000 
#    0.000    0.000    0.000    0.000    0.000    0.000 
#
# Total GULP energy -173749.121709 kJ/mol
# GULP energy per Si atom -12410.651551 kJ/mol
# Density = 2.111399 g / cm^3
# Si number density = 21.162154 Si / 1000 Ang^3
#
#
#
# Elastic Constant Matrix: (Units=GPa)
#
#
# Indices 1 2 3 4 5 6 
#
# 1 112.3324 10.2376 36.5526 -11.5076 -9.2261 -7.5804
# 2 10.2376 88.8089 26.2257 6.3374 20.3557 -5.2776
# 3 36.5526 26.2257 121.3053 14.8194 -0.5245 -3.3089
# 4 -11.5076 6.3374 14.8194 44.7893 -0.6635 4.8517
# 5 -9.2261 20.3557 -0.5245 -0.6635 42.6613 -2.7956
# 6 -7.5804 -5.2776 -3.3089 4.8517 -2.7956 34.1288
#
#
#
# Elastic Compliance Matrix: (Units=1/GPa)
#
#
# Indices 1 2 3 4 5 6 
#
# 1 0.010895 -0.001109 -0.003473 0.003977 0.003009 0.001593
# 2 -0.001109 0.013878 -0.002453 -0.001683 -0.006830 0.001342
# 3 -0.003473 -0.002453 0.010324 -0.004003 0.000515 0.000462
# 4 0.003977 -0.001683 -0.004003 0.025286 0.001797 -0.003212
# 5 0.003009 -0.006830 0.000515 0.001797 0.027493 0.001659
# 6 0.001593 0.001342 0.000462 -0.003212 0.001659 0.030499
#
#
# Mechanical properties :
#
#
# Convention : Reuss Voigt Hill
#
# Bulk Modulus (GPa) = 47.55821 52.05317 49.80569
# Shear Modulus (GPa) = 35.85366 40.94459 38.39912
#
# Velocity S-wave (km/s) = 4.12057 4.40341 4.26434
# Velocity P-wave (km/s) = 6.72018 7.10662 6.91610
#
# Compressibility (1/GPa) = 0.02102686
#
# Stress axis : x y z
#
# Youngs Moduli (GPa) = 91.78250 72.05708 96.85815
#
# Poissons Ratio (x) = 0.07994 0.33635
# Poissons Ratio (y) = 0.10182 0.23763
# Poissons Ratio (z) = 0.31873 0.17678
#
# Static dielectric constant tensor:
#      x y z
#    x 3.923180 -0.230650 0.005380 
#    y -0.230650 4.270020 -0.135150 
#    z 0.005380 -0.135150 4.113130 
# 
# 
# High freq. dielectric constant tensor:
#      x y z
#    x 1.840320 -0.006230 -0.003720 
#    y -0.006230 1.844020 -0.000710 
#    z -0.003720 -0.000710 1.852240 
# 
# From -- ./inp_files/139264.got.cif
#   From: 2010.06.25/outbox.cif.g09.slc.cpg/sg2_70_cif.got.tgz:139264.got - 2010.06.27 13:26:56.
