data_PCOD8036858
_publ_section_title
;
Structure prediction by ZEFSAII (Michael W. Deem and Ramdas Pophale) SiO2 
 PCOD8036858
Probable space group: P -1
;
_chemical_formula_sum "Si O2"
_cell_formula_units_Z 14
_cell_length_a 4.918288
_cell_length_b 13.280964
_cell_length_c 16.791059
_cell_angle_alpha 144.019083
_cell_angle_beta 70.461951
_cell_angle_gamma 110.393833
_cell_volume 601.243420
_symmetry_space_group_name_H-M "P -1"
_symmetry_group_IT_number 2
_symmetry_cell_setting 'triclinic'
loop_
_space_group_symop_operation_xyz
x,y,z
-x,-y,-z
loop_
_atom_site_type_symbol
_atom_site_label
_atom_site_fract_x
_atom_site_fract_y
_atom_site_fract_z
Si Si1 0.134761 0.848099 0.270463
Si Si2 0.162088 0.372516 0.710841
Si Si3 0.677049 0.689392 0.094968
Si Si4 0.677453 0.598850 0.865692
Si Si5 0.026757 0.301213 0.386952
Si Si6 0.749298 0.878497 0.904486
Si Si7 0.383942 0.218601 0.442743
O O1 0.469870 0.821764 0.230904
O O2 0.981170 0.801236 0.340484
O O3 0.977328 0.724806 0.137369
O O4 0.153383 0.046661 0.371161
O O5 0.355853 0.487429 0.831500
O O6 0.385193 0.331852 0.594837
O O7 0.920199 0.470956 0.756017
O O8 0.500000 0.500000 0.000000
O O9 0.746002 0.719515 0.013813
O O10 0.661313 0.712018 0.861193
O O11 0.715626 0.194518 0.374837
O O12 0.000000 0.500000 0.500000
O O13 0.153575 0.194810 0.235602
O O14 0.259227 0.314648 0.443215
O O15 0.500000 0.000000 0.000000
O O16 0.000000 0.000000 0.000000
#
# Coordination Sequence:
#
# PCOD8036858 Si02
#       7
#     2   2   2   2   2   2   2
#     4  12  25  42  68 104 145 177 232 286 352 415
#     4  12  23  46  69 105 139 187 231 282 346 435
#     4  12  23  43  68 101 139 189 229 280 344 430
#     4  12  26  43  73  99 141 185 234 284 356 421
#     4  12  27  51  74 102 142 192 246 290 354 432
#     4  12  28  48  72 107 141 180 239 307 355 407
#     4  12  27  44  75 102 140 183 233 294 355 407
#
# _framework density 23.285080000000001
#
# number of rings (size 3 to 8) (size 9 to 14) (size 15 to 20)
#    0.000    0.000    2.857    7.286    6.000    0.000 
#    0.000    4.286    0.000    0.000    0.000    0.000 
#    0.000    0.000    0.000    0.000    0.000    0.000 
#
# Total GULP energy -173606.307397 kJ/mol
# GULP energy per Si atom -12400.450528 kJ/mol
# Density = 2.323208 g / cm^3
# Si number density = 23.285080 Si / 1000 Ang^3
#
#
#
# Elastic Constant Matrix: (Units=GPa)
#
#
# Indices 1 2 3 4 5 6 
#
# 1 121.1940 33.6610 32.7426 -1.8567 -7.1771 -2.5692
# 2 33.6610 114.6381 47.1440 -10.6658 -12.2557 0.8110
# 3 32.7426 47.1440 116.1920 -19.7848 -8.4238 -0.6605
# 4 -1.8567 -10.6658 -19.7848 52.1840 4.4107 0.2028
# 5 -7.1771 -12.2557 -8.4238 4.4107 39.7218 1.3728
# 6 -2.5692 0.8110 -0.6605 0.2028 1.3728 38.2614
#
#
#
# Elastic Compliance Matrix: (Units=1/GPa)
#
#
# Indices 1 2 3 4 5 6 
#
# 1 0.009362 -0.001958 -0.001933 -0.000866 0.000752 0.000614
# 2 -0.001958 0.011118 -0.003695 0.000614 0.002243 -0.000515
# 3 -0.001933 -0.003695 0.011268 0.003404 0.000519 0.000106
# 4 -0.000866 0.000614 0.003404 0.020679 -0.001539 -0.000067
# 5 0.000752 0.002243 0.000519 -0.001539 0.026316 -0.000924
# 6 0.000614 -0.000515 0.000106 -0.000067 -0.000924 0.026224
#
#
# Mechanical properties :
#
#
# Convention : Reuss Voigt Hill
#
# Bulk Modulus (GPa) = 60.33039 64.34657 62.33848
# Shear Modulus (GPa) = 39.78871 41.93187 40.86029
#
# Velocity S-wave (km/s) = 4.13820 4.24819 4.19356
# Velocity P-wave (km/s) = 6.98561 7.19424 7.09069
#
# Compressibility (1/GPa) = 0.01657539
#
# Stress axis : x y z
#
# Youngs Moduli (GPa) = 106.81828 89.94234 88.74557
#
# Poissons Ratio (x) = 0.17615 0.17154
# Poissons Ratio (y) = 0.20920 0.32791
# Poissons Ratio (z) = 0.20647 0.33234
#
# Static dielectric constant tensor:
#      x y z
#    x 3.955280 -0.175820 1.001140 
#    y -0.175820 3.923740 0.586700 
#    z 1.001140 0.586700 0.995360 
# 
# 
# High freq. dielectric constant tensor:
#      x y z
#    x 1.936180 -0.003010 0.002930 
#    y -0.003010 1.934780 -0.004930 
#    z 0.002930 -0.004930 1.919830 
# 
# From -- ./inp_files/32881.got.cif
#   From: 2010.06.25/outbox.cif.g09.slc.cpg/sg2_17_cif.got.tgz:32881.got - 2010.06.27 13:26:56.
