data_PCOD8036585
_publ_section_title
;
Structure prediction by ZEFSAII (Michael W. Deem and Ramdas Pophale) SiO2 
 PCOD8036585
Probable space group: P -1
;
_chemical_formula_sum "Si O2"
_cell_formula_units_Z 16
_cell_length_a 10.675830
_cell_length_b 20.399994
_cell_length_c 11.847642
_cell_angle_alpha 150.381239
_cell_angle_beta 39.286834
_cell_angle_gamma 146.509793
_cell_volume 692.224821
_symmetry_space_group_name_H-M "P -1"
_symmetry_group_IT_number 2
_symmetry_cell_setting 'triclinic'
loop_
_space_group_symop_operation_xyz
x,y,z
-x,-y,-z
loop_
_atom_site_type_symbol
_atom_site_label
_atom_site_fract_x
_atom_site_fract_y
_atom_site_fract_z
Si Si1 0.760767 0.419533 0.610527
Si Si2 0.957214 0.122119 0.147762
Si Si3 0.549521 0.650892 0.626102
Si Si4 0.270457 0.801106 0.131041
Si Si5 0.944696 0.249738 0.565931
Si Si6 0.141228 0.510124 0.095516
Si Si7 0.606549 0.566576 0.780009
Si Si8 0.567012 0.070135 0.183115
O O1 0.794979 0.422967 0.724219
O O2 0.650499 0.524164 0.811551
O O3 0.607888 0.241133 0.411824
O O4 0.000000 0.500000 0.500000
O O5 0.837224 0.168889 0.399513
O O6 0.788380 0.064463 0.070540
O O7 0.199447 0.269841 0.160851
O O8 0.000000 0.000000 0.000000
O O9 0.500000 0.500000 0.500000
O O10 0.458608 0.750003 0.901152
O O11 0.418143 0.579858 0.493277
O O12 0.826729 0.757799 0.577157
O O13 0.019260 0.674770 0.069175
O O14 0.246868 0.832023 0.325289
O O15 0.348701 0.960180 0.249605
O O16 0.003650 0.426163 0.773506
O O17 0.369708 0.565918 0.945606
O O18 0.500000 0.000000 0.000000
#
# Coordination Sequence:
#
# PCOD8036585 Si02
#       8
#     2   2   2   2   2   2   2   2
#     4  12  24  49  72  99 139 199 259 300 365 453
#     4  12  27  46  75 113 153 197 247 318 382 441
#     4  12  21  41  70 109 147 192 237 306 369 438
#     4  12  26  43  75 112 150 194 246 308 376 448
#     4  12  24  44  72 111 152 193 250 297 378 454
#     4  12  24  44  73 110 146 194 249 311 368 447
#     4  12  25  44  75 105 145 196 255 305 368 455
#     4  12  27  49  75 105 150 200 250 313 380 446
#
# _framework density 23.113876999999999
#
# number of rings (size 3 to 8) (size 9 to 14) (size 15 to 20)
#    0.000    0.000    6.250    4.500    1.750    1.500 
#    0.000    0.625    0.000    0.000    0.000    0.000 
#    0.000    0.000    0.000    0.000    0.000    0.000 
#
# Total GULP energy -198319.431272 kJ/mol
# GULP energy per Si atom -12394.964454 kJ/mol
# Density = 2.306127 g / cm^3
# Si number density = 23.113877 Si / 1000 Ang^3
#
#
#
# Elastic Constant Matrix: (Units=GPa)
#
#
# Indices 1 2 3 4 5 6 
#
# 1 119.8451 54.4990 40.5350 0.4307 3.6269 -0.5460
# 2 54.4990 174.8356 67.8999 -0.1290 1.9541 -11.6863
# 3 40.5350 67.8999 100.7330 -10.4502 7.0680 -4.9097
# 4 0.4307 -0.1290 -10.4502 43.0937 -4.4839 -6.0387
# 5 3.6269 1.9541 7.0680 -4.4839 40.9196 2.9186
# 6 -0.5460 -11.6863 -4.9097 -6.0387 2.9186 40.3409
#
#
#
# Elastic Compliance Matrix: (Units=1/GPa)
#
#
# Indices 1 2 3 4 5 6 
#
# 1 0.010291 -0.002185 -0.002788 -0.000956 -0.000363 -0.000950
# 2 -0.002185 0.008370 -0.004798 -0.000842 0.000412 0.001655
# 3 -0.002788 -0.004798 0.014828 0.003571 -0.001768 0.001040
# 4 -0.000956 -0.000842 0.003571 0.024808 0.001959 0.003750
# 5 -0.000363 0.000412 -0.001768 0.001959 0.025086 -0.001622
# 6 -0.000950 0.001655 0.001040 0.003750 -0.001622 0.026061
#
#
# Mechanical properties :
#
#
# Convention : Reuss Voigt Hill
#
# Bulk Modulus (GPa) = 71.70247 80.14239 75.92243
# Shear Modulus (GPa) = 37.41545 40.36947 38.89246
#
# Velocity S-wave (km/s) = 4.02773 4.18370 4.10646
# Velocity P-wave (km/s) = 7.26077 7.62141 7.44328
#
# Compressibility (1/GPa) = 0.01394652
#
# Stress axis : x y z
#
# Youngs Moduli (GPa) = 97.17287 119.48118 67.43814
#
# Poissons Ratio (x) = 0.26109 0.18803
# Poissons Ratio (y) = 0.21234 0.32356
# Poissons Ratio (z) = 0.27094 0.57325
#
# Static dielectric constant tensor:
#      x y z
#    x 3.498060 0.476460 -0.134770 
#    y 0.476460 4.197240 0.320280 
#    z -0.134770 0.320280 4.351270 
# 
# 
# High freq. dielectric constant tensor:
#      x y z
#    x 1.920180 -0.006430 0.010280 
#    y -0.006430 1.920530 0.001030 
#    z 0.010280 0.001030 1.908260 
# 
# From -- ./inp_files/438713.got.cif
#   From: 2010.06.25/outbox.cif.g09.slc.cpg/sg2_220_cif.got.tgz:438713.got - 2010.06.27 13:26:56.
