data_PCOD8036504
_publ_section_title
;
Structure prediction by ZEFSAII (Michael W. Deem and Ramdas Pophale) SiO2 
 PCOD8036504
Probable space group: P -1
;
_chemical_formula_sum "Si O2"
_cell_formula_units_Z 12
_cell_length_a 5.929934
_cell_length_b 16.289370
_cell_length_c 16.214657
_cell_angle_alpha 161.974252
_cell_angle_beta 79.975221
_cell_angle_gamma 100.681676
_cell_volume 476.257632
_symmetry_space_group_name_H-M "P -1"
_symmetry_group_IT_number 2
_symmetry_cell_setting 'triclinic'
loop_
_space_group_symop_operation_xyz
x,y,z
-x,-y,-z
loop_
_atom_site_type_symbol
_atom_site_label
_atom_site_fract_x
_atom_site_fract_y
_atom_site_fract_z
Si Si1 0.742445 0.118414 0.853276
Si Si2 0.017590 0.621075 0.356105
Si Si3 0.553156 0.951776 0.044994
Si Si4 0.565433 0.565883 0.932349
Si Si5 0.165133 0.267572 0.766715
Si Si6 0.855011 0.460667 0.553826
O O1 0.678288 0.081364 0.918615
O O2 0.521947 0.186591 0.878708
O O3 0.880084 0.872525 0.576605
O O4 0.914879 0.372254 0.073828
O O5 0.283679 0.625914 0.316817
O O6 0.981642 0.573041 0.410412
O O7 0.694438 0.198122 0.309595
O O8 0.698235 0.700436 0.806945
O O9 0.500000 0.000000 0.000000
O O10 0.365933 0.347258 0.764560
O O11 0.704531 0.731908 0.153501
O O12 0.000000 0.000000 0.500000
O O13 0.000000 0.500000 0.000000
O O14 0.000000 0.500000 0.500000
#
# Coordination Sequence:
#
# PCOD8036504 Si02
#       6
#     2   2   2   2   2   2
#     4  12  27  47  75 115 155 204 261 318 387 456
#     4  12  27  47  75 115 155 204 261 318 387 456
#     4  12  24  45  71 106 156 204 260 321 376 448
#     4  11  28  52  82 116 162 198 262 328 390 479
#     4  11  28  55  83 116 153 205 254 319 405 480
#     4  12  24  45  71 106 156 204 260 321 376 448
#
# _framework density 25.196448
#
# number of rings (size 3 to 8) (size 9 to 14) (size 15 to 20)
#    0.000    0.333    1.667    6.000    0.000   10.667 
#    0.000    2.500    0.000    0.000    0.000    0.000 
#    0.000    0.000    0.000    0.000    0.000    0.000 
#
# Total GULP energy -148755.492589 kJ/mol
# GULP energy per Si atom -12396.291049 kJ/mol
# Density = 2.513910 g / cm^3
# Si number density = 25.196448 Si / 1000 Ang^3
#
#
#
# Elastic Constant Matrix: (Units=GPa)
#
#
# Indices 1 2 3 4 5 6 
#
# 1 141.4453 67.7409 72.4380 8.9547 -20.4947 4.9741
# 2 67.7409 150.1595 46.4570 -8.4528 -15.3646 -4.6066
# 3 72.4380 46.4570 182.8664 33.6882 -12.4957 13.6405
# 4 8.9547 -8.4528 33.6882 29.3508 -2.6523 -7.9837
# 5 -20.4947 -15.3646 -12.4957 -2.6523 63.6256 -5.4554
# 6 4.9741 -4.6066 13.6405 -7.9837 -5.4554 61.3369
#
#
#
# Elastic Compliance Matrix: (Units=1/GPa)
#
#
# Indices 1 2 3 4 5 6 
#
# 1 0.010759 -0.003813 -0.002957 -0.000940 0.001886 -0.000456
# 2 -0.003813 0.009802 -0.002526 0.007733 0.001199 0.002720
# 3 -0.002957 -0.002526 0.009753 -0.012077 -0.000471 -0.003733
# 4 -0.000940 0.007733 -0.012077 0.053516 0.002325 0.010515
# 5 0.001886 0.001199 -0.000471 0.002325 0.016776 0.001836
# 6 -0.000456 0.002720 -0.003733 0.010515 0.001836 0.018907
#
#
# Mechanical properties :
#
#
# Convention : Reuss Voigt Hill
#
# Bulk Modulus (GPa) = 85.30386 94.19365 89.74876
# Shear Modulus (GPa) = 35.20821 50.05169 42.62995
#
# Velocity S-wave (km/s) = 3.74217 4.46181 4.11774
# Velocity P-wave (km/s) = 7.25264 8.00053 7.63575
#
# Compressibility (1/GPa) = 0.01172280
#
# Stress axis : x y z
#
# Youngs Moduli (GPa) = 92.94388 102.01579 102.53571
#
# Poissons Ratio (x) = 0.38895 0.30324
# Poissons Ratio (y) = 0.35437 0.25897
# Poissons Ratio (z) = 0.27487 0.25766
#
# Static dielectric constant tensor:
#      x y z
#    x 4.800680 -0.112880 -0.128580 
#    y -0.112880 5.242910 -0.004120 
#    z -0.128580 -0.004120 4.515990 
# 
# 
# High freq. dielectric constant tensor:
#      x y z
#    x 2.018030 0.000160 -0.003410 
#    y 0.000160 2.027550 -0.002060 
#    z -0.003410 -0.002060 2.015060 
# 
# From -- ./inp_files/484037.got.cif
#   From: 2010.06.25/outbox.cif.g09.slc.cpg/sg2_243_cif.got.tgz:484037.got - 2010.06.27 13:26:56.
