data_PCOD8036035
_publ_section_title
;
Structure prediction by ZEFSAII (Michael W. Deem and Ramdas Pophale) SiO2 
 PCOD8036035
Probable space group: P -1
;
_chemical_formula_sum "Si O2"
_cell_formula_units_Z 14
_cell_length_a 6.497398
_cell_length_b 11.979843
_cell_length_c 13.670669
_cell_angle_alpha 114.043673
_cell_angle_beta 41.941180
_cell_angle_gamma 112.627448
_cell_volume 643.657400
_symmetry_space_group_name_H-M "P -1"
_symmetry_group_IT_number 2
_symmetry_cell_setting 'triclinic'
loop_
_space_group_symop_operation_xyz
x,y,z
-x,-y,-z
loop_
_atom_site_type_symbol
_atom_site_label
_atom_site_fract_x
_atom_site_fract_y
_atom_site_fract_z
Si Si1 0.768631 0.847062 0.100200
Si Si2 0.344238 0.482679 0.345620
Si Si3 0.224202 0.318000 0.621830
Si Si4 0.807021 0.771439 0.611830
Si Si5 0.518234 0.869075 0.401690
Si Si6 0.431183 0.591521 0.140146
Si Si7 0.447716 0.970391 0.895360
O O1 0.671958 0.904174 0.255999
O O2 0.716597 0.700025 0.073533
O O3 0.557652 0.899280 0.110154
O O4 0.126851 0.882999 0.960482
O O5 0.564047 0.556859 0.375351
O O6 0.350689 0.335530 0.297743
O O7 0.433605 0.525733 0.220271
O O8 0.000000 0.500000 0.500000
O O9 0.322891 0.268483 0.464118
O O10 0.251652 0.207669 0.648227
O O11 0.876676 0.348700 0.751044
O O12 0.714879 0.901221 0.727623
O O13 0.183345 0.784517 0.482480
O O14 0.500000 0.000000 0.500000
O O15 0.500000 0.500000 0.000000
O O16 0.500000 0.000000 0.000000
#
# Coordination Sequence:
#
# PCOD8036035 Si02
#       7
#     2   2   2   2   2   2   2
#     4  11  25  50  63 105 140 177 241 283 345 433
#     4  12  24  47  69 106 140 178 239 291 351 423
#     4  12  24  45  73 101 139 187 232 297 348 423
#     4  12  26  44  73 109 135 186 237 292 354 421
#     4  12  25  44  75 103 142 180 238 289 350 422
#     4  12  29  45  72 104 144 188 236 294 356 427
#     4  11  28  45  72  99 142 187 230 292 357 415
#
# _framework density 21.750699999999998
#
# number of rings (size 3 to 8) (size 9 to 14) (size 15 to 20)
#    0.000    0.286    5.714    2.143    8.000    2.857 
#    0.000    0.000    0.000    0.000    0.000    0.000 
#    0.000    0.000    0.000    0.000    0.000    0.000 
#
# Total GULP energy -173647.883926 kJ/mol
# GULP energy per Si atom -12403.420280 kJ/mol
# Density = 2.170119 g / cm^3
# Si number density = 21.750700 Si / 1000 Ang^3
#
#
#
# Elastic Constant Matrix: (Units=GPa)
#
#
# Indices 1 2 3 4 5 6 
#
# 1 103.1989 20.7469 31.7040 -2.5376 21.7454 -14.5175
# 2 20.7469 91.3363 19.9183 -8.7038 19.1812 -7.9982
# 3 31.7040 19.9183 110.4129 9.6009 26.3712 -9.5987
# 4 -2.5376 -8.7038 9.6009 42.7935 0.6665 8.0053
# 5 21.7454 19.1812 26.3712 0.6665 42.6659 -2.7716
# 6 -14.5175 -7.9982 -9.5987 8.0053 -2.7716 41.0851
#
#
#
# Elastic Compliance Matrix: (Units=1/GPa)
#
#
# Indices 1 2 3 4 5 6 
#
# 1 0.011838 -0.001076 -0.001980 0.000402 -0.004127 0.003154
# 2 -0.001076 0.012706 -0.001050 0.002633 -0.004489 0.001032
# 3 -0.001980 -0.001050 0.011588 -0.003231 -0.005497 0.002062
# 4 0.000402 0.002633 -0.003231 0.025608 -0.000123 -0.005098
# 5 -0.004127 -0.004489 -0.005497 -0.000123 0.030861 -0.001511
# 6 0.003154 0.001032 0.002062 -0.005098 -0.001511 0.027028
#
#
# Mechanical properties :
#
#
# Convention : Reuss Voigt Hill
#
# Bulk Modulus (GPa) = 35.81753 49.96515 42.89134
# Shear Modulus (GPa) = 36.45711 40.81417 38.63564
#
# Velocity S-wave (km/s) = 4.09850 4.33650 4.21918
# Velocity P-wave (km/s) = 6.23699 6.93508 6.59528
#
# Compressibility (1/GPa) = 0.02791929
#
# Stress axis : x y z
#
# Youngs Moduli (GPa) = 84.47464 78.70332 86.29662
#
# Poissons Ratio (x) = 0.08468 0.17087
# Poissons Ratio (y) = 0.09089 0.09064
# Poissons Ratio (z) = 0.16726 0.08266
#
# Static dielectric constant tensor:
#      x y z
#    x 3.523430 0.487980 -0.261970 
#    y 0.487980 4.483730 0.019320 
#    z -0.261970 0.019320 3.708170 
# 
# 
# High freq. dielectric constant tensor:
#      x y z
#    x 1.864640 -0.000310 0.006890 
#    y -0.000310 1.873210 -0.003050 
#    z 0.006890 -0.003050 1.855290 
# 
# From -- ./inp_files/27559.got.cif
#   From: 2010.06.25/outbox.cif.g09.slc.cpg/sg2_14_cif.got.tgz:27559.got - 2010.06.27 13:26:56.
