data_PCOD8036478
_publ_section_title
;
Structure prediction by ZEFSAII (Michael W. Deem and Ramdas Pophale) SiO2 
 PCOD8036478
Probable space group: P -1
;
_chemical_formula_sum "Si O2"
_cell_formula_units_Z 10
_cell_length_a 8.858470
_cell_length_b 18.239340
_cell_length_c 9.630419
_cell_angle_alpha 149.684135
_cell_angle_beta 30.648465
_cell_angle_gamma 141.581144
_cell_volume 395.314338
_symmetry_space_group_name_H-M "P -1"
_symmetry_group_IT_number 2
_symmetry_cell_setting 'triclinic'
loop_
_space_group_symop_operation_xyz
x,y,z
-x,-y,-z
loop_
_atom_site_type_symbol
_atom_site_label
_atom_site_fract_x
_atom_site_fract_y
_atom_site_fract_z
Si Si1 0.342001 0.522259 0.303774
Si Si2 0.106210 0.395222 0.545288
Si Si3 0.152713 0.984491 0.499780
Si Si4 0.178328 0.327107 0.680310
Si Si5 0.155986 0.907678 0.836439
O O1 0.353354 0.416508 0.258983
O O2 0.511258 0.680019 0.490029
O O3 0.000000 0.500000 0.500000
O O4 0.500000 0.500000 0.000000
O O5 0.266329 0.359512 0.502735
O O6 0.847200 0.258433 0.485849
O O7 0.950380 0.538902 0.923284
O O8 0.056232 0.820307 0.365658
O O9 0.511089 0.013849 0.261402
O O10 0.000000 0.000000 0.500000
O O11 0.037612 0.100721 0.883454
O O12 0.000000 0.000000 0.000000
#
# Coordination Sequence:
#
# PCOD8036478 Si02
#       5
#     2   2   2   2   2
#     4  12  27  47  74 113 156 195 254 318 388 448
#     4  11  27  49  83 109 156 200 264 314 382 457
#     4  12  30  51  78 115 163 203 254 322 396 457
#     4  11  27  50  79 116 154 203 263 313 384 464
#     4  12  28  52  78 113 157 206 261 314 390 467
#
# _framework density 25.296325
#
# number of rings (size 3 to 8) (size 9 to 14) (size 15 to 20)
#    0.000    0.400    4.000    1.800   11.200    1.600 
#    0.000    0.000    0.000    0.000    0.000    0.000 
#    0.000    0.000    0.000    0.000    0.000    0.000 
#
# Total GULP energy -123893.023359 kJ/mol
# GULP energy per Si atom -12389.302336 kJ/mol
# Density = 2.523875 g / cm^3
# Si number density = 25.296325 Si / 1000 Ang^3
#
#
#
# Elastic Constant Matrix: (Units=GPa)
#
#
# Indices 1 2 3 4 5 6 
#
# 1 189.6784 43.1032 51.3864 -28.5294 27.2756 3.8632
# 2 43.1032 107.9536 44.9923 -9.4306 17.0672 0.2910
# 3 51.3864 44.9923 105.2009 -9.7015 20.9463 -8.1741
# 4 -28.5294 -9.4306 -9.7015 57.2343 1.2724 10.5319
# 5 27.2756 17.0672 20.9463 1.2724 46.3265 -16.0873
# 6 3.8632 0.2910 -8.1741 10.5319 -16.0873 62.2198
#
#
#
# Elastic Compliance Matrix: (Units=1/GPa)
#
#
# Indices 1 2 3 4 5 6 
#
# 1 0.007231 -0.001065 -0.002174 0.003570 -0.003783 -0.002312
# 2 -0.001065 0.011861 -0.004086 0.001026 -0.002380 -0.001315
# 3 -0.002174 -0.004086 0.012966 0.000297 -0.002700 0.001109
# 4 0.003570 0.001026 0.000297 0.020484 -0.004884 -0.004918
# 5 -0.003783 -0.002380 -0.002700 -0.004884 0.028888 0.008187
# 6 -0.002312 -0.001315 0.001109 -0.004918 0.008187 0.019317
#
#
# Mechanical properties :
#
#
# Convention : Reuss Voigt Hill
#
# Bulk Modulus (GPa) = 57.44390 75.75520 66.59955
# Shear Modulus (GPa) = 41.25395 50.71285 45.98340
#
# Velocity S-wave (km/s) = 4.04273 4.48230 4.26818
# Velocity P-wave (km/s) = 6.67452 7.53659 7.11862
#
# Compressibility (1/GPa) = 0.01740829
#
# Stress axis : x y z
#
# Youngs Moduli (GPa) = 138.29204 84.31059 77.12345
#
# Poissons Ratio (x) = 0.08979 0.16765
# Poissons Ratio (y) = 0.14728 0.31514
# Poissons Ratio (z) = 0.30061 0.34451
#
# Static dielectric constant tensor:
#      x y z
#    x 5.402650 0.116420 0.540630 
#    y 0.116420 4.995120 -0.076620 
#    z 0.540630 -0.076620 4.223330 
# 
# 
# High freq. dielectric constant tensor:
#      x y z
#    x 2.044670 0.013550 0.031810 
#    y 0.013550 2.027120 -0.015950 
#    z 0.031810 -0.015950 1.988320 
# 
# From -- ./inp_files/209237.got.cif
#   From: 2010.06.25/outbox.cif.g09.slc.cpg/sg2_105_cif.got.tgz:209237.got - 2010.06.27 13:26:56.
