data_PCOD8036338
_publ_section_title
;
Structure prediction by ZEFSAII (Michael W. Deem and Ramdas Pophale) SiO2 
 PCOD8036338
Probable space group: P -1
;
_chemical_formula_sum "Si O2"
_cell_formula_units_Z 16
_cell_length_a 9.145820
_cell_length_b 11.215429
_cell_length_c 12.136681
_cell_angle_alpha 98.530667
_cell_angle_beta 125.201735
_cell_angle_gamma 48.469439
_cell_volume 703.665672
_symmetry_space_group_name_H-M "P -1"
_symmetry_group_IT_number 2
_symmetry_cell_setting 'triclinic'
loop_
_space_group_symop_operation_xyz
x,y,z
-x,-y,-z
loop_
_atom_site_type_symbol
_atom_site_label
_atom_site_fract_x
_atom_site_fract_y
_atom_site_fract_z
Si Si1 0.256278 0.952286 0.606624
Si Si2 0.225687 0.647729 0.098681
Si Si3 0.051014 0.900429 0.894600
Si Si4 0.497990 0.726857 0.893073
Si Si5 0.341709 0.387313 0.644066
Si Si6 0.900121 0.712664 0.376070
Si Si7 0.216420 0.199715 0.903909
Si Si8 0.428556 0.897002 0.445305
O O1 0.408466 0.848451 0.767589
O O2 0.397500 0.846263 0.541896
O O3 0.238864 0.105532 0.605486
O O4 0.000000 0.000000 0.500000
O O5 0.413247 0.444511 0.138134
O O6 0.391177 0.680265 0.220107
O O7 0.978677 0.758110 0.084809
O O8 0.123853 0.730874 0.944319
O O9 0.284712 0.833193 0.910714
O O10 0.810002 0.007338 0.726258
O O11 0.000000 0.000000 0.000000
O O12 0.745510 0.676870 0.039518
O O13 0.247330 0.346124 0.697676
O O14 0.342928 0.288779 0.532981
O O15 0.153492 0.580809 0.543333
O O16 0.936731 0.736700 0.268763
O O17 0.500000 0.000000 0.000000
O O18 0.500000 0.000000 0.500000
#
# Coordination Sequence:
#
# PCOD8036338 Si02
#       8
#     2   2   2   2   2   2   2   2
#     4  12  25  46  72 105 148 188 246 303 379 439
#     4  12  28  47  76 109 149 198 255 313 374 450
#     4  12  26  48  77 108 152 201 252 304 379 457
#     4  12  27  49  74 109 150 195 249 314 377 449
#     4  11  26  48  74 108 147 196 257 308 378 446
#     4  11  26  48  74 106 151 198 241 316 375 449
#     4  12  27  46  74 109 153 198 247 310 383 452
#     4  12  27  44  74 110 147 197 248 312 370 451
#
# _framework density 22.73807
#
# number of rings (size 3 to 8) (size 9 to 14) (size 15 to 20)
#    0.000    0.250    5.000    3.000    7.000    1.500 
#    0.000    0.000    0.000    0.000    0.000    0.000 
#    0.000    0.000    0.000    0.000    0.000    0.000 
#
# Total GULP energy -198237.339433 kJ/mol
# GULP energy per Si atom -12389.833715 kJ/mol
# Density = 2.268632 g / cm^3
# Si number density = 22.738070 Si / 1000 Ang^3
#
#
#
# Elastic Constant Matrix: (Units=GPa)
#
#
# Indices 1 2 3 4 5 6 
#
# 1 130.4134 28.5504 53.7614 -0.1353 -9.7258 -12.1681
# 2 28.5504 108.4115 24.6232 -6.5284 -10.1357 3.5224
# 3 53.7614 24.6232 91.3190 -1.6648 -20.2739 -5.9381
# 4 -0.1353 -6.5284 -1.6648 36.5089 7.2958 -3.8776
# 5 -9.7258 -10.1357 -20.2739 7.2958 52.4942 4.2742
# 6 -12.1681 3.5224 -5.9381 -3.8776 4.2742 40.6904
#
#
#
# Elastic Compliance Matrix: (Units=1/GPa)
#
#
# Indices 1 2 3 4 5 6 
#
# 1 0.010599 -0.001633 -0.005812 -0.000090 -0.000790 0.002537
# 2 -0.001633 0.010259 -0.001667 0.001390 0.000971 -0.001589
# 3 -0.005812 -0.001667 0.015888 -0.000536 0.004798 0.000170
# 4 -0.000090 0.001390 -0.000536 0.028766 -0.004194 0.002956
# 5 -0.000790 0.000971 0.004798 -0.004194 0.021714 -0.002301
# 6 0.002537 -0.001589 0.000170 0.002956 -0.002301 0.026020
#
#
# Mechanical properties :
#
#
# Convention : Reuss Voigt Hill
#
# Bulk Modulus (GPa) = 53.98955 60.44600 57.21777
# Shear Modulus (GPa) = 36.32543 40.81929 38.57236
#
# Velocity S-wave (km/s) = 4.00128 4.24157 4.12318
# Velocity P-wave (km/s) = 6.71883 7.11542 6.91997
#
# Compressibility (1/GPa) = 0.01852210
#
# Stress axis : x y z
#
# Youngs Moduli (GPa) = 94.34963 97.47597 62.94015
#
# Poissons Ratio (x) = 0.15918 0.36578
# Poissons Ratio (y) = 0.15408 0.10494
# Poissons Ratio (z) = 0.54832 0.16253
#
# Static dielectric constant tensor:
#      x y z
#    x 3.623750 0.108120 -0.027310 
#    y 0.108120 4.481340 0.417110 
#    z -0.027310 0.417110 4.267530 
# 
# 
# High freq. dielectric constant tensor:
#      x y z
#    x 1.911740 0.006320 -0.011350 
#    y 0.006320 1.903520 0.004310 
#    z -0.011350 0.004310 1.905380 
# 
# From -- ./inp_files/392616.got.cif
#   From: 2010.06.25/outbox.cif.g09.slc.cpg/sg2_197_cif.got.tgz:392616.got - 2010.06.27 13:26:56.
