data_PCOD8036253
_publ_section_title
;
Structure prediction by ZEFSAII (Michael W. Deem and Ramdas Pophale) SiO2 
 PCOD8036253
Probable space group: P -1
;
_chemical_formula_sum "Si O2"
_cell_formula_units_Z 16
_cell_length_a 8.710626
_cell_length_b 17.801477
_cell_length_c 12.372769
_cell_angle_alpha 129.098466
_cell_angle_beta 148.922682
_cell_angle_gamma 59.837790
_cell_volume 765.159798
_symmetry_space_group_name_H-M "P -1"
_symmetry_group_IT_number 2
_symmetry_cell_setting 'triclinic'
loop_
_space_group_symop_operation_xyz
x,y,z
-x,-y,-z
loop_
_atom_site_type_symbol
_atom_site_label
_atom_site_fract_x
_atom_site_fract_y
_atom_site_fract_z
Si Si1 0.214007 0.638760 0.512003
Si Si2 0.130647 0.751670 0.977512
Si Si3 0.203727 0.097848 0.693146
Si Si4 0.851771 0.739736 0.020358
Si Si5 0.783009 0.403271 0.771756
Si Si6 0.818266 0.806003 0.458963
Si Si7 0.108068 0.905853 0.924841
Si Si8 0.124431 0.453400 0.427548
O O1 0.205932 0.640734 0.380549
O O2 0.132576 0.528868 0.402197
O O3 0.981082 0.708224 0.483183
O O4 0.540522 0.674034 0.785622
O O5 0.035158 0.813641 0.874862
O O6 0.099459 0.638651 0.824151
O O7 0.468285 0.781524 0.242984
O O8 0.910855 0.772126 0.961856
O O9 0.158041 0.164861 0.828519
O O10 0.104722 0.149644 0.571940
O O11 0.542899 0.073451 0.869181
O O12 0.000000 0.000000 0.500000
O O13 0.117746 0.677404 0.160074
O O14 0.450667 0.422251 0.621635
O O15 0.000000 0.500000 0.000000
O O16 0.932453 0.885466 0.688743
O O17 0.000000 0.000000 0.000000
O O18 0.000000 0.500000 0.500000
#
# Coordination Sequence:
#
# PCOD8036253 Si02
#       8
#     2   2   2   2   2   2   2   2
#     4  12  24  47  69  99 141 185 233 284 338 404
#     4  11  28  45  68 106 141 183 233 281 345 411
#     4  11  27  46  74 106 134 179 235 287 345 412
#     4  12  25  46  71 103 141 179 236 287 338 412
#     4  12  25  43  69  99 138 187 229 285 343 392
#     4  11  26  47  72 101 143 185 222 286 350 407
#     4  11  27  48  72 101 143 181 225 286 350 415
#     4  12  27  43  68 102 142 182 236 280 334 415
#
# _framework density 20.910664000000001
#
# number of rings (size 3 to 8) (size 9 to 14) (size 15 to 20)
#    0.000    0.500    5.000    1.875   10.500    3.000 
#    0.000    0.000    0.000    0.000    0.000    0.000 
#    0.000    0.000    0.000    0.000    0.000    0.000 
#
# Total GULP energy -198543.270327 kJ/mol
# GULP energy per Si atom -12408.954395 kJ/mol
# Density = 2.086307 g / cm^3
# Si number density = 20.910664 Si / 1000 Ang^3
#
#
#
# Elastic Constant Matrix: (Units=GPa)
#
#
# Indices 1 2 3 4 5 6 
#
# 1 116.7917 36.5950 40.8793 16.8849 -11.4524 -8.7865
# 2 36.5950 98.3601 47.0394 17.8832 6.3666 -8.6332
# 3 40.8793 47.0394 121.9254 18.3873 -10.9623 -1.0915
# 4 16.8849 17.8832 18.3873 42.0395 -5.0222 2.0356
# 5 -11.4524 6.3666 -10.9623 -5.0222 40.0302 8.2782
# 6 -8.7865 -8.6332 -1.0915 2.0356 8.2782 44.6540
#
#
#
# Elastic Compliance Matrix: (Units=1/GPa)
#
#
# Indices 1 2 3 4 5 6 
#
# 1 0.010743 -0.002718 -0.002014 -0.002041 0.002455 0.001177
# 2 -0.002718 0.014806 -0.004672 -0.004001 -0.005625 0.003439
# 3 -0.002014 -0.004672 0.011213 -0.001631 0.003359 -0.001574
# 4 -0.002041 -0.004001 -0.001631 0.027621 0.003726 -0.003165
# 5 0.002455 -0.005625 0.003359 0.003726 0.029229 -0.006111
# 6 0.001177 0.003439 -0.001574 -0.003165 -0.006111 0.024530
#
#
# Mechanical properties :
#
#
# Convention : Reuss Voigt Hill
#
# Bulk Modulus (GPa) = 55.70039 65.12274 60.41156
# Shear Modulus (GPa) = 34.98065 39.51564 37.24814
#
# Velocity S-wave (km/s) = 4.09450 4.35183 4.22512
# Velocity P-wave (km/s) = 7.00346 7.51413 7.26328
#
# Compressibility (1/GPa) = 0.01795320
#
# Stress axis : x y z
#
# Youngs Moduli (GPa) = 93.08036 67.54034 89.17843
#
# Poissons Ratio (x) = 0.18359 0.17963
# Poissons Ratio (y) = 0.25301 0.41667
# Poissons Ratio (z) = 0.18749 0.31557
#
# Static dielectric constant tensor:
#      x y z
#    x 3.928610 0.009740 -0.006720 
#    y 0.009740 3.880990 -0.042740 
#    z -0.006720 -0.042740 3.987990 
# 
# 
# High freq. dielectric constant tensor:
#      x y z
#    x 1.833000 -0.003210 -0.003650 
#    y -0.003210 1.824590 0.001170 
#    z -0.003650 0.001170 1.833680 
# 
# From -- ./inp_files/37280.got.cif
#   From: 2010.06.25/outbox.cif.g09.slc.cpg/sg2_19_cif.got.tgz:37280.got - 2010.06.27 13:26:56.
