data_PCOD8036227
_publ_section_title
;
Structure prediction by ZEFSAII (Michael W. Deem and Ramdas Pophale) SiO2 
 PCOD8036227
Probable space group: P -1
;
_chemical_formula_sum "Si O2"
_cell_formula_units_Z 16
_cell_length_a 8.928815
_cell_length_b 14.761550
_cell_length_c 8.431756
_cell_angle_alpha 82.287268
_cell_angle_beta 56.977606
_cell_angle_gamma 121.120919
_cell_volume 650.170016
_symmetry_space_group_name_H-M "P -1"
_symmetry_group_IT_number 2
_symmetry_cell_setting 'triclinic'
loop_
_space_group_symop_operation_xyz
x,y,z
-x,-y,-z
loop_
_atom_site_type_symbol
_atom_site_label
_atom_site_fract_x
_atom_site_fract_y
_atom_site_fract_z
Si Si1 0.219789 0.622265 0.951049
Si Si2 0.547197 0.082260 0.737822
Si Si3 0.214572 0.472092 0.254064
Si Si4 0.603198 0.831525 0.431494
Si Si5 0.033553 0.188372 0.878207
Si Si6 0.081278 0.944385 0.571476
Si Si7 0.882655 0.283758 0.748409
Si Si8 0.223194 0.316161 0.062604
O O1 0.462356 0.723545 0.675974
O O2 0.261630 0.575256 0.091863
O O3 0.165970 0.698940 0.048710
O O4 0.000000 0.500000 0.000000
O O5 0.592863 0.180193 0.558546
O O6 0.714209 0.052204 0.619574
O O7 0.624184 0.152559 0.847677
O O8 0.250734 0.953294 0.935352
O O9 0.106375 0.349647 0.239881
O O10 0.016199 0.408433 0.529395
O O11 0.484105 0.551537 0.163558
O O12 0.756556 0.814798 0.240442
O O13 0.803886 0.975570 0.351950
O O14 0.068756 0.265013 0.682856
O O15 0.074431 0.263699 0.995022
O O16 0.821755 0.797530 0.799012
O O17 0.000000 0.000000 0.500000
#
# Coordination Sequence:
#
# PCOD8036227 Si02
#       8
#     2   2   2   2   2   2   2   2
#     4  12  28  48  77 110 152 202 262 314 389 458
#     4  12  26  50  75 113 159 196 257 323 383 458
#     4  11  26  48  74 110 153 202 254 320 382 457
#     4  12  28  47  76 112 155 205 255 315 382 455
#     4  12  28  47  74 115 154 207 255 314 384 458
#     4  12  25  47  81 112 152 200 255 317 392 453
#     4  12  27  47  77 110 149 199 260 321 385 451
#     4  11  26  46  76 108 156 196 257 312 385 455
#
# _framework density 24.608948000000002
#
# number of rings (size 3 to 8) (size 9 to 14) (size 15 to 20)
#    0.000    0.250    2.500    5.250    8.750    1.500 
#    0.000    0.000    0.000    0.000    0.000    0.000 
#    0.000    0.000    0.000    0.000    0.000    0.000 
#
# Total GULP energy -198337.434819 kJ/mol
# GULP energy per Si atom -12396.089676 kJ/mol
# Density = 2.455294 g / cm^3
# Si number density = 24.608948 Si / 1000 Ang^3
#
#
#
# Elastic Constant Matrix: (Units=GPa)
#
#
# Indices 1 2 3 4 5 6 
#
# 1 152.1795 41.7902 42.8216 3.7139 13.7067 -8.6993
# 2 41.7902 144.7245 45.3779 6.8192 -4.4779 21.9431
# 3 42.8216 45.3779 122.2076 -4.0199 5.1395 3.4482
# 4 3.7139 6.8192 -4.0199 36.4292 -1.0809 8.6880
# 5 13.7067 -4.4779 5.1395 -1.0809 37.0806 -6.9022
# 6 -8.6993 21.9431 3.4482 8.6880 -6.9022 41.6950
#
#
#
# Elastic Compliance Matrix: (Units=1/GPa)
#
#
# Indices 1 2 3 4 5 6 
#
# 1 0.008176 -0.002155 -0.002088 -0.001425 -0.002495 0.002897
# 2 -0.002155 0.009121 -0.002577 -0.000615 0.001366 -0.004683
# 3 -0.002088 -0.002577 0.009986 0.001877 -0.000953 -0.000454
# 4 -0.001425 -0.000615 0.001877 0.029412 -0.000119 -0.006277
# 5 -0.002495 0.001366 -0.000953 -0.000119 0.028862 0.003642
# 6 0.002897 -0.004683 -0.000454 -0.006277 0.003642 0.029001
#
#
# Mechanical properties :
#
#
# Convention : Reuss Voigt Hill
#
# Bulk Modulus (GPa) = 73.30406 75.45456 74.37931
# Shear Modulus (GPa) = 37.66573 42.31575 39.99074
#
# Velocity S-wave (km/s) = 3.91649 4.15122 4.03556
# Velocity P-wave (km/s) = 7.09254 7.32836 7.21141
#
# Compressibility (1/GPa) = 0.01364181
#
# Stress axis : x y z
#
# Youngs Moduli (GPa) = 122.31249 109.63291 100.13900
#
# Poissons Ratio (x) = 0.23629 0.20911
# Poissons Ratio (y) = 0.26362 0.25808
# Poissons Ratio (z) = 0.25541 0.28255
#
# Static dielectric constant tensor:
#      x y z
#    x 4.615510 -0.044340 0.229960 
#    y -0.044340 4.780150 -0.103130 
#    z 0.229960 -0.103130 4.228330 
# 
# 
# High freq. dielectric constant tensor:
#      x y z
#    x 1.987760 0.003610 0.015950 
#    y 0.003610 1.997990 -0.008180 
#    z 0.015950 -0.008180 1.974460 
# 
# From -- ./inp_files/206788.got.cif
#   From: 2010.06.25/outbox.cif.g09.slc.cpg/sg2_104_cif.got.tgz:206788.got - 2010.06.27 13:26:56.
