data_PCOD8036308
_publ_section_title
;
Structure prediction by ZEFSAII (Michael W. Deem and Ramdas Pophale) SiO2 
 PCOD8036308
Probable space group: P -1
;
_chemical_formula_sum "Si O2"
_cell_formula_units_Z 16
_cell_length_a 12.564137
_cell_length_b 9.574629
_cell_length_c 14.993160
_cell_angle_alpha 67.819086
_cell_angle_beta 47.143524
_cell_angle_gamma 33.442469
_cell_volume 643.009114
_symmetry_space_group_name_H-M "P -1"
_symmetry_group_IT_number 2
_symmetry_cell_setting 'triclinic'
loop_
_space_group_symop_operation_xyz
x,y,z
-x,-y,-z
loop_
_atom_site_type_symbol
_atom_site_label
_atom_site_fract_x
_atom_site_fract_y
_atom_site_fract_z
Si Si1 0.334234 0.524162 0.834475
Si Si2 0.994835 0.962862 0.777198
Si Si3 0.436008 0.907949 0.002034
Si Si4 0.479431 0.077773 0.797804
Si Si5 0.891478 0.510786 0.443439
Si Si6 0.947323 0.260191 0.876208
Si Si7 0.607936 0.888051 0.351401
Si Si8 0.887274 0.188535 0.603800
O O1 0.573857 0.426556 0.749703
O O2 0.242322 0.648834 0.756299
O O3 0.463663 0.241954 0.827206
O O4 0.098847 0.745044 0.991911
O O5 0.905089 0.154411 0.861503
O O6 0.070444 0.987292 0.637102
O O7 0.764044 0.044645 0.858234
O O8 0.310007 0.090490 0.938141
O O9 0.727539 0.576339 0.894750
O O10 0.500000 0.000000 0.000000
O O11 0.790358 0.737182 0.697317
O O12 0.341910 0.231574 0.744125
O O13 0.721742 0.661857 0.409851
O O14 0.886437 0.363344 0.538531
O O15 0.724677 0.788322 0.526556
O O16 0.243726 0.078801 0.735357
O O17 0.000000 0.000000 0.500000
#
# Coordination Sequence:
#
# PCOD8036308 Si02
#       8
#     2   2   2   2   2   2   2   2
#     4  12  27  47  76 114 147 195 255 303 377 443
#     4  12  29  47  78 108 154 200 243 306 380 438
#     4  12  25  46  77 108 147 188 243 308 376 436
#     4  12  25  44  77 107 145 197 243 312 372 435
#     4  11  26  48  69 105 149 195 251 299 366 438
#     4  12  25  50  77 112 150 191 248 311 377 444
#     4  11  27  46  76 104 148 193 248 310 359 450
#     4  12  27  48  72 105 150 197 246 309 356 446
#
# _framework density 24.883006999999999
#
# number of rings (size 3 to 8) (size 9 to 14) (size 15 to 20)
#    0.000    0.250    5.000    2.625    5.250    4.500 
#    0.000    0.000    0.000    0.000    0.000    0.000 
#    0.000    0.000    0.000    0.000    0.000    0.000 
#
# Total GULP energy -198255.642312 kJ/mol
# GULP energy per Si atom -12390.977644 kJ/mol
# Density = 2.482637 g / cm^3
# Si number density = 24.883007 Si / 1000 Ang^3
#
#
#
# Elastic Constant Matrix: (Units=GPa)
#
#
# Indices 1 2 3 4 5 6 
#
# 1 89.8571 23.4826 19.3159 -10.0374 16.5783 10.6098
# 2 23.4826 112.9640 37.5738 -34.4481 11.4808 -8.1137
# 3 19.3159 37.5738 103.7680 -32.7536 17.8924 -8.3817
# 4 -10.0374 -34.4481 -32.7536 53.3515 -7.5254 9.0048
# 5 16.5783 11.4808 17.8924 -7.5254 44.2635 -12.4520
# 6 10.6098 -8.1137 -8.3817 9.0048 -12.4520 24.0831
#
#
#
# Elastic Compliance Matrix: (Units=1/GPa)
#
#
# Indices 1 2 3 4 5 6 
#
# 1 0.015085 -0.002375 -0.001090 0.001639 -0.007827 -0.012485
# 2 -0.002375 0.011858 -0.001908 0.005669 0.000215 0.002369
# 3 -0.001090 -0.001908 0.013024 0.006029 -0.003208 0.000457
# 4 0.001639 0.005669 0.006029 0.027479 -0.002124 -0.008087
# 5 -0.007827 0.000215 -0.003208 -0.002124 0.031950 0.019718
# 6 -0.012485 0.002369 0.000457 -0.008087 0.019718 0.061199
#
#
# Mechanical properties :
#
#
# Convention : Reuss Voigt Hill
#
# Bulk Modulus (GPa) = 34.22192 51.92597 43.07394
# Shear Modulus (GPa) = 27.61222 39.42072 33.51647
#
# Velocity S-wave (km/s) = 3.33480 3.98457 3.67408
# Velocity P-wave (km/s) = 5.34891 6.48710 5.94531
#
# Compressibility (1/GPa) = 0.02922104
#
# Stress axis : x y z
#
# Youngs Moduli (GPa) = 66.29165 84.33415 76.78366
#
# Poissons Ratio (x) = 0.20028 0.08367
# Poissons Ratio (y) = 0.15743 0.14651
# Poissons Ratio (z) = 0.07223 0.16091
#
# Static dielectric constant tensor:
#      x y z
#    x 4.388680 -0.176060 0.218040 
#    y -0.176060 5.208140 -0.399030 
#    z 0.218040 -0.399030 4.880370 
# 
# 
# High freq. dielectric constant tensor:
#      x y z
#    x 1.981540 -0.007150 0.013690 
#    y -0.007150 2.006060 -0.023030 
#    z 0.013690 -0.023030 1.999470 
# 
# From -- ./inp_files/515330.got.cif
#   From: 2010.06.25/outbox.cif.g09.slc.cpg/sg2_258_cif.got.tgz:515330.got - 2010.06.27 13:26:56.
