data_PCOD8036993
_publ_section_title
;
Structure prediction by ZEFSAII (Michael W. Deem and Ramdas Pophale) SiO2 
 PCOD8036993
Probable space group: P -1
;
_chemical_formula_sum "Si O2"
_cell_formula_units_Z 14
_cell_length_a 16.734169
_cell_length_b 17.101052
_cell_length_c 11.721199
_cell_angle_alpha 20.508170
_cell_angle_beta 41.052793
_cell_angle_gamma 29.764957
_cell_volume 548.860593
_symmetry_space_group_name_H-M "P -1"
_symmetry_group_IT_number 2
_symmetry_cell_setting 'triclinic'
loop_
_space_group_symop_operation_xyz
x,y,z
-x,-y,-z
loop_
_atom_site_type_symbol
_atom_site_label
_atom_site_fract_x
_atom_site_fract_y
_atom_site_fract_z
Si Si1 0.201377 0.145689 0.676069
Si Si2 0.810425 0.090680 0.477860
Si Si3 0.465878 0.488593 0.181521
Si Si4 0.939686 0.088263 0.728500
Si Si5 0.050148 0.464230 0.775262
Si Si6 0.358036 0.501530 0.678908
Si Si7 0.340973 0.187261 0.683360
O O1 0.256520 0.263298 0.546241
O O2 0.104983 0.393925 0.337261
O O3 0.375761 0.807485 0.907731
O O4 0.070547 0.132284 0.890546
O O5 0.642014 0.205859 0.442709
O O6 0.762059 0.293854 0.363733
O O7 0.911984 0.121252 0.240326
O O8 0.940212 0.720020 0.877734
O O9 0.335253 0.449479 0.373255
O O10 0.500000 0.500000 0.000000
O O11 0.984170 0.237598 0.558230
O O12 0.755613 0.375587 0.479036
O O13 0.229853 0.191724 0.888292
O O14 0.500000 0.500000 0.500000
O O15 0.460622 0.140874 0.083620
#
# Coordination Sequence:
#
# PCOD8036993 Si02
#       7
#     2   2   2   2   2   2   2
#     4  12  26  51  77 114 153 200 255 307 385 450
#     4  12  26  49  75 114 156 197 253 315 376 448
#     4  12  28  51  79 112 152 200 255 315 376 451
#     4  12  25  45  78 110 156 196 252 316 377 445
#     4  12  26  45  78 114 152 202 253 311 378 453
#     4  12  23  46  75 114 149 199 254 309 372 450
#     4  12  26  47  81 111 152 201 255 308 381 452
#
# _framework density 25.507387999999999
#
# number of rings (size 3 to 8) (size 9 to 14) (size 15 to 20)
#    0.000    0.000    5.714    3.429    2.000    2.857 
#    2.571    0.000    0.000    0.000    0.000    0.000 
#    0.000    0.000    0.000    0.000    0.000    0.000 
#
# Total GULP energy -173701.038905 kJ/mol
# GULP energy per Si atom -12407.217065 kJ/mol
# Density = 2.544933 g / cm^3
# Si number density = 25.507388 Si / 1000 Ang^3
#
#
#
# Elastic Constant Matrix: (Units=GPa)
#
#
# Indices 1 2 3 4 5 6 
#
# 1 117.4288 -1.2082 22.9658 -3.5053 21.8084 -3.0936
# 2 -1.2082 100.3541 6.5375 -2.0588 12.7123 1.9344
# 3 22.9658 6.5375 75.5036 -7.0598 28.5700 -9.2388
# 4 -3.5053 -2.0588 -7.0598 33.3985 2.3355 0.9716
# 5 21.8084 12.7123 28.5700 2.3355 36.1420 -0.9844
# 6 -3.0936 1.9344 -9.2388 0.9716 -0.9844 37.4004
#
#
#
# Elastic Compliance Matrix: (Units=1/GPa)
#
#
# Indices 1 2 3 4 5 6 
#
# 1 0.009779 0.000910 -0.000711 0.001321 -0.005733 0.000401
# 2 0.000910 0.010590 0.000745 0.001265 -0.004957 -0.000452
# 3 -0.000711 0.000745 0.020631 0.005348 -0.016367 0.004429
# 4 0.001321 0.001265 0.005348 0.031804 -0.007516 0.000341
# 5 -0.005733 -0.004957 -0.016367 -0.007516 0.046217 -0.002849
# 6 0.000401 -0.000452 0.004429 0.000341 -0.002849 0.027804
#
#
# Mechanical properties :
#
#
# Convention : Reuss Voigt Hill
#
# Bulk Modulus (GPa) = 23.31735 38.87519 31.09627
# Shear Modulus (GPa) = 31.40019 39.05427 35.22723
#
# Velocity S-wave (km/s) = 3.51240 3.91717 3.72029
# Velocity P-wave (km/s) = 5.06069 5.97769 5.53820
#
# Compressibility (1/GPa) = 0.04288651
#
# Stress axis : x y z
#
# Youngs Moduli (GPa) = 102.26038 94.43148 48.47006
#
# Poissons Ratio (x) = -0.08590 0.03448
# Poissons Ratio (y) = -0.09302 -0.03611
# Poissons Ratio (z) = 0.07274 -0.07035
#
# Static dielectric constant tensor:
#      x y z
#    x 5.065090 0.019020 -0.153350 
#    y 0.019020 4.812910 -0.209050 
#    z -0.153350 -0.209050 5.130840 
# 
# 
# High freq. dielectric constant tensor:
#      x y z
#    x 2.033190 0.004690 0.009200 
#    y 0.004690 2.026920 -0.009430 
#    z 0.009200 -0.009430 2.012030 
# 
# From -- ./inp_files/391971.got.cif
#   From: 2010.06.25/outbox.cif.g09.slc.cpg/sg2_196_cif.got.tgz:391971.got - 2010.06.27 13:26:56.
