data_PCOD8036400
_publ_section_title
;
Structure prediction by ZEFSAII (Michael W. Deem and Ramdas Pophale) SiO2 
 PCOD8036400
Probable space group: P -1
;
_chemical_formula_sum "Si O2"
_cell_formula_units_Z 10
_cell_length_a 17.010931
_cell_length_b 8.572582
_cell_length_c 4.948363
_cell_angle_alpha 123.255810
_cell_angle_beta 75.048378
_cell_angle_gamma 139.322774
_cell_volume 376.452048
_symmetry_space_group_name_H-M "P -1"
_symmetry_group_IT_number 2
_symmetry_cell_setting 'triclinic'
loop_
_space_group_symop_operation_xyz
x,y,z
-x,-y,-z
loop_
_atom_site_type_symbol
_atom_site_label
_atom_site_fract_x
_atom_site_fract_y
_atom_site_fract_z
Si Si1 0.171800 0.485474 0.284164
Si Si2 0.373616 0.316991 0.102536
Si Si3 0.934535 0.033257 0.396764
Si Si4 0.237231 0.950964 0.366028
Si Si5 0.586808 0.195988 0.362047
O O1 0.285814 0.703017 0.609548
O O2 0.192618 0.661050 0.177576
O O3 0.168995 0.268545 0.966408
O O4 0.039843 0.307900 0.370008
O O5 0.351346 0.150048 0.233830
O O6 0.370381 0.516770 0.415670
O O7 0.500000 0.500000 0.000000
O O8 0.265114 0.083288 0.763758
O O9 0.871222 0.092955 0.678074
O O10 0.000000 0.000000 0.500000
O O11 0.500000 0.000000 0.500000
O O12 0.500000 0.000000 0.000000
#
# Coordination Sequence:
#
# PCOD8036400 Si02
#       5
#     2   2   2   2   2
#     4  11  27  48  78 119 154 212 261 323 399 462
#     4  12  27  51  75 115 159 207 263 328 392 474
#     4  11  26  49  81 112 162 207 265 326 385 481
#     4  12  27  49  80 115 161 200 268 327 393 470
#     4  12  27  49  81 113 157 206 262 323 394 469
#
# _framework density 26.563811000000001
#
# number of rings (size 3 to 8) (size 9 to 14) (size 15 to 20)
#    0.000    0.400    2.000    4.800    8.400    4.000 
#    0.000    0.000    0.000    0.000    0.000    0.000 
#    0.000    0.000    0.000    0.000    0.000    0.000 
#
# Total GULP energy -123967.026016 kJ/mol
# GULP energy per Si atom -12396.702602 kJ/mol
# Density = 2.650335 g / cm^3
# Si number density = 26.563811 Si / 1000 Ang^3
#
#
#
# Elastic Constant Matrix: (Units=GPa)
#
#
# Indices 1 2 3 4 5 6 
#
# 1 129.6378 58.5947 24.8625 7.8381 0.6059 -3.2223
# 2 58.5947 233.4932 50.8881 2.9625 -7.5322 -27.3279
# 3 24.8625 50.8881 102.3458 -4.9302 23.0676 -2.0703
# 4 7.8381 2.9625 -4.9302 41.2767 -1.0203 4.7070
# 5 0.6059 -7.5322 23.0676 -1.0203 42.1100 -3.3372
# 6 -3.2223 -27.3279 -2.0703 4.7070 -3.3372 42.6254
#
#
#
# Elastic Compliance Matrix: (Units=1/GPa)
#
#
# Indices 1 2 3 4 5 6 
#
# 1 0.008952 -0.001990 -0.001310 -0.001656 0.000156 -0.000467
# 2 -0.001990 0.006047 -0.003193 -0.000805 0.003149 0.003907
# 3 -0.001310 -0.003193 0.013562 0.002167 -0.008116 -0.002362
# 4 -0.001656 -0.000805 0.002167 0.025221 -0.000965 -0.003397
# 5 0.000156 0.003149 -0.008116 -0.000965 0.029050 0.004018
# 6 -0.000467 0.003907 -0.002362 -0.003397 0.004018 0.026505
#
#
# Mechanical properties :
#
#
# Convention : Reuss Voigt Hill
#
# Bulk Modulus (GPa) = 64.19763 81.57417 72.88590
# Shear Modulus (GPa) = 39.21128 47.27784 43.24456
#
# Velocity S-wave (km/s) = 3.84619 4.22332 4.03916
# Velocity P-wave (km/s) = 6.62903 7.38630 7.01789
#
# Compressibility (1/GPa) = 0.01557690
#
# Stress axis : x y z
#
# Youngs Moduli (GPa) = 111.70533 165.36955 73.73286
#
# Poissons Ratio (x) = 0.32905 0.09657
# Poissons Ratio (y) = 0.22227 0.23543
# Poissons Ratio (z) = 0.14630 0.52802
#
# Static dielectric constant tensor:
#      x y z
#    x 4.748840 -0.006290 0.040040 
#    y -0.006290 5.075800 0.209540 
#    z 0.040040 0.209540 5.006560 
# 
# 
# High freq. dielectric constant tensor:
#      x y z
#    x 2.064060 -0.007560 0.002550 
#    y -0.007560 2.083670 0.007490 
#    z 0.002550 0.007490 2.069260 
# 
# From -- ./inp_files/103537.got.cif
#   From: 2010.06.25/outbox.cif.g09.slc.cpg/sg2_52_cif.got.tgz:103537.got - 2010.06.27 13:26:56.
