data_PCOD8036710
_publ_section_title
;
Structure prediction by ZEFSAII (Michael W. Deem and Ramdas Pophale) SiO2 
 PCOD8036710
Probable space group: P -1
;
_chemical_formula_sum "Si O2"
_cell_formula_units_Z 16
_cell_length_a 11.697317
_cell_length_b 10.549829
_cell_length_c 6.865588
_cell_angle_alpha 100.803599
_cell_angle_beta 100.742704
_cell_angle_gamma 61.600294
_cell_volume 727.419587
_symmetry_space_group_name_H-M "P -1"
_symmetry_group_IT_number 2
_symmetry_cell_setting 'triclinic'
loop_
_space_group_symop_operation_xyz
x,y,z
-x,-y,-z
loop_
_atom_site_type_symbol
_atom_site_label
_atom_site_fract_x
_atom_site_fract_y
_atom_site_fract_z
Si Si1 0.692301 0.174825 0.840572
Si Si2 0.348670 0.261173 0.349536
Si Si3 0.131033 0.492664 0.124555
Si Si4 0.979102 0.358826 0.494769
Si Si5 0.549896 0.559836 0.354171
Si Si6 0.416814 0.927182 0.866475
Si Si7 0.746630 0.921269 0.505200
Si Si8 0.778976 0.367560 0.121647
O O1 0.571425 0.314371 0.754809
O O2 0.756371 0.052338 0.659658
O O3 0.650291 0.111007 0.990327
O O4 0.798645 0.223963 0.967784
O O5 0.219486 0.332259 0.194139
O O6 0.346352 0.382563 0.531529
O O7 0.482315 0.214590 0.258743
O O8 0.352425 0.123158 0.423152
O O9 0.093897 0.615810 0.314005
O O10 0.218097 0.515785 0.994746
O O11 0.000000 0.500000 0.000000
O O12 0.896206 0.325723 0.297867
O O13 0.000000 0.500000 0.500000
O O14 0.115540 0.217518 0.509111
O O15 0.500000 0.500000 0.500000
O O16 0.635910 0.431276 0.195202
O O17 0.304731 0.032828 0.715756
O O18 0.500000 0.000000 0.000000
#
# Coordination Sequence:
#
# PCOD8036710 Si02
#       8
#     2   2   2   2   2   2   2   2
#     4  12  27  46  69 106 146 184 237 286 360 433
#     4  12  22  43  71 103 141 184 233 296 355 417
#     4  12  25  43  74 105 140 182 239 298 353 416
#     4  12  25  48  71 104 139 182 242 298 347 421
#     4  12  24  46  76 104 147 183 233 298 359 422
#     4  12  25  42  70 103 144 189 230 288 360 421
#     4  12  26  45  69 105 144 183 239 293 351 424
#     4  12  26  46  74 104 141 187 237 291 362 419
#
# _framework density 21.995560000000001
#
# number of rings (size 3 to 8) (size 9 to 14) (size 15 to 20)
#    0.000    0.000    6.250    3.750    1.750    1.500 
#    0.000    1.250    0.000    0.000    0.000    0.000 
#    0.000    0.000    0.000    0.000    0.000    0.000 
#
# Total GULP energy -198464.753317 kJ/mol
# GULP energy per Si atom -12404.047082 kJ/mol
# Density = 2.194550 g / cm^3
# Si number density = 21.995560 Si / 1000 Ang^3
#
#
#
# Elastic Constant Matrix: (Units=GPa)
#
#
# Indices 1 2 3 4 5 6 
#
# 1 91.6648 46.7646 52.7284 -14.0279 7.7014 4.4602
# 2 46.7646 126.3294 65.3720 -13.0421 14.3896 -15.0334
# 3 52.7284 65.3720 146.6262 -19.7030 11.4393 2.8982
# 4 -14.0279 -13.0421 -19.7030 43.9272 2.5268 2.8368
# 5 7.7014 14.3896 11.4393 2.5268 54.9146 3.4628
# 6 4.4602 -15.0334 2.8982 2.8368 3.4628 47.4309
#
#
#
# Elastic Compliance Matrix: (Units=1/GPa)
#
#
# Indices 1 2 3 4 5 6 
#
# 1 0.015402 -0.003986 -0.003356 0.002420 -0.000362 -0.002625
# 2 -0.003986 0.012246 -0.003890 0.000443 -0.002151 0.004624
# 3 -0.003356 -0.003890 0.010177 0.002481 -0.000641 -0.001641
# 4 0.002420 0.000443 0.002481 0.025001 -0.002023 -0.001586
# 5 -0.000362 -0.002151 -0.000641 -0.002023 0.019170 -0.001887
# 6 -0.002625 0.004624 -0.001641 -0.001586 -0.001887 0.023129
#
#
# Mechanical properties :
#
#
# Convention : Reuss Voigt Hill
#
# Bulk Modulus (GPa) = 65.10494 77.15003 71.12749
# Shear Modulus (GPa) = 37.67632 42.57155 40.12394
#
# Velocity S-wave (km/s) = 4.14322 4.40416 4.27568
# Velocity P-wave (km/s) = 7.24926 7.81112 7.53543
#
# Compressibility (1/GPa) = 0.01535982
#
# Stress axis : x y z
#
# Youngs Moduli (GPa) = 64.92669 81.66256 98.25885
#
# Poissons Ratio (x) = 0.32551 0.32978
# Poissons Ratio (y) = 0.25880 0.38224
# Poissons Ratio (z) = 0.21791 0.31768
#
# Static dielectric constant tensor:
#      x y z
#    x 3.691020 0.014450 0.064810 
#    y 0.014450 4.085940 0.258500 
#    z 0.064810 0.258500 4.648690 
# 
# 
# High freq. dielectric constant tensor:
#      x y z
#    x 1.861140 -0.001940 0.003260 
#    y -0.001940 1.862700 -0.000500 
#    z 0.003260 -0.000500 1.891840 
# 
# From -- ./inp_files/71359.got.cif
#   From: 2010.06.25/outbox.cif.g09.slc.cpg/sg2_36_cif.got.tgz:71359.got - 2010.06.27 13:26:56.
