data_PCOD8036033
_publ_section_title
;
Structure prediction by ZEFSAII (Michael W. Deem and Ramdas Pophale) SiO2 
 PCOD8036033
Probable space group: P -1
;
_chemical_formula_sum "Si O2"
_cell_formula_units_Z 10
_cell_length_a 10.707106
_cell_length_b 9.264235
_cell_length_c 6.636723
_cell_angle_alpha 105.495023
_cell_angle_beta 122.556151
_cell_angle_gamma 42.289453
_cell_volume 363.275552
_symmetry_space_group_name_H-M "P -1"
_symmetry_group_IT_number 2
_symmetry_cell_setting 'triclinic'
loop_
_space_group_symop_operation_xyz
x,y,z
-x,-y,-z
loop_
_atom_site_type_symbol
_atom_site_label
_atom_site_fract_x
_atom_site_fract_y
_atom_site_fract_z
Si Si1 0.073635 0.543596 0.296032
Si Si2 0.242215 0.451328 0.859532
Si Si3 0.468259 0.854577 0.497516
Si Si4 0.711172 0.041572 0.203212
Si Si5 0.222186 0.805438 0.008763
O O1 0.157235 0.507271 0.580543
O O2 0.296784 0.376868 0.294609
O O3 0.955292 0.468986 0.144660
O O4 0.891596 0.799038 0.171561
O O5 0.461497 0.187622 0.974136
O O6 0.296774 0.580195 0.021755
O O7 0.283119 0.975484 0.554855
O O8 0.402205 0.789617 0.239069
O O9 0.500000 0.000000 0.500000
O O10 0.783405 0.151916 0.220827
O O11 0.000000 0.000000 0.000000
#
# Coordination Sequence:
#
# PCOD8036033 Si02
#       5
#     2   2   2   2   2
#     4  11  25  49  80 110 151 199 258 308 371 458
#     4  11  25  51  75 113 156 196 253 316 373 454
#     4  12  28  50  79 116 152 196 262 311 372 462
#     4  12  28  49  82 110 152 206 249 311 386 442
#     4  12  28  51  77 113 159 198 252 318 377 448
#
# _framework density 27.527312999999999
#
# number of rings (size 3 to 8) (size 9 to 14) (size 15 to 20)
#    0.000    0.400    2.000    6.000    5.600    4.800 
#    0.000    0.000    0.000    0.000    0.000    0.000 
#    0.000    0.000    0.000    0.000    0.000    0.000 
#
# Total GULP energy -123960.740646 kJ/mol
# GULP energy per Si atom -12396.074065 kJ/mol
# Density = 2.746466 g / cm^3
# Si number density = 27.527313 Si / 1000 Ang^3
#
#
#
# Elastic Constant Matrix: (Units=GPa)
#
#
# Indices 1 2 3 4 5 6 
#
# 1 155.2349 61.5846 -3.5768 -11.0689 9.3122 10.5253
# 2 61.5846 179.3233 52.3782 -19.0532 25.7595 8.4446
# 3 -3.5768 52.3782 78.6557 -3.4688 20.3665 20.2151
# 4 -11.0689 -19.0532 -3.4688 48.7223 -3.4725 17.9543
# 5 9.3122 25.7595 20.3665 -3.4725 41.0589 1.4687
# 6 10.5253 8.4446 20.2151 17.9543 1.4687 54.5157
#
#
#
# Elastic Compliance Matrix: (Units=1/GPa)
#
#
# Indices 1 2 3 4 5 6 
#
# 1 0.008334 -0.003465 0.003928 0.001863 -0.001396 -0.003105
# 2 -0.003465 0.008850 -0.005729 0.001816 -0.001803 0.000873
# 3 0.003928 -0.005729 0.020784 0.002674 -0.007085 -0.008268
# 4 0.001863 0.001816 0.002674 0.025516 -0.000371 -0.010026
# 5 -0.001396 -0.001803 -0.007085 -0.000371 0.029196 0.002512
# 6 -0.003105 0.000873 -0.008268 -0.010026 0.002512 0.025108
#
#
# Mechanical properties :
#
#
# Convention : Reuss Voigt Hill
#
# Bulk Modulus (GPa) = 36.44649 70.44290 53.44469
# Shear Modulus (GPa) = 36.37279 49.04789 42.71034
#
# Velocity S-wave (km/s) = 3.63896 4.22570 3.94326
# Velocity P-wave (km/s) = 5.56102 7.03239 6.33954
#
# Compressibility (1/GPa) = 0.02743748
#
# Stress axis : x y z
#
# Youngs Moduli (GPa) = 119.99158 112.98816 48.11344
#
# Poissons Ratio (x) = 0.39147 -0.18898
# Poissons Ratio (y) = 0.41573 0.27562
# Poissons Ratio (z) = -0.47129 0.64727
#
# Static dielectric constant tensor:
#      x y z
#    x 5.473960 -0.272150 0.138080 
#    y -0.272150 5.130100 -0.130060 
#    z 0.138080 -0.130060 5.215690 
# 
# 
# High freq. dielectric constant tensor:
#      x y z
#    x 2.136930 -0.017810 -0.001610 
#    y -0.017810 2.105100 -0.015650 
#    z -0.001610 -0.015650 2.118290 
# 
# From -- ./inp_files/146090.got.cif
#   From: 2010.06.25/outbox.cif.g09.slc.cpg/sg2_74_cif.got.tgz:146090.got - 2010.06.27 13:26:56.
