data_PCOD8036516
_publ_section_title
;
Structure prediction by ZEFSAII (Michael W. Deem and Ramdas Pophale) SiO2 
 PCOD8036516
Probable space group: P -1
;
_chemical_formula_sum "Si O2"
_cell_formula_units_Z 14
_cell_length_a 8.366266
_cell_length_b 13.435749
_cell_length_c 13.874620
_cell_angle_alpha 149.305703
_cell_angle_beta 88.279167
_cell_angle_gamma 108.935265
_cell_volume 645.163475
_symmetry_space_group_name_H-M "P -1"
_symmetry_group_IT_number 2
_symmetry_cell_setting 'triclinic'
loop_
_space_group_symop_operation_xyz
x,y,z
-x,-y,-z
loop_
_atom_site_type_symbol
_atom_site_label
_atom_site_fract_x
_atom_site_fract_y
_atom_site_fract_z
Si Si1 0.843453 0.237840 0.181004
Si Si2 0.824041 0.632320 0.867161
Si Si3 0.825731 0.561592 0.317806
Si Si4 0.900529 0.331568 0.952357
Si Si5 0.076181 0.882426 0.730543
Si Si6 0.597451 0.797867 0.516264
Si Si7 0.661213 0.771263 0.699037
O O1 0.748573 0.368659 0.248067
O O2 0.872472 0.259508 0.315169
O O3 0.047598 0.341882 0.205907
O O4 0.689893 0.950658 0.931060
O O5 0.623958 0.364346 0.656133
O O6 0.944948 0.693019 0.014293
O O7 0.772049 0.827303 0.024612
O O8 0.691597 0.652461 0.376655
O O9 0.045786 0.781461 0.537004
O O10 0.829419 0.450058 0.124619
O O11 0.724050 0.067556 0.694502
O O12 0.000000 0.500000 0.000000
O O13 0.865589 0.813004 0.709342
O O14 0.588785 0.839295 0.663967
O O15 0.500000 0.500000 0.500000
#
# Coordination Sequence:
#
# PCOD8036516 Si02
#       7
#     2   2   2   2   2   2   2
#     4  10  18  34  58  90 128 168 205 235 296 366
#     4  10  20  40  63  89 125 166 196 251 308 359
#     4  10  21  40  60  91 125 156 205 257 298 361
#     4  11  24  46  68  87 118 160 206 260 315 361
#     4  10  18  34  57  89 128 164 202 243 297 362
#     4  11  21  41  63  89 130 156 202 259 299 359
#     4  10  17  31  57  87 126 169 199 240 297 353
#
# _framework density 21.699928
#
# number of rings (size 3 to 8) (size 9 to 14) (size 15 to 20)
#    0.000    1.714    5.714    3.857    0.000    1.143 
#    5.143    7.143    0.000    0.000    0.000    0.000 
#    0.000    0.000    0.000    0.000    0.000    0.000 
#
# Total GULP energy -173435.915867 kJ/mol
# GULP energy per Si atom -12388.279705 kJ/mol
# Density = 2.165054 g / cm^3
# Si number density = 21.699928 Si / 1000 Ang^3
#
#
#
# Elastic Constant Matrix: (Units=GPa)
#
#
# Indices 1 2 3 4 5 6 
#
# 1 39.2783 16.8489 42.6450 3.7863 -9.0113 0.3018
# 2 16.8489 86.7438 30.1771 17.8407 4.7863 -6.9682
# 3 42.6450 30.1771 140.3742 29.9528 7.2803 9.6134
# 4 3.7863 17.8407 29.9528 38.6292 3.4456 1.0081
# 5 -9.0113 4.7863 7.2803 3.4456 34.5784 5.4208
# 6 0.3018 -6.9682 9.6134 1.0081 5.4208 10.3424
#
#
#
# Elastic Compliance Matrix: (Units=1/GPa)
#
#
# Indices 1 2 3 4 5 6 
#
# 1 0.048689 -0.006673 -0.016189 0.009431 0.016118 -0.000236
# 2 -0.006673 0.015868 -0.000878 -0.005895 -0.005543 0.015182
# 3 -0.016189 -0.000878 0.015149 -0.009053 -0.004682 -0.010865
# 4 0.009431 -0.005895 -0.009053 0.034552 0.001756 -0.000120
# 5 0.016118 -0.005543 -0.004682 0.001756 0.037809 -0.019841
# 6 -0.000236 0.015182 -0.010865 -0.000120 -0.019841 0.127435
#
#
# Mechanical properties :
#
#
# Convention : Reuss Voigt Hill
#
# Bulk Modulus (GPa) = 31.03160 49.52646 40.27903
# Shear Modulus (GPa) = 14.80497 28.49170 21.64834
#
# Velocity S-wave (km/s) = 2.61484 3.62745 3.16194
# Velocity P-wave (km/s) = 4.84230 6.35747 5.65090
#
# Compressibility (1/GPa) = 0.03222521
#
# Stress axis : x y z
#
# Youngs Moduli (GPa) = 20.53846 63.02048 66.00932
#
# Poissons Ratio (x) = 0.42056 1.06863
# Poissons Ratio (y) = 0.13706 0.05797
# Poissons Ratio (z) = 0.33250 0.05535
#
# Static dielectric constant tensor:
#      x y z
#    x 3.699690 -0.223660 -0.225750 
#    y -0.223660 3.661140 0.085630 
#    z -0.225750 0.085630 4.754870 
# 
# 
# High freq. dielectric constant tensor:
#      x y z
#    x 1.825560 -0.021950 -0.009980 
#    y -0.021950 1.808390 0.006490 
#    z -0.009980 0.006490 1.885650 
# 
# From -- ./inp_files/315188.got.cif
#   From: 2010.06.25/outbox.cif.g09.slc.cpg/sg2_158_cif.got.tgz:315188.got - 2010.06.27 13:26:56.
