data_PCOD8036902
_publ_section_title
;
Structure prediction by ZEFSAII (Michael W. Deem and Ramdas Pophale) SiO2 
 PCOD8036902
Probable space group: P -1
;
_chemical_formula_sum "Si O2"
_cell_formula_units_Z 16
_cell_length_a 5.452479
_cell_length_b 20.477139
_cell_length_c 12.059055
_cell_angle_alpha 149.131162
_cell_angle_beta 87.874378
_cell_angle_gamma 88.855375
_cell_volume 686.798197
_symmetry_space_group_name_H-M "P -1"
_symmetry_group_IT_number 2
_symmetry_cell_setting 'triclinic'
loop_
_space_group_symop_operation_xyz
x,y,z
-x,-y,-z
loop_
_atom_site_type_symbol
_atom_site_label
_atom_site_fract_x
_atom_site_fract_y
_atom_site_fract_z
Si Si1 0.735910 0.025014 0.602695
Si Si2 0.632947 0.279590 0.092877
Si Si3 0.123196 0.287147 0.238785
Si Si4 0.595392 0.326142 0.577261
Si Si5 0.219660 0.489050 0.685645
Si Si6 0.711911 0.815606 0.477901
Si Si7 0.969625 0.853831 0.762245
Si Si8 0.863586 0.558518 0.982050
O O1 0.712901 0.947549 0.604965
O O2 0.500000 0.000000 0.500000
O O3 0.000000 0.000000 0.500000
O O4 0.700794 0.173555 0.845393
O O5 0.366819 0.264135 0.125926
O O6 0.597187 0.414292 0.224524
O O7 0.866880 0.267955 0.154659
O O8 0.086362 0.430975 0.498281
O O9 0.190362 0.184410 0.186627
O O10 0.351159 0.365890 0.568152
O O11 0.547024 0.225591 0.530073
O O12 0.788342 0.248470 0.379649
O O13 0.655623 0.463383 0.823775
O O14 0.024492 0.566443 0.881158
O O15 0.877534 0.829600 0.604378
O O16 0.786473 0.705132 0.226330
O O17 0.000000 0.000000 0.000000
O O18 0.000000 0.500000 0.000000
#
# Coordination Sequence:
#
# PCOD8036902 Si02
#       8
#     2   2   2   2   2   2   2   2
#     4  12  30  54  76 111 151 201 257 307 377 455
#     4  12  29  47  78 107 153 207 251 309 377 451
#     4  12  25  50  71 114 148 198 257 307 378 453
#     4  12  24  43  73 108 145 188 252 305 385 433
#     4  12  26  44  73 109 149 196 246 316 374 448
#     4  12  27  46  76 108 147 198 245 315 375 447
#     4  12  27  46  75 106 153 194 249 314 377 449
#     4  12  23  44  70 111 148 186 252 312 384 439
#
# _framework density 23.296507999999999
#
# number of rings (size 3 to 8) (size 9 to 14) (size 15 to 20)
#    0.000    0.000    5.000    4.125    7.000    0.500 
#    0.000    0.000    0.000    0.000    0.000    0.000 
#    0.000    0.000    0.000    0.000    0.000    0.000 
#
# Total GULP energy -198242.628321 kJ/mol
# GULP energy per Si atom -12390.164270 kJ/mol
# Density = 2.324348 g / cm^3
# Si number density = 23.296508 Si / 1000 Ang^3
#
#
#
# Elastic Constant Matrix: (Units=GPa)
#
#
# Indices 1 2 3 4 5 6 
#
# 1 102.0682 28.6068 19.2085 -19.3022 1.9703 8.2714
# 2 28.6068 133.4227 13.4164 5.1177 0.1148 19.8490
# 3 19.2085 13.4164 152.4744 -9.5509 3.2664 5.0199
# 4 -19.3022 5.1177 -9.5509 40.8247 5.0976 0.2472
# 5 1.9703 0.1148 3.2664 5.0976 32.5484 -5.7814
# 6 8.2714 19.8490 5.0199 0.2472 -5.7814 37.0371
#
#
#
# Elastic Compliance Matrix: (Units=1/GPa)
#
#
# Indices 1 2 3 4 5 6 
#
# 1 0.011943 -0.002475 -0.000820 0.006006 -0.001849 -0.001558
# 2 -0.002475 0.008772 -0.000467 -0.002330 -0.000198 -0.004100
# 3 -0.000820 -0.000467 0.006832 0.001394 -0.000969 -0.000653
# 4 0.006006 -0.002330 0.001394 0.028610 -0.005204 -0.001285
# 5 -0.001849 -0.000198 -0.000969 -0.005204 0.032779 0.005802
# 6 -0.001558 -0.004100 -0.000653 -0.001285 0.005802 0.030548
#
#
# Mechanical properties :
#
#
# Convention : Reuss Voigt Hill
#
# Bulk Modulus (GPa) = 49.93896 56.71432 53.32664
# Shear Modulus (GPa) = 37.40185 43.86428 40.63306
#
# Velocity S-wave (km/s) = 4.01118 4.34391 4.18086
# Velocity P-wave (km/s) = 6.55252 7.03966 6.80045
#
# Compressibility (1/GPa) = 0.02002445
#
# Stress axis : x y z
#
# Youngs Moduli (GPa) = 83.73054 113.99711 146.36111
#
# Poissons Ratio (x) = 0.28216 0.11997
# Poissons Ratio (y) = 0.20725 0.06831
# Poissons Ratio (z) = 0.06863 0.05321
#
# Static dielectric constant tensor:
#      x y z
#    x 4.058500 0.260510 0.152900 
#    y 0.260510 4.287040 0.106310 
#    z 0.152900 0.106310 3.957820 
# 
# 
# High freq. dielectric constant tensor:
#      x y z
#    x 1.915080 0.013600 0.013140 
#    y 0.013600 1.938600 -0.004470 
#    z 0.013140 -0.004470 1.941740 
# 
# From -- ./inp_files/370518.got.cif
#   From: 2010.06.25/outbox.cif.g09.slc.cpg/sg2_186_cif.got.tgz:370518.got - 2010.06.27 13:26:56.
