data_PCOD8036919
_publ_section_title
;
Structure prediction by ZEFSAII (Michael W. Deem and Ramdas Pophale) SiO2 
 PCOD8036919
Probable space group: P -1
;
_chemical_formula_sum "Si O2"
_cell_formula_units_Z 16
_cell_length_a 11.563284
_cell_length_b 13.342839
_cell_length_c 9.403103
_cell_angle_alpha 70.274329
_cell_angle_beta 123.254808
_cell_angle_gamma 64.147207
_cell_volume 701.518054
_symmetry_space_group_name_H-M "P -1"
_symmetry_group_IT_number 2
_symmetry_cell_setting 'triclinic'
loop_
_space_group_symop_operation_xyz
x,y,z
-x,-y,-z
loop_
_atom_site_type_symbol
_atom_site_label
_atom_site_fract_x
_atom_site_fract_y
_atom_site_fract_z
Si Si1 0.219836 0.728766 0.429991
Si Si2 0.339917 0.654751 0.000695
Si Si3 0.605683 0.153041 0.467600
Si Si4 0.175857 0.349822 0.577525
Si Si5 0.425737 0.837003 0.875109
Si Si6 0.992697 0.779629 0.506390
Si Si7 0.183627 0.452559 0.232816
Si Si8 0.954632 0.219110 0.012409
O O1 0.237280 0.838301 0.445592
O O2 0.027262 0.782712 0.361850
O O3 0.460346 0.527324 0.699865
O O4 0.143812 0.776144 0.194726
O O5 0.431753 0.709793 0.978456
O O6 0.239489 0.644534 0.808719
O O7 0.142661 0.790270 0.917773
O O8 0.490754 0.199308 0.214534
O O9 0.423383 0.281248 0.406035
O O10 0.772656 0.954543 0.718096
O O11 0.100355 0.281426 0.501530
O O12 0.193979 0.416305 0.423027
O O13 0.000000 0.500000 0.500000
O O14 0.413632 0.196425 0.892580
O O15 0.175442 0.034458 0.624849
O O16 0.000000 0.500000 0.000000
O O17 0.122442 0.612853 0.103935
#
# Coordination Sequence:
#
# PCOD8036919 Si02
#       8
#     2   2   2   2   2   2   2   2
#     4  12  26  43  78 108 145 187 244 305 369 434
#     4  12  23  44  76 106 147 191 242 300 369 428
#     4  12  27  47  75 109 146 193 241 304 370 434
#     4  12  28  49  75 105 146 195 245 298 364 439
#     4  12  26  46  72 111 146 188 249 303 359 437
#     4  12  25  47  72 109 145 194 242 300 367 434
#     4  12  28  50  75 105 149 197 243 297 370 438
#     4  12  26  47  71 111 149 188 243 307 365 436
#
# _framework density 22.807679
#
# number of rings (size 3 to 8) (size 9 to 14) (size 15 to 20)
#    0.000    0.000    3.750    6.375    5.250    0.500 
#    2.250    0.000    0.000    0.000    0.000    0.000 
#    0.000    0.000    0.000    0.000    0.000    0.000 
#
# Total GULP energy -198520.634505 kJ/mol
# GULP energy per Si atom -12407.539657 kJ/mol
# Density = 2.275577 g / cm^3
# Si number density = 22.807679 Si / 1000 Ang^3
#
#
#
# Elastic Constant Matrix: (Units=GPa)
#
#
# Indices 1 2 3 4 5 6 
#
# 1 93.1467 31.1218 26.3229 0.0452 -0.4177 -13.0331
# 2 31.1218 95.4226 34.8797 -3.2096 -6.5991 -16.8682
# 3 26.3229 34.8797 112.1982 9.8438 -2.1400 -5.9683
# 4 0.0452 -3.2096 9.8438 47.5563 -3.9651 6.8604
# 5 -0.4177 -6.5991 -2.1400 -3.9651 29.1753 8.6835
# 6 -13.0331 -16.8682 -5.9683 6.8604 8.6835 40.2798
#
#
#
# Elastic Compliance Matrix: (Units=1/GPa)
#
#
# Indices 1 2 3 4 5 6 
#
# 1 0.012691 -0.003057 -0.001866 -0.000390 -0.001580 0.002957
# 2 -0.003057 0.013507 -0.003367 0.001256 0.001879 0.003550
# 3 -0.001866 -0.003367 0.010609 -0.002460 -0.000361 0.000055
# 4 -0.000390 0.001256 -0.002460 0.022704 0.004621 -0.004828
# 5 -0.001580 0.001879 -0.000361 0.004621 0.037878 -0.008731
# 6 0.002957 0.003550 0.000055 -0.004828 -0.008731 0.029982
#
#
# Mechanical properties :
#
#
# Convention : Reuss Voigt Hill
#
# Bulk Modulus (GPa) = 49.43784 53.93513 51.68649
# Shear Modulus (GPa) = 33.17986 37.29849 35.23917
#
# Velocity S-wave (km/s) = 3.81828 4.04833 3.93499
# Velocity P-wave (km/s) = 6.41576 6.74916 6.58457
#
# Compressibility (1/GPa) = 0.02022742
#
# Stress axis : x y z
#
# Youngs Moduli (GPa) = 78.79473 74.03439 94.25771
#
# Poissons Ratio (x) = 0.22632 0.17586
# Poissons Ratio (y) = 0.24087 0.31741
# Poissons Ratio (z) = 0.14701 0.24931
#
# Static dielectric constant tensor:
#      x y z
#    x 4.266250 0.007550 -0.068520 
#    y 0.007550 4.273650 0.050020 
#    z -0.068520 0.050020 4.310200 
# 
# 
# High freq. dielectric constant tensor:
#      x y z
#    x 1.899380 -0.009180 -0.004660 
#    y -0.009180 1.914170 0.001780 
#    z -0.004660 0.001780 1.914270 
# 
# From -- ./inp_files/272684.got.cif
#   From: 2010.06.25/outbox.cif.g09.slc.cpg/sg2_137_cif.got.tgz:272684.got - 2010.06.27 13:26:56.
