data_PCOD8036189
_publ_section_title
;
Structure prediction by ZEFSAII (Michael W. Deem and Ramdas Pophale) SiO2 
 PCOD8036189
Probable space group: P -1
;
_chemical_formula_sum "Si O2"
_cell_formula_units_Z 12
_cell_length_a 4.883897
_cell_length_b 8.709297
_cell_length_c 15.236001
_cell_angle_alpha 132.187981
_cell_angle_beta 80.769874
_cell_angle_gamma 91.789470
_cell_volume 471.366191
_symmetry_space_group_name_H-M "P -1"
_symmetry_group_IT_number 2
_symmetry_cell_setting 'triclinic'
loop_
_space_group_symop_operation_xyz
x,y,z
-x,-y,-z
loop_
_atom_site_type_symbol
_atom_site_label
_atom_site_fract_x
_atom_site_fract_y
_atom_site_fract_z
Si Si1 0.735639 0.782322 0.173458
Si Si2 0.371462 0.901077 0.552808
Si Si3 0.899301 0.621998 0.464412
Si Si4 0.991786 0.279645 0.192180
Si Si5 0.504854 0.017714 0.124779
Si Si6 0.808791 0.328656 0.035852
O O1 0.017759 0.749248 0.088797
O O2 0.782815 0.916261 0.308909
O O3 0.486542 0.907416 0.178436
O O4 0.642984 0.556067 0.116316
O O5 0.137955 0.762453 0.476543
O O6 0.605954 0.763952 0.546065
O O7 0.500000 0.000000 0.500000
O O8 0.000000 0.500000 0.500000
O O9 0.839204 0.464936 0.328812
O O10 0.819594 0.076610 0.122471
O O11 0.287355 0.221622 0.202595
O O12 0.014967 0.348008 0.115879
O O13 0.418347 0.837002 0.992137
#
# Coordination Sequence:
#
# PCOD8036189 Si02
#       6
#     2   2   2   2   2   2
#     4  11  26  47  73 104 145 188 236 295 358 428
#     4  12  27  50  76 106 145 192 244 298 359 428
#     4  12  26  50  75 110 143 192 243 300 357 428
#     4  12  26  45  76 104 146 184 239 295 356 424
#     4  12  24  47  69 109 141 189 232 293 357 428
#     4  11  26  46  71 108 143 187 236 294 361 424
#
# _framework density 25.457916999999998
#
# number of rings (size 3 to 8) (size 9 to 14) (size 15 to 20)
#    0.000    0.333    1.667    6.500    4.667    0.000 
#    3.000    0.000    0.000    0.000    0.000    0.000 
#    0.000    0.000    0.000    0.000    0.000    0.000 
#
# Total GULP energy -148811.329036 kJ/mol
# GULP energy per Si atom -12400.944086 kJ/mol
# Density = 2.539997 g / cm^3
# Si number density = 25.457917 Si / 1000 Ang^3
#
#
#
# Elastic Constant Matrix: (Units=GPa)
#
#
# Indices 1 2 3 4 5 6 
#
# 1 96.7465 27.1652 25.5595 5.3452 6.8378 -0.4713
# 2 27.1652 100.4321 57.3571 6.1672 -5.9869 -11.3272
# 3 25.5595 57.3571 158.7740 -6.6048 -4.3262 2.6345
# 4 5.3452 6.1672 -6.6048 33.7363 -1.3056 8.9731
# 5 6.8378 -5.9869 -4.3262 -1.3056 36.1275 6.0504
# 6 -0.4713 -11.3272 2.6345 8.9731 6.0504 41.8987
#
#
#
# Elastic Compliance Matrix: (Units=1/GPa)
#
#
# Indices 1 2 3 4 5 6 
#
# 1 0.011648 -0.002539 -0.001116 -0.001795 -0.002877 0.000315
# 2 -0.002539 0.014435 -0.005041 -0.004496 0.001274 0.004970
# 3 -0.001116 -0.005041 0.008521 0.003554 0.000996 -0.002816
# 4 -0.001795 -0.004496 0.003554 0.033982 0.002779 -0.009138
# 5 -0.002877 0.001274 0.000996 0.002779 0.029425 -0.004595
# 6 0.000315 0.004970 -0.002816 -0.009138 -0.004595 0.028012
#
#
# Mechanical properties :
#
#
# Convention : Reuss Voigt Hill
#
# Bulk Modulus (GPa) = 58.09871 64.01292 61.05582
# Shear Modulus (GPa) = 33.52315 38.74389 36.13352
#
# Velocity S-wave (km/s) = 3.63272 3.90536 3.77150
# Velocity P-wave (km/s) = 6.36133 6.74796 6.55750
#
# Compressibility (1/GPa) = 0.01721209
#
# Stress axis : x y z
#
# Youngs Moduli (GPa) = 85.85103 69.27601 117.36253
#
# Poissons Ratio (x) = 0.17589 0.13100
# Poissons Ratio (y) = 0.21797 0.59159
# Poissons Ratio (z) = 0.09583 0.34920
#
# Static dielectric constant tensor:
#      x y z
#    x 4.329160 -0.197450 0.188130 
#    y -0.197450 4.995280 0.162220 
#    z 0.188130 0.162220 4.704830 
# 
# 
# High freq. dielectric constant tensor:
#      x y z
#    x 2.009880 -0.012900 0.009390 
#    y -0.012900 2.037910 0.005090 
#    z 0.009390 0.005090 2.016030 
# 
# From -- ./inp_files/478758.got.cif
#   From: 2010.06.25/outbox.cif.g09.slc.cpg/sg2_240_cif.got.tgz:478758.got - 2010.06.27 13:26:56.
