data_PCOD8036911
_publ_section_title
;
Structure prediction by ZEFSAII (Michael W. Deem and Ramdas Pophale) SiO2 
 PCOD8036911
Probable space group: P -1
;
_chemical_formula_sum "Si O2"
_cell_formula_units_Z 16
_cell_length_a 14.348832
_cell_length_b 8.477001
_cell_length_c 13.944047
_cell_angle_alpha 39.811581
_cell_angle_beta 123.819219
_cell_angle_gamma 95.935220
_cell_volume 715.356880
_symmetry_space_group_name_H-M "P -1"
_symmetry_group_IT_number 2
_symmetry_cell_setting 'triclinic'
loop_
_space_group_symop_operation_xyz
x,y,z
-x,-y,-z
loop_
_atom_site_type_symbol
_atom_site_label
_atom_site_fract_x
_atom_site_fract_y
_atom_site_fract_z
Si Si1 0.547436 0.719747 0.421056
Si Si2 0.040939 0.225862 0.926495
Si Si3 0.646607 0.704244 0.688577
Si Si4 0.861452 0.829786 0.785224
Si Si5 0.220974 0.310402 0.545691
Si Si6 0.245364 0.333001 0.928861
Si Si7 0.116720 0.684917 0.506410
Si Si8 0.805140 0.176939 0.177100
O O1 0.500000 0.500000 0.500000
O O2 0.640776 0.627079 0.612202
O O3 0.648914 0.677740 0.411330
O O4 0.407620 0.075254 0.172008
O O5 0.155941 0.197566 0.935851
O O6 0.890804 0.564237 0.665731
O O7 0.130137 0.115284 0.125497
O O8 0.000000 0.000000 0.000000
O O9 0.732531 0.835476 0.683986
O O10 0.500000 0.000000 0.500000
O O11 0.710639 0.396749 0.931607
O O12 0.848082 0.078208 0.593558
O O13 0.000000 0.500000 0.000000
O O14 0.136349 0.523128 0.491294
O O15 0.273005 0.959696 0.759038
O O16 0.234158 0.437552 0.764513
O O17 0.178669 0.623406 0.829157
O O18 0.956763 0.878296 0.364546
#
# Coordination Sequence:
#
# PCOD8036911 Si02
#       8
#     2   2   2   2   2   2   2   2
#     4  12  30  52  75 110 154 201 247 312 376 450
#     4  12  23  44  73 106 148 190 249 306 361 440
#     4  12  26  49  78 108 148 196 255 307 371 441
#     4  12  24  43  73 108 141 196 248 304 362 434
#     4  12  29  45  75 113 151 201 245 304 387 444
#     4  12  27  49  75 107 156 198 249 310 375 440
#     4  12  27  46  75 112 155 193 249 310 374 445
#     4  12  26  49  75 111 150 195 251 316 370 442
#
# _framework density 22.366458000000002
#
# number of rings (size 3 to 8) (size 9 to 14) (size 15 to 20)
#    0.000    0.000    6.250    2.250    7.000    2.000 
#    0.000    0.000    0.000    0.000    0.000    0.000 
#    0.000    0.000    0.000    0.000    0.000    0.000 
#
# Total GULP energy -198262.938210 kJ/mol
# GULP energy per Si atom -12391.433638 kJ/mol
# Density = 2.231555 g / cm^3
# Si number density = 22.366458 Si / 1000 Ang^3
#
#
#
# Elastic Constant Matrix: (Units=GPa)
#
#
# Indices 1 2 3 4 5 6 
#
# 1 152.5108 59.4720 57.0290 0.5275 -11.5117 28.6575
# 2 59.4720 121.1257 35.0453 10.2545 -4.6390 17.6070
# 3 57.0290 35.0453 126.7900 11.4094 -16.1858 13.8428
# 4 0.5275 10.2545 11.4094 39.0508 0.1934 1.2918
# 5 -11.5117 -4.6390 -16.1858 0.1934 51.5392 -6.3599
# 6 28.6575 17.6070 13.8428 1.2918 -6.3599 44.7995
#
#
#
# Elastic Compliance Matrix: (Units=1/GPa)
#
#
# Indices 1 2 3 4 5 6 
#
# 1 0.009868 -0.003497 -0.003153 0.001835 0.000404 -0.003959
# 2 -0.003497 0.010699 -0.001033 -0.002405 -0.000334 -0.001627
# 3 -0.003153 -0.001033 0.010166 -0.002658 0.002367 -0.000305
# 4 0.001835 -0.002405 -0.002658 0.027005 -0.000779 -0.000297
# 5 0.000404 -0.000334 0.002367 -0.000779 0.020465 0.002069
# 6 -0.003959 -0.001627 -0.000305 -0.000297 0.002069 0.025890
#
#
# Mechanical properties :
#
#
# Convention : Reuss Voigt Hill
#
# Bulk Modulus (GPa) = 65.07893 78.16880 71.62386
# Shear Modulus (GPa) = 40.13473 43.66992 41.90232
#
# Velocity S-wave (km/s) = 4.24065 4.42347 4.33303
# Velocity P-wave (km/s) = 7.28953 7.81758 7.55817
#
# Compressibility (1/GPa) = 0.01536596
#
# Stress axis : x y z
#
# Youngs Moduli (GPa) = 101.34018 93.46593 98.37111
#
# Poissons Ratio (x) = 0.32686 0.31018
# Poissons Ratio (y) = 0.35440 0.10161
# Poissons Ratio (z) = 0.31954 0.09654
#
# Static dielectric constant tensor:
#      x y z
#    x 4.318260 -0.193020 -0.489710 
#    y -0.193020 4.036960 0.231190 
#    z -0.489710 0.231190 4.579890 
# 
# 
# High freq. dielectric constant tensor:
#      x y z
#    x 1.894630 0.011940 -0.016600 
#    y 0.011940 1.881150 0.004230 
#    z -0.016600 0.004230 1.895900 
# 
# From -- ./inp_files/298701.got.cif
#   From: 2010.06.25/outbox.cif.g09.slc.cpg/sg2_150_cif.got.tgz:298701.got - 2010.06.27 13:26:56.
