data_PCOD8036614
_publ_section_title
;
Structure prediction by ZEFSAII (Michael W. Deem and Ramdas Pophale) SiO2 
 PCOD8036614
Probable space group: P -1
;
_chemical_formula_sum "Si O2"
_cell_formula_units_Z 16
_cell_length_a 8.708342
_cell_length_b 12.385369
_cell_length_c 7.823691
_cell_angle_alpha 83.105714
_cell_angle_beta 114.004873
_cell_angle_gamma 121.002586
_cell_volume 656.398734
_symmetry_space_group_name_H-M "P -1"
_symmetry_group_IT_number 2
_symmetry_cell_setting 'triclinic'
loop_
_space_group_symop_operation_xyz
x,y,z
-x,-y,-z
loop_
_atom_site_type_symbol
_atom_site_label
_atom_site_fract_x
_atom_site_fract_y
_atom_site_fract_z
Si Si1 0.682549 0.537644 0.949089
Si Si2 0.079267 0.967938 0.873259
Si Si3 0.299094 0.263807 0.322964
Si Si4 0.369966 0.934102 0.183789
Si Si5 0.051356 0.733347 0.292980
Si Si6 0.416693 0.729908 0.050927
Si Si7 0.804412 0.814459 0.337890
Si Si8 0.612718 0.205975 0.336698
O O1 0.893803 0.623401 0.120340
O O2 0.500000 0.500000 0.000000
O O3 0.645942 0.598914 0.751047
O O4 0.693986 0.416728 0.912094
O O5 0.931620 0.820421 0.801732
O O6 0.070444 0.034948 0.678707
O O7 0.301066 0.990801 0.985934
O O8 0.000000 0.000000 0.000000
O O9 0.323992 0.245910 0.538497
O O10 0.423453 0.213740 0.293319
O O11 0.173421 0.865529 0.222139
O O12 0.415575 0.825058 0.174887
O O13 0.550231 0.056093 0.336858
O O14 0.212363 0.710369 0.465666
O O15 0.937639 0.753329 0.391806
O O16 0.643572 0.768793 0.119167
O O17 0.315826 0.737225 0.830090
#
# Coordination Sequence:
#
# PCOD8036614 Si02
#       8
#     2   2   2   2   2   2   2   2
#     4  12  25  53  78  98 147 207 255 297 354 442
#     4  12  21  44  77 106 146 196 241 298 379 442
#     4  12  25  46  75 109 146 194 246 307 364 438
#     4  12  25  45  74 111 151 187 243 310 377 438
#     4  12  26  46  75 109 147 192 245 305 372 436
#     4  12  27  48  74 104 151 200 245 299 367 439
#     4  12  25  44  74 113 142 191 245 301 379 445
#     4  12  25  46  74 112 150 187 238 318 379 428
#
# _framework density 24.375430000000001
#
# number of rings (size 3 to 8) (size 9 to 14) (size 15 to 20)
#    0.000    0.000    7.500    1.875    1.750    2.500 
#    0.000    0.000    0.000    0.000    0.000    0.000 
#    0.000    0.000    0.000    0.000    0.000    0.000 
#
# Total GULP energy -198224.743609 kJ/mol
# GULP energy per Si atom -12389.046476 kJ/mol
# Density = 2.431995 g / cm^3
# Si number density = 24.375430 Si / 1000 Ang^3
#
#
#
# Elastic Constant Matrix: (Units=GPa)
#
#
# Indices 1 2 3 4 5 6 
#
# 1 74.1303 48.5242 37.6123 -3.9870 3.1652 -5.5184
# 2 48.5242 145.2093 42.1125 -26.0666 -2.8300 -11.1080
# 3 37.6123 42.1125 118.3501 -21.1299 5.4061 5.6784
# 4 -3.9870 -26.0666 -21.1299 38.9406 15.6952 1.9076
# 5 3.1652 -2.8300 5.4061 15.6952 42.3838 0.7522
# 6 -5.5184 -11.1080 5.6784 1.9076 0.7522 35.2392
#
#
#
# Elastic Compliance Matrix: (Units=1/GPa)
#
#
# Indices 1 2 3 4 5 6 
#
# 1 0.019867 -0.005826 -0.005301 -0.005124 0.000659 0.002392
# 2 -0.005826 0.010317 -0.000755 0.006251 -0.001133 0.002147
# 3 -0.005301 -0.000755 0.012011 0.007154 -0.003777 -0.003310
# 4 -0.005124 0.006251 0.007154 0.039192 -0.014594 -0.001795
# 5 0.000659 -0.001133 -0.003777 -0.014594 0.029346 0.000518
# 6 0.002392 0.002147 -0.003310 -0.001795 0.000518 0.030048
#
#
# Mechanical properties :
#
#
# Convention : Reuss Voigt Hill
#
# Bulk Modulus (GPa) = 54.25131 66.02085 60.13608
# Shear Modulus (GPa) = 29.29332 37.27544 33.28438
#
# Velocity S-wave (km/s) = 3.47040 3.91477 3.69926
# Velocity P-wave (km/s) = 6.19379 6.89766 6.55518
#
# Compressibility (1/GPa) = 0.01843273
#
# Stress axis : x y z
#
# Youngs Moduli (GPa) = 50.33489 96.93150 83.25523
#
# Poissons Ratio (x) = 0.56469 0.44131
# Poissons Ratio (y) = 0.29324 0.06283
# Poissons Ratio (z) = 0.26681 0.07315
#
# Static dielectric constant tensor:
#      x y z
#    x 4.171980 0.152520 0.045790 
#    y 0.152520 4.464400 -0.106530 
#    z 0.045790 -0.106530 4.667230 
# 
# 
# High freq. dielectric constant tensor:
#      x y z
#    x 1.960680 0.011890 0.008890 
#    y 0.011890 1.960310 -0.010140 
#    z 0.008890 -0.010140 1.978640 
# 
# From -- ./inp_files/186144.got.cif
#   From: 2010.06.25/outbox.cif.g09.slc.cpg/sg2_94_cif.got.tgz:186144.got - 2010.06.27 13:26:56.
