data_PCOD8036210
_publ_section_title
;
Structure prediction by ZEFSAII (Michael W. Deem and Ramdas Pophale) SiO2 
 PCOD8036210
Probable space group: P -1
;
_chemical_formula_sum "Si O2"
_cell_formula_units_Z 16
_cell_length_a 11.708951
_cell_length_b 18.646943
_cell_length_c 9.278293
_cell_angle_alpha 47.035182
_cell_angle_beta 131.862864
_cell_angle_gamma 150.995358
_cell_volume 704.140366
_symmetry_space_group_name_H-M "P -1"
_symmetry_group_IT_number 2
_symmetry_cell_setting 'triclinic'
loop_
_space_group_symop_operation_xyz
x,y,z
-x,-y,-z
loop_
_atom_site_type_symbol
_atom_site_label
_atom_site_fract_x
_atom_site_fract_y
_atom_site_fract_z
Si Si1 0.397293 0.374057 0.296840
Si Si2 0.770015 0.353888 0.322760
Si Si3 0.398222 0.315934 0.930563
Si Si4 0.876482 0.809012 0.407651
Si Si5 0.516363 0.920345 0.012790
Si Si6 0.296606 0.659577 0.394865
Si Si7 0.722648 0.144262 0.396479
Si Si8 0.030352 0.101678 0.139281
O O1 0.499001 0.531293 0.130965
O O2 0.228296 0.299230 0.395870
O O3 0.626062 0.415559 0.451066
O O4 0.235380 0.251867 0.201469
O O5 0.650338 0.274174 0.488698
O O6 0.840600 0.290757 0.383907
O O7 0.013923 0.535352 0.299414
O O8 0.587539 0.324402 0.111206
O O9 0.349781 0.292133 0.752057
O O10 0.137519 0.159853 0.989647
O O11 0.087512 0.849566 0.459901
O O12 0.981046 0.965463 0.330676
O O13 0.444354 0.788401 0.220795
O O14 0.346572 0.854766 0.823233
O O15 0.788590 0.045561 0.016395
O O16 0.500000 0.000000 0.000000
O O17 0.500000 0.000000 0.500000
#
# Coordination Sequence:
#
# PCOD8036210 Si02
#       8
#     2   2   2   2   2   2   2   2
#     4  12  26  46  72 107 144 188 242 298 362 428
#     4  11  26  46  74 102 148 187 240 298 361 429
#     4  12  26  46  74 109 141 191 241 295 365 428
#     4  12  26  47  73 104 147 189 239 300 357 430
#     4  12  27  44  74 106 144 188 243 294 362 428
#     4  11  26  48  70 104 145 190 238 299 361 427
#     4  12  26  47  73 107 146 191 239 295 364 429
#     4  12  25  46  74 104 144 187 243 294 357 431
#
# _framework density 22.722743000000001
#
# number of rings (size 3 to 8) (size 9 to 14) (size 15 to 20)
#    0.000    0.250    2.500    6.000    5.250    1.500 
#    0.000    0.000    0.000    0.000    0.000    0.000 
#    0.000    0.000    0.000    0.000    0.000    0.000 
#
# Total GULP energy -198503.457344 kJ/mol
# GULP energy per Si atom -12406.466084 kJ/mol
# Density = 2.267103 g / cm^3
# Si number density = 22.722743 Si / 1000 Ang^3
#
#
#
# Elastic Constant Matrix: (Units=GPa)
#
#
# Indices 1 2 3 4 5 6 
#
# 1 105.8422 20.8690 11.7398 1.8732 9.3942 -0.8492
# 2 20.8690 91.7552 26.6370 3.2182 6.5192 -4.9658
# 3 11.7398 26.6370 83.2023 7.3241 2.3770 -3.9775
# 4 1.8732 3.2182 7.3241 28.6424 3.7414 -0.6825
# 5 9.3942 6.5192 2.3770 3.7414 35.3738 3.2865
# 6 -0.8492 -4.9658 -3.9775 -0.6825 3.2865 42.4513
#
#
#
# Elastic Compliance Matrix: (Units=1/GPa)
#
#
# Indices 1 2 3 4 5 6 
#
# 1 0.010112 -0.001917 -0.000748 0.000047 -0.002295 0.000086
# 2 -0.001917 0.012580 -0.003641 -0.000110 -0.001666 0.001219
# 3 -0.000748 -0.003641 0.013587 -0.003025 0.000205 0.000768
# 4 0.000047 -0.000110 -0.003025 0.036189 -0.003670 0.000571
# 5 -0.002295 -0.001666 0.000205 -0.003670 0.029801 -0.002588
# 6 0.000086 0.001219 0.000768 0.000571 -0.002588 0.023982
#
#
# Mechanical properties :
#
#
# Convention : Reuss Voigt Hill
#
# Bulk Modulus (GPa) = 42.25128 44.36571 43.30849
# Shear Modulus (GPa) = 34.07091 36.06375 35.06733
#
# Velocity S-wave (km/s) = 3.87643 3.98819 3.93271
# Velocity P-wave (km/s) = 6.21854 6.38551 6.30258
#
# Compressibility (1/GPa) = 0.02366792
#
# Stress axis : x y z
#
# Youngs Moduli (GPa) = 98.88783 79.49190 73.59829
#
# Poissons Ratio (x) = 0.15238 0.05502
# Poissons Ratio (y) = 0.18956 0.26800
# Poissons Ratio (z) = 0.07393 0.28946
#
# Static dielectric constant tensor:
#      x y z
#    x 4.312390 -0.027430 -0.077480 
#    y -0.027430 4.112140 -0.028080 
#    z -0.077480 -0.028080 4.252730 
# 
# 
# High freq. dielectric constant tensor:
#      x y z
#    x 1.914900 0.000900 -0.004080 
#    y 0.000900 1.900680 0.004800 
#    z -0.004080 0.004800 1.903840 
# 
# From -- ./inp_files/207644.got.cif
#   From: 2010.06.25/outbox.cif.g09.slc.cpg/sg2_104_cif.got.tgz:207644.got - 2010.06.27 13:26:56.
