data_PCOD8036275
_publ_section_title
;
Structure prediction by ZEFSAII (Michael W. Deem and Ramdas Pophale) SiO2 
 PCOD8036275
Probable space group: P -1
;
_chemical_formula_sum "Si O2"
_cell_formula_units_Z 16
_cell_length_a 20.977918
_cell_length_b 5.602563
_cell_length_c 11.437227
_cell_angle_alpha 75.484084
_cell_angle_beta 32.163812
_cell_angle_gamma 80.803927
_cell_volume 689.154852
_symmetry_space_group_name_H-M "P -1"
_symmetry_group_IT_number 2
_symmetry_cell_setting 'triclinic'
loop_
_space_group_symop_operation_xyz
x,y,z
-x,-y,-z
loop_
_atom_site_type_symbol
_atom_site_label
_atom_site_fract_x
_atom_site_fract_y
_atom_site_fract_z
Si Si1 0.345112 0.469644 0.460497
Si Si2 0.558225 0.868637 0.031385
Si Si3 0.895865 0.283063 0.172727
Si Si4 0.504124 0.713101 0.567376
Si Si5 0.737466 0.632828 0.644980
Si Si6 0.672355 0.233892 0.972370
Si Si7 0.985810 0.864700 0.217213
Si Si8 0.940257 0.211489 0.637031
O O1 0.472125 0.623814 0.221819
O O2 0.237031 0.634189 0.635087
O O3 0.370425 0.295520 0.552976
O O4 0.311970 0.311815 0.414336
O O5 0.692368 0.825940 0.783773
O O6 0.500000 0.000000 0.000000
O O7 0.579515 0.998912 0.108612
O O8 0.908644 0.096902 0.283679
O O9 0.000000 0.500000 0.000000
O O10 0.916220 0.151014 0.034218
O O11 0.500000 0.500000 0.500000
O O12 0.500000 0.000000 0.500000
O O13 0.389073 0.636386 0.839804
O O14 0.683048 0.370970 0.813337
O O15 0.882199 0.633856 0.415261
O O16 0.803164 0.181923 0.815748
O O17 0.059246 0.883945 0.219521
O O18 0.000000 0.500000 0.500000
O O19 0.000000 0.000000 0.500000
#
# Coordination Sequence:
#
# PCOD8036275 Si02
#       8
#     2   2   2   2   2   2   2   2
#     4  12  25  47  78 111 152 199 266 318 396 457
#     4  12  23  41  74 111 150 191 248 322 398 438
#     4  11  26  48  75 108 149 206 260 327 382 471
#     4  12  30  52  74 108 159 211 258 310 381 480
#     4  12  23  44  75 112 146 185 258 332 381 452
#     4  12  27  49  75 111 154 203 258 320 392 462
#     4  11  26  47  74 110 154 201 264 319 397 459
#     4  12  29  48  80 113 157 208 254 320 400 466
#
# _framework density 23.216843000000001
#
# number of rings (size 3 to 8) (size 9 to 14) (size 15 to 20)
#    0.000    0.250    5.000    3.375    5.250    2.000 
#    0.000    0.000    0.000    0.000    0.000    0.000 
#    0.000    0.000    0.000    0.000    0.000    0.000 
#
# Total GULP energy -198259.740949 kJ/mol
# GULP energy per Si atom -12391.233809 kJ/mol
# Density = 2.316400 g / cm^3
# Si number density = 23.216843 Si / 1000 Ang^3
#
#
#
# Elastic Constant Matrix: (Units=GPa)
#
#
# Indices 1 2 3 4 5 6 
#
# 1 186.0074 50.2464 39.8270 17.4605 1.9817 -9.1702
# 2 50.2464 105.0861 25.7647 18.8801 7.5515 -6.6767
# 3 39.8270 25.7647 110.7194 22.8346 0.1643 -4.6839
# 4 17.4605 18.8801 22.8346 38.0657 -1.2333 -2.6375
# 5 1.9817 7.5515 0.1643 -1.2333 38.7777 2.5977
# 6 -9.1702 -6.6767 -4.6839 -2.6375 2.5977 47.8962
#
#
#
# Elastic Compliance Matrix: (Units=1/GPa)
#
#
# Indices 1 2 3 4 5 6 
#
# 1 0.006504 -0.002559 -0.001566 -0.000723 0.000103 0.000690
# 2 -0.002559 0.011962 -0.000952 -0.004197 -0.002394 0.000983
# 3 -0.001566 -0.000952 0.010933 -0.005344 0.000026 0.000341
# 4 -0.000723 -0.004197 -0.005344 0.031979 0.001866 0.000414
# 5 0.000103 -0.002394 0.000026 0.001866 0.026418 -0.001641
# 6 0.000690 0.000983 0.000341 0.000414 -0.001641 0.021293
#
#
# Mechanical properties :
#
#
# Convention : Reuss Voigt Hill
#
# Bulk Modulus (GPa) = 51.96409 70.38766 61.17587
# Shear Modulus (GPa) = 39.79097 44.01292 41.90194
#
# Velocity S-wave (km/s) = 4.14440 4.35872 4.25291
# Velocity P-wave (km/s) = 6.73291 7.46422 7.10798
#
# Compressibility (1/GPa) = 0.01924406
#
# Stress axis : x y z
#
# Youngs Moduli (GPa) = 153.76248 83.59953 91.46616
#
# Poissons Ratio (x) = 0.21397 0.14320
# Poissons Ratio (y) = 0.39354 0.08709
# Poissons Ratio (z) = 0.24073 0.07960
#
# Static dielectric constant tensor:
#      x y z
#    x 2.435970 1.328390 -2.789250 
#    y 1.328390 3.748980 2.131140 
#    z -2.789250 2.131140 0.292180 
# 
# 
# High freq. dielectric constant tensor:
#      x y z
#    x 1.932500 -0.008120 0.003600 
#    y -0.008120 1.916360 0.009020 
#    z 0.003600 0.009020 1.927680 
# 
# From -- ./inp_files/468340.got.cif
#   From: 2010.06.25/outbox.cif.g09.slc.cpg/sg2_235_cif.got.tgz:468340.got - 2010.06.27 13:26:56.
