data_PCOD8036221
_publ_section_title
;
Structure prediction by ZEFSAII (Michael W. Deem and Ramdas Pophale) SiO2 
 PCOD8036221
Probable space group: P -1
;
_chemical_formula_sum "Si O2"
_cell_formula_units_Z 14
_cell_length_a 10.107383
_cell_length_b 8.232270
_cell_length_c 12.273609
_cell_angle_alpha 102.867260
_cell_angle_beta 60.561459
_cell_angle_gamma 57.507746
_cell_volume 561.858236
_symmetry_space_group_name_H-M "P -1"
_symmetry_group_IT_number 2
_symmetry_cell_setting 'triclinic'
loop_
_space_group_symop_operation_xyz
x,y,z
-x,-y,-z
loop_
_atom_site_type_symbol
_atom_site_label
_atom_site_fract_x
_atom_site_fract_y
_atom_site_fract_z
Si Si1 0.074172 0.005446 0.204941
Si Si2 0.857720 0.622034 0.241732
Si Si3 0.358651 0.537594 0.662153
Si Si4 0.830302 0.798511 0.641743
Si Si5 0.466293 0.639300 0.834309
Si Si6 0.318899 0.097306 0.864477
Si Si7 0.985122 0.229740 0.641045
O O1 0.974199 0.966223 0.331804
O O2 0.100832 0.170023 0.267850
O O3 0.313247 0.730047 0.017918
O O4 0.897822 0.165341 0.199006
O O5 0.672775 0.636037 0.359013
O O6 0.728615 0.839298 0.234506
O O7 0.920216 0.684366 0.326883
O O8 0.100972 0.345855 0.058325
O O9 0.500000 0.500000 0.500000
O O10 0.473338 0.475931 0.725104
O O11 0.000000 0.500000 0.500000
O O12 0.863627 0.911753 0.551726
O O13 0.557212 0.986870 0.789452
O O14 0.717239 0.481400 0.753388
O O15 0.348875 0.878636 0.843585
#
# Coordination Sequence:
#
# PCOD8036221 Si02
#       7
#     2   2   2   2   2   2   2
#     4  12  27  47  73 106 149 195 248 295 369 440
#     4  11  27  48  76 107 144 194 246 303 365 443
#     4  12  28  46  73 108 148 188 240 305 371 432
#     4  12  26  46  75 110 150 192 243 311 368 428
#     4  12  26  48  75 105 150 195 243 305 364 439
#     4  11  26  46  76 104 149 187 252 294 372 432
#     4  12  27  46  75 108 147 192 247 301 371 428
#
# _framework density 24.917317000000001
#
# number of rings (size 3 to 8) (size 9 to 14) (size 15 to 20)
#    0.000    0.286    2.857    4.714   10.000    1.714 
#    0.000    0.000    0.000    0.000    0.000    0.000 
#    0.000    0.000    0.000    0.000    0.000    0.000 
#
# Total GULP energy -173620.672791 kJ/mol
# GULP energy per Si atom -12401.476628 kJ/mol
# Density = 2.486060 g / cm^3
# Si number density = 24.917317 Si / 1000 Ang^3
#
#
#
# Elastic Constant Matrix: (Units=GPa)
#
#
# Indices 1 2 3 4 5 6 
#
# 1 130.7096 10.2532 26.3639 -6.9234 4.3096 7.2660
# 2 10.2532 88.3113 -18.6864 -8.4767 -8.1380 0.1912
# 3 26.3639 -18.6864 72.5545 -21.6332 -2.1663 7.6744
# 4 -6.9234 -8.4767 -21.6332 36.4905 2.9523 -5.2823
# 5 4.3096 -8.1380 -2.1663 2.9523 42.5864 -7.3768
# 6 7.2660 0.1912 7.6744 -5.2823 -7.3768 31.3923
#
#
#
# Elastic Compliance Matrix: (Units=1/GPa)
#
#
# Indices 1 2 3 4 5 6 
#
# 1 0.008696 -0.002126 -0.003972 -0.001300 -0.001683 -0.001643
# 2 -0.002126 0.013756 0.006226 0.006344 0.002828 0.000618
# 3 -0.003972 0.006226 0.020836 0.012675 0.001473 -0.001734
# 4 -0.001300 0.006344 0.012675 0.036626 0.000027 0.003333
# 5 -0.001683 0.002828 0.001473 0.000027 0.025298 0.005962
# 6 -0.001643 0.000618 -0.001734 0.003333 0.005962 0.034617
#
#
# Mechanical properties :
#
#
# Convention : Reuss Voigt Hill
#
# Bulk Modulus (GPa) = 22.96504 36.38188 29.67346
# Shear Modulus (GPa) = 32.44875 40.33681 36.39278
#
# Velocity S-wave (km/s) = 3.61259 4.02783 3.82585
# Velocity P-wave (km/s) = 5.16117 6.02196 5.60810
#
# Compressibility (1/GPa) = 0.04354444
#
# Stress axis : x y z
#
# Youngs Moduli (GPa) = 114.98986 72.69502 47.99337
#
# Poissons Ratio (x) = 0.15458 0.19062
# Poissons Ratio (y) = 0.24452 -0.29881
# Poissons Ratio (z) = 0.45672 -0.45261
#
# Static dielectric constant tensor:
#      x y z
#    x 4.663350 -0.032820 -0.207410 
#    y -0.032820 4.707450 -0.208920 
#    z -0.207410 -0.208920 4.496730 
# 
# 
# High freq. dielectric constant tensor:
#      x y z
#    x 2.007460 -0.007590 -0.012170 
#    y -0.007590 2.003530 -0.011550 
#    z -0.012170 -0.011550 1.993710 
# 
# From -- ./inp_files/185726.got.cif
#   From: 2010.06.25/outbox.cif.g09.slc.cpg/sg2_93_cif.got.tgz:185726.got - 2010.06.27 13:26:56.
