data_PCOD8036072
_publ_section_title
;
Structure prediction by ZEFSAII (Michael W. Deem and Ramdas Pophale) SiO2 
 PCOD8036072
Probable space group: P -1
;
_chemical_formula_sum "Si O2"
_cell_formula_units_Z 12
_cell_length_a 9.704263
_cell_length_b 5.151014
_cell_length_c 14.573932
_cell_angle_alpha 80.222241
_cell_angle_beta 118.927854
_cell_angle_gamma 64.943300
_cell_volume 509.036175
_symmetry_space_group_name_H-M "P -1"
_symmetry_group_IT_number 2
_symmetry_cell_setting 'triclinic'
loop_
_space_group_symop_operation_xyz
x,y,z
-x,-y,-z
loop_
_atom_site_type_symbol
_atom_site_label
_atom_site_fract_x
_atom_site_fract_y
_atom_site_fract_z
Si Si1 0.405817 0.705381 0.365129
Si Si2 0.159002 0.447922 0.285136
Si Si3 0.060269 0.292523 0.443794
Si Si4 0.589252 0.471968 0.931253
Si Si5 0.151419 0.281534 0.981484
Si Si6 0.308933 0.673131 0.667344
O O1 0.500000 0.500000 0.500000
O O2 0.246015 0.651078 0.281668
O O3 0.548394 0.642026 0.330764
O O4 0.311869 0.076323 0.331306
O O5 0.108717 0.465005 0.374487
O O6 0.961404 0.601275 0.157340
O O7 0.000000 0.500000 0.500000
O O8 0.880477 0.285584 0.355117
O O9 0.250521 0.944033 0.554613
O O10 0.416656 0.685101 0.789784
O O11 0.500000 0.500000 0.000000
O O12 0.686696 0.656600 0.965507
O O13 0.739019 0.109158 0.958726
O O14 0.000000 0.500000 0.000000
#
# Coordination Sequence:
#
# PCOD8036072 Si02
#       6
#     2   2   2   2   2   2
#     4  12  24  44  69 104 137 174 225 275 342 402
#     4  12  26  45  72 100 139 176 226 280 336 406
#     4  11  26  42  69  98 139 177 222 278 349 399
#     4  12  27  46  73 101 139 182 235 281 339 407
#     4  12  26  48  72 102 138 185 231 282 341 404
#     4  11  26  44  67 101 136 178 225 282 337 406
#
# _framework density 23.573962000000002
#
# number of rings (size 3 to 8) (size 9 to 14) (size 15 to 20)
#    0.000    0.333    1.667    6.500    9.333    0.000 
#    0.000    0.000    0.000    0.000    0.000    0.000 
#    0.000    0.000    0.000    0.000    0.000    0.000 
#
# Total GULP energy -148773.166265 kJ/mol
# GULP energy per Si atom -12397.763855 kJ/mol
# Density = 2.352031 g / cm^3
# Si number density = 23.573962 Si / 1000 Ang^3
#
#
#
# Elastic Constant Matrix: (Units=GPa)
#
#
# Indices 1 2 3 4 5 6 
#
# 1 78.0254 17.8074 29.4738 3.2245 -4.4737 -13.9337
# 2 17.8074 94.3487 7.2187 15.2783 3.2771 -17.0765
# 3 29.4738 7.2187 142.5540 21.3861 15.3365 -12.4141
# 4 3.2245 15.2783 21.3861 28.7683 0.3292 2.8120
# 5 -4.4737 3.2771 15.3365 0.3292 32.5054 8.5229
# 6 -13.9337 -17.0765 -12.4141 2.8120 8.5229 35.9096
#
#
#
# Elastic Compliance Matrix: (Units=1/GPa)
#
#
# Indices 1 2 3 4 5 6 
#
# 1 0.015277 -0.002581 -0.003448 0.001932 0.003295 0.002575
# 2 -0.002581 0.014271 0.002640 -0.010046 -0.005225 0.008725
# 3 -0.003448 0.002640 0.010219 -0.009102 -0.006997 0.005824
# 4 0.001932 -0.010046 -0.009102 0.047812 0.008479 -0.012931
# 5 0.003295 -0.005225 -0.006997 0.008479 0.038479 -0.013422
# 6 0.002575 0.008725 0.005824 -0.012931 -0.013422 0.039208
#
#
# Mechanical properties :
#
#
# Convention : Reuss Voigt Hill
#
# Bulk Modulus (GPa) = 30.31202 47.10310 38.70756
# Shear Modulus (GPa) = 27.31634 36.79853 32.05744
#
# Velocity S-wave (km/s) = 3.40774 3.95521 3.69164
# Velocity P-wave (km/s) = 5.32632 6.39395 5.88440
#
# Compressibility (1/GPa) = 0.03299021
#
# Stress axis : x y z
#
# Youngs Moduli (GPa) = 65.45914 70.07005 97.85219
#
# Poissons Ratio (x) = 0.18083 0.33738
# Poissons Ratio (y) = 0.16893 -0.25832
# Poissons Ratio (z) = 0.22570 -0.18498
#
# Static dielectric constant tensor:
#      x y z
#    x 7.844540 1.505630 -0.809100 
#    y 1.505630 4.921360 -0.175870 
#    z -0.809100 -0.175870 4.878900 
# 
# 
# High freq. dielectric constant tensor:
#      x y z
#    x 1.937640 -0.009010 0.006870 
#    y -0.009010 1.947160 0.006300 
#    z 0.006870 0.006300 1.951910 
# 
# From -- ./inp_files/28668.got.cif
#   From: 2010.06.25/outbox.cif.g09.slc.cpg/sg2_15_cif.got.tgz:28668.got - 2010.06.27 13:26:56.
