data_PCOD8036022
_publ_section_title
;
Structure prediction by ZEFSAII (Michael W. Deem and Ramdas Pophale) SiO2 
 PCOD8036022
Probable space group: P -1
;
_chemical_formula_sum "Si O2"
_cell_formula_units_Z 16
_cell_length_a 8.991934
_cell_length_b 14.531128
_cell_length_c 14.898666
_cell_angle_alpha 148.494448
_cell_angle_beta 66.246229
_cell_angle_gamma 92.313535
_cell_volume 720.372578
_symmetry_space_group_name_H-M "P -1"
_symmetry_group_IT_number 2
_symmetry_cell_setting 'triclinic'
loop_
_space_group_symop_operation_xyz
x,y,z
-x,-y,-z
loop_
_atom_site_type_symbol
_atom_site_label
_atom_site_fract_x
_atom_site_fract_y
_atom_site_fract_z
Si Si1 0.459780 0.935028 0.818672
Si Si2 0.705872 0.476554 0.279666
Si Si3 0.915873 0.288591 0.537058
Si Si4 0.450939 0.464361 0.817543
Si Si5 0.461875 0.177809 0.726050
Si Si6 0.168577 0.965515 0.364741
Si Si7 0.158649 0.285264 0.041433
Si Si8 0.289361 0.931246 0.041398
O O1 0.617378 0.665723 0.535578
O O2 0.315977 0.982575 0.977152
O O3 0.315441 0.053434 0.864993
O O4 0.581671 0.033702 0.891211
O O5 0.623123 0.597564 0.302416
O O6 0.631560 0.325000 0.185447
O O7 0.956830 0.310135 0.084913
O O8 0.692137 0.350038 0.650886
O O9 0.893253 0.512867 0.714452
O O10 0.049031 0.176187 0.502027
O O11 0.042203 0.117612 0.280641
O O12 0.428050 0.380869 0.848298
O O13 0.295009 0.736810 0.084983
O O14 0.665476 0.037523 0.622046
O O15 0.500000 0.000000 0.500000
O O16 0.256924 0.286146 0.925211
O O17 0.000000 0.000000 0.500000
#
# Coordination Sequence:
#
# PCOD8036022 Si02
#       8
#     2   2   2   2   2   2   2   2
#     4  11  26  52  73 107 145 184 238 302 353 432
#     4  12  27  47  74 107 144 188 239 296 355 428
#     4  12  24  47  72 104 142 190 236 295 352 431
#     4  12  26  46  69 101 143 189 240 286 355 420
#     4  12  27  43  67 104 142 188 235 293 348 423
#     4  12  24  44  70  97 138 188 240 286 348 419
#     4  12  27  46  71 105 147 185 239 294 358 419
#     4  11  25  49  78 105 143 189 236 293 369 420
#
# _framework density 22.210729000000001
#
# number of rings (size 3 to 8) (size 9 to 14) (size 15 to 20)
#    0.000    0.250    5.000    3.750    7.000    1.500 
#    2.250    0.000    0.000    0.000    0.000    0.000 
#    0.000    0.000    0.000    0.000    0.000    0.000 
#
# Total GULP energy -198490.318431 kJ/mol
# GULP energy per Si atom -12405.644902 kJ/mol
# Density = 2.216018 g / cm^3
# Si number density = 22.210729 Si / 1000 Ang^3
#
#
#
# Elastic Constant Matrix: (Units=GPa)
#
#
# Indices 1 2 3 4 5 6 
#
# 1 131.3336 45.2620 49.4570 -1.9031 0.3114 -0.3217
# 2 45.2620 95.4634 34.6350 -10.0932 -11.4433 9.1027
# 3 49.4570 34.6350 122.6494 -8.1674 0.6774 8.2427
# 4 -1.9031 -10.0932 -8.1674 37.5624 2.3155 -0.2017
# 5 0.3114 -11.4433 0.6774 2.3155 40.8923 0.7166
# 6 -0.3217 9.1027 8.2427 -0.2017 0.7166 30.6034
#
#
#
# Elastic Compliance Matrix: (Units=1/GPa)
#
#
# Indices 1 2 3 4 5 6 
#
# 1 0.010242 -0.004185 -0.003172 -0.001211 -0.001167 0.002226
# 2 -0.004185 0.014312 -0.001920 0.002951 0.003969 -0.003857
# 3 -0.003172 -0.001920 0.010231 0.001581 -0.000734 -0.002190
# 4 -0.001211 0.002951 0.001581 0.027737 -0.000742 -0.001116
# 5 -0.001167 0.003969 -0.000734 -0.000742 0.025656 -0.001601
# 6 0.002226 -0.003857 -0.002190 -0.001116 -0.001601 0.034467
#
#
# Mechanical properties :
#
#
# Convention : Reuss Voigt Hill
#
# Bulk Modulus (GPa) = 61.61347 67.57270 64.59308
# Shear Modulus (GPa) = 34.10414 36.48445 35.29430
#
# Velocity S-wave (km/s) = 3.92277 4.05736 3.99063
# Velocity P-wave (km/s) = 6.95113 7.24148 7.09779
#
# Compressibility (1/GPa) = 0.01623022
#
# Stress axis : x y z
#
# Youngs Moduli (GPa) = 97.63994 69.87240 97.74157
#
# Poissons Ratio (x) = 0.29244 0.31001
# Poissons Ratio (y) = 0.40866 0.18766
# Poissons Ratio (z) = 0.30969 0.13415
#
# Static dielectric constant tensor:
#      x y z
#    x 4.042540 0.086290 -0.040160 
#    y 0.086290 4.766130 0.071780 
#    z -0.040160 0.071780 4.150180 
# 
# 
# High freq. dielectric constant tensor:
#      x y z
#    x 1.878770 0.001900 -0.001450 
#    y 0.001900 1.877480 -0.004560 
#    z -0.001450 -0.004560 1.888570 
# 
# From -- ./inp_files/340282.got.cif
#   From: 2010.06.25/outbox.cif.g09.slc.cpg/sg2_171_cif.got.tgz:340282.got - 2010.06.27 13:26:56.
