data_PCOD8036503
_publ_section_title
;
Structure prediction by ZEFSAII (Michael W. Deem and Ramdas Pophale) SiO2 
 PCOD8036503
Probable space group: P -1
;
_chemical_formula_sum "Si O2"
_cell_formula_units_Z 14
_cell_length_a 5.722791
_cell_length_b 13.726948
_cell_length_c 8.862348
_cell_angle_alpha 103.368411
_cell_angle_beta 99.525222
_cell_angle_gamma 51.793615
_cell_volume 532.007808
_symmetry_space_group_name_H-M "P -1"
_symmetry_group_IT_number 2
_symmetry_cell_setting 'triclinic'
loop_
_space_group_symop_operation_xyz
x,y,z
-x,-y,-z
loop_
_atom_site_type_symbol
_atom_site_label
_atom_site_fract_x
_atom_site_fract_y
_atom_site_fract_z
Si Si1 0.279869 0.429463 0.108265
Si Si2 0.922304 0.610346 0.641770
Si Si3 0.784191 0.179337 0.942849
Si Si4 0.598683 0.869151 0.544669
Si Si5 0.665228 0.990401 0.869148
Si Si6 0.901463 0.156554 0.610908
Si Si7 0.549236 0.442202 0.648363
O O1 0.302182 0.349582 0.228500
O O2 0.235129 0.551269 0.217895
O O3 0.563494 0.329140 0.999674
O O4 0.000000 0.500000 0.000000
O O5 0.826054 0.724524 0.563101
O O6 0.000000 0.500000 0.500000
O O7 0.236312 0.543735 0.736638
O O8 0.600521 0.123502 0.875486
O O9 0.964026 0.149825 0.794505
O O10 0.986079 0.116532 0.091900
O O11 0.458760 0.047082 0.288710
O O12 0.269935 0.905728 0.474833
O O13 0.776887 0.897878 0.454866
O O14 0.500000 0.000000 0.000000
O O15 0.652776 0.301630 0.589724
O O16 0.500000 0.500000 0.500000
#
# Coordination Sequence:
#
# PCOD8036503 Si02
#       7
#     2   2   2   2   2   2   2
#     4  12  27  45  76 113 156 199 253 319 397 458
#     4  12  22  41  71 105 150 202 255 308 380 466
#     4  11  29  50  75 113 154 203 260 326 384 464
#     4  12  27  47  80 110 150 208 256 320 388 463
#     4  11  28  52  81 106 152 207 266 321 388 458
#     4  12  28  47  77 115 155 198 261 321 389 461
#     4  12  23  42  69 107 153 203 251 308 380 469
#
# _framework density 26.315404000000001
#
# number of rings (size 3 to 8) (size 9 to 14) (size 15 to 20)
#    0.000    0.286    4.286    2.571   10.000    4.571 
#    0.000    0.000    0.000    0.000    0.000    0.000 
#    0.000    0.000    0.000    0.000    0.000    0.000 
#
# Total GULP energy -173442.346422 kJ/mol
# GULP energy per Si atom -12388.739030 kJ/mol
# Density = 2.625551 g / cm^3
# Si number density = 26.315404 Si / 1000 Ang^3
#
#
#
# Elastic Constant Matrix: (Units=GPa)
#
#
# Indices 1 2 3 4 5 6 
#
# 1 140.3693 52.7774 58.4925 14.1300 -4.0084 4.0193
# 2 52.7774 75.3920 42.3556 4.5743 10.8525 8.4367
# 3 58.4925 42.3556 167.6463 15.9500 0.2425 9.5352
# 4 14.1300 4.5743 15.9500 44.5716 -1.5192 -3.9447
# 5 -4.0084 10.8525 0.2425 -1.5192 61.8298 3.2228
# 6 4.0193 8.4367 9.5352 -3.9447 3.2228 51.4562
#
#
#
# Elastic Compliance Matrix: (Units=1/GPa)
#
#
# Indices 1 2 3 4 5 6 
#
# 1 0.010604 -0.006540 -0.001886 -0.001925 0.001778 0.000335
# 2 -0.006540 0.020117 -0.002747 0.000686 -0.003824 -0.001986
# 3 -0.001886 -0.002747 0.007552 -0.001897 0.000334 -0.000968
# 4 -0.001925 0.000686 -0.001897 0.023858 0.000234 0.002204
# 5 0.001778 -0.003824 0.000334 0.000234 0.016997 -0.000621
# 6 0.000335 -0.001986 -0.000968 0.002204 -0.000621 0.020121
#
#
# Mechanical properties :
#
#
# Convention : Reuss Voigt Hill
#
# Bulk Modulus (GPa) = 62.78961 76.73983 69.76472
# Shear Modulus (GPa) = 39.39992 46.89034 43.14513
#
# Velocity S-wave (km/s) = 3.87359 4.22579 4.05351
# Velocity P-wave (km/s) = 6.62710 7.28248 6.96251
#
# Compressibility (1/GPa) = 0.01592620
#
# Stress axis : x y z
#
# Youngs Moduli (GPa) = 94.30417 49.70904 132.41394
#
# Poissons Ratio (x) = 0.32511 0.24970
# Poissons Ratio (y) = 0.61678 0.36379
# Poissons Ratio (z) = 0.17784 0.13657
#
# Static dielectric constant tensor:
#      x y z
#    x 4.182720 0.535530 0.529910 
#    y 0.535530 5.422820 -0.362920 
#    z 0.529910 -0.362920 4.865550 
# 
# 
# High freq. dielectric constant tensor:
#      x y z
#    x 2.067950 0.000160 0.004740 
#    y 0.000160 2.072280 -0.004560 
#    z 0.004740 -0.004560 2.066930 
# 
# From -- ./inp_files/123628.got.cif
#   From: 2010.06.25/outbox.cif.g09.slc.cpg/sg2_62_cif.got.tgz:123628.got - 2010.06.27 13:26:56.
