data_PCOD8036709
_publ_section_title
;
Structure prediction by ZEFSAII (Michael W. Deem and Ramdas Pophale) SiO2 
 PCOD8036709
Probable space group: P -1
;
_chemical_formula_sum "Si O2"
_cell_formula_units_Z 16
_cell_length_a 14.714518
_cell_length_b 16.103211
_cell_length_c 16.161974
_cell_angle_alpha 17.861329
_cell_angle_beta 143.299941
_cell_angle_gamma 140.970916
_cell_volume 700.004363
_symmetry_space_group_name_H-M "P -1"
_symmetry_group_IT_number 2
_symmetry_cell_setting 'triclinic'
loop_
_space_group_symop_operation_xyz
x,y,z
-x,-y,-z
loop_
_atom_site_type_symbol
_atom_site_label
_atom_site_fract_x
_atom_site_fract_y
_atom_site_fract_z
Si Si1 0.664030 0.099978 0.986895
Si Si2 0.865232 0.874770 0.747838
Si Si3 0.966151 0.211149 0.206887
Si Si4 0.309211 0.444781 0.562612
Si Si5 0.902401 0.723767 0.181313
Si Si6 0.975041 0.456790 0.331650
Si Si7 0.591589 0.597513 0.150286
Si Si8 0.530016 0.954604 0.468460
O O1 0.792151 0.198204 0.055212
O O2 0.730575 0.843141 0.236222
O O3 0.635392 0.332165 0.677400
O O4 0.500000 0.000000 0.000000
O O5 0.687488 0.828903 0.680966
O O6 0.906780 0.884240 0.673566
O O7 0.928363 0.137617 0.597248
O O8 0.946777 0.600484 0.088349
O O9 0.000000 0.000000 0.500000
O O10 0.000000 0.500000 0.000000
O O11 0.431608 0.409721 0.759539
O O12 0.153807 0.516241 0.426939
O O13 0.870382 0.624336 0.158233
O O14 0.749827 0.756208 0.089615
O O15 0.000000 0.500000 0.500000
O O16 0.000000 0.000000 0.000000
O O17 0.594337 0.286280 0.418764
O O18 0.471167 0.772400 0.847494
O O19 0.500000 0.000000 0.500000
#
# Coordination Sequence:
#
# PCOD8036709 Si02
#       8
#     2   2   2   2   2   2   2   2
#     4  12  27  49  74 108 149 190 237 311 394 446
#     4  12  25  45  73  98 135 195 238 288 359 434
#     4  12  26  46  74 105 141 186 249 304 364 454
#     4  12  24  45  75 104 140 185 234 302 368 434
#     4  12  24  38  65 103 140 183 225 284 350 411
#     4  12  22  43  71 100 138 178 241 283 351 422
#     4  12  26  44  69 107 146 183 246 299 352 434
#     4  12  26  47  69 101 151 197 240 294 361 433
#
# _framework density 22.856998999999998
#
# number of rings (size 3 to 8) (size 9 to 14) (size 15 to 20)
#    0.000    0.000    3.750    6.750    1.750    3.000 
#    0.000    0.000    0.000    0.000    0.000    0.000 
#    0.000    0.000    0.000    0.000    0.000    0.000 
#
# Total GULP energy -198297.890873 kJ/mol
# GULP energy per Si atom -12393.618180 kJ/mol
# Density = 2.280498 g / cm^3
# Si number density = 22.856999 Si / 1000 Ang^3
#
#
#
# Elastic Constant Matrix: (Units=GPa)
#
#
# Indices 1 2 3 4 5 6 
#
# 1 115.1008 54.6176 24.8592 4.1106 -4.1211 -4.3586
# 2 54.6176 128.1541 50.7452 -10.7380 -9.6522 -12.1069
# 3 24.8592 50.7452 148.3122 -0.3575 -19.6579 -11.3865
# 4 4.1106 -10.7380 -0.3575 49.1053 -7.4312 -2.7234
# 5 -4.1211 -9.6522 -19.6579 -7.4312 40.2466 2.1441
# 6 -4.3586 -12.1069 -11.3865 -2.7234 2.1441 35.6947
#
#
#
# Elastic Compliance Matrix: (Units=1/GPa)
#
#
# Indices 1 2 3 4 5 6 
#
# 1 0.011106 -0.004878 -0.000310 -0.002110 -0.000546 -0.000526
# 2 -0.004878 0.011602 -0.002757 0.003283 0.001403 0.002627
# 3 -0.000310 -0.002757 0.008287 0.000063 0.003288 0.001478
# 4 -0.002110 0.003283 0.000063 0.022076 0.004556 0.002287
# 5 -0.000546 0.001403 0.003288 0.004556 0.027567 0.000150
# 6 -0.000526 0.002627 0.001478 0.002287 0.000150 0.029479
#
#
# Mechanical properties :
#
#
# Convention : Reuss Voigt Hill
#
# Bulk Modulus (GPa) = 66.20046 72.44567 69.32306
# Shear Modulus (GPa) = 38.15592 42.43233 40.29413
#
# Velocity S-wave (km/s) = 4.09018 4.31330 4.20322
# Velocity P-wave (km/s) = 7.16462 7.52131 7.34513
#
# Compressibility (1/GPa) = 0.01510564
#
# Stress axis : x y z
#
# Youngs Moduli (GPa) = 90.04491 86.18886 120.66895
#
# Poissons Ratio (x) = 0.42041 0.03744
# Poissons Ratio (y) = 0.43922 0.33265
# Poissons Ratio (z) = 0.02794 0.23760
#
# Static dielectric constant tensor:
#      x y z
#    x 4.214540 -0.090270 -0.104240 
#    y -0.090270 4.157210 0.061100 
#    z -0.104240 0.061100 4.493260 
# 
# 
# High freq. dielectric constant tensor:
#      x y z
#    x 1.906110 -0.007120 -0.009070 
#    y -0.007120 1.903140 -0.003400 
#    z -0.009070 -0.003400 1.927020 
# 
# From -- ./inp_files/534034.got.cif
#   From: 2010.06.25/outbox.cif.g09.slc.cpg/sg2_268_cif.got.tgz:534034.got - 2010.06.27 13:26:56.
