data_PCOD8036790
_publ_section_title
;
Structure prediction by ZEFSAII (Michael W. Deem and Ramdas Pophale) SiO2 
 PCOD8036790
Probable space group: P -1
;
_chemical_formula_sum "Si O2"
_cell_formula_units_Z 16
_cell_length_a 27.533881
_cell_length_b 8.250067
_cell_length_c 27.031965
_cell_angle_alpha 140.124560
_cell_angle_beta 169.197025
_cell_angle_gamma 41.109891
_cell_volume 737.877959
_symmetry_space_group_name_H-M "P -1"
_symmetry_group_IT_number 2
_symmetry_cell_setting 'triclinic'
loop_
_space_group_symop_operation_xyz
x,y,z
-x,-y,-z
loop_
_atom_site_type_symbol
_atom_site_label
_atom_site_fract_x
_atom_site_fract_y
_atom_site_fract_z
Si Si1 0.753912 0.946899 0.957672
Si Si2 0.242333 0.692903 0.863205
Si Si3 0.753558 0.300809 0.949044
Si Si4 0.745635 0.416039 0.512181
Si Si5 0.746911 0.388883 0.619218
Si Si6 0.749924 0.869057 0.242433
Si Si7 0.741993 0.852148 0.347547
Si Si8 0.750238 0.937402 0.767476
O O1 0.003229 0.776406 0.158536
O O2 0.753468 0.067026 0.039910
O O3 0.504806 0.774478 0.659386
O O4 0.754223 0.171432 0.972138
O O5 0.250323 0.430498 0.840427
O O6 0.987680 0.691974 0.574096
O O7 0.484889 0.700490 0.070434
O O8 0.505747 0.479222 0.741835
O O9 0.751436 0.095720 0.855798
O O10 0.002945 0.478451 0.238669
O O11 0.745988 0.500312 0.589087
O O12 0.745291 0.115943 0.441061
O O13 0.749482 0.642577 0.714441
O O14 0.750654 0.902927 0.309992
O O15 0.000000 0.000000 0.500000
O O16 0.500000 0.000000 0.000000
O O17 0.500000 0.000000 0.500000
O O18 0.000000 0.000000 0.000000
#
# Coordination Sequence:
#
# PCOD8036790 Si02
#       8
#     2   2   2   2   2   2   2   2
#     4  12  26  42  66 100 134 169 218 280 331 376
#     4  12  24  46  69  96 135 178 217 265 324 399
#     4  12  26  42  65 100 133 172 218 280 335 378
#     4  12  23  42  70  97 128 173 230 266 318 395
#     4  12  23  44  67  96 131 173 226 270 322 397
#     4  12  28  46  69 105 137 170 215 273 327 381
#     4  12  25  44  73  97 131 181 220 261 324 395
#     4  12  23  40  67  93 129 174 222 273 325 391
#
# _framework density 21.683803000000001
#
# number of rings (size 3 to 8) (size 9 to 14) (size 15 to 20)
#    0.000    0.000    5.000    5.250    3.500    1.000 
#    0.000    0.000    0.000    0.000    0.000    0.000 
#    0.000    0.000    0.000    0.000    0.000    0.000 
#
# Total GULP energy -198515.161538 kJ/mol
# GULP energy per Si atom -12407.197596 kJ/mol
# Density = 2.163445 g / cm^3
# Si number density = 21.683803 Si / 1000 Ang^3
#
#
#
# Elastic Constant Matrix: (Units=GPa)
#
#
# Indices 1 2 3 4 5 6 
#
# 1 81.4156 7.6681 34.8266 -5.8173 11.0344 18.2330
# 2 7.6681 128.3778 58.4799 -5.4316 3.4796 13.2786
# 3 34.8266 58.4799 185.8693 -33.0845 28.7365 21.1610
# 4 -5.8173 -5.4316 -33.0845 34.3249 20.1179 -9.1339
# 5 11.0344 3.4796 28.7365 20.1179 44.2623 5.4898
# 6 18.2330 13.2786 21.1610 -9.1339 5.4898 44.8935
#
#
#
# Elastic Compliance Matrix: (Units=1/GPa)
#
#
# Indices 1 2 3 4 5 6 
#
# 1 0.014440 0.000573 -0.001878 0.000745 -0.002177 -0.004731
# 2 0.000573 0.010029 -0.005459 -0.008433 0.006840 -0.003178
# 3 -0.001878 -0.005459 0.015294 0.027263 -0.021843 0.003386
# 4 0.000745 -0.008433 0.027263 0.095198 -0.062520 0.016355
# 5 -0.002177 0.006840 -0.021843 -0.062520 0.066648 -0.011713
# 6 -0.004731 -0.003178 0.003386 0.016355 -0.011713 0.028300
#
#
# Mechanical properties :
#
#
# Convention : Reuss Voigt Hill
#
# Bulk Modulus (GPa) = 38.11921 66.40132 52.26027
# Shear Modulus (GPa) = 19.82694 44.34201 32.08447
#
# Velocity S-wave (km/s) = 3.02713 4.52700 3.85080
# Velocity P-wave (km/s) = 5.46221 7.61669 6.62759
#
# Compressibility (1/GPa) = 0.02623349
#
# Stress axis : x y z
#
# Youngs Moduli (GPa) = 69.25264 99.71361 65.38536
#
# Poissons Ratio (x) = -0.05712 0.12279
# Poissons Ratio (y) = -0.03967 0.35697
# Poissons Ratio (z) = 0.13005 0.54438
#
# Static dielectric constant tensor:
#      x y z
#    x 3.834150 -0.030750 0.042900 
#    y -0.030750 4.178400 -0.001580 
#    z 0.042900 -0.001580 4.126700 
# 
# 
# High freq. dielectric constant tensor:
#      x y z
#    x 1.846140 0.000170 0.004360 
#    y 0.000170 1.874820 -0.000620 
#    z 0.004360 -0.000620 1.874010 
# 
# From -- ./inp_files/47711.got.cif
#   From: 2010.06.25/outbox.cif.g09.slc.cpg/sg2_24_cif.got.tgz:47711.got - 2010.06.27 13:26:56.
