data_PCOD8036393
_publ_section_title
;
Structure prediction by ZEFSAII (Michael W. Deem and Ramdas Pophale) SiO2 
 PCOD8036393
Probable space group: P -1
;
_chemical_formula_sum "Si O2"
_cell_formula_units_Z 12
_cell_length_a 8.853070
_cell_length_b 15.114189
_cell_length_c 15.724108
_cell_angle_alpha 18.098260
_cell_angle_beta 51.045660
_cell_angle_gamma 48.385990
_cell_volume 488.625978
_symmetry_space_group_name_H-M "P -1"
_symmetry_group_IT_number 2
_symmetry_cell_setting 'triclinic'
loop_
_space_group_symop_operation_xyz
x,y,z
-x,-y,-z
loop_
_atom_site_type_symbol
_atom_site_label
_atom_site_fract_x
_atom_site_fract_y
_atom_site_fract_z
Si Si1 0.925656 0.608359 0.609361
Si Si2 0.748466 0.875687 0.690421
Si Si3 0.497671 0.306297 0.759341
Si Si4 0.515541 0.423452 0.164403
Si Si5 0.871748 0.290653 0.392178
Si Si6 0.926642 0.039761 0.895837
O O1 0.704981 0.567034 0.734959
O O2 0.002800 0.788171 0.492447
O O3 0.922565 0.808941 0.344978
O O4 0.077406 0.277486 0.852607
O O5 0.966151 0.659197 0.780595
O O6 0.662687 0.106405 0.431754
O O7 0.780720 0.031460 0.625127
O O8 0.598610 0.677517 0.946943
O O9 0.500000 0.500000 0.500000
O O10 0.317420 0.426750 0.780813
O O11 0.706605 0.269465 0.768214
O O12 0.500000 0.000000 0.000000
O O13 0.500000 0.500000 0.000000
O O14 0.000000 0.000000 0.000000
#
# Coordination Sequence:
#
# PCOD8036393 Si02
#       6
#     2   2   2   2   2   2
#     4  12  26  48  80 107 153 206 250 319 388 461
#     4  11  28  47  75 114 155 202 257 319 369 468
#     4  12  25  47  76 110 147 201 257 317 387 459
#     4  12  26  48  74 110 154 202 252 308 386 458
#     4  11  26  49  77 111 154 203 262 310 389 452
#     4  12  27  49  75 114 150 198 260 322 389 457
#
# _framework density 24.558662000000002
#
# number of rings (size 3 to 8) (size 9 to 14) (size 15 to 20)
#    0.000    0.333    5.000    2.000    4.667    6.667 
#    3.000    0.000    0.000    0.000    0.000    0.000 
#    0.000    0.000    0.000    0.000    0.000    0.000 
#
# Total GULP energy -148747.890170 kJ/mol
# GULP energy per Si atom -12395.657514 kJ/mol
# Density = 2.450277 g / cm^3
# Si number density = 24.558662 Si / 1000 Ang^3
#
#
#
# Elastic Constant Matrix: (Units=GPa)
#
#
# Indices 1 2 3 4 5 6 
#
# 1 169.4226 84.7361 58.4840 12.3207 -14.7613 -4.0265
# 2 84.7361 173.9911 61.1174 -6.9347 -2.1872 0.3529
# 3 58.4840 61.1174 157.9615 10.6174 -6.5275 3.1739
# 4 12.3207 -6.9347 10.6174 36.1036 1.6412 1.9492
# 5 -14.7613 -2.1872 -6.5275 1.6412 36.8350 -8.9792
# 6 -4.0265 0.3529 3.1739 1.9492 -8.9792 24.2785
#
#
#
# Elastic Compliance Matrix: (Units=1/GPa)
#
#
# Indices 1 2 3 4 5 6 
#
# 1 0.009178 -0.004064 -0.001464 -0.003872 0.004240 0.003652
# 2 -0.004064 0.008608 -0.002138 0.003848 -0.002055 -0.001589
# 3 -0.001464 -0.002138 0.007889 -0.002211 0.000575 -0.000853
# 4 -0.003872 0.003848 -0.002211 0.030837 -0.004168 -0.004426
# 5 0.004240 -0.002055 0.000575 -0.004168 0.032154 0.012884
# 6 0.003652 -0.001589 -0.000853 -0.004426 0.012884 0.047049
#
#
# Mechanical properties :
#
#
# Convention : Reuss Voigt Hill
#
# Bulk Modulus (GPa) = 96.66572 101.11669 98.89121
# Shear Modulus (GPa) = 32.36353 39.24596 35.80474
#
# Velocity S-wave (km/s) = 3.63410 4.00190 3.82242
# Velocity P-wave (km/s) = 7.55351 7.91306 7.73537
#
# Compressibility (1/GPa) = 0.01034493
#
# Stress axis : x y z
#
# Youngs Moduli (GPa) = 108.95490 116.16573 126.75689
#
# Poissons Ratio (x) = 0.47212 0.18551
# Poissons Ratio (y) = 0.44282 0.27096
# Poissons Ratio (z) = 0.15946 0.24832
#
# Static dielectric constant tensor:
#      x y z
#    x 5.024570 -0.599910 0.172070 
#    y -0.599910 5.423440 -0.725430 
#    z 0.172070 -0.725430 4.889330 
# 
# 
# High freq. dielectric constant tensor:
#      x y z
#    x 2.001790 -0.006760 -0.006380 
#    y -0.006760 1.977980 -0.000910 
#    z -0.006380 -0.000910 1.974270 
# 
# From -- ./inp_files/502449.got.cif
#   From: 2010.06.25/outbox.cif.g09.slc.cpg/sg2_252_cif.got.tgz:502449.got - 2010.06.27 13:26:56.
