data_PCOD8036429
_publ_section_title
;
Structure prediction by ZEFSAII (Michael W. Deem and Ramdas Pophale) SiO2 
 PCOD8036429
Probable space group: P -1
;
_chemical_formula_sum "Si O2"
_cell_formula_units_Z 14
_cell_length_a 16.266269
_cell_length_b 8.978758
_cell_length_c 15.380270
_cell_angle_alpha 110.976504
_cell_angle_beta 152.540725
_cell_angle_gamma 50.430264
_cell_volume 648.664148
_symmetry_space_group_name_H-M "P -1"
_symmetry_group_IT_number 2
_symmetry_cell_setting 'triclinic'
loop_
_space_group_symop_operation_xyz
x,y,z
-x,-y,-z
loop_
_atom_site_type_symbol
_atom_site_label
_atom_site_fract_x
_atom_site_fract_y
_atom_site_fract_z
Si Si1 0.592116 0.122183 0.633428
Si Si2 0.005048 0.967421 0.127509
Si Si3 0.807543 0.263770 0.401942
Si Si4 0.130082 0.668945 0.346458
Si Si5 0.925936 0.729353 0.479306
Si Si6 0.366224 0.155876 0.994562
Si Si7 0.241107 0.584849 0.909733
O O1 0.313287 0.392712 0.448487
O O2 0.500000 0.000000 0.500000
O O3 0.810010 0.988454 0.888161
O O4 0.730974 0.131730 0.688860
O O5 0.840425 0.228854 0.058288
O O6 0.104458 0.786257 0.259342
O O7 0.739886 0.310037 0.450660
O O8 0.962434 0.314577 0.522788
O O9 0.542002 0.417468 0.129579
O O10 0.000000 0.000000 0.500000
O O11 0.841127 0.818211 0.144848
O O12 0.000000 0.500000 0.500000
O O13 0.071657 0.721779 0.692839
O O14 0.622793 0.986838 0.263465
O O15 0.225958 0.419564 0.904026
O O16 0.500000 0.000000 0.000000
#
# Coordination Sequence:
#
# PCOD8036429 Si02
#       7
#     2   2   2   2   2   2   2
#     4  11  26  53  76 105 141 180 240 308 368 431
#     4  11  27  46  77 109 137 184 243 299 367 430
#     4  12  23  42  65  99 145 188 230 283 342 418
#     4  12  25  46  72 103 146 183 235 294 356 422
#     4  12  25  39  64  96 141 192 242 280 338 418
#     4  12  24  43  63 102 146 189 238 286 338 422
#     4  12  24  43  67  99 141 193 234 294 355 415
#
# _framework density 21.582816999999999
#
# number of rings (size 3 to 8) (size 9 to 14) (size 15 to 20)
#    0.000    0.286    5.714    2.571    2.000    2.857 
#    0.000    0.000    0.000    0.000    0.000    0.000 
#    0.000    0.000    0.000    0.000    0.000    0.000 
#
# Total GULP energy -173438.886051 kJ/mol
# GULP energy per Si atom -12388.491861 kJ/mol
# Density = 2.153369 g / cm^3
# Si number density = 21.582817 Si / 1000 Ang^3
#
#
#
# Elastic Constant Matrix: (Units=GPa)
#
#
# Indices 1 2 3 4 5 6 
#
# 1 140.9191 46.0514 59.2241 3.1545 -2.7369 7.1020
# 2 46.0514 134.9791 41.7765 3.2296 -9.2268 -2.3922
# 3 59.2241 41.7765 149.1774 -3.0766 -0.2880 -8.4541
# 4 3.1545 3.2296 -3.0766 37.6756 2.0867 1.0333
# 5 -2.7369 -9.2268 -0.2880 2.0867 41.2399 -0.8442
# 6 7.1020 -2.3922 -8.4541 1.0333 -0.8442 35.3784
#
#
#
# Elastic Compliance Matrix: (Units=1/GPa)
#
#
# Indices 1 2 3 4 5 6 
#
# 1 0.009349 -0.002202 -0.003269 -0.000789 0.000088 -0.002782
# 2 -0.002202 0.008804 -0.001563 -0.000822 0.001869 0.000733
# 3 -0.003269 -0.001563 0.008605 0.001068 -0.000508 0.002563
# 4 -0.000789 -0.000822 0.001068 0.026867 -0.001598 -0.000465
# 5 0.000088 0.001869 -0.000508 -0.001598 0.024763 0.000625
# 6 -0.002782 0.000733 0.002563 -0.000465 0.000625 0.029515
#
#
# Mechanical properties :
#
#
# Convention : Reuss Voigt Hill
#
# Bulk Modulus (GPa) = 78.80029 79.90887 79.35458
# Shear Modulus (GPa) = 39.61910 41.39368 40.50639
#
# Velocity S-wave (km/s) = 4.28913 4.38413 4.33689
# Velocity P-wave (km/s) = 7.81785 7.92037 7.86927
#
# Compressibility (1/GPa) = 0.01269031
#
# Stress axis : x y z
#
# Youngs Moduli (GPa) = 106.95961 113.58274 116.20958
#
# Poissons Ratio (x) = 0.25016 0.37985
# Poissons Ratio (y) = 0.23558 0.18163
# Poissons Ratio (z) = 0.34962 0.17753
#
# Static dielectric constant tensor:
#      x y z
#    x 4.297290 -0.148700 -0.587050 
#    y -0.148700 3.930720 0.157500 
#    z -0.587050 0.157500 4.735450 
# 
# 
# High freq. dielectric constant tensor:
#      x y z
#    x 1.847810 0.005290 -0.002480 
#    y 0.005290 1.852920 -0.003190 
#    z -0.002480 -0.003190 1.872570 
# 
# From -- ./inp_files/505147.got.cif
#   From: 2010.06.25/outbox.cif.g09.slc.cpg/sg2_253_cif.got.tgz:505147.got - 2010.06.27 13:26:56.
