data_PCOD8036728
_publ_section_title
;
Structure prediction by ZEFSAII (Michael W. Deem and Ramdas Pophale) SiO2 
 PCOD8036728
Probable space group: P -1
;
_chemical_formula_sum "Si O2"
_cell_formula_units_Z 16
_cell_length_a 22.276754
_cell_length_b 11.716822
_cell_length_c 19.040496
_cell_angle_alpha 142.413948
_cell_angle_beta 16.871745
_cell_angle_gamma 149.697385
_cell_volume 708.164439
_symmetry_space_group_name_H-M "P -1"
_symmetry_group_IT_number 2
_symmetry_cell_setting 'triclinic'
loop_
_space_group_symop_operation_xyz
x,y,z
-x,-y,-z
loop_
_atom_site_type_symbol
_atom_site_label
_atom_site_fract_x
_atom_site_fract_y
_atom_site_fract_z
Si Si1 0.175069 0.214600 0.551550
Si Si2 0.450460 0.634097 0.175823
Si Si3 0.903726 0.833243 0.870371
Si Si4 0.731678 0.482633 0.014609
Si Si5 0.198035 0.329279 0.742193
Si Si6 0.168976 0.635007 0.015753
Si Si7 0.870449 0.248030 0.648801
Si Si8 0.657940 0.112714 0.678294
O O1 0.455243 0.421108 0.311990
O O2 0.128404 0.227272 0.692257
O O3 0.118953 0.971560 0.472652
O O4 0.978873 0.250103 0.750307
O O5 0.506824 0.852730 0.174892
O O6 0.157363 0.476158 0.451813
O O7 0.500000 0.500000 0.000000
O O8 0.628274 0.721313 0.087762
O O9 0.071699 0.800228 0.613974
O O10 0.875056 0.709802 0.915921
O O11 0.058039 0.108876 0.844581
O O12 0.884297 0.531482 0.940085
O O13 0.704165 0.259598 0.901549
O O14 0.500000 0.500000 0.500000
O O15 0.088899 0.477261 0.958052
O O16 0.478352 0.839918 0.767215
O O17 0.742841 0.263212 0.728008
#
# Coordination Sequence:
#
# PCOD8036728 Si02
#       8
#     2   2   2   2   2   2   2   2
#     4  12  26  47  71 106 135 184 239 277 343 414
#     4  12  23  39  67 103 137 181 232 282 330 404
#     4  12  25  44  70 105 137 178 230 282 346 408
#     4  12  27  45  67 104 153 178 219 282 357 416
#     4  12  22  51  77  97 131 182 239 292 334 398
#     4  12  27  46  74 100 135 186 236 288 339 403
#     4  12  23  44  67 104 147 184 220 282 347 414
#     4  12  22  44  68 100 138 180 237 278 331 406
#
# _framework density 22.593623000000001
#
# number of rings (size 3 to 8) (size 9 to 14) (size 15 to 20)
#    0.000    0.000    7.500    3.375    1.750    1.000 
#    0.000    0.625    0.000    0.000    0.000    0.000 
#    0.000    0.000    0.000    0.000    0.000    0.000 
#
# Total GULP energy -198352.254759 kJ/mol
# GULP energy per Si atom -12397.015922 kJ/mol
# Density = 2.254220 g / cm^3
# Si number density = 22.593623 Si / 1000 Ang^3
#
#
#
# Elastic Constant Matrix: (Units=GPa)
#
#
# Indices 1 2 3 4 5 6 
#
# 1 118.6562 38.4706 50.7197 -9.3319 -5.3978 -14.4875
# 2 38.4706 112.5986 42.0988 0.1132 1.5946 -4.2924
# 3 50.7197 42.0988 89.0777 9.6880 2.1322 -5.2853
# 4 -9.3319 0.1132 9.6880 35.5084 2.3891 5.2280
# 5 -5.3978 1.5946 2.1322 2.3891 37.9223 2.6765
# 6 -14.4875 -4.2924 -5.2853 5.2280 2.6765 30.4913
#
#
#
# Elastic Compliance Matrix: (Units=1/GPa)
#
#
# Indices 1 2 3 4 5 6 
#
# 1 0.012771 -0.001717 -0.006775 0.004546 0.001722 0.003721
# 2 -0.001717 0.011093 -0.004339 0.000744 -0.000508 -0.000090
# 3 -0.006775 -0.004339 0.017922 -0.006641 -0.001409 0.000539
# 4 0.004546 0.000744 -0.006641 0.031846 -0.000715 -0.004284
# 5 0.001722 -0.000508 -0.001409 -0.000715 0.026883 -0.001735
# 6 0.003721 -0.000090 0.000539 -0.004284 -0.001735 0.035532
#
#
# Mechanical properties :
#
#
# Convention : Reuss Voigt Hill
#
# Bulk Modulus (GPa) = 62.01977 64.76786 63.39381
# Shear Modulus (GPa) = 29.92528 33.38728 31.65628
#
# Velocity S-wave (km/s) = 3.64332 3.84830 3.74721
# Velocity P-wave (km/s) = 6.72369 6.96236 6.84407
#
# Compressibility (1/GPa) = 0.01612389
#
# Stress axis : x y z
#
# Youngs Moduli (GPa) = 78.30517 90.14550 55.79676
#
# Poissons Ratio (x) = 0.15481 0.37800
# Poissons Ratio (y) = 0.13448 0.24210
# Poissons Ratio (z) = 0.53049 0.39114
#
# Static dielectric constant tensor:
#      x y z
#    x 4.139920 -0.256060 -0.009920 
#    y -0.256060 4.298640 0.112360 
#    z -0.009920 0.112360 4.369060 
# 
# 
# High freq. dielectric constant tensor:
#      x y z
#    x 1.884130 -0.010550 -0.000910 
#    y -0.010550 1.889050 0.005250 
#    z -0.000910 0.005250 1.899190 
# 
# From -- ./inp_files/462104.got.cif
#   From: 2010.06.25/outbox.cif.g09.slc.cpg/sg2_232_cif.got.tgz:462104.got - 2010.06.27 13:26:56.
