data_PCOD8036362
_publ_section_title
;
Structure prediction by ZEFSAII (Michael W. Deem and Ramdas Pophale) SiO2 
 PCOD8036362
Probable space group: P -1
;
_chemical_formula_sum "Si O2"
_cell_formula_units_Z 10
_cell_length_a 15.856555
_cell_length_b 9.255399
_cell_length_c 5.282031
_cell_angle_alpha 117.617920
_cell_angle_beta 83.132737
_cell_angle_gamma 141.560695
_cell_volume 383.012713
_symmetry_space_group_name_H-M "P -1"
_symmetry_group_IT_number 2
_symmetry_cell_setting 'triclinic'
loop_
_space_group_symop_operation_xyz
x,y,z
-x,-y,-z
loop_
_atom_site_type_symbol
_atom_site_label
_atom_site_fract_x
_atom_site_fract_y
_atom_site_fract_z
Si Si1 0.110336 0.747091 0.368765
Si Si2 0.406257 0.382575 0.683425
Si Si3 0.960845 0.837181 0.631876
Si Si4 0.724422 0.278478 0.523292
Si Si5 0.409164 0.747216 0.026658
O O1 0.148593 0.662378 0.483930
O O2 0.055515 0.821168 0.592469
O O3 0.268011 0.040079 0.418286
O O4 0.000000 0.500000 0.000000
O O5 0.500000 0.500000 0.500000
O O6 0.500000 0.500000 0.000000
O O7 0.342445 0.466002 0.747013
O O8 0.780599 0.493898 0.449032
O O9 0.000000 0.000000 0.500000
O O10 0.000000 0.000000 0.000000
O O11 0.726257 0.378423 0.872776
O O12 0.556245 0.937422 0.302878
O O13 0.500000 0.000000 0.000000
#
# Coordination Sequence:
#
# PCOD8036362 Si02
#       5
#     2   2   2   2   2
#     4  12  28  51  84 120 168 215 271 342 415 495
#     4  12  28  50  79 117 162 213 277 331 404 489
#     4  12  29  51  78 115 164 213 272 332 413 488
#     4  11  26  49  77 116 156 212 271 334 408 478
#     4  11  26  48  82 112 162 210 275 338 399 484
#
# _framework density 26.108794
#
# number of rings (size 3 to 8) (size 9 to 14) (size 15 to 20)
#    0.000    0.400    2.000    4.200   14.000    3.200 
#    0.000    0.000    0.000    0.000    0.000    0.000 
#    0.000    0.000    0.000    0.000    0.000    0.000 
#
# Total GULP energy -123923.269417 kJ/mol
# GULP energy per Si atom -12392.326942 kJ/mol
# Density = 2.604937 g / cm^3
# Si number density = 26.108794 Si / 1000 Ang^3
#
#
#
# Elastic Constant Matrix: (Units=GPa)
#
#
# Indices 1 2 3 4 5 6 
#
# 1 150.6919 33.8059 32.3796 -12.1135 -34.7238 -13.5658
# 2 33.8059 203.2555 54.8728 -0.4896 -0.8199 -18.9420
# 3 32.3796 54.8728 125.3162 0.3892 -20.8339 -5.7050
# 4 -12.1135 -0.4896 0.3892 62.4336 10.9250 2.3912
# 5 -34.7238 -0.8199 -20.8339 10.9250 42.1074 1.6463
# 6 -13.5658 -18.9420 -5.7050 2.3912 1.6463 45.2633
#
#
#
# Elastic Compliance Matrix: (Units=1/GPa)
#
#
# Indices 1 2 3 4 5 6 
#
# 1 0.008758 -0.001102 -0.000581 0.000447 0.006726 0.001822
# 2 -0.001102 0.005978 -0.002612 0.000161 -0.002201 0.001914
# 3 -0.000581 -0.002612 0.010055 -0.001016 0.004714 -0.000118
# 4 0.000447 0.000161 -0.001016 0.016923 -0.004496 -0.000657
# 5 0.006726 -0.002201 0.004714 -0.004496 0.032723 0.000736
# 6 0.001822 0.001914 -0.000118 -0.000657 0.000736 0.023433
#
#
# Mechanical properties :
#
#
# Convention : Reuss Voigt Hill
#
# Bulk Modulus (GPa) = 61.72221 80.15335 70.93778
# Shear Modulus (GPa) = 44.69843 53.84121 49.26982
#
# Velocity S-wave (km/s) = 4.14213 4.54606 4.34879
# Velocity P-wave (km/s) = 6.82408 7.63688 7.24189
#
# Compressibility (1/GPa) = 0.01620162
#
# Stress axis : x y z
#
# Youngs Moduli (GPa) = 114.18243 167.27096 99.45097
#
# Poissons Ratio (x) = 0.18431 0.05774
# Poissons Ratio (y) = 0.12581 0.25981
# Poissons Ratio (z) = 0.06630 0.43698
#
# Static dielectric constant tensor:
#      x y z
#    x 5.435570 0.213480 0.292210 
#    y 0.213480 5.383380 0.772880 
#    z 0.292210 0.772880 5.152810 
# 
# 
# High freq. dielectric constant tensor:
#      x y z
#    x 2.059460 -0.002950 -0.005830 
#    y -0.002950 2.079180 0.014740 
#    z -0.005830 0.014740 2.044920 
# 
# From -- ./inp_files/22902.got.cif
#   From: 2010.06.25/outbox.cif.g09.slc.cpg/sg2_12_cif.got.tgz:22902.got - 2010.06.27 13:26:56.
