data_PCOD8036960
_publ_section_title
;
Structure prediction by ZEFSAII (Michael W. Deem and Ramdas Pophale) SiO2 
 PCOD8036960
Probable space group: P -1
;
_chemical_formula_sum "Si O2"
_cell_formula_units_Z 12
_cell_length_a 11.530855
_cell_length_b 12.215190
_cell_length_c 12.711829
_cell_angle_alpha 21.650060
_cell_angle_beta 135.153362
_cell_angle_gamma 135.296049
_cell_volume 456.529346
_symmetry_space_group_name_H-M "P -1"
_symmetry_group_IT_number 2
_symmetry_cell_setting 'triclinic'
loop_
_space_group_symop_operation_xyz
x,y,z
-x,-y,-z
loop_
_atom_site_type_symbol
_atom_site_label
_atom_site_fract_x
_atom_site_fract_y
_atom_site_fract_z
Si Si1 0.586438 0.416462 0.524366
Si Si2 0.143365 0.795583 0.816095
Si Si3 0.190155 0.009868 0.883979
Si Si4 0.895403 0.264061 0.562405
Si Si5 0.712286 0.730824 0.667716
Si Si6 0.689759 0.672235 0.949329
O O1 0.500000 0.500000 0.500000
O O2 0.452833 0.196486 0.561400
O O3 0.658982 0.713940 0.237417
O O4 0.754715 0.286459 0.770235
O O5 0.177124 0.993999 0.764222
O O6 0.129596 0.030287 0.499591
O O7 0.296814 0.625809 0.041257
O O8 0.000000 0.500000 0.000000
O O9 0.014788 0.055210 0.776660
O O10 0.000000 0.500000 0.500000
O O11 0.747663 0.999036 0.756035
O O12 0.813549 0.447986 0.258243
O O13 0.713648 0.784606 0.744026
O O14 0.500000 0.500000 0.000000
#
# Coordination Sequence:
#
# PCOD8036960 Si02
#       6
#     2   2   2   2   2   2
#     4  12  23  45  76 117 155 209 254 312 401 482
#     4  12  24  43  73 113 157 208 250 324 406 484
#     4  12  25  46  77 112 161 200 262 322 395 481
#     4  12  29  56  83 117 156 216 280 343 407 480
#     4  12  26  45  77 114 162 199 265 326 398 485
#     4  12  29  56  84 117 157 214 280 343 409 478
#
# _framework density 26.285274000000001
#
# number of rings (size 3 to 8) (size 9 to 14) (size 15 to 20)
#    0.000    0.000    3.333    6.000    2.333    2.667 
#    0.000    0.000    0.000    0.000    0.000    0.000 
#    0.000    0.000    0.000    0.000    0.000    0.000 
#
# Total GULP energy -148728.357817 kJ/mol
# GULP energy per Si atom -12394.029818 kJ/mol
# Density = 2.622545 g / cm^3
# Si number density = 26.285274 Si / 1000 Ang^3
#
#
#
# Elastic Constant Matrix: (Units=GPa)
#
#
# Indices 1 2 3 4 5 6 
#
# 1 101.6047 56.0025 53.6256 -2.1309 -7.1697 4.9669
# 2 56.0025 147.1599 64.2367 -9.4429 -6.0049 25.0673
# 3 53.6256 64.2367 174.7432 -6.5002 1.8055 4.4319
# 4 -2.1309 -9.4429 -6.5002 56.4906 13.1311 -7.0595
# 5 -7.1697 -6.0049 1.8055 13.1311 53.1913 -9.1590
# 6 4.9669 25.0673 4.4319 -7.0595 -9.1590 31.4632
#
#
#
# Elastic Compliance Matrix: (Units=1/GPa)
#
#
# Indices 1 2 3 4 5 6 
#
# 1 0.013690 -0.004354 -0.002701 -0.000721 0.001986 0.002105
# 2 -0.004354 0.010823 -0.002418 0.000581 -0.000749 -0.007683
# 3 -0.002701 -0.002418 0.007445 0.000701 -0.000854 0.001213
# 4 -0.000721 0.000581 0.000701 0.019187 -0.004346 0.002592
# 5 0.001986 -0.000749 -0.000854 -0.004346 0.021041 0.005554
# 6 0.002105 -0.007683 0.001213 0.002592 0.005554 0.039600
#
#
# Mechanical properties :
#
#
# Convention : Reuss Voigt Hill
#
# Bulk Modulus (GPa) = 76.86230 85.69304 81.27767
# Shear Modulus (GPa) = 37.01781 44.87189 40.94485
#
# Velocity S-wave (km/s) = 3.75682 4.13620 3.95107
# Velocity P-wave (km/s) = 6.93710 7.44868 7.19743
#
# Compressibility (1/GPa) = 0.01301028
#
# Stress axis : x y z
#
# Youngs Moduli (GPa) = 73.04648 92.39195 134.32348
#
# Poissons Ratio (x) = 0.40232 0.36283
# Poissons Ratio (y) = 0.31808 0.32483
# Poissons Ratio (z) = 0.19731 0.22343
#
# Static dielectric constant tensor:
#      x y z
#    x 4.664630 0.490310 -0.271870 
#    y 0.490310 4.861560 0.244860 
#    z -0.271870 0.244860 3.336300 
# 
# 
# High freq. dielectric constant tensor:
#      x y z
#    x 2.040320 0.027930 0.003570 
#    y 0.027930 2.065750 -0.008670 
#    z 0.003570 -0.008670 2.082630 
# 
# From -- ./inp_files/424790.got.cif
#   From: 2010.06.25/outbox.cif.g09.slc.cpg/sg2_213_cif.got.tgz:424790.got - 2010.06.27 13:26:56.
