data_PCOD8036892
_publ_section_title
;
Structure prediction by ZEFSAII (Michael W. Deem and Ramdas Pophale) SiO2 
 PCOD8036892
Probable space group: P -1
;
_chemical_formula_sum "Si O2"
_cell_formula_units_Z 14
_cell_length_a 15.471517
_cell_length_b 15.255713
_cell_length_c 10.659012
_cell_angle_alpha 44.560759
_cell_angle_beta 56.483406
_cell_angle_gamma 24.308396
_cell_volume 684.325953
_symmetry_space_group_name_H-M "P -1"
_symmetry_group_IT_number 2
_symmetry_cell_setting 'triclinic'
loop_
_space_group_symop_operation_xyz
x,y,z
-x,-y,-z
loop_
_atom_site_type_symbol
_atom_site_label
_atom_site_fract_x
_atom_site_fract_y
_atom_site_fract_z
Si Si1 0.313648 0.351957 0.464745
Si Si2 0.371830 0.091522 0.129295
Si Si3 0.011231 0.087866 0.792075
Si Si4 0.105787 0.753501 0.932404
Si Si5 0.422491 0.817669 0.794238
Si Si6 0.061761 0.302420 0.746609
Si Si7 0.996151 0.649908 0.977925
O O1 0.491376 0.188678 0.380967
O O2 0.122944 0.455025 0.459012
O O3 0.201670 0.594842 0.366984
O O4 0.441261 0.150092 0.679140
O O5 0.227830 0.355313 0.036609
O O6 0.204527 0.158810 0.152960
O O7 0.500000 0.000000 0.000000
O O8 0.011257 0.995491 0.763708
O O9 0.242994 0.914562 0.783147
O O10 0.000000 0.000000 0.000000
O O11 0.375513 0.471425 0.006979
O O12 0.025037 0.753044 0.117343
O O13 0.019752 0.773844 0.855183
O O14 0.311458 0.029617 0.770249
O O15 0.046897 0.374410 0.826271
#
# Coordination Sequence:
#
# PCOD8036892 Si02
#       7
#     2   2   2   2   2   2   2
#     4  10  22  36  57  93 115 150 198 233 287 349
#     4  11  25  44  63  75 112 161 200 246 296 331
#     4  11  17  32  55  94 128 146 183 228 285 356
#     4   9  18  32  55  88 117 150 186 223 281 347
#     4  10  17  31  61  86 125 153 175 231 293 338
#     4   8  18  34  56  88 117 138 188 236 276 344
#     4   9  22  41  59  85 112 150 203 240 282 352
#
# _framework density 20.458085000000001
#
# number of rings (size 3 to 8) (size 9 to 14) (size 15 to 20)
#    0.857    1.429    4.286    0.429    2.000    5.143 
#    0.000    2.143    0.000    1.714    0.000    0.000 
#    0.000    0.000    0.000    0.000    0.000    0.000 
#
# Total GULP energy -173485.223077 kJ/mol
# GULP energy per Si atom -12391.801648 kJ/mol
# Density = 2.041152 g / cm^3
# Si number density = 20.458085 Si / 1000 Ang^3
#
#
#
# Elastic Constant Matrix: (Units=GPa)
#
#
# Indices 1 2 3 4 5 6 
#
# 1 105.1275 39.3908 15.1566 -7.3153 3.3734 12.1767
# 2 39.3908 152.7222 30.4928 -5.2758 0.0286 14.2272
# 3 15.1566 30.4928 42.3201 -5.9546 11.8861 0.4748
# 4 -7.3153 -5.2758 -5.9546 19.1894 8.3162 2.6787
# 5 3.3734 0.0286 11.8861 8.3162 16.0712 -5.4328
# 6 12.1767 14.2272 0.4748 2.6787 -5.4328 36.4277
#
#
#
# Elastic Compliance Matrix: (Units=1/GPa)
#
#
# Indices 1 2 3 4 5 6 
#
# 1 0.011870 -0.002674 0.002338 0.010163 -0.011295 -0.005386
# 2 -0.002674 0.008896 -0.009014 -0.005583 0.009907 -0.000575
# 3 0.002338 -0.009014 0.056267 0.048470 -0.071291 -0.012191
# 4 0.010163 -0.005583 0.048470 0.120779 -0.109623 -0.027079
# 5 -0.011295 0.009907 -0.071291 -0.109623 0.186435 0.036702
# 6 -0.005386 -0.000575 -0.012191 -0.027079 0.036702 0.037100
#
#
# Mechanical properties :
#
#
# Convention : Reuss Voigt Hill
#
# Bulk Modulus (GPa) = 17.14272 52.25000 34.69636
# Shear Modulus (GPa) = 10.88161 28.67964 19.78062
#
# Velocity S-wave (km/s) = 2.30879 3.74822 3.11285
# Velocity P-wave (km/s) = 3.93764 6.65790 5.46958
#
# Compressibility (1/GPa) = 0.05833381
#
# Stress axis : x y z
#
# Youngs Moduli (GPa) = 84.24281 112.41036 17.77256
#
# Poissons Ratio (x) = 0.30053 -0.04155
# Poissons Ratio (y) = 0.22522 0.16020
# Poissons Ratio (z) = -0.19694 1.01325
#
# Static dielectric constant tensor:
#      x y z
#    x 4.277380 0.234630 -0.123300 
#    y 0.234630 4.107510 -0.177300 
#    z -0.123300 -0.177300 3.399710 
# 
# 
# High freq. dielectric constant tensor:
#      x y z
#    x 1.813730 0.000430 -0.006150 
#    y 0.000430 1.819440 -0.007350 
#    z -0.006150 -0.007350 1.750230 
# 
# From -- ./inp_files/466307.got.cif
#   From: 2010.06.25/outbox.cif.g09.slc.cpg/sg2_234_cif.got.tgz:466307.got - 2010.06.27 13:26:56.
