data_PCOD8036992
_publ_section_title
;
Structure prediction by ZEFSAII (Michael W. Deem and Ramdas Pophale) SiO2 
 PCOD8036992
Probable space group: P -1
;
_chemical_formula_sum "Si O2"
_cell_formula_units_Z 14
_cell_length_a 14.481379
_cell_length_b 13.678322
_cell_length_c 8.537694
_cell_angle_alpha 53.270779
_cell_angle_beta 105.442965
_cell_angle_gamma 149.485979
_cell_volume 544.433352
_symmetry_space_group_name_H-M "P -1"
_symmetry_group_IT_number 2
_symmetry_cell_setting 'triclinic'
loop_
_space_group_symop_operation_xyz
x,y,z
-x,-y,-z
loop_
_atom_site_type_symbol
_atom_site_label
_atom_site_fract_x
_atom_site_fract_y
_atom_site_fract_z
Si Si1 0.812250 0.026076 0.139839
Si Si2 0.064292 0.559344 0.153541
Si Si3 0.663330 0.755624 0.997652
Si Si4 0.095587 0.333223 0.464919
Si Si5 0.582209 0.962381 0.599594
Si Si6 0.425141 0.602494 0.605807
Si Si7 0.246424 0.423293 0.127065
O O1 0.055296 0.242709 0.085677
O O2 0.732395 0.886193 0.072385
O O3 0.623951 0.772208 0.426939
O O4 0.814157 0.176509 0.988904
O O5 0.194583 0.580853 0.217940
O O6 0.852374 0.287848 0.433935
O O7 0.000000 0.500000 0.000000
O O8 0.696308 0.647947 0.113836
O O9 0.390269 0.465173 0.115720
O O10 0.822975 0.007296 0.697352
O O11 0.232968 0.447355 0.566740
O O12 0.137157 0.290810 0.377155
O O13 0.530874 0.823021 0.557044
O O14 0.500000 0.000000 0.500000
O O15 0.455128 0.763570 0.886322
#
# Coordination Sequence:
#
# PCOD8036992 Si02
#       7
#     2   2   2   2   2   2   2
#     4  12  26  49  79 113 158 200 255 323 380 457
#     4  12  23  46  75 111 151 192 257 317 380 448
#     4  12  29  54  73 115 159 203 261 310 380 456
#     4  12  26  49  78 111 155 204 257 317 383 452
#     4  12  24  48  76 111 154 196 257 317 385 451
#     4  12  28  51  77 111 160 204 252 323 375 459
#     4  12  26  48  80 113 147 210 255 311 386 452
#
# _framework density 25.714811000000001
#
# number of rings (size 3 to 8) (size 9 to 14) (size 15 to 20)
#    0.000    0.000    7.143    1.714    0.000    3.429 
#    2.571    0.000    0.000    0.000    0.000    0.000 
#    0.000    0.000    0.000    0.000    0.000    0.000 
#
# Total GULP energy -173531.483396 kJ/mol
# GULP energy per Si atom -12395.105957 kJ/mol
# Density = 2.565628 g / cm^3
# Si number density = 25.714811 Si / 1000 Ang^3
#
#
#
# Elastic Constant Matrix: (Units=GPa)
#
#
# Indices 1 2 3 4 5 6 
#
# 1 81.2850 26.5310 21.1513 14.3644 9.7471 26.8617
# 2 26.5310 88.3234 15.2964 8.8583 -3.0758 11.0720
# 3 21.1513 15.2964 123.0637 10.4243 -6.3264 3.6609
# 4 14.3644 8.8583 10.4243 34.6745 9.7152 -1.2408
# 5 9.7471 -3.0758 -6.3264 9.7152 65.1249 4.8985
# 6 26.8617 11.0720 3.6609 -1.2408 4.8985 47.1684
#
#
#
# Elastic Compliance Matrix: (Units=1/GPa)
#
#
# Indices 1 2 3 4 5 6 
#
# 1 0.018315 -0.003412 -0.002007 -0.006036 -0.001484 -0.009478
# 2 -0.003412 0.012890 -0.000725 -0.002114 0.001457 -0.001233
# 3 -0.002007 -0.000725 0.008788 -0.001998 0.001385 0.000435
# 4 -0.006036 -0.002114 -0.001998 0.034045 -0.004882 0.005491
# 5 -0.001484 0.001457 0.001385 -0.004882 0.016619 -0.001459
# 6 -0.009478 -0.001233 0.000435 0.005491 -0.001459 0.027150
#
#
# Mechanical properties :
#
#
# Convention : Reuss Voigt Hill
#
# Bulk Modulus (GPa) = 36.09431 46.51439 41.30435
# Shear Modulus (GPa) = 35.88596 44.70647 40.29621
#
# Velocity S-wave (km/s) = 3.73974 4.17412 3.96288
# Velocity P-wave (km/s) = 5.71965 6.43108 6.08577
#
# Compressibility (1/GPa) = 0.02770520
#
# Stress axis : x y z
#
# Youngs Moduli (GPa) = 54.60006 77.58013 113.78581
#
# Poissons Ratio (x) = 0.26472 0.22835
# Poissons Ratio (y) = 0.18631 0.08250
# Poissons Ratio (z) = 0.10957 0.05625
#
# Static dielectric constant tensor:
#      x y z
#    x 5.074210 0.275190 0.060280 
#    y 0.275190 4.457550 -0.218200 
#    z 0.060280 -0.218200 4.981450 
# 
# 
# High freq. dielectric constant tensor:
#      x y z
#    x 2.046410 0.011520 0.001020 
#    y 0.011520 2.014300 0.005090 
#    z 0.001020 0.005090 2.048080 
# 
# From -- ./inp_files/314710.got.cif
#   From: 2010.06.25/outbox.cif.g09.slc.cpg/sg2_158_cif.got.tgz:314710.got - 2010.06.27 13:26:56.
