data_PCOD8036976
_publ_section_title
;
Structure prediction by ZEFSAII (Michael W. Deem and Ramdas Pophale) SiO2 
 PCOD8036976
Probable space group: P -1
;
_chemical_formula_sum "Si O2"
_cell_formula_units_Z 16
_cell_length_a 8.875568
_cell_length_b 25.424933
_cell_length_c 25.346805
_cell_angle_alpha 11.256311
_cell_angle_beta 139.701941
_cell_angle_gamma 137.665020
_cell_volume 720.350366
_symmetry_space_group_name_H-M "P -1"
_symmetry_group_IT_number 2
_symmetry_cell_setting 'triclinic'
loop_
_space_group_symop_operation_xyz
x,y,z
-x,-y,-z
loop_
_atom_site_type_symbol
_atom_site_label
_atom_site_fract_x
_atom_site_fract_y
_atom_site_fract_z
Si Si1 0.458236 0.278013 0.430518
Si Si2 0.035565 0.392156 0.284391
Si Si3 0.237554 0.112285 0.319096
Si Si4 0.443257 0.117814 0.810902
Si Si5 0.153936 0.231242 0.298839
Si Si6 0.172644 0.621414 0.206306
Si Si7 0.927272 0.263958 0.751343
Si Si8 0.221786 0.242736 0.955716
O O1 0.243596 0.391461 0.298023
O O2 0.379725 0.215355 0.411923
O O3 0.638347 0.498733 0.255053
O O4 0.595461 0.013708 0.751022
O O5 0.136110 0.458793 0.302677
O O6 0.934344 0.099628 0.541922
O O7 0.821750 0.613428 0.998834
O O8 0.213144 0.195922 0.289732
O O9 0.500000 0.000000 0.500000
O O10 0.261794 0.382625 0.506041
O O11 0.654599 0.243941 0.711724
O O12 0.500000 0.000000 0.000000
O O13 0.347423 0.860524 0.007370
O O14 0.000000 0.000000 0.500000
O O15 0.000000 0.500000 0.000000
O O16 0.939292 0.773747 0.018918
O O17 0.000000 0.500000 0.500000
O O18 0.060850 0.280258 0.825307
O O19 0.000000 0.000000 0.000000
#
# Coordination Sequence:
#
# PCOD8036976 Si02
#       8
#     2   2   2   2   2   2   2   2
#     4  12  26  45  72 101 146 187 233 294 365 425
#     4  12  27  48  68 106 145 187 235 292 363 433
#     4  12  26  46  72 103 142 184 240 298 352 422
#     4  12  26  50  77 102 144 198 241 299 362 434
#     4  12  23  46  71  99 133 187 238 286 349 427
#     4  12  28  47  75 106 146 190 245 294 369 436
#     4  12  28  47  74 108 145 186 248 302 358 425
#     4  12  28  46  71 106 144 186 237 296 359 431
#
# _framework density 22.211414000000001
#
# number of rings (size 3 to 8) (size 9 to 14) (size 15 to 20)
#    0.000    0.000    3.750    5.250   10.500    0.000 
#    0.000    0.000    0.000    0.000    0.000    0.000 
#    0.000    0.000    0.000    0.000    0.000    0.000 
#
# Total GULP energy -198347.420594 kJ/mol
# GULP energy per Si atom -12396.713787 kJ/mol
# Density = 2.216086 g / cm^3
# Si number density = 22.211414 Si / 1000 Ang^3
#
#
#
# Elastic Constant Matrix: (Units=GPa)
#
#
# Indices 1 2 3 4 5 6 
#
# 1 96.7597 42.2155 44.8463 -12.4466 1.0198 5.5152
# 2 42.2155 136.0589 39.6832 -26.4042 3.9530 -0.9583
# 3 44.8463 39.6832 152.0559 -3.3367 3.6764 9.9126
# 4 -12.4466 -26.4042 -3.3367 47.0396 5.9780 5.1571
# 5 1.0198 3.9530 3.6764 5.9780 39.0512 -5.5733
# 6 5.5152 -0.9583 9.9126 5.1571 -5.5733 38.8585
#
#
#
# Elastic Compliance Matrix: (Units=1/GPa)
#
#
# Indices 1 2 3 4 5 6 
#
# 1 0.013331 -0.002888 -0.003034 0.001888 -0.000270 -0.001479
# 2 -0.002888 0.009652 -0.001543 0.004705 -0.001447 0.000209
# 3 -0.003034 -0.001543 0.007976 -0.000847 -0.000617 -0.001618
# 4 0.001888 0.004705 -0.000847 0.025403 -0.004907 -0.004011
# 5 -0.000270 -0.001447 -0.000617 -0.004907 0.027244 0.004719
# 6 -0.001479 0.000209 -0.001618 -0.004011 0.004719 0.027571
#
#
# Mechanical properties :
#
#
# Convention : Reuss Voigt Hill
#
# Bulk Modulus (GPa) = 62.38091 70.92941 66.65516
# Shear Modulus (GPa) = 38.03782 42.19849 40.11816
#
# Velocity S-wave (km/s) = 4.14277 4.36346 4.25455
# Velocity P-wave (km/s) = 7.14349 7.57559 7.36271
#
# Compressibility (1/GPa) = 0.01603054
#
# Stress axis : x y z
#
# Youngs Moduli (GPa) = 75.01461 103.60164 125.38056
#
# Poissons Ratio (x) = 0.29916 0.38037
# Poissons Ratio (y) = 0.21661 0.19344
# Poissons Ratio (z) = 0.22757 0.15984
#
# Static dielectric constant tensor:
#      x y z
#    x 4.146270 0.075830 0.179110 
#    y 0.075830 4.466660 0.026190 
#    z 0.179110 0.026190 4.573520 
# 
# 
# High freq. dielectric constant tensor:
#      x y z
#    x 1.877250 -0.001840 0.006670 
#    y -0.001840 1.896950 -0.007820 
#    z 0.006670 -0.007820 1.897940 
# 
# From -- ./inp_files/357981.got.cif
#   From: 2010.06.25/outbox.cif.g09.slc.cpg/sg2_179_cif.got.tgz:357981.got - 2010.06.27 13:26:56.
