data_PCOD8036368
_publ_section_title
;
Structure prediction by ZEFSAII (Michael W. Deem and Ramdas Pophale) SiO2 
 PCOD8036368
Probable space group: P -1
;
_chemical_formula_sum "Si O2"
_cell_formula_units_Z 14
_cell_length_a 8.590511
_cell_length_b 8.778533
_cell_length_c 12.233333
_cell_angle_alpha 61.827282
_cell_angle_beta 73.052639
_cell_angle_gamma 49.192500
_cell_volume 615.352680
_symmetry_space_group_name_H-M "P -1"
_symmetry_group_IT_number 2
_symmetry_cell_setting 'triclinic'
loop_
_space_group_symop_operation_xyz
x,y,z
-x,-y,-z
loop_
_atom_site_type_symbol
_atom_site_label
_atom_site_fract_x
_atom_site_fract_y
_atom_site_fract_z
Si Si1 0.601779 0.439965 0.165083
Si Si2 0.961945 0.053422 0.327283
Si Si3 0.941817 0.640941 0.719246
Si Si4 0.738996 0.863570 0.477713
Si Si5 0.312037 0.193429 0.733521
Si Si6 0.422882 0.658755 0.358433
Si Si7 0.584691 0.714988 0.894809
O O1 0.831828 0.206364 0.196517
O O2 0.526515 0.512160 0.279531
O O3 0.442313 0.419965 0.142092
O O4 0.611237 0.619266 0.042467
O O5 0.996658 0.197521 0.347174
O O6 0.814025 0.011690 0.432086
O O7 0.176914 0.819101 0.334754
O O8 0.846302 0.668169 0.609776
O O9 0.785759 0.694416 0.829730
O O10 0.142570 0.392026 0.778201
O O11 0.790352 0.772315 0.375269
O O12 0.500000 0.000000 0.500000
O O13 0.510006 0.188226 0.684578
O O14 0.384722 0.967861 0.849854
O O15 0.500000 0.500000 0.500000
#
# Coordination Sequence:
#
# PCOD8036368 Si02
#       7
#     2   2   2   2   2   2   2
#     4  11  27  48  72 102 140 190 235 292 350 416
#     4  12  25  46  70 103 140 186 231 294 350 413
#     4  12  25  43  71 104 139 186 234 288 355 420
#     4  12  24  43  71 101 146 178 231 295 350 417
#     4  12  25  44  68 106 137 187 233 289 352 415
#     4  12  28  45  72 108 143 182 233 293 356 416
#     4  11  26  49  71 100 143 187 239 289 348 416
#
# _framework density 22.751180999999999
#
# number of rings (size 3 to 8) (size 9 to 14) (size 15 to 20)
#    0.000    0.286    5.714    1.714    8.000    2.286 
#    0.000    2.857    0.000    0.000    0.000    0.000 
#    0.000    0.000    0.000    0.000    0.000    0.000 
#
# Total GULP energy -173611.194864 kJ/mol
# GULP energy per Si atom -12400.799633 kJ/mol
# Density = 2.269940 g / cm^3
# Si number density = 22.751181 Si / 1000 Ang^3
#
#
#
# Elastic Constant Matrix: (Units=GPa)
#
#
# Indices 1 2 3 4 5 6 
#
# 1 116.4443 44.6628 41.5301 -2.4578 -16.2753 -13.8108
# 2 44.6628 125.3471 54.9208 -9.8986 -10.0458 -19.0218
# 3 41.5301 54.9208 135.8928 -11.0033 1.4970 -10.7045
# 4 -2.4578 -9.8986 -11.0033 29.5423 4.2902 5.2312
# 5 -16.2753 -10.0458 1.4970 4.2902 30.0198 -5.9693
# 6 -13.8108 -19.0218 -10.7045 5.2312 -5.9693 40.9409
#
#
#
# Elastic Compliance Matrix: (Units=1/GPa)
#
#
# Indices 1 2 3 4 5 6 
#
# 1 0.011676 -0.002069 -0.002717 -0.002355 0.006818 0.003562
# 2 -0.002069 0.011230 -0.003546 0.001068 0.003448 0.003959
# 3 -0.002717 -0.003546 0.009831 0.002955 -0.003755 -0.000919
# 4 -0.002355 0.001068 0.002955 0.037141 -0.007440 -0.005356
# 5 0.006818 0.003448 -0.003755 -0.007440 0.041382 0.009904
# 6 0.003562 0.003959 -0.000919 -0.005356 0.009904 0.029355
#
#
# Mechanical properties :
#
#
# Convention : Reuss Voigt Hill
#
# Bulk Modulus (GPa) = 62.21798 73.32350 67.77074
# Shear Modulus (GPa) = 30.74343 35.87196 33.30770
#
# Velocity S-wave (km/s) = 3.67998 3.97509 3.83037
# Velocity P-wave (km/s) = 6.74261 7.30526 7.02957
#
# Compressibility (1/GPa) = 0.01607252
#
# Stress axis : x y z
#
# Youngs Moduli (GPa) = 85.64413 89.04638 101.72282
#
# Poissons Ratio (x) = 0.18421 0.27643
# Poissons Ratio (y) = 0.17717 0.36072
# Poissons Ratio (z) = 0.23274 0.31576
#
# Static dielectric constant tensor:
#      x y z
#    x 4.442360 -0.012030 0.117330 
#    y -0.012030 3.973410 -0.246200 
#    z 0.117330 -0.246200 4.094200 
# 
# 
# High freq. dielectric constant tensor:
#      x y z
#    x 1.915590 -0.002160 0.003560 
#    y -0.002160 1.894590 -0.021500 
#    z 0.003560 -0.021500 1.887350 
# 
# From -- ./inp_files/214857.got.cif
#   From: 2010.06.25/outbox.cif.g09.slc.cpg/sg2_108_cif.got.tgz:214857.got - 2010.06.27 13:26:56.
