data_PCOD8036519
_publ_section_title
;
Structure prediction by ZEFSAII (Michael W. Deem and Ramdas Pophale) SiO2 
 PCOD8036519
Probable space group: P -1
;
_chemical_formula_sum "Si O2"
_cell_formula_units_Z 16
_cell_length_a 18.777797
_cell_length_b 11.592535
_cell_length_c 7.480395
_cell_angle_alpha 71.008520
_cell_angle_beta 106.648921
_cell_angle_gamma 44.437804
_cell_volume 669.516511
_symmetry_space_group_name_H-M "P -1"
_symmetry_group_IT_number 2
_symmetry_cell_setting 'triclinic'
loop_
_space_group_symop_operation_xyz
x,y,z
-x,-y,-z
loop_
_atom_site_type_symbol
_atom_site_label
_atom_site_fract_x
_atom_site_fract_y
_atom_site_fract_z
Si Si1 0.277254 0.342663 0.919106
Si Si2 0.515555 0.178657 0.606705
Si Si3 0.350145 0.778760 0.851368
Si Si4 0.222132 0.439378 0.247507
Si Si5 0.576662 0.068552 0.288662
Si Si6 0.972719 0.102212 0.621006
Si Si7 0.303632 0.705483 0.211304
Si Si8 0.144163 0.967888 0.313138
O O1 0.109744 0.640890 0.559846
O O2 0.247263 0.400608 0.075623
O O3 0.421830 0.221696 0.021780
O O4 0.331165 0.120244 0.037555
O O5 0.353442 0.342642 0.464836
O O6 0.544246 0.147722 0.431511
O O7 0.471358 0.382158 0.529984
O O8 0.383731 0.873067 0.833103
O O9 0.188992 0.976141 0.521904
O O10 0.500000 0.500000 0.000000
O O11 0.332291 0.762722 0.049617
O O12 0.261635 0.249951 0.454733
O O13 0.040120 0.734239 0.027992
O O14 0.846825 0.192134 0.579002
O O15 0.000000 0.000000 0.500000
O O16 0.148878 0.847532 0.972039
O O17 0.264269 0.831105 0.306516
#
# Coordination Sequence:
#
# PCOD8036519 Si02
#       8
#     2   2   2   2   2   2   2   2
#     4   9  17  33  65  93 120 156 202 253 305 357
#     4   9  17  35  61  92 122 157 200 252 306 356
#     4  12  24  41  63  86 122 166 209 247 302 369
#     4   9  17  34  61  91 119 154 201 252 308 358
#     4   9  18  35  61  87 121 163 203 247 297 361
#     4  12  19  37  64  94 126 155 205 253 306 363
#     4  12  24  40  64  94 124 159 205 256 307 361
#     4  12  25  38  62  95 125 159 203 255 309 364
#
# _framework density 23.897841
#
# number of rings (size 3 to 8) (size 9 to 14) (size 15 to 20)
#    0.000    1.500    5.000    3.375    0.000    1.000 
#    0.000    1.250    2.750    0.000    0.000    0.000 
#    0.000    0.000    0.000    0.000    0.000    0.000 
#
# Total GULP energy -198216.330559 kJ/mol
# GULP energy per Si atom -12388.520660 kJ/mol
# Density = 2.384345 g / cm^3
# Si number density = 23.897841 Si / 1000 Ang^3
#
#
#
# Elastic Constant Matrix: (Units=GPa)
#
#
# Indices 1 2 3 4 5 6 
#
# 1 118.5431 30.6236 28.4949 0.8354 -36.5645 -20.2755
# 2 30.6236 78.3009 42.0785 -19.5539 -22.5079 -15.5761
# 3 28.4949 42.0785 106.9879 -31.4539 -26.8385 -0.3234
# 4 0.8354 -19.5539 -31.4539 37.5060 9.6443 0.5993
# 5 -36.5645 -22.5079 -26.8385 9.6443 42.8756 -2.9005
# 6 -20.2755 -15.5761 -0.3234 0.5993 -2.9005 21.2177
#
#
#
# Elastic Compliance Matrix: (Units=1/GPa)
#
#
# Indices 1 2 3 4 5 6 
#
# 1 0.017440 0.002232 -0.003128 -0.006542 0.016963 0.020760
# 2 0.002232 0.023222 -0.005697 0.004128 0.010985 0.020479
# 3 -0.003128 -0.005697 0.015705 0.010011 0.001446 -0.007017
# 4 -0.006542 0.004128 0.010011 0.039048 -0.006269 -0.005028
# 5 0.016963 0.010985 0.001446 -0.006269 0.047970 0.031031
# 6 0.020760 0.020479 -0.007017 -0.005028 0.031031 0.086280
#
#
# Mechanical properties :
#
#
# Convention : Reuss Voigt Hill
#
# Bulk Modulus (GPa) = 23.15766 56.24733 39.70249
# Shear Modulus (GPa) = 19.43679 33.82884 26.63281
#
# Velocity S-wave (km/s) = 2.85498 3.76648 3.34195
# Velocity P-wave (km/s) = 4.53643 6.51942 5.61614
#
# Compressibility (1/GPa) = 0.04318225
#
# Stress axis : x y z
#
# Youngs Moduli (GPa) = 57.33949 43.06286 63.67305
#
# Poissons Ratio (x) = -0.09613 0.19918
# Poissons Ratio (y) = -0.12800 0.36272
# Poissons Ratio (z) = 0.17937 0.24531
#
# Static dielectric constant tensor:
#      x y z
#    x 3.311750 -0.835870 1.056550 
#    y -0.835870 3.548770 0.571820 
#    z 1.056550 0.571820 3.648880 
# 
# 
# High freq. dielectric constant tensor:
#      x y z
#    x 1.932380 -0.014190 -0.020010 
#    y -0.014190 1.934230 -0.015430 
#    z -0.020010 -0.015430 1.949110 
# 
# From -- ./inp_files/331738.got.cif
#   From: 2010.06.25/outbox.cif.g09.slc.cpg/sg2_166_cif.got.tgz:331738.got - 2010.06.27 13:26:56.
