data_PCOD8036608
_publ_section_title
;
Structure prediction by ZEFSAII (Michael W. Deem and Ramdas Pophale) SiO2 
 PCOD8036608
Probable space group: P -1
;
_chemical_formula_sum "Si O2"
_cell_formula_units_Z 16
_cell_length_a 12.262236
_cell_length_b 9.715033
_cell_length_c 28.176126
_cell_angle_alpha 26.517432
_cell_angle_beta 151.732488
_cell_angle_gamma 141.876206
_cell_volume 709.707516
_symmetry_space_group_name_H-M "P -1"
_symmetry_group_IT_number 2
_symmetry_cell_setting 'triclinic'
loop_
_space_group_symop_operation_xyz
x,y,z
-x,-y,-z
loop_
_atom_site_type_symbol
_atom_site_label
_atom_site_fract_x
_atom_site_fract_y
_atom_site_fract_z
Si Si1 0.264933 0.628105 0.391819
Si Si2 0.132957 0.363983 0.837424
Si Si3 0.935236 0.321363 0.946612
Si Si4 0.862106 0.646628 0.719894
Si Si5 0.437967 0.323667 0.636087
Si Si6 0.240676 0.662636 0.541168
Si Si7 0.429973 0.303669 0.255785
Si Si8 0.467848 0.360022 0.146314
O O1 0.500000 0.500000 0.500000
O O2 0.232519 0.446168 0.485419
O O3 0.040235 0.570119 0.292559
O O4 0.291081 0.987739 0.300553
O O5 0.390788 0.384046 0.908310
O O6 0.095813 0.622366 0.785263
O O7 0.086319 0.045137 0.944911
O O8 0.862613 0.443146 0.830054
O O9 0.766325 0.448002 0.883441
O O10 0.197005 0.430864 0.020138
O O11 0.676693 0.489033 0.661650
O O12 0.794730 0.996007 0.599722
O O13 0.400683 0.444368 0.637952
O O14 0.465702 0.959259 0.755297
O O15 0.355136 0.692141 0.627396
O O16 0.000000 0.500000 0.500000
O O17 0.541694 0.365050 0.228162
#
# Coordination Sequence:
#
# PCOD8036608 Si02
#       8
#     2   2   2   2   2   2   2   2
#     4  12  21  43  75 100 138 183 234 288 359 421
#     4  12  27  45  72 109 142 188 244 297 346 426
#     4  12  26  48  72  97 148 194 243 286 356 414
#     4  12  23  47  75 101 143 192 234 291 363 422
#     4  12  23  45  72 104 138 190 234 293 362 421
#     4  12  27  44  70 114 145 176 237 298 361 426
#     4  12  24  47  74 103 143 191 232 293 358 428
#     4  12  28  46  73 107 142 190 244 292 353 419
#
# _framework density 22.544498999999998
#
# number of rings (size 3 to 8) (size 9 to 14) (size 15 to 20)
#    0.000    0.000    7.500    2.625    1.750    2.500 
#    0.000    0.000    0.000    0.000    0.000    0.000 
#    0.000    0.000    0.000    0.000    0.000    0.000 
#
# Total GULP energy -198382.643482 kJ/mol
# GULP energy per Si atom -12398.915218 kJ/mol
# Density = 2.249319 g / cm^3
# Si number density = 22.544499 Si / 1000 Ang^3
#
#
#
# Elastic Constant Matrix: (Units=GPa)
#
#
# Indices 1 2 3 4 5 6 
#
# 1 105.8943 50.1945 38.1603 11.4018 1.3650 -2.1197
# 2 50.1945 83.3993 35.7574 3.7734 -1.1898 2.4630
# 3 38.1603 35.7574 103.9100 0.9414 -6.0683 -0.0896
# 4 11.4018 3.7734 0.9414 19.2791 -6.0587 8.2579
# 5 1.3650 -1.1898 -6.0683 -6.0587 37.9635 -0.5939
# 6 -2.1197 2.4630 -0.0896 8.2579 -0.5939 43.5522
#
#
#
# Elastic Compliance Matrix: (Units=1/GPa)
#
#
# Indices 1 2 3 4 5 6 
#
# 1 0.015250 -0.007557 -0.003072 -0.009508 -0.002748 0.002929
# 2 -0.007557 0.017960 -0.003391 0.002066 0.000595 -0.001774
# 3 -0.003072 -0.003391 0.012031 0.002825 0.002371 -0.000436
# 4 -0.009508 0.002066 0.002825 0.066008 0.011190 -0.012937
# 5 -0.002748 0.000595 0.002371 0.011190 0.028594 -0.001894
# 6 0.002929 -0.001774 -0.000436 -0.012937 -0.001894 0.025630
#
#
# Mechanical properties :
#
#
# Convention : Reuss Voigt Hill
#
# Bulk Modulus (GPa) = 58.13153 60.15865 59.14509
# Shear Modulus (GPa) = 25.09461 31.43172 28.26316
#
# Velocity S-wave (km/s) = 3.33996 3.73796 3.54455
# Velocity P-wave (km/s) = 6.38083 6.73588 6.56076
#
# Compressibility (1/GPa) = 0.01720237
#
# Stress axis : x y z
#
# Youngs Moduli (GPa) = 65.57327 55.67999 83.11782
#
# Poissons Ratio (x) = 0.42077 0.25533
# Poissons Ratio (y) = 0.49553 0.28182
# Poissons Ratio (z) = 0.20143 0.18879
#
# Static dielectric constant tensor:
#      x y z
#    x 6.789610 -0.876330 3.386120 
#    y -0.876330 4.120480 -0.617100 
#    z 3.386120 -0.617100 7.975110 
# 
# 
# High freq. dielectric constant tensor:
#      x y z
#    x 1.899760 -0.014850 0.003260 
#    y -0.014850 1.882970 0.002880 
#    z 0.003260 0.002880 1.895200 
# 
# From -- ./inp_files/452199.got.cif
#   From: 2010.06.25/outbox.cif.g09.slc.cpg/sg2_227_cif.got.tgz:452199.got - 2010.06.27 13:26:56.
