data_PCOD8036526
_publ_section_title
;
Structure prediction by ZEFSAII (Michael W. Deem and Ramdas Pophale) SiO2 
 PCOD8036526
Probable space group: P -1
;
_chemical_formula_sum "Si O2"
_cell_formula_units_Z 16
_cell_length_a 12.919384
_cell_length_b 11.477459
_cell_length_c 12.585799
_cell_angle_alpha 74.142162
_cell_angle_beta 157.056179
_cell_angle_gamma 107.303630
_cell_volume 694.587781
_symmetry_space_group_name_H-M "P -1"
_symmetry_group_IT_number 2
_symmetry_cell_setting 'triclinic'
loop_
_space_group_symop_operation_xyz
x,y,z
-x,-y,-z
loop_
_atom_site_type_symbol
_atom_site_label
_atom_site_fract_x
_atom_site_fract_y
_atom_site_fract_z
Si Si1 0.550829 0.007282 0.785506
Si Si2 0.678150 0.734610 0.758612
Si Si3 0.113425 0.040021 0.211301
Si Si4 0.624119 0.752619 0.941036
Si Si5 0.931227 0.408709 0.553181
Si Si6 0.575221 0.273810 0.797963
Si Si7 0.808756 0.386637 0.773044
Si Si8 0.088187 0.407485 0.321724
O O1 0.323361 0.963204 0.490329
O O2 0.467910 0.128343 0.734794
O O3 0.569040 0.885060 0.905095
O O4 0.851928 0.059355 0.024550
O O5 0.694936 0.834398 0.656380
O O6 0.713829 0.792675 0.895417
O O7 0.389714 0.655878 0.502015
O O8 0.909314 0.654801 0.973051
O O9 0.000000 0.000000 0.000000
O O10 0.369402 0.653009 0.732193
O O11 0.871079 0.695996 0.241239
O O12 0.963726 0.483844 0.674749
O O13 0.000000 0.500000 0.500000
O O14 0.654061 0.335623 0.743673
O O15 0.340366 0.341266 0.610158
O O16 0.832784 0.304433 0.108960
O O17 0.867064 0.534685 0.772086
#
# Coordination Sequence:
#
# PCOD8036526 Si02
#       8
#     2   2   2   2   2   2   2   2
#     4  12  25  39  61  93 140 180 220 258 314 397
#     4  12  20  35  59  91 138 171 218 265 311 367
#     4  12  22  34  55  89 135 191 222 255 298 364
#     4  12  24  43  70  99 128 168 215 282 343 386
#     4  12  27  50  76  99 121 156 221 299 357 389
#     4  12  24  40  60  97 140 188 212 247 309 392
#     4  12  22  38  59  94 136 182 226 256 306 373
#     4  12  24  42  66  91 131 175 223 273 320 386
#
# _framework density 23.035245
#
# number of rings (size 3 to 8) (size 9 to 14) (size 15 to 20)
#    0.000    0.000    6.250    5.250    1.750    0.000 
#    0.000    0.000    0.000    4.500    0.000    0.000 
#    0.000    0.000    0.000    0.000    0.000    0.000 
#
# Total GULP energy -198272.233507 kJ/mol
# GULP energy per Si atom -12392.014594 kJ/mol
# Density = 2.298282 g / cm^3
# Si number density = 23.035245 Si / 1000 Ang^3
#
#
#
# Elastic Constant Matrix: (Units=GPa)
#
#
# Indices 1 2 3 4 5 6 
#
# 1 39.6972 21.7162 16.2440 -7.4711 7.0804 7.0665
# 2 21.7162 125.5095 27.4624 -11.2487 0.3987 -8.9817
# 3 16.2440 27.4624 157.3436 -21.2084 26.1633 1.2823
# 4 -7.4711 -11.2487 -21.2084 46.1495 -4.5701 -0.0442
# 5 7.0804 0.3987 26.1633 -4.5701 21.3147 0.1132
# 6 7.0665 -8.9817 1.2823 -0.0442 0.1132 22.7602
#
#
#
# Elastic Compliance Matrix: (Units=1/GPa)
#
#
# Indices 1 2 3 4 5 6 
#
# 1 0.033341 -0.006367 -0.000180 0.002753 -0.010077 -0.012798
# 2 -0.006367 0.009945 -0.001683 0.001040 0.004186 0.005977
# 3 -0.000180 -0.001683 0.008687 0.002560 -0.010018 -0.001043
# 4 0.002753 0.001040 0.002560 0.023642 0.000996 -0.000548
# 5 -0.010077 0.004186 -0.010018 0.000996 0.062668 0.005035
# 6 -0.012798 0.005977 -0.001043 -0.000548 0.005035 0.050301
#
#
# Mechanical properties :
#
#
# Convention : Reuss Voigt Hill
#
# Bulk Modulus (GPa) = 28.15798 50.37727 39.26763
# Shear Modulus (GPa) = 23.05403 35.18673 29.12038
#
# Velocity S-wave (km/s) = 3.16700 3.91259 3.55937
# Velocity P-wave (km/s) = 5.06197 6.50602 5.82889
#
# Compressibility (1/GPa) = 0.03551392
#
# Stress axis : x y z
#
# Youngs Moduli (GPa) = 29.99333 100.55271 115.11284
#
# Poissons Ratio (x) = 0.64017 0.02071
# Poissons Ratio (y) = 0.19095 0.19374
# Poissons Ratio (z) = 0.00540 0.16924
#
# Static dielectric constant tensor:
#      x y z
#    x 3.798680 0.128620 0.140730 
#    y 0.128620 4.587900 0.149670 
#    z 0.140730 0.149670 4.404020 
# 
# 
# High freq. dielectric constant tensor:
#      x y z
#    x 1.843570 -0.003230 0.019430 
#    y -0.003230 1.924790 0.005300 
#    z 0.019430 0.005300 1.939270 
# 
# From -- ./inp_files/532540.got.cif
#   From: 2010.06.25/outbox.cif.g09.slc.cpg/sg2_267_cif.got.tgz:532540.got - 2010.06.27 13:26:56.
