data_PCOD8036906
_publ_section_title
;
Structure prediction by ZEFSAII (Michael W. Deem and Ramdas Pophale) SiO2 
 PCOD8036906
Probable space group: P -1
;
_chemical_formula_sum "Si O2"
_cell_formula_units_Z 16
_cell_length_a 9.491068
_cell_length_b 14.319081
_cell_length_c 11.817503
_cell_angle_alpha 30.168261
_cell_angle_beta 109.971873
_cell_angle_gamma 108.681425
_cell_volume 757.497467
_symmetry_space_group_name_H-M "P -1"
_symmetry_group_IT_number 2
_symmetry_cell_setting 'triclinic'
loop_
_space_group_symop_operation_xyz
x,y,z
-x,-y,-z
loop_
_atom_site_type_symbol
_atom_site_label
_atom_site_fract_x
_atom_site_fract_y
_atom_site_fract_z
Si Si1 0.197637 0.664475 0.682294
Si Si2 0.506068 0.069111 0.055214
Si Si3 0.364245 0.425474 0.619012
Si Si4 0.047365 0.494338 0.389710
Si Si5 0.823977 0.216832 0.033600
Si Si6 0.539140 0.315417 0.430550
Si Si7 0.222007 0.478382 0.116226
Si Si8 0.022144 0.116797 0.494728
O O1 0.363602 0.699249 0.641170
O O2 0.076566 0.619127 0.598333
O O3 0.140343 0.853746 0.524282
O O4 0.210035 0.508183 0.946870
O O5 0.498386 0.896617 0.319485
O O6 0.376889 0.214170 0.889655
O O7 0.652745 0.204007 0.964699
O O8 0.500000 0.000000 0.000000
O O9 0.500000 0.500000 0.500000
O O10 0.212193 0.411153 0.517757
O O11 0.357676 0.568323 0.572534
O O12 0.069518 0.696047 0.126986
O O13 0.000000 0.500000 0.500000
O O14 0.829653 0.337721 0.024870
O O15 0.873823 0.006536 0.271897
O O16 0.388777 0.422195 0.253507
O O17 0.101751 0.317910 0.286674
O O18 0.000000 0.000000 0.500000
#
# Coordination Sequence:
#
# PCOD8036906 Si02
#       8
#     2   2   2   2   2   2   2   2
#     4  12  27  46  70 108 150 182 234 302 365 421
#     4  12  25  41  71 106 138 186 244 287 343 424
#     4  12  23  44  71  98 142 192 235 283 348 425
#     4  12  25  45  70 104 147 186 229 293 363 420
#     4  12  24  44  74 104 136 189 241 289 349 426
#     4  12  25  47  69 108 145 182 237 298 357 422
#     4  12  24  49  76 102 140 191 242 292 354 432
#     4  12  25  46  74 104 140 185 240 291 354 430
#
# _framework density 21.122183
#
# number of rings (size 3 to 8) (size 9 to 14) (size 15 to 20)
#    0.000    0.000    8.750    1.500    1.750    1.000 
#    2.250    2.500    0.000    0.000    0.000    0.000 
#    0.000    0.000    0.000    0.000    0.000    0.000 
#
# Total GULP energy -198355.381173 kJ/mol
# GULP energy per Si atom -12397.211323 kJ/mol
# Density = 2.107411 g / cm^3
# Si number density = 21.122183 Si / 1000 Ang^3
#
#
#
# Elastic Constant Matrix: (Units=GPa)
#
#
# Indices 1 2 3 4 5 6 
#
# 1 112.3664 24.4257 41.5878 2.2174 -6.7238 -17.1050
# 2 24.4257 97.6819 25.4744 0.8652 -9.2688 -8.4888
# 3 41.5878 25.4744 104.8397 1.1729 2.7924 -16.7161
# 4 2.2174 0.8652 1.1729 39.9276 -3.4055 2.1606
# 5 -6.7238 -9.2688 2.7924 -3.4055 35.7922 8.4261
# 6 -17.1050 -8.4888 -16.7161 2.1606 8.4261 36.1874
#
#
#
# Elastic Compliance Matrix: (Units=1/GPa)
#
#
# Indices 1 2 3 4 5 6 
#
# 1 0.011084 -0.001453 -0.003595 -0.000535 0.001233 0.002982
# 2 -0.001453 0.011477 -0.002239 0.000121 0.002813 0.000309
# 3 -0.003595 -0.002239 0.012280 -0.000621 -0.003272 0.004247
# 4 -0.000535 0.000121 -0.000621 0.025499 0.003052 -0.002744
# 5 0.001233 0.002813 -0.003272 0.003052 0.031265 -0.007731
# 6 0.002982 0.000309 0.004247 -0.002744 -0.007731 0.033042
#
#
# Mechanical properties :
#
#
# Convention : Reuss Voigt Hill
#
# Bulk Modulus (GPa) = 49.34342 55.31818 52.33080
# Shear Modulus (GPa) = 34.25165 37.27478 35.76321
#
# Velocity S-wave (km/s) = 4.03127 4.20542 4.11927
# Velocity P-wave (km/s) = 6.71416 7.05884 6.88865
#
# Compressibility (1/GPa) = 0.02026613
#
# Stress axis : x y z
#
# Youngs Moduli (GPa) = 90.21776 87.12812 81.43397
#
# Poissons Ratio (x) = 0.12661 0.29277
# Poissons Ratio (y) = 0.13110 0.18236
# Poissons Ratio (z) = 0.32435 0.19512
#
# Static dielectric constant tensor:
#      x y z
#    x 4.259750 -0.170080 0.520640 
#    y -0.170080 3.965740 -0.145260 
#    z 0.520640 -0.145260 4.651240 
# 
# 
# High freq. dielectric constant tensor:
#      x y z
#    x 1.830700 0.004260 0.013070 
#    y 0.004260 1.830260 0.010550 
#    z 0.013070 0.010550 1.840560 
# 
# From -- ./inp_files/273637.got.cif
#   From: 2010.06.25/outbox.cif.g09.slc.cpg/sg2_137_cif.got.tgz:273637.got - 2010.06.27 13:26:56.
