data_PCOD8036119
_publ_section_title
;
Structure prediction by ZEFSAII (Michael W. Deem and Ramdas Pophale) SiO2 
 PCOD8036119
Probable space group: P -1
;
_chemical_formula_sum "Si O2"
_cell_formula_units_Z 16
_cell_length_a 13.271301
_cell_length_b 8.271617
_cell_length_c 11.755282
_cell_angle_alpha 83.050318
_cell_angle_beta 111.656698
_cell_angle_gamma 143.500205
_cell_volume 676.424057
_symmetry_space_group_name_H-M "P -1"
_symmetry_group_IT_number 2
_symmetry_cell_setting 'triclinic'
loop_
_space_group_symop_operation_xyz
x,y,z
-x,-y,-z
loop_
_atom_site_type_symbol
_atom_site_label
_atom_site_fract_x
_atom_site_fract_y
_atom_site_fract_z
Si Si1 0.861780 0.571121 0.377438
Si Si2 0.841740 0.200879 0.687681
Si Si3 0.911910 0.652228 0.642146
Si Si4 0.514706 0.918090 0.240789
Si Si5 0.250661 0.271835 0.805799
Si Si6 0.472306 0.249859 0.959989
Si Si7 0.520931 0.335238 0.547092
Si Si8 0.211739 0.812496 0.093921
O O1 0.979070 0.717696 0.532253
O O2 0.754390 0.611198 0.312730
O O3 0.010182 0.732007 0.321992
O O4 0.706881 0.236945 0.340860
O O5 0.917770 0.479180 0.710236
O O6 0.807776 0.092737 0.811537
O O7 0.645560 0.968058 0.558240
O O8 0.712718 0.498275 0.562190
O O9 0.048432 0.929332 0.755815
O O10 0.532970 0.908108 0.114281
O O11 0.484063 0.713527 0.316274
O O12 0.331166 0.804626 0.189209
O O13 0.414478 0.338136 0.855802
O O14 0.312455 0.456650 0.926613
O O15 0.322876 0.038615 0.018856
O O16 0.500000 0.500000 0.500000
O O17 0.000000 0.500000 0.000000
#
# Coordination Sequence:
#
# PCOD8036119 Si02
#       8
#     2   2   2   2   2   2   2   2
#     4  12  25  44  77 104 142 187 242 296 354 432
#     4  12  26  47  73 108 141 186 241 298 362 426
#     4  12  24  47  73 102 146 186 241 291 367 426
#     4  12  25  48  76 105 141 192 243 289 359 433
#     4  11  26  45  69 107 140 190 241 293 350 422
#     4  11  27  46  73 101 147 193 238 292 352 426
#     4  12  28  46  71 112 145 183 232 309 368 417
#     4  12  25  46  74 105 144 189 244 293 349 427
#
# _framework density 23.6538
#
# number of rings (size 3 to 8) (size 9 to 14) (size 15 to 20)
#    0.000    0.250    3.750    5.250    5.250    1.000 
#    0.000    1.250    0.000    0.000    0.000    0.000 
#    0.000    0.000    0.000    0.000    0.000    0.000 
#
# Total GULP energy -198356.440696 kJ/mol
# GULP energy per Si atom -12397.277543 kJ/mol
# Density = 2.359996 g / cm^3
# Si number density = 23.653800 Si / 1000 Ang^3
#
#
#
# Elastic Constant Matrix: (Units=GPa)
#
#
# Indices 1 2 3 4 5 6 
#
# 1 72.0099 37.4535 36.9090 -9.8155 -6.1208 12.2507
# 2 37.4535 116.0120 59.9540 11.2429 -8.6968 -3.6228
# 3 36.9090 59.9540 130.1596 8.2797 -11.9702 13.8230
# 4 -9.8155 11.2429 8.2797 53.1823 5.5159 3.8309
# 5 -6.1208 -8.6968 -11.9702 5.5159 42.4831 -7.7390
# 6 12.2507 -3.6228 13.8230 3.8309 -7.7390 42.5242
#
#
#
# Elastic Compliance Matrix: (Units=1/GPa)
#
#
# Indices 1 2 3 4 5 6 
#
# 1 0.020165 -0.005891 -0.002825 0.005949 -0.000982 -0.006108
# 2 -0.005891 0.013648 -0.004728 -0.003816 0.002039 0.005112
# 3 -0.002825 -0.004728 0.011171 -0.001201 0.001408 -0.002856
# 4 0.005949 -0.003816 -0.001201 0.021604 -0.003850 -0.004295
# 5 -0.000982 0.002039 0.001408 -0.003850 0.025624 0.005009
# 6 -0.006108 0.005112 -0.002856 -0.004295 0.005009 0.027938
#
#
# Mechanical properties :
#
#
# Convention : Reuss Voigt Hill
#
# Bulk Modulus (GPa) = 55.26227 65.20160 60.23193
# Shear Modulus (GPa) = 32.66475 39.89559 36.28017
#
# Velocity S-wave (km/s) = 3.72015 4.11134 3.92062
# Velocity P-wave (km/s) = 6.47042 7.08253 6.78338
#
# Compressibility (1/GPa) = 0.01809553
#
# Stress axis : x y z
#
# Youngs Moduli (GPa) = 49.58984 73.27259 89.51697
#
# Poissons Ratio (x) = 0.43167 0.25285
# Poissons Ratio (y) = 0.29215 0.42327
# Poissons Ratio (z) = 0.14007 0.34646
#
# Static dielectric constant tensor:
#      x y z
#    x 4.167210 -0.028960 -0.009680 
#    y -0.028960 4.266980 0.074770 
#    z -0.009680 0.074770 4.534450 
# 
# 
# High freq. dielectric constant tensor:
#      x y z
#    x 1.927920 -0.004640 0.007630 
#    y -0.004640 1.932080 0.005110 
#    z 0.007630 0.005110 1.958620 
# 
# From -- ./inp_files/447365.got.cif
#   From: 2010.06.25/outbox.cif.g09.slc.cpg/sg2_224_cif.got.tgz:447365.got - 2010.06.27 13:26:56.
