data_PCOD8036225
_publ_section_title
;
Structure prediction by ZEFSAII (Michael W. Deem and Ramdas Pophale) SiO2 
 PCOD8036225
Probable space group: P -1
;
_chemical_formula_sum "Si O2"
_cell_formula_units_Z 12
_cell_length_a 5.206786
_cell_length_b 14.675497
_cell_length_c 8.053766
_cell_angle_alpha 66.541001
_cell_angle_beta 56.027319
_cell_angle_gamma 83.756969
_cell_volume 462.915878
_symmetry_space_group_name_H-M "P -1"
_symmetry_group_IT_number 2
_symmetry_cell_setting 'triclinic'
loop_
_space_group_symop_operation_xyz
x,y,z
-x,-y,-z
loop_
_atom_site_type_symbol
_atom_site_label
_atom_site_fract_x
_atom_site_fract_y
_atom_site_fract_z
Si Si1 0.378253 0.930337 0.443827
Si Si2 0.276225 0.507402 0.264361
Si Si3 0.190998 0.611526 0.716758
Si Si4 0.622466 0.776077 0.258729
Si Si5 0.298499 0.128841 0.186638
Si Si6 0.232669 0.707287 0.978726
O O1 0.627453 0.862467 0.335089
O O2 0.061555 0.857119 0.663258
O O3 0.500000 0.000000 0.500000
O O4 0.315300 0.009996 0.266240
O O5 0.138168 0.445747 0.194100
O O6 0.000000 0.500000 0.500000
O O7 0.574362 0.467139 0.264763
O O8 0.381875 0.622094 0.086430
O O9 0.346078 0.685364 0.462883
O O10 0.115500 0.671278 0.864630
O O11 0.949291 0.734691 0.172958
O O12 0.562110 0.824298 0.069374
O O13 0.505953 0.193134 0.208029
#
# Coordination Sequence:
#
# PCOD8036225 Si02
#       6
#     2   2   2   2   2   2
#     4  11  26  51  74 107 151 193 253 314 392 457
#     4  12  26  51  77 112 157 209 255 315 377 452
#     4  12  28  48  78 112 161 204 256 315 378 452
#     4  12  26  45  76 108 151 195 257 309 384 454
#     4  11  26  46  76 107 148 194 252 315 388 454
#     4  12  28  46  75 111 149 200 258 310 384 449
#
# _framework density 25.922635
#
# number of rings (size 3 to 8) (size 9 to 14) (size 15 to 20)
#    0.000    0.333    1.667    6.000    7.000    5.333 
#    0.000    0.000    0.000    0.000    0.000    0.000 
#    0.000    0.000    0.000    0.000    0.000    0.000 
#
# Total GULP energy -148850.149698 kJ/mol
# GULP energy per Si atom -12404.179141 kJ/mol
# Density = 2.586363 g / cm^3
# Si number density = 25.922635 Si / 1000 Ang^3
#
#
#
# Elastic Constant Matrix: (Units=GPa)
#
#
# Indices 1 2 3 4 5 6 
#
# 1 62.1775 17.2943 -23.7847 4.1397 -0.2551 -4.0667
# 2 17.2943 136.4848 29.0118 15.0956 -8.2469 -8.2673
# 3 -23.7847 29.0118 99.9690 -3.2169 5.5160 -12.7948
# 4 4.1397 15.0956 -3.2169 48.2245 5.5895 -1.3068
# 5 -0.2551 -8.2469 5.5160 5.5895 36.3603 -7.1828
# 6 -4.0667 -8.2673 -12.7948 -1.3068 -7.1828 42.3840
#
#
#
# Elastic Compliance Matrix: (Units=1/GPa)
#
#
# Indices 1 2 3 4 5 6 
#
# 1 0.019654 -0.003707 0.006179 0.000089 -0.001092 0.002846
# 2 -0.003707 0.009183 -0.003731 -0.003162 0.003260 0.000764
# 3 0.006179 -0.003731 0.013197 0.001891 -0.002404 0.003500
# 4 0.000089 -0.003162 0.001891 0.022359 -0.004461 -0.000104
# 5 -0.001092 0.003260 -0.002404 -0.004461 0.030231 0.004791
# 6 0.002846 0.000764 0.003500 -0.000104 0.004791 0.025881
#
#
# Mechanical properties :
#
#
# Convention : Reuss Voigt Hill
#
# Bulk Modulus (GPa) = 25.30624 38.18602 31.74613
# Shear Modulus (GPa) = 36.71219 43.80110 40.25664
#
# Velocity S-wave (km/s) = 3.76735 4.11504 3.94503
# Velocity P-wave (km/s) = 5.35792 6.11071 5.74666
#
# Compressibility (1/GPa) = 0.03951594
#
# Stress axis : x y z
#
# Youngs Moduli (GPa) = 50.88134 108.90170 75.77230
#
# Poissons Ratio (x) = 0.40373 -0.46821
# Poissons Ratio (y) = 0.18863 0.28269
# Poissons Ratio (z) = -0.31441 0.40628
#
# Static dielectric constant tensor:
#      x y z
#    x 4.456660 -0.129800 0.209660 
#    y -0.129800 5.152750 -0.282470 
#    z 0.209660 -0.282470 5.029160 
# 
# 
# High freq. dielectric constant tensor:
#      x y z
#    x 2.026070 -0.008070 0.008660 
#    y -0.008070 2.053660 -0.011520 
#    z 0.008660 -0.011520 2.060720 
# 
# From -- ./inp_files/134789.got.cif
#   From: 2010.06.25/outbox.cif.g09.slc.cpg/sg2_68_cif.got.tgz:134789.got - 2010.06.27 13:26:56.
