data_PCOD8036462
_publ_section_title
;
Structure prediction by ZEFSAII (Michael W. Deem and Ramdas Pophale) SiO2 
 PCOD8036462
Probable space group: P -1
;
_chemical_formula_sum "Si O2"
_cell_formula_units_Z 16
_cell_length_a 9.139889
_cell_length_b 18.373350
_cell_length_c 11.473928
_cell_angle_alpha 41.655234
_cell_angle_beta 100.388432
_cell_angle_gamma 131.066859
_cell_volume 757.823293
_symmetry_space_group_name_H-M "P -1"
_symmetry_group_IT_number 2
_symmetry_cell_setting 'triclinic'
loop_
_space_group_symop_operation_xyz
x,y,z
-x,-y,-z
loop_
_atom_site_type_symbol
_atom_site_label
_atom_site_fract_x
_atom_site_fract_y
_atom_site_fract_z
Si Si1 0.784791 0.687008 0.786013
Si Si2 0.670454 0.470874 0.663800
Si Si3 0.396288 0.221218 0.464163
Si Si4 0.652552 0.514315 0.344249
Si Si5 0.461913 0.832958 0.876142
Si Si6 0.273512 0.685060 0.777746
Si Si7 0.115771 0.834550 0.879680
Si Si8 0.080015 0.769584 0.528105
O O1 0.811799 0.824841 0.570659
O O2 0.964402 0.778688 0.810467
O O3 0.870201 0.654713 0.735170
O O4 0.500000 0.500000 0.000000
O O5 0.665732 0.468607 0.527320
O O6 0.481939 0.447630 0.719020
O O7 0.948109 0.661313 0.518061
O O8 0.606620 0.312523 0.885497
O O9 0.499709 0.339261 0.453513
O O10 0.622030 0.348443 0.250804
O O11 0.283659 0.036651 0.699314
O O12 0.929435 0.696423 0.121907
O O13 0.450105 0.803080 0.772374
O O14 0.281422 0.825699 0.892652
O O15 0.750736 0.024691 0.715502
O O16 0.278033 0.795733 0.566507
O O17 0.000000 0.500000 0.000000
#
# Coordination Sequence:
#
# PCOD8036462 Si02
#       8
#     2   2   2   2   2   2   2   2
#     4  12  23  41  68 104 137 173 217 269 338 397
#     4  11  27  48  71  93 128 181 229 276 326 390
#     4  12  25  42  68 104 137 172 218 276 331 393
#     4  11  27  49  68  96 130 175 232 277 328 384
#     4  12  26  43  70 101 136 179 216 267 337 400
#     4  12  22  40  69 101 140 175 210 268 333 402
#     4  12  25  44  68 103 138 173 216 274 334 397
#     4  12  23  44  67 101 136 173 221 267 331 402
#
# _framework density 21.113099999999999
#
# number of rings (size 3 to 8) (size 9 to 14) (size 15 to 20)
#    0.000    0.250    6.250    3.000    3.500    1.500 
#    0.000    3.750    0.000    0.000    0.000    0.000 
#    0.000    0.000    0.000    0.000    0.000    0.000 
#
# Total GULP energy -198444.540496 kJ/mol
# GULP energy per Si atom -12402.783781 kJ/mol
# Density = 2.106505 g / cm^3
# Si number density = 21.113100 Si / 1000 Ang^3
#
#
#
# Elastic Constant Matrix: (Units=GPa)
#
#
# Indices 1 2 3 4 5 6 
#
# 1 80.5430 56.4053 98.8400 28.0501 22.4887 -14.9896
# 2 56.4053 139.4212 100.9447 6.3278 10.5859 -9.5047
# 3 98.8400 100.9447 41.6117 -41.8815 -24.2661 11.3201
# 4 28.0501 6.3278 -41.8815 24.9874 -7.0229 3.9437
# 5 22.4887 10.5859 -24.2661 -7.0229 27.1474 4.8558
# 6 -14.9896 -9.5047 11.3201 3.9437 4.8558 30.8025
#
#
#
# Elastic Compliance Matrix: (Units=1/GPa)
#
#
# Indices 1 2 3 4 5 6 
#
# 1 0.008394 -0.008244 0.006003 0.003793 0.002895 -0.001607
# 2 -0.008244 0.011247 -0.001626 0.004467 0.002303 -0.000879
# 3 0.006003 -0.001626 0.000510 -0.008049 -0.006739 0.004325
# 4 0.003793 0.004467 -0.008049 0.017970 -0.008360 0.005199
# 5 0.002895 0.002303 -0.006739 -0.008360 0.025046 0.001718
# 6 -0.001607 -0.000879 0.004325 0.005199 0.001718 0.028886
#
#
# Mechanical properties :
#
#
# Convention : Reuss Voigt Hill
#
# Bulk Modulus (GPa) = 80.52992 85.99509 83.26251
# Shear Modulus (GPa) = 48.11157 16.94652 32.52904
#
# Velocity S-wave (km/s) = 4.77881 2.83619 3.92944
# Velocity P-wave (km/s) = 8.28700 7.17944 7.75302
#
# Compressibility (1/GPa) = 0.01241775
#
# Stress axis : x y z
#
# Youngs Moduli (GPa) = 119.13130 88.91099 1961.90586
#
# Poissons Ratio (x) = 0.73295 -11.77670
# Poissons Ratio (y) = 0.98207 3.18948
# Poissons Ratio (z) = -0.71511 0.14454
#
# Static dielectric constant tensor:
#      x y z
#    x 4.218240 0.069460 0.106350 
#    y 0.069460 3.870470 -0.047140 
#    z 0.106350 -0.047140 3.859400 
# 
# 
# High freq. dielectric constant tensor:
#      x y z
#    x 1.847790 0.000700 0.003430 
#    y 0.000700 1.820830 -0.008380 
#    z 0.003430 -0.008380 1.831730 
# 
# From -- ./inp_files/281481.got.cif
#   From: 2010.06.25/outbox.cif.g09.slc.cpg/sg2_141_cif.got.tgz:281481.got - 2010.06.27 13:26:56.
