data_PCOD8036518
_publ_section_title
;
Structure prediction by ZEFSAII (Michael W. Deem and Ramdas Pophale) SiO2 
 PCOD8036518
Probable space group: P -1
;
_chemical_formula_sum "Si O2"
_cell_formula_units_Z 16
_cell_length_a 11.521002
_cell_length_b 7.711986
_cell_length_c 10.993411
_cell_angle_alpha 118.904129
_cell_angle_beta 124.105675
_cell_angle_gamma 61.947288
_cell_volume 680.738795
_symmetry_space_group_name_H-M "P -1"
_symmetry_group_IT_number 2
_symmetry_cell_setting 'triclinic'
loop_
_space_group_symop_operation_xyz
x,y,z
-x,-y,-z
loop_
_atom_site_type_symbol
_atom_site_label
_atom_site_fract_x
_atom_site_fract_y
_atom_site_fract_z
Si Si1 0.897883 0.386235 0.335058
Si Si2 0.831020 0.728493 0.680328
Si Si3 0.128931 0.029728 0.780074
Si Si4 0.892207 0.417618 0.821969
Si Si5 0.166935 0.944758 0.041136
Si Si6 0.569043 0.809757 0.386862
Si Si7 0.647200 0.446762 0.873592
Si Si8 0.317128 0.258514 0.815440
O O1 0.008261 0.249444 0.253162
O O2 0.000000 0.500000 0.500000
O O3 0.764093 0.542546 0.244153
O O4 0.860363 0.206382 0.334750
O O5 0.860602 0.528144 0.712499
O O6 0.751183 0.934083 0.777953
O O7 0.732698 0.701799 0.497894
O O8 0.214105 0.129129 0.765629
O O9 0.963907 0.177663 0.748529
O O10 0.200185 0.015599 0.950802
O O11 0.737495 0.460701 0.811012
O O12 0.000000 0.500000 0.000000
O O13 0.246342 0.705903 0.021730
O O14 0.000000 0.000000 0.000000
O O15 0.488345 0.629454 0.278099
O O16 0.576795 0.879463 0.272509
O O17 0.500000 0.000000 0.500000
O O18 0.599773 0.662044 0.996363
#
# Coordination Sequence:
#
# PCOD8036518 Si02
#       8
#     2   2   2   2   2   2   2   2
#     4  12  24  43  70 108 148 183 229 311 372 423
#     4  12  22  43  68 108 152 186 242 294 365 438
#     4  12  24  41  74 117 141 181 238 308 377 419
#     4  12  21  39  76 117 143 176 239 308 367 436
#     4  12  19  36  75 107 138 182 235 301 362 422
#     4  12  29  49  69  97 150 212 238 294 373 447
#     4  12  23  45  74 103 147 195 248 295 363 440
#     4  12  25  48  75 108 141 189 257 306 359 433
#
# _framework density 23.503876000000002
#
# number of rings (size 3 to 8) (size 9 to 14) (size 15 to 20)
#    0.000    0.000   10.000    0.375    0.000    1.000 
#    2.250    1.875    0.000    0.000    0.000    0.000 
#    0.000    0.000    0.000    0.000    0.000    0.000 
#
# Total GULP energy -198252.822706 kJ/mol
# GULP energy per Si atom -12390.801419 kJ/mol
# Density = 2.345038 g / cm^3
# Si number density = 23.503876 Si / 1000 Ang^3
#
#
#
# Elastic Constant Matrix: (Units=GPa)
#
#
# Indices 1 2 3 4 5 6 
#
# 1 95.8160 5.0589 19.3247 10.3325 -9.1103 10.6805
# 2 5.0589 81.2733 4.5957 15.4020 -5.7108 23.1621
# 3 19.3247 4.5957 104.3251 25.8308 -3.2546 5.5524
# 4 10.3325 15.4020 25.8308 38.9838 -2.8854 2.8848
# 5 -9.1103 -5.7108 -3.2546 -2.8854 38.6166 0.1364
# 6 10.6805 23.1621 5.5524 2.8848 0.1364 28.1793
#
#
#
# Elastic Compliance Matrix: (Units=1/GPa)
#
#
# Indices 1 2 3 4 5 6 
#
# 1 0.011695 0.001414 -0.001327 -0.002200 0.002710 -0.005121
# 2 0.001414 0.017911 0.001610 -0.007224 0.002631 -0.014848
# 3 -0.001327 0.001610 0.011863 -0.007946 0.000339 -0.002346
# 4 -0.002200 -0.007224 -0.007946 0.034015 0.000267 0.004854
# 5 0.002710 0.002631 0.000339 0.000267 0.026985 -0.003414
# 6 -0.005121 -0.014848 -0.002346 0.004854 -0.003414 0.049614
#
#
# Mechanical properties :
#
#
# Convention : Reuss Voigt Hill
#
# Bulk Modulus (GPa) = 22.28991 37.70812 29.99901
# Shear Modulus (GPa) = 30.55426 37.98495 34.26960
#
# Velocity S-wave (km/s) = 3.60942 4.02445 3.82257
# Velocity P-wave (km/s) = 5.18407 6.13785 5.68101
#
# Compressibility (1/GPa) = 0.04486336
#
# Stress axis : x y z
#
# Youngs Moduli (GPa) = 85.50371 55.83296 84.29396
#
# Poissons Ratio (x) = -0.07894 0.11185
# Poissons Ratio (y) = -0.12089 -0.13573
# Poissons Ratio (z) = 0.11346 -0.08990
#
# Static dielectric constant tensor:
#      x y z
#    x 6.001500 -0.737890 -1.121410 
#    y -0.737890 4.606480 0.588740 
#    z -1.121410 0.588740 4.956070 
# 
# 
# High freq. dielectric constant tensor:
#      x y z
#    x 1.927510 0.001650 -0.017580 
#    y 0.001650 1.920280 0.016270 
#    z -0.017580 0.016270 1.945410 
# 
# From -- ./inp_files/418258.got.cif
#   From: 2010.06.25/outbox.cif.g09.slc.cpg/sg2_210_cif.got.tgz:418258.got - 2010.06.27 13:26:56.
