data_PCOD8036887
_publ_section_title
;
Structure prediction by ZEFSAII (Michael W. Deem and Ramdas Pophale) SiO2 
 PCOD8036887
Probable space group: P -1
;
_chemical_formula_sum "Si O2"
_cell_formula_units_Z 14
_cell_length_a 17.829450
_cell_length_b 5.134799
_cell_length_c 18.686824
_cell_angle_alpha 66.018415
_cell_angle_beta 24.524133
_cell_angle_gamma 64.769930
_cell_volume 641.574802
_symmetry_space_group_name_H-M "P -1"
_symmetry_group_IT_number 2
_symmetry_cell_setting 'triclinic'
loop_
_space_group_symop_operation_xyz
x,y,z
-x,-y,-z
loop_
_atom_site_type_symbol
_atom_site_label
_atom_site_fract_x
_atom_site_fract_y
_atom_site_fract_z
Si Si1 0.811462 0.492767 0.697127
Si Si2 0.704159 0.670486 0.030917
Si Si3 0.103276 0.781584 0.191934
Si Si4 0.891204 0.227696 0.123875
Si Si5 0.740938 0.015972 0.418455
Si Si6 0.396354 0.903258 0.166453
Si Si7 0.518469 0.438774 0.352655
O O1 0.820206 0.357671 0.783841
O O2 0.722185 0.320827 0.734727
O O3 0.000000 0.500000 0.500000
O O4 0.720132 0.817094 0.732604
O O5 0.522923 0.750991 0.134344
O O6 0.640959 0.524515 0.172394
O O7 0.850957 0.451535 0.884375
O O8 0.795230 0.946793 0.942126
O O9 0.882465 0.873901 0.373230
O O10 0.881251 0.090528 0.226583
O O11 0.674618 0.306710 0.287211
O O12 0.000000 0.500000 0.000000
O O13 0.000000 0.000000 0.000000
O O14 0.613331 0.294206 0.528811
O O15 0.608270 0.795419 0.532981
O O16 0.500000 0.000000 0.000000
#
# Coordination Sequence:
#
# PCOD8036887 Si02
#       7
#     2   2   2   2   2   2   2
#     4  12  26  41  65  93 131 168 220 274 332 381
#     4  12  25  42  68  92 131 171 225 263 324 390
#     4  12  24  44  63  95 130 175 216 268 324 390
#     4  12  24  46  74 100 133 174 215 257 321 390
#     4  12  26  44  69  99 139 167 214 269 322 379
#     4  12  23  44  65  93 124 175 220 274 321 380
#     4  12  26  44  68 102 132 171 214 269 322 379
#
# _framework density 21.821307000000001
#
# number of rings (size 3 to 8) (size 9 to 14) (size 15 to 20)
#    0.000    0.000    2.857    7.714    4.000    0.000 
#    0.000    0.000    0.000    0.000    0.000    0.000 
#    0.000    0.000    0.000    0.000    0.000    0.000 
#
# Total GULP energy -173579.910218 kJ/mol
# GULP energy per Si atom -12398.565016 kJ/mol
# Density = 2.177164 g / cm^3
# Si number density = 21.821307 Si / 1000 Ang^3
#
#
#
# Elastic Constant Matrix: (Units=GPa)
#
#
# Indices 1 2 3 4 5 6 
#
# 1 78.2158 22.2733 7.4836 5.4496 -24.1694 4.2281
# 2 22.2733 124.7593 37.5433 13.7525 0.4883 31.0929
# 3 7.4836 37.5433 99.2965 5.4956 -12.1041 12.0820
# 4 5.4496 13.7525 5.4956 66.2863 4.7356 -5.6859
# 5 -24.1694 0.4883 -12.1041 4.7356 38.0661 -6.4825
# 6 4.2281 31.0929 12.0820 -5.6859 -6.4825 40.5103
#
#
#
# Elastic Compliance Matrix: (Units=1/GPa)
#
#
# Indices 1 2 3 4 5 6 
#
# 1 0.017582 -0.004159 0.001497 -0.001356 0.012320 0.002692
# 2 -0.004159 0.012466 -0.003798 -0.002339 -0.005279 -0.009174
# 3 0.001497 -0.003798 0.012047 -0.000696 0.004891 -0.000149
# 4 -0.001356 -0.002339 -0.000696 0.016258 -0.002386 0.004045
# 5 0.012320 -0.005279 0.004891 -0.002386 0.037191 0.006924
# 6 0.002692 -0.009174 -0.000149 0.004045 0.006924 0.033166
#
#
# Mechanical properties :
#
#
# Convention : Reuss Voigt Hill
#
# Bulk Modulus (GPa) = 34.27592 48.54134 41.40863
# Shear Modulus (GPa) = 33.03506 44.63729 38.83617
#
# Velocity S-wave (km/s) = 3.89510 4.52772 4.22327
# Velocity P-wave (km/s) = 5.99756 7.04463 6.54208
#
# Compressibility (1/GPa) = 0.02917500
#
# Stress axis : x y z
#
# Youngs Moduli (GPa) = 56.87580 80.22036 83.00984
#
# Poissons Ratio (x) = 0.33363 -0.12424
# Poissons Ratio (y) = 0.23654 0.31523
# Poissons Ratio (z) = -0.08512 0.30464
#
# Static dielectric constant tensor:
#      x y z
#    x 4.120800 0.068290 -0.088810 
#    y 0.068290 4.202270 0.079750 
#    z -0.088810 0.079750 4.049520 
# 
# 
# High freq. dielectric constant tensor:
#      x y z
#    x 1.875360 0.001120 -0.009750 
#    y 0.001120 1.880940 0.003450 
#    z -0.009750 0.003450 1.873510 
# 
# From -- ./inp_files/140379.got.cif
#   From: 2010.06.25/outbox.cif.g09.slc.cpg/sg2_71_cif.got.tgz:140379.got - 2010.06.27 13:26:56.
