data_PCOD8036468
_publ_section_title
;
Structure prediction by ZEFSAII (Michael W. Deem and Ramdas Pophale) SiO2 
 PCOD8036468
Probable space group: P -1
;
_chemical_formula_sum "Si O2"
_cell_formula_units_Z 12
_cell_length_a 17.415195
_cell_length_b 10.405627
_cell_length_c 5.071453
_cell_angle_alpha 92.518885
_cell_angle_beta 77.016058
_cell_angle_gamma 144.918456
_cell_volume 498.379015
_symmetry_space_group_name_H-M "P -1"
_symmetry_group_IT_number 2
_symmetry_cell_setting 'triclinic'
loop_
_space_group_symop_operation_xyz
x,y,z
-x,-y,-z
loop_
_atom_site_type_symbol
_atom_site_label
_atom_site_fract_x
_atom_site_fract_y
_atom_site_fract_z
Si Si1 0.014534 0.109750 0.249627
Si Si2 0.403170 0.384973 0.819012
Si Si3 0.871975 0.137107 0.100120
Si Si4 0.684036 0.443803 0.061676
Si Si5 0.099304 0.562168 0.633799
Si Si6 0.370182 0.771718 0.406300
O O1 0.905788 0.083555 0.311223
O O2 0.166420 0.382691 0.174210
O O3 0.000000 0.000000 0.500000
O O4 0.000000 0.000000 0.000000
O O5 0.500000 0.500000 0.500000
O O6 0.338624 0.437120 0.892876
O O7 0.277672 0.111095 0.922595
O O8 0.500000 0.500000 0.000000
O O9 0.851767 0.259771 0.189187
O O10 0.006558 0.319455 0.811132
O O11 0.692080 0.414543 0.356472
O O12 0.579868 0.227177 0.912598
O O13 0.248647 0.711237 0.422820
O O14 0.000000 0.500000 0.500000
O O15 0.500000 0.000000 0.500000
#
# Coordination Sequence:
#
# PCOD8036468 Si02
#       6
#     2   2   2   2   2   2
#     4  12  25  44  77 110 143 190 248 314 376 446
#     4  12  30  48  75 112 154 199 251 316 390 459
#     4  11  27  49  74 112 152 200 257 316 383 462
#     4  12  26  49  75 110 147 197 256 307 387 453
#     4  11  27  48  80 110 154 208 258 315 383 460
#     4  12  28  49  77 112 153 203 257 317 379 457
#
# _framework density 24.078061000000002
#
# number of rings (size 3 to 8) (size 9 to 14) (size 15 to 20)
#    0.000    0.333    3.333    3.500   14.000    0.000 
#    0.000    0.000    0.000    0.000    0.000    0.000 
#    0.000    0.000    0.000    0.000    0.000    0.000 
#
# Total GULP energy -148687.264955 kJ/mol
# GULP energy per Si atom -12390.605413 kJ/mol
# Density = 2.402326 g / cm^3
# Si number density = 24.078061 Si / 1000 Ang^3
#
#
#
# Elastic Constant Matrix: (Units=GPa)
#
#
# Indices 1 2 3 4 5 6 
#
# 1 109.4427 58.0935 29.7524 -5.6430 21.3124 10.5592
# 2 58.0935 149.0495 15.5753 8.5729 -8.0948 3.1954
# 3 29.7524 15.5753 88.1314 20.0450 11.9118 0.5037
# 4 -5.6430 8.5729 20.0450 36.9721 0.5963 3.2038
# 5 21.3124 -8.0948 11.9118 0.5963 46.8001 -0.4670
# 6 10.5592 3.1954 0.5037 3.2038 -0.4670 39.0646
#
#
#
# Elastic Compliance Matrix: (Units=1/GPa)
#
#
# Indices 1 2 3 4 5 6 
#
# 1 0.016151 -0.006497 -0.004906 0.007136 -0.007365 -0.004444
# 2 -0.006497 0.009598 0.000750 -0.003811 0.004490 0.001328
# 3 -0.004906 0.000750 0.015153 -0.009273 -0.001357 0.001814
# 4 0.007136 -0.003811 -0.009273 0.034457 -0.002031 -0.004348
# 5 -0.007365 0.004490 -0.001357 -0.002031 0.025890 0.002117
# 6 -0.004444 0.001328 0.001814 -0.004348 0.002117 0.027050
#
#
# Mechanical properties :
#
#
# Convention : Reuss Voigt Hill
#
# Bulk Modulus (GPa) = 51.03754 61.49622 56.26688
# Shear Modulus (GPa) = 32.02299 40.78086 36.40192
#
# Velocity S-wave (km/s) = 3.65083 4.11992 3.89244
# Velocity P-wave (km/s) = 6.24613 6.94460 6.60460
#
# Compressibility (1/GPa) = 0.01959342
#
# Stress axis : x y z
#
# Youngs Moduli (GPa) = 61.91633 104.18991 65.99520
#
# Poissons Ratio (x) = 0.67696 0.32378
# Poissons Ratio (y) = 0.40230 -0.04947
# Poissons Ratio (z) = 0.30377 -0.07810
#
# Static dielectric constant tensor:
#      x y z
#    x 3.908120 0.289210 -0.881920 
#    y 0.289210 5.034500 0.157060 
#    z -0.881920 0.157060 2.894690 
# 
# 
# High freq. dielectric constant tensor:
#      x y z
#    x 1.964890 -0.003850 0.007980 
#    y -0.003850 1.978640 0.008640 
#    z 0.007980 0.008640 1.951160 
# 
# From -- ./inp_files/90402.got.cif
#   From: 2010.06.25/outbox.cif.g09.slc.cpg/sg2_46_cif.got.tgz:90402.got - 2010.06.27 13:26:56.
