data_PCOD8036229
_publ_section_title
;
Structure prediction by ZEFSAII (Michael W. Deem and Ramdas Pophale) SiO2 
 PCOD8036229
Probable space group: P -1
;
_chemical_formula_sum "Si O2"
_cell_formula_units_Z 10
_cell_length_a 9.204834
_cell_length_b 8.628935
_cell_length_c 5.242864
_cell_angle_alpha 90.921359
_cell_angle_beta 75.032588
_cell_angle_gamma 63.380523
_cell_volume 355.445704
_symmetry_space_group_name_H-M "P -1"
_symmetry_group_IT_number 2
_symmetry_cell_setting 'triclinic'
loop_
_space_group_symop_operation_xyz
x,y,z
-x,-y,-z
loop_
_atom_site_type_symbol
_atom_site_label
_atom_site_fract_x
_atom_site_fract_y
_atom_site_fract_z
Si Si1 0.110432 0.579345 0.709560
Si Si2 0.912445 0.878961 0.506213
Si Si3 0.372632 0.693834 0.646739
Si Si4 0.229672 0.228904 0.855705
Si Si5 0.407416 0.873225 0.131545
O O1 0.197955 0.688710 0.803724
O O2 0.239563 0.370073 0.648088
O O3 0.053493 0.671865 0.456245
O O4 0.923318 0.632088 0.903232
O O5 0.815417 0.906766 0.280587
O O6 0.766543 0.935262 0.806704
O O7 0.000000 0.000000 0.500000
O O8 0.500000 0.500000 0.500000
O O9 0.349564 0.810403 0.410729
O O10 0.438237 0.752278 0.868767
O O11 0.418759 0.114395 0.890431
#
# Coordination Sequence:
#
# PCOD8036229 Si02
#       5
#     2   2   2   2   2
#     4  11  26  46  77 105 156 195 261 299 385 442
#     4  12  26  47  75 110 155 199 250 314 383 447
#     4  12  26  49  80 111 152 202 254 307 378 459
#     4  11  27  47  74 113 149 204 251 317 370 455
#     4  12  28  47  80 112 152 199 254 314 378 445
#
# _framework density 28.133693999999998
#
# number of rings (size 3 to 8) (size 9 to 14) (size 15 to 20)
#    0.000    0.400    4.000    3.000    5.600    4.000 
#    0.000    0.000    0.000    0.000    0.000    0.000 
#    0.000    0.000    0.000    0.000    0.000    0.000 
#
# Total GULP energy -123901.096081 kJ/mol
# GULP energy per Si atom -12390.109608 kJ/mol
# Density = 2.806966 g / cm^3
# Si number density = 28.133694 Si / 1000 Ang^3
#
#
#
# Elastic Constant Matrix: (Units=GPa)
#
#
# Indices 1 2 3 4 5 6 
#
# 1 222.5117 54.4126 48.6400 0.6879 18.7063 -1.9615
# 2 54.4126 130.3525 21.8192 3.3444 11.5159 -34.3306
# 3 48.6400 21.8192 96.6426 9.2463 23.4243 2.2332
# 4 0.6879 3.3444 9.2463 36.0376 8.0122 -1.8015
# 5 18.7063 11.5159 23.4243 8.0122 62.2538 1.1261
# 6 -1.9615 -34.3306 2.2332 -1.8015 1.1261 51.9480
#
#
#
# Elastic Compliance Matrix: (Units=1/GPa)
#
#
# Indices 1 2 3 4 5 6 
#
# 1 0.005550 -0.002217 -0.002216 0.000722 -0.000497 -0.001124
# 2 -0.002217 0.010762 -0.001234 -0.000067 -0.000980 0.007100
# 3 -0.002216 -0.001234 0.012883 -0.002418 -0.003616 -0.001459
# 4 0.000722 -0.000067 -0.002418 0.029100 -0.003061 0.001163
# 5 -0.000497 -0.000980 -0.003616 -0.003061 0.018167 -0.001011
# 6 -0.001124 0.007100 -0.001459 0.001163 -0.001011 0.024025
#
#
# Mechanical properties :
#
#
# Convention : Reuss Voigt Hill
#
# Bulk Modulus (GPa) = 55.98667 77.69446 66.84057
# Shear Modulus (GPa) = 42.45460 51.69021 47.07241
#
# Velocity S-wave (km/s) = 3.88884 4.29103 4.09488
# Velocity P-wave (km/s) = 6.33305 7.22681 6.79464
#
# Compressibility (1/GPa) = 0.01786139
#
# Stress axis : x y z
#
# Youngs Moduli (GPa) = 180.17536 92.92241 77.62421
#
# Poissons Ratio (x) = 0.20598 0.17199
# Poissons Ratio (y) = 0.39939 0.09580
# Poissons Ratio (z) = 0.39921 0.11468
#
# Static dielectric constant tensor:
#      x y z
#    x 5.623840 -0.246930 -0.269690 
#    y -0.246930 6.881580 -0.699320 
#    z -0.269690 -0.699320 4.957940 
# 
# 
# High freq. dielectric constant tensor:
#      x y z
#    x 2.166210 -0.009630 -0.015300 
#    y -0.009630 2.186120 -0.032500 
#    z -0.015300 -0.032500 2.124530 
# 
# From -- ./inp_files/19000.got.cif
#   From: 2010.06.25/outbox.cif.g09.slc.cpg/sg2_10_cif.got.tgz:19000.got - 2010.06.27 13:26:56.
