data_PCOD8036357
_publ_section_title
;
Structure prediction by ZEFSAII (Michael W. Deem and Ramdas Pophale) SiO2 
 PCOD8036357
Probable space group: P -1
;
_chemical_formula_sum "Si O2"
_cell_formula_units_Z 16
_cell_length_a 17.527424
_cell_length_b 26.961711
_cell_length_c 27.361724
_cell_angle_alpha 10.405861
_cell_angle_beta 18.707461
_cell_angle_gamma 17.763988
_cell_volume 699.465015
_symmetry_space_group_name_H-M "P -1"
_symmetry_group_IT_number 2
_symmetry_cell_setting 'triclinic'
loop_
_space_group_symop_operation_xyz
x,y,z
-x,-y,-z
loop_
_atom_site_type_symbol
_atom_site_label
_atom_site_fract_x
_atom_site_fract_y
_atom_site_fract_z
Si Si1 0.319177 0.445563 0.044556
Si Si2 0.639472 0.774319 0.486994
Si Si3 0.296647 0.008432 0.941895
Si Si4 0.917285 0.474261 0.179142
Si Si5 0.865451 0.933804 0.692564
Si Si6 0.094944 0.253481 0.924842
Si Si7 0.204148 0.484397 0.458762
Si Si8 0.606041 0.336740 0.644059
O O1 0.092537 0.512039 0.078983
O O2 0.188606 0.544825 0.080784
O O3 0.499145 0.113114 0.253765
O O4 0.502220 0.621979 0.753403
O O5 0.617902 0.684746 0.530531
O O6 0.932377 0.695620 0.399357
O O7 0.107100 0.078814 0.035774
O O8 0.167193 0.243574 0.750495
O O9 0.568277 0.025626 0.773442
O O10 0.337926 0.682833 0.212767
O O11 0.623620 0.676442 0.170293
O O12 0.924694 0.141491 0.496095
O O13 0.986573 0.599724 0.964112
O O14 0.000000 0.000000 0.500000
O O15 0.241514 0.472963 0.609956
O O16 0.214733 0.009188 0.132097
O O17 0.500000 0.500000 0.500000
#
# Coordination Sequence:
#
# PCOD8036357 Si02
#       8
#     2   2   2   2   2   2   2   2
#     4  12  26  42  72 102 141 177 230 287 348 395
#     4  11  26  50  71 104 127 169 239 300 346 408
#     4  12  24  45  71 103 137 186 224 273 351 419
#     4  12  24  42  63  99 139 190 222 272 332 406
#     4  12  27  42  63 101 148 180 229 275 333 413
#     4  12  25  42  65 103 145 182 228 281 333 423
#     4  11  26  48  78  95 130 177 232 294 351 411
#     4  12  22  40  64  93 140 189 234 267 315 400
#
# _framework density 22.874625999999999
#
# number of rings (size 3 to 8) (size 9 to 14) (size 15 to 20)
#    0.000    0.250    3.750    5.250    7.000    2.000 
#    0.000    3.750    0.000    0.000    0.000    0.000 
#    0.000    0.000    0.000    0.000    0.000    0.000 
#
# Total GULP energy -198390.444348 kJ/mol
# GULP energy per Si atom -12399.402772 kJ/mol
# Density = 2.282256 g / cm^3
# Si number density = 22.874626 Si / 1000 Ang^3
#
#
#
# Elastic Constant Matrix: (Units=GPa)
#
#
# Indices 1 2 3 4 5 6 
#
# 1 58.1977 23.4694 16.5148 7.0346 9.5142 20.3238
# 2 23.4694 116.3546 41.2400 -5.8579 8.0098 21.3147
# 3 16.5148 41.2400 139.9186 -7.2828 7.3592 2.9222
# 4 7.0346 -5.8579 -7.2828 41.6540 0.3125 4.8032
# 5 9.5142 8.0098 7.3592 0.3125 39.1094 1.1215
# 6 20.3238 21.3147 2.9222 4.8032 1.1215 27.4295
#
#
#
# Elastic Compliance Matrix: (Units=1/GPa)
#
#
# Indices 1 2 3 4 5 6 
#
# 1 0.025335 -0.000990 -0.002223 -0.002800 -0.005030 -0.017070
# 2 -0.000990 0.011553 -0.002927 0.002244 -0.001355 -0.008270
# 3 -0.002223 -0.002927 0.008296 0.001087 -0.000512 0.002869
# 4 -0.002800 0.002244 0.001087 0.025476 -0.000065 -0.004243
# 5 -0.005030 -0.001355 -0.000512 -0.000065 0.027060 0.003740
# 6 -0.017070 -0.008270 0.002869 -0.004243 0.003740 0.055815
#
#
# Mechanical properties :
#
#
# Convention : Reuss Voigt Hill
#
# Bulk Modulus (GPa) = 30.39311 52.99103 41.69207
# Shear Modulus (GPa) = 28.28323 37.18836 32.73579
#
# Velocity S-wave (km/s) = 3.52013 4.03643 3.78709
# Velocity P-wave (km/s) = 5.46236 6.70372 6.11462
#
# Compressibility (1/GPa) = 0.03290219
#
# Stress axis : x y z
#
# Youngs Moduli (GPa) = 39.47135 86.55894 120.54216
#
# Poissons Ratio (x) = 0.08569 0.26799
# Poissons Ratio (y) = 0.03908 0.35289
# Poissons Ratio (z) = 0.08775 0.25340
#
# Static dielectric constant tensor:
#      x y z
#    x 4.148390 0.320470 -0.103630 
#    y 0.320470 4.319990 -0.140390 
#    z -0.103630 -0.140390 4.720540 
# 
# 
# High freq. dielectric constant tensor:
#      x y z
#    x 1.888350 0.013770 0.002390 
#    y 0.013770 1.903210 -0.003930 
#    z 0.002390 -0.003930 1.926780 
# 
# From -- ./inp_files/434051.got.cif
#   From: 2010.06.25/outbox.cif.g09.slc.cpg/sg2_218_cif.got.tgz:434051.got - 2010.06.27 13:26:56.
