data_PCOD8036079
_publ_section_title
;
Structure prediction by ZEFSAII (Michael W. Deem and Ramdas Pophale) SiO2 
 PCOD8036079
Probable space group: P -1
;
_chemical_formula_sum "Si O2"
_cell_formula_units_Z 16
_cell_length_a 16.223306
_cell_length_b 9.190369
_cell_length_c 5.178923
_cell_angle_alpha 112.692478
_cell_angle_beta 88.380332
_cell_angle_gamma 99.256189
_cell_volume 702.633139
_symmetry_space_group_name_H-M "P -1"
_symmetry_group_IT_number 2
_symmetry_cell_setting 'triclinic'
loop_
_space_group_symop_operation_xyz
x,y,z
-x,-y,-z
loop_
_atom_site_type_symbol
_atom_site_label
_atom_site_fract_x
_atom_site_fract_y
_atom_site_fract_z
Si Si1 0.005111 0.878862 0.633598
Si Si2 0.792480 0.569207 0.915293
Si Si3 0.047956 0.564230 0.289627
Si Si4 0.551137 0.559627 0.286601
Si Si5 0.288019 0.567646 0.669820
Si Si6 0.308693 0.943701 0.963356
Si Si7 0.146379 0.099462 0.054026
Si Si8 0.412006 0.062081 0.529164
O O1 0.053358 0.751840 0.409837
O O2 0.070923 0.958601 0.894689
O O3 0.000000 0.000000 0.500000
O O4 0.907807 0.811064 0.676532
O O5 0.861442 0.478937 0.726362
O O6 0.719330 0.518642 0.671433
O O7 0.780704 0.509120 0.168643
O O8 0.818118 0.762370 0.060418
O O9 0.000000 0.500000 0.500000
O O10 0.000000 0.500000 0.000000
O O11 0.500000 0.500000 0.500000
O O12 0.629819 0.469931 0.222866
O O13 0.575842 0.750845 0.410357
O O14 0.500000 0.500000 0.000000
O O15 0.287285 0.756253 0.769825
O O16 0.224515 0.017866 0.082749
O O17 0.359946 0.031954 0.778759
O O18 0.362721 0.965121 0.233074
O O19 0.500000 0.000000 0.500000
#
# Coordination Sequence:
#
# PCOD8036079 Si02
#       8
#     2   2   2   2   2   2   2   2
#     4  11  26  43  70  96 139 180 238 283 350 407
#     4  12  25  44  68  95 137 175 232 276 345 399
#     4  12  25  45  67  97 129 180 226 281 342 402
#     4  12  24  44  71 102 139 176 223 272 336 406
#     4  12  26  44  68 101 134 180 223 285 335 405
#     4  12  26  45  71 101 142 177 232 280 345 405
#     4  11  26  44  66 102 135 186 227 292 342 414
#     4  12  25  46  73 104 138 182 225 281 342 411
#
# _framework density 22.771484999999998
#
# number of rings (size 3 to 8) (size 9 to 14) (size 15 to 20)
#    0.000    0.250    1.250    7.875    7.000    0.000 
#    0.000    0.000    0.000    0.000    0.000    0.000 
#    0.000    0.000    0.000    0.000    0.000    0.000 
#
# Total GULP energy -198274.737865 kJ/mol
# GULP energy per Si atom -12392.171117 kJ/mol
# Density = 2.271966 g / cm^3
# Si number density = 22.771485 Si / 1000 Ang^3
#
#
#
# Elastic Constant Matrix: (Units=GPa)
#
#
# Indices 1 2 3 4 5 6 
#
# 1 135.6916 29.5752 22.9611 1.6041 -7.5458 -15.7302
# 2 29.5752 143.7123 17.6371 5.3308 -9.6038 -3.6281
# 3 22.9611 17.6371 96.7659 -14.3313 10.6069 7.0143
# 4 1.6041 5.3308 -14.3313 48.7459 -3.8549 -7.0385
# 5 -7.5458 -9.6038 10.6069 -3.8549 38.5505 3.1008
# 6 -15.7302 -3.6281 7.0143 -7.0385 3.1008 40.7529
#
#
#
# Elastic Compliance Matrix: (Units=1/GPa)
#
#
# Indices 1 2 3 4 5 6 
#
# 1 0.008517 -0.001273 -0.002246 -0.000177 0.001676 0.003402
# 2 -0.001273 0.007568 -0.001451 -0.001045 0.001922 0.000105
# 3 -0.002246 -0.001451 0.012168 0.003195 -0.003648 -0.002261
# 4 -0.000177 -0.001045 0.003195 0.022076 0.000789 0.003041
# 5 0.001676 0.001922 -0.003648 0.000789 0.027873 -0.000539
# 6 0.003402 0.000105 -0.002261 0.003041 -0.000539 0.026816
#
#
# Mechanical properties :
#
#
# Convention : Reuss Voigt Hill
#
# Bulk Modulus (GPa) = 54.59799 57.39076 55.99437
# Shear Modulus (GPa) = 41.30157 46.00962 43.65560
#
# Velocity S-wave (km/s) = 4.26342 4.49987 4.38324
# Velocity P-wave (km/s) = 6.94725 7.22883 7.08944
#
# Compressibility (1/GPa) = 0.01831569
#
# Stress axis : x y z
#
# Youngs Moduli (GPa) = 117.41534 132.13260 82.18017
#
# Poissons Ratio (x) = 0.16815 0.18455
# Poissons Ratio (y) = 0.14942 0.11921
# Poissons Ratio (z) = 0.26367 0.19167
#
# Static dielectric constant tensor:
#      x y z
#    x 3.868580 -0.292610 -0.007230 
#    y -0.292610 4.388890 0.061060 
#    z -0.007230 0.061060 4.145600 
# 
# 
# High freq. dielectric constant tensor:
#      x y z
#    x 1.915560 -0.006720 -0.004470 
#    y -0.006720 1.918530 -0.000320 
#    z -0.004470 -0.000320 1.907100 
# 
# From -- ./inp_files/90942.got.cif
#   From: 2010.06.25/outbox.cif.g09.slc.cpg/sg2_46_cif.got.tgz:90942.got - 2010.06.27 13:26:56.
