data_PCOD8036475
_publ_section_title
;
Structure prediction by ZEFSAII (Michael W. Deem and Ramdas Pophale) SiO2 
 PCOD8036475
Probable space group: P -1
;
_chemical_formula_sum "Si O2"
_cell_formula_units_Z 14
_cell_length_a 5.264878
_cell_length_b 10.904024
_cell_length_c 14.404368
_cell_angle_alpha 41.666010
_cell_angle_beta 97.641786
_cell_angle_gamma 97.738395
_cell_volume 544.068033
_symmetry_space_group_name_H-M "P -1"
_symmetry_group_IT_number 2
_symmetry_cell_setting 'triclinic'
loop_
_space_group_symop_operation_xyz
x,y,z
-x,-y,-z
loop_
_atom_site_type_symbol
_atom_site_label
_atom_site_fract_x
_atom_site_fract_y
_atom_site_fract_z
Si Si1 0.533282 0.987060 0.682222
Si Si2 0.845185 0.297891 0.438364
Si Si3 0.608508 0.647414 0.236759
Si Si4 0.702682 0.673778 0.423963
Si Si5 0.929263 0.192072 0.932046
Si Si6 0.848503 0.712677 0.933218
Si Si7 0.141854 0.683482 0.778515
O O1 0.632333 0.862573 0.842159
O O2 0.355575 0.850627 0.687694
O O3 0.763032 0.083688 0.576173
O O4 0.383777 0.150494 0.625164
O O5 0.590790 0.421649 0.367781
O O6 0.973458 0.323022 0.327996
O O7 0.041233 0.383817 0.478086
O O8 0.746848 0.739693 0.282470
O O9 0.334062 0.734120 0.161642
O O10 0.814451 0.679113 0.146935
O O11 0.500000 0.500000 0.500000
O O12 0.916195 0.205540 0.036285
O O13 0.000000 0.000000 0.000000
O O14 0.925529 0.715990 0.826157
O O15 0.739310 0.509985 0.075237
#
# Coordination Sequence:
#
# PCOD8036475 Si02
#       7
#     2   2   2   2   2   2   2
#     4  12  27  46  80 112 160 209 270 331 409 484
#     4  12  27  49  79 115 160 211 267 332 409 488
#     4  12  27  49  80 116 162 207 272 328 417 478
#     4  12  27  48  77 115 162 206 264 338 409 483
#     4  12  28  49  83 119 161 213 268 340 408 491
#     4  11  27  49  79 113 160 209 272 335 403 480
#     4  11  27  51  76 112 160 212 274 332 405 481
#
# _framework density 25.732075999999999
#
# number of rings (size 3 to 8) (size 9 to 14) (size 15 to 20)
#    0.000    0.286    2.857    4.286    8.000    5.714 
#    0.000    0.000    0.000    0.000    0.000    0.000 
#    0.000    0.000    0.000    0.000    0.000    0.000 
#
# Total GULP energy -173465.582375 kJ/mol
# GULP energy per Si atom -12390.398741 kJ/mol
# Density = 2.567351 g / cm^3
# Si number density = 25.732076 Si / 1000 Ang^3
#
#
#
# Elastic Constant Matrix: (Units=GPa)
#
#
# Indices 1 2 3 4 5 6 
#
# 1 103.7049 29.7034 31.7043 -11.5837 21.0495 6.1215
# 2 29.7034 136.9853 43.3645 -4.9842 7.7898 0.1753
# 3 31.7043 43.3645 79.5018 -20.6046 15.4729 -7.3751
# 4 -11.5837 -4.9842 -20.6046 53.3918 -2.1898 -6.0599
# 5 21.0495 7.7898 15.4729 -2.1898 50.8724 -2.8149
# 6 6.1215 0.1753 -7.3751 -6.0599 -2.8149 37.5337
#
#
#
# Elastic Compliance Matrix: (Units=1/GPa)
#
#
# Indices 1 2 3 4 5 6 
#
# 1 0.012098 -0.001281 -0.003452 0.000693 -0.003886 -0.002825
# 2 -0.001281 0.009085 -0.005025 -0.001462 0.000548 -0.001016
# 3 -0.003452 -0.005025 0.019566 0.006804 -0.003168 0.005292
# 4 0.000693 -0.001462 0.006804 0.021863 -0.000932 0.004691
# 5 -0.003886 0.000548 -0.003168 -0.000932 0.022189 0.001523
# 6 -0.002825 -0.001016 0.005292 0.004691 0.001523 0.029020
#
#
# Mechanical properties :
#
#
# Convention : Reuss Voigt Hill
#
# Bulk Modulus (GPa) = 47.09202 58.85958 52.97580
# Shear Modulus (GPa) = 35.60902 42.72089 39.16496
#
# Velocity S-wave (km/s) = 3.72403 4.07900 3.90555
# Velocity P-wave (km/s) = 6.06893 6.71625 6.40077
#
# Compressibility (1/GPa) = 0.02123502
#
# Stress axis : x y z
#
# Youngs Moduli (GPa) = 82.65930 110.06792 51.10806
#
# Poissons Ratio (x) = 0.14096 0.17643
# Poissons Ratio (y) = 0.10586 0.25679
# Poissons Ratio (z) = 0.28535 0.55304
#
# Static dielectric constant tensor:
#      x y z
#    x 4.373330 -0.147330 -0.277530 
#    y -0.147330 4.975600 0.005210 
#    z -0.277530 0.005210 5.560120 
# 
# 
# High freq. dielectric constant tensor:
#      x y z
#    x 2.003070 -0.015630 0.002560 
#    y -0.015630 2.048010 -0.003050 
#    z 0.002560 -0.003050 2.052240 
# 
# From -- ./inp_files/482570.got.cif
#   From: 2010.06.25/outbox.cif.g09.slc.cpg/sg2_242_cif.got.tgz:482570.got - 2010.06.27 13:26:56.
