data_PCOD8036756
_publ_section_title
;
Structure prediction by ZEFSAII (Michael W. Deem and Ramdas Pophale) SiO2 
 PCOD8036756
Probable space group: P -1
;
_chemical_formula_sum "Si O2"
_cell_formula_units_Z 16
_cell_length_a 9.223565
_cell_length_b 21.128990
_cell_length_c 10.993511
_cell_angle_alpha 150.541875
_cell_angle_beta 125.562068
_cell_angle_gamma 43.924555
_cell_volume 724.374987
_symmetry_space_group_name_H-M "P -1"
_symmetry_group_IT_number 2
_symmetry_cell_setting 'triclinic'
loop_
_space_group_symop_operation_xyz
x,y,z
-x,-y,-z
loop_
_atom_site_type_symbol
_atom_site_label
_atom_site_fract_x
_atom_site_fract_y
_atom_site_fract_z
Si Si1 0.211515 0.972460 0.993398
Si Si2 0.412574 0.672133 0.207559
Si Si3 0.087430 0.549280 0.513856
Si Si4 0.288486 0.163035 0.642096
Si Si5 0.750001 0.745736 0.495738
Si Si6 0.053378 0.902638 0.577241
Si Si7 0.250001 0.747157 0.997159
Si Si8 0.446623 0.281411 0.106807
O O1 0.224715 0.892523 0.738481
O O2 0.415412 0.871818 0.005786
O O3 0.222382 0.119822 0.217309
O O4 0.000000 0.000000 0.000000
O O5 0.551219 0.739283 0.435618
O O6 0.176433 0.788570 0.335820
O O7 0.500000 0.500000 0.000000
O O8 0.407904 0.666946 0.051214
O O9 0.092103 0.690578 0.806315
O O10 0.323570 0.417751 0.370502
O O11 0.000000 0.500000 0.500000
O O12 0.948787 0.594169 0.397837
O O13 0.277619 0.244715 0.647226
O O14 0.084589 0.153260 0.519291
O O15 0.500000 0.000000 0.500000
O O16 0.275285 0.271279 0.925320
O O17 0.891793 0.074218 0.742341
O O18 0.391790 0.702117 0.870242
#
# Coordination Sequence:
#
# PCOD8036756 Si02
#       8
#     2   2   2   2   2   2   2   2
#     4  12  22  45  77 110 137 178 244 300 349 422
#     4  12  30  47  67 104 150 189 234 291 355 418
#     4  12  30  47  67 104 150 189 234 291 355 418
#     4  12  22  45  77 110 137 178 244 300 349 422
#     4  12  24  48  72 100 146 190 242 286 354 434
#     4  12  26  45  76 104 142 182 235 298 354 422
#     4  12  24  50  70 102 138 188 234 288 356 426
#     4  12  26  45  76 104 142 182 235 298 354 422
#
# _framework density 22.088007000000001
#
# number of rings (size 3 to 8) (size 9 to 14) (size 15 to 20)
#    0.000    0.000    7.500    1.500    7.000    3.000 
#    0.000    0.000    0.000    0.000    0.000    0.000 
#    0.000    0.000    0.000    0.000    0.000    0.000 
#
# Total GULP energy -198343.009529 kJ/mol
# GULP energy per Si atom -12396.438096 kJ/mol
# Density = 2.203773 g / cm^3
# Si number density = 22.088007 Si / 1000 Ang^3
#
#
#
# Elastic Constant Matrix: (Units=GPa)
#
#
# Indices 1 2 3 4 5 6 
#
# 1 121.3466 47.6975 59.2053 21.8245 9.4570 -2.1558
# 2 47.6975 138.1628 37.7484 -0.3957 5.3946 13.7233
# 3 59.2053 37.7484 95.5436 1.1150 13.6967 -1.4350
# 4 21.8245 -0.3957 1.1150 43.0889 -9.5486 2.6091
# 5 9.4570 5.3946 13.6967 -9.5486 43.0212 0.1048
# 6 -2.1558 13.7233 -1.4350 2.6091 0.1048 33.7306
#
#
#
# Elastic Compliance Matrix: (Units=1/GPa)
#
#
# Indices 1 2 3 4 5 6 
#
# 1 0.014814 -0.003276 -0.007429 -0.007999 -0.002262 0.002590
# 2 -0.003276 0.009265 -0.001810 0.002187 0.000630 -0.004227
# 3 -0.007429 -0.001810 0.016150 0.002687 -0.002687 0.000749
# 4 -0.007999 0.002187 0.002687 0.028992 0.007072 -0.003551
# 5 -0.002262 0.000630 -0.002687 0.007072 0.026091 -0.001143
# 6 0.002590 -0.004227 0.000749 -0.003551 -0.001143 0.031842
#
#
# Mechanical properties :
#
#
# Convention : Reuss Voigt Hill
#
# Bulk Modulus (GPa) = 65.79223 71.59506 68.69364
# Shear Modulus (GPa) = 31.79650 37.99494 34.89572
#
# Velocity S-wave (km/s) = 3.79824 4.15198 3.97904
# Velocity P-wave (km/s) = 7.00618 7.44776 7.23034
#
# Compressibility (1/GPa) = 0.01519936
#
# Stress axis : x y z
#
# Youngs Moduli (GPa) = 67.50231 107.93509 61.91986
#
# Poissons Ratio (x) = 0.35364 0.46000
# Poissons Ratio (y) = 0.22116 0.11205
# Poissons Ratio (z) = 0.50147 0.19531
#
# Static dielectric constant tensor:
#      x y z
#    x 3.587990 0.106980 0.661510 
#    y 0.106980 4.147640 -0.145860 
#    z 0.661510 -0.145860 3.393030 
# 
# 
# High freq. dielectric constant tensor:
#      x y z
#    x 1.865510 0.007150 0.017160 
#    y 0.007150 1.884680 -0.011160 
#    z 0.017160 -0.011160 1.872030 
# 
# From -- ./inp_files/405730.got.cif
#   From: 2010.06.25/outbox.cif.g09.slc.cpg/sg2_203_cif.got.tgz:405730.got - 2010.06.27 13:26:56.
