data_PCOD8036775
_publ_section_title
;
Structure prediction by ZEFSAII (Michael W. Deem and Ramdas Pophale) SiO2 
 PCOD8036775
Probable space group: P -1
;
_chemical_formula_sum "Si O2"
_cell_formula_units_Z 16
_cell_length_a 8.063316
_cell_length_b 23.065848
_cell_length_c 21.319279
_cell_angle_alpha 161.344975
_cell_angle_beta 129.113507
_cell_angle_gamma 43.102698
_cell_volume 832.318254
_symmetry_space_group_name_H-M "P -1"
_symmetry_group_IT_number 2
_symmetry_cell_setting 'triclinic'
loop_
_space_group_symop_operation_xyz
x,y,z
-x,-y,-z
loop_
_atom_site_type_symbol
_atom_site_label
_atom_site_fract_x
_atom_site_fract_y
_atom_site_fract_z
Si Si1 0.276473 0.173875 0.812046
Si Si2 0.283961 0.567024 0.067606
Si Si3 0.281682 0.150174 0.649607
Si Si4 0.367233 0.816280 0.816450
Si Si5 0.862875 0.447832 0.516714
Si Si6 0.564130 0.774712 0.557009
Si Si7 0.720908 0.398577 0.759081
Si Si8 0.584626 0.828523 0.758946
O O1 0.351666 0.059345 0.643936
O O2 0.453120 0.999032 0.725446
O O3 0.315627 0.372502 0.030268
O O4 0.986828 0.241660 0.826213
O O5 0.241292 0.379348 0.879325
O O6 0.500000 0.500000 0.000000
O O7 0.355633 0.619681 0.206138
O O8 0.009672 0.197627 0.611207
O O9 0.500000 0.000000 0.500000
O O10 0.645602 0.597712 0.669676
O O11 0.156063 0.757592 0.716078
O O12 0.356195 0.901172 0.829076
O O13 0.324722 0.001919 0.044254
O O14 0.817889 0.591240 0.590783
O O15 0.135796 0.363142 0.523464
O O16 0.457625 0.632990 0.361754
O O17 0.490484 0.823812 0.662600
#
# Coordination Sequence:
#
# PCOD8036775 Si02
#       8
#     2   2   2   2   2   2   2   2
#     4   9  22  41  51  83 123 142 192 236 275 336
#     4   9  19  38  62  78 105 158 192 222 281 344
#     4   9  19  38  62  78 105 158 192 222 281 344
#     4   8  18  40  60  76 106 148 194 224 256 342
#     4   9  19  38  58  81 109 149 187 222 276 337
#     4  12  23  34  57  88 115 143 179 238 293 318
#     4   9  22  41  52  81 123 141 181 244 279 331
#     4   9  19  38  58  81 109 149 187 222 276 337
#
# _framework density 19.223416
#
# number of rings (size 3 to 8) (size 9 to 14) (size 15 to 20)
#    0.750    2.000    0.000    1.875    3.500    3.500 
#    4.500    0.000    0.000    0.000    0.000    0.000 
#    0.000    0.000    0.000    0.000    0.000    0.000 
#
# Total GULP energy -198238.197187 kJ/mol
# GULP energy per Si atom -12389.887324 kJ/mol
# Density = 1.917966 g / cm^3
# Si number density = 19.223416 Si / 1000 Ang^3
#
#
#
# Elastic Constant Matrix: (Units=GPa)
#
#
# Indices 1 2 3 4 5 6 
#
# 1 82.8684 55.1905 57.7552 -12.2969 -15.8021 -1.4384
# 2 55.1905 146.9981 60.5415 -8.4593 1.2929 -0.0307
# 3 57.7552 60.5415 91.1469 -11.2430 18.7745 -10.7686
# 4 -12.2969 -8.4593 -11.2430 29.9758 -2.4836 12.4953
# 5 -15.8021 1.2929 18.7745 -2.4836 40.5084 2.5666
# 6 -1.4384 -0.0307 -10.7686 12.4953 2.5666 16.7551
#
#
#
# Elastic Compliance Matrix: (Units=1/GPa)
#
#
# Indices 1 2 3 4 5 6 
#
# 1 0.079206 0.001090 -0.069735 0.047855 0.071481 -0.084656
# 2 0.001090 0.010472 -0.009388 0.004551 0.005363 -0.010137
# 3 -0.069735 -0.009388 0.081743 -0.044617 -0.073293 0.091033
# 4 0.047855 0.004551 -0.044617 0.079960 0.049923 -0.091837
# 5 0.071481 0.005363 -0.073293 0.049923 0.095308 -0.092789
# 6 -0.084656 -0.010137 0.091033 -0.091837 -0.092789 0.193606
#
#
# Mechanical properties :
#
#
# Convention : Reuss Voigt Hill
#
# Bulk Modulus (GPa) = 65.12216 74.22086 69.67151
# Shear Modulus (GPa) = 7.12779 27.28295 17.20537
#
# Velocity S-wave (km/s) = 1.92767 3.77139 2.99494
# Velocity P-wave (km/s) = 6.23735 7.59328 6.94847
#
# Compressibility (1/GPa) = 0.01535576
#
# Stress axis : x y z
#
# Youngs Moduli (GPa) = 12.62537 95.48839 12.23343
#
# Poissons Ratio (x) = -0.10413 0.85310
# Poissons Ratio (y) = -0.01377 0.11485
# Poissons Ratio (z) = 0.88043 0.89644
#
# Static dielectric constant tensor:
#      x y z
#    x 3.248850 0.031260 0.186260 
#    y 0.031260 3.260080 0.037430 
#    z 0.186260 0.037430 3.432480 
# 
# 
# High freq. dielectric constant tensor:
#      x y z
#    x 1.744670 0.000910 0.010290 
#    y 0.000910 1.723640 0.002300 
#    z 0.010290 0.002300 1.754890 
# 
# From -- ./inp_files/591904.got.cif
#   From: 2010.06.25/outbox.cif.g09.slc.cpg/sg2_296_cif.got.tgz:591904.got - 2010.06.27 13:26:56.
