data_PCOD8036431
_publ_section_title
;
Structure prediction by ZEFSAII (Michael W. Deem and Ramdas Pophale) SiO2 
 PCOD8036431
Probable space group: P -1
;
_chemical_formula_sum "Si O2"
_cell_formula_units_Z 10
_cell_length_a 14.601715
_cell_length_b 11.568462
_cell_length_c 5.137505
_cell_angle_alpha 115.181118
_cell_angle_beta 55.423007
_cell_angle_gamma 149.253487
_cell_volume 361.281653
_symmetry_space_group_name_H-M "P -1"
_symmetry_group_IT_number 2
_symmetry_cell_setting 'triclinic'
loop_
_space_group_symop_operation_xyz
x,y,z
-x,-y,-z
loop_
_atom_site_type_symbol
_atom_site_label
_atom_site_fract_x
_atom_site_fract_y
_atom_site_fract_z
Si Si1 0.475872 0.593562 0.327174
Si Si2 0.480760 0.112384 0.792090
Si Si3 0.941189 0.200406 0.749365
Si Si4 0.831108 0.853119 0.347423
Si Si5 0.882053 0.516529 0.751327
O O1 0.479779 0.732908 0.317920
O O2 0.648896 0.757899 0.420751
O O3 0.259624 0.366915 0.604638
O O4 0.500000 0.500000 0.000000
O O5 0.643554 0.267212 0.911955
O O6 0.500000 0.000000 0.500000
O O7 0.262018 0.913496 0.077661
O O8 0.087143 0.363902 0.432024
O O9 0.900881 0.008326 0.630577
O O10 0.039154 0.336458 0.986493
O O11 0.000000 0.000000 0.000000
O O12 0.000000 0.500000 0.500000
#
# Coordination Sequence:
#
# PCOD8036431 Si02
#       5
#     2   2   2   2   2
#     4  11  26  54  79 124 165 219 295 343 428 517
#     4  12  28  53  86 119 174 223 275 360 423 504
#     4  12  28  54  81 125 166 220 288 348 428 506
#     4  11  28  52  86 119 168 222 283 360 426 502
#     4  12  29  52  82 124 167 223 288 340 430 524
#
# _framework density 27.679237000000001
#
# number of rings (size 3 to 8) (size 9 to 14) (size 15 to 20)
#    0.000    0.400    4.000    1.800    2.800    8.000 
#    0.000    1.000    0.000    0.000    0.000    0.000 
#    0.000    0.000    0.000    0.000    0.000    0.000 
#
# Total GULP energy -124060.371079 kJ/mol
# GULP energy per Si atom -12406.037108 kJ/mol
# Density = 2.761624 g / cm^3
# Si number density = 27.679237 Si / 1000 Ang^3
#
#
#
# Elastic Constant Matrix: (Units=GPa)
#
#
# Indices 1 2 3 4 5 6 
#
# 1 82.5140 49.1156 21.9617 30.2230 4.4449 0.8136
# 2 49.1156 185.0977 77.9839 25.7212 2.8907 44.3418
# 3 21.9617 77.9839 149.1274 14.5616 6.4204 12.9630
# 4 30.2230 25.7212 14.5616 68.4513 1.9581 -1.2978
# 5 4.4449 2.8907 6.4204 1.9581 55.8729 8.2797
# 6 0.8136 44.3418 12.9630 -1.2978 8.2797 76.8731
#
#
#
# Elastic Compliance Matrix: (Units=1/GPa)
#
#
# Indices 1 2 3 4 5 6 
#
# 1 0.016756 -0.004244 0.000171 -0.005760 -0.001269 0.002282
# 2 -0.004244 0.009432 -0.003833 -0.000977 0.001047 -0.004878
# 3 0.000171 -0.003833 0.008695 -0.000443 -0.000923 0.000835
# 4 -0.005760 -0.000977 -0.000443 0.017639 -0.000210 0.001020
# 5 -0.001269 0.001047 -0.000923 -0.000210 0.018417 -0.002422
# 6 0.002282 -0.004878 0.000835 0.001020 -0.002422 0.015936
#
#
# Mechanical properties :
#
#
# Convention : Reuss Voigt Hill
#
# Bulk Modulus (GPa) = 52.43878 79.42905 65.93392
# Shear Modulus (GPa) = 45.85332 58.08466 51.96899
#
# Velocity S-wave (km/s) = 4.07455 4.58590 4.33776
# Velocity P-wave (km/s) = 6.41266 7.53652 6.99719
#
# Compressibility (1/GPa) = 0.01906986
#
# Stress axis : x y z
#
# Youngs Moduli (GPa) = 59.68086 106.02570 115.00610
#
# Poissons Ratio (x) = 0.45002 -0.01963
# Poissons Ratio (y) = 0.25331 0.44078
# Poissons Ratio (z) = -0.01019 0.40636
#
# Static dielectric constant tensor:
#      x y z
#    x 5.323650 0.245110 -0.356830 
#    y 0.245110 5.890710 -0.488430 
#    z -0.356830 -0.488430 5.741050 
# 
# 
# High freq. dielectric constant tensor:
#      x y z
#    x 2.135280 0.014450 -0.017090 
#    y 0.014450 2.144920 -0.000650 
#    z -0.017090 -0.000650 2.125590 
# 
# From -- ./inp_files/95443.got.cif
#   From: 2010.06.25/outbox.cif.g09.slc.cpg/sg2_48_cif.got.tgz:95443.got - 2010.06.27 13:26:56.
