data_PCOD8036787
_publ_section_title
;
Structure prediction by ZEFSAII (Michael W. Deem and Ramdas Pophale) SiO2 
 PCOD8036787
Probable space group: P -1
;
_chemical_formula_sum "Si O2"
_cell_formula_units_Z 16
_cell_length_a 16.804955
_cell_length_b 16.775909
_cell_length_c 16.782347
_cell_angle_alpha 17.688844
_cell_angle_beta 146.290823
_cell_angle_gamma 146.383858
_cell_volume 774.787156
_symmetry_space_group_name_H-M "P -1"
_symmetry_group_IT_number 2
_symmetry_cell_setting 'triclinic'
loop_
_space_group_symop_operation_xyz
x,y,z
-x,-y,-z
loop_
_atom_site_type_symbol
_atom_site_label
_atom_site_fract_x
_atom_site_fract_y
_atom_site_fract_z
Si Si1 0.793771 0.071565 0.075144
Si Si2 0.843455 0.479756 0.426843
Si Si3 0.592423 0.189610 0.188951
Si Si4 0.759501 0.992005 0.939162
Si Si5 0.594730 0.282541 0.280950
Si Si6 0.349123 0.332768 0.336213
Si Si7 0.959513 0.757785 0.758476
Si Si8 0.603335 0.503129 0.508357
O O1 0.954085 0.163803 0.161221
O O2 0.706791 0.797892 0.304316
O O3 0.817363 0.031001 0.040258
O O4 0.702814 0.293816 0.804635
O O5 0.812602 0.279149 0.667037
O O6 0.733171 0.368489 0.370514
O O7 0.000000 0.500000 0.500000
O O8 0.831952 0.774198 0.164672
O O9 0.649405 0.259515 0.258937
O O10 0.416180 0.107770 0.115733
O O11 0.663865 0.953709 0.442729
O O12 0.659411 0.450583 0.944117
O O13 0.500000 0.000000 0.500000
O O14 0.500000 0.500000 0.000000
O O15 0.215444 0.311269 0.306619
O O16 0.505447 0.421444 0.426121
O O17 0.000000 0.000000 0.500000
O O18 0.000000 0.500000 0.000000
O O19 0.500000 0.500000 0.500000
#
# Coordination Sequence:
#
# PCOD8036787 Si02
#       8
#     2   2   2   2   2   2   2   2
#     4  12  25  42  69  95 128 177 212 260 340 381
#     4  12  26  43  67  99 134 173 219 267 323 391
#     4  12  23  41  69  99 130 168 222 277 319 378
#     4  12  23  44  69  96 136 167 215 278 325 378
#     4  12  23  40  67  93 130 179 216 261 328 387
#     4  12  24  42  67  98 129 169 221 272 319 385
#     4  12  27  48  66  95 139 176 210 269 333 390
#     4  12  23  40  66  99 126 165 222 268 311 390
#
# _framework density 20.650832000000001
#
# number of rings (size 3 to 8) (size 9 to 14) (size 15 to 20)
#    0.000    0.000    5.000    6.000    0.000    2.000 
#    0.000    0.000    0.000    0.000    0.000    0.000 
#    0.000    0.000    0.000    0.000    0.000    0.000 
#
# Total GULP energy -198532.156908 kJ/mol
# GULP energy per Si atom -12408.259807 kJ/mol
# Density = 2.060383 g / cm^3
# Si number density = 20.650832 Si / 1000 Ang^3
#
#
#
# Elastic Constant Matrix: (Units=GPa)
#
#
# Indices 1 2 3 4 5 6 
#
# 1 101.5210 20.8052 39.7287 -2.1906 2.7673 -0.9363
# 2 20.8052 108.0842 24.9473 7.9874 0.1021 -10.1162
# 3 39.7287 24.9473 154.1567 -15.4032 0.1132 3.0486
# 4 -2.1906 7.9874 -15.4032 39.4665 -5.1562 -1.1672
# 5 2.7673 0.1021 0.1132 -5.1562 54.6521 -0.0608
# 6 -0.9363 -10.1162 3.0486 -1.1672 -0.0608 48.4340
#
#
#
# Elastic Compliance Matrix: (Units=1/GPa)
#
#
# Indices 1 2 3 4 5 6 
#
# 1 0.011217 -0.001525 -0.002663 -0.000182 -0.000577 0.000061
# 2 -0.001525 0.010320 -0.001595 -0.002758 -0.000197 0.002160
# 3 -0.002663 -0.001595 0.007771 0.003240 0.000427 -0.000795
# 4 -0.000182 -0.002758 0.003240 0.027487 0.002601 -0.000118
# 5 -0.000577 -0.000197 0.000427 0.002601 0.018572 0.000007
# 6 0.000061 0.002160 -0.000795 -0.000118 0.000007 0.021146
#
#
# Mechanical properties :
#
#
# Convention : Reuss Voigt Hill
#
# Bulk Modulus (GPa) = 56.36536 59.41382 57.88959
# Shear Modulus (GPa) = 43.86269 47.06254 45.46262
#
# Velocity S-wave (km/s) = 4.61370 4.77903 4.69709
# Velocity P-wave (km/s) = 7.46562 7.69969 7.58356
#
# Compressibility (1/GPa) = 0.01774139
#
# Stress axis : x y z
#
# Youngs Moduli (GPa) = 89.14904 96.90044 128.69173
#
# Poissons Ratio (x) = 0.14776 0.34271
# Poissons Ratio (y) = 0.13594 0.20529
# Poissons Ratio (z) = 0.23740 0.15457
#
# Static dielectric constant tensor:
#      x y z
#    x 3.868770 -0.116660 -0.088520 
#    y -0.116660 4.002430 -0.104440 
#    z -0.088520 -0.104440 4.135800 
# 
# 
# High freq. dielectric constant tensor:
#      x y z
#    x 1.819100 -0.011660 -0.002620 
#    y -0.011660 1.815950 -0.004260 
#    z -0.002620 -0.004260 1.833200 
# 
# From -- ./inp_files/223536.got.cif
#   From: 2010.06.25/outbox.cif.g09.slc.cpg/sg2_112_cif.got.tgz:223536.got - 2010.06.27 13:26:56.
