data_PCOD8036120
_publ_section_title
;
Structure prediction by ZEFSAII (Michael W. Deem and Ramdas Pophale) SiO2 
 PCOD8036120
Probable space group: P -1
;
_chemical_formula_sum "Si O2"
_cell_formula_units_Z 16
_cell_length_a 13.430211
_cell_length_b 13.900027
_cell_length_c 11.641652
_cell_angle_alpha 64.906233
_cell_angle_beta 136.420473
_cell_angle_gamma 148.107441
_cell_volume 674.001712
_symmetry_space_group_name_H-M "P -1"
_symmetry_group_IT_number 2
_symmetry_cell_setting 'triclinic'
loop_
_space_group_symop_operation_xyz
x,y,z
-x,-y,-z
loop_
_atom_site_type_symbol
_atom_site_label
_atom_site_fract_x
_atom_site_fract_y
_atom_site_fract_z
Si Si1 0.499079 0.700880 0.331774
Si Si2 0.631228 0.585495 0.356316
Si Si3 0.293567 0.824923 0.519255
Si Si4 0.518999 0.852632 0.050800
Si Si5 0.221796 0.227740 0.027708
Si Si6 0.353761 0.654124 0.792076
Si Si7 0.087272 0.904443 0.387415
Si Si8 0.987312 0.321769 0.234120
O O1 0.594171 0.644685 0.399237
O O2 0.556082 0.824008 0.219803
O O3 0.158085 0.483018 0.188454
O O4 0.680653 0.852903 0.519706
O O5 0.320253 0.365263 0.146249
O O6 0.847108 0.771877 0.349485
O O7 0.767478 0.564176 0.531019
O O8 0.430758 0.812420 0.707727
O O9 0.247768 0.892492 0.536828
O O10 0.982521 0.581806 0.339855
O O11 0.500000 0.000000 0.500000
O O12 0.790348 0.102185 0.130947
O O13 0.521974 0.766437 0.997390
O O14 0.213798 0.720179 0.850376
O O15 0.519377 0.364742 0.161088
O O16 0.058337 0.189436 0.812445
O O17 0.000000 0.000000 0.000000
#
# Coordination Sequence:
#
# PCOD8036120 Si02
#       8
#     2   2   2   2   2   2   2   2
#     4  12  27  45  74 101 139 185 234 281 346 413
#     4  12  25  47  71 100 141 182 232 287 345 411
#     4  11  26  46  72 102 138 187 234 287 351 413
#     4  11  26  45  70 100 142 179 232 287 345 405
#     4  12  27  45  71 105 141 182 235 288 349 415
#     4  11  26  45  72 101 141 182 234 291 346 412
#     4  12  25  47  71 101 141 183 230 289 346 412
#     4  11  26  46  69 101 137 185 230 286 341 413
#
# _framework density 23.738811999999999
#
# number of rings (size 3 to 8) (size 9 to 14) (size 15 to 20)
#    0.000    0.500    2.500    4.500   10.500    1.000 
#    0.000    0.000    0.000    0.000    0.000    0.000 
#    0.000    0.000    0.000    0.000    0.000    0.000 
#
# Total GULP energy -198452.799887 kJ/mol
# GULP energy per Si atom -12403.299993 kJ/mol
# Density = 2.368478 g / cm^3
# Si number density = 23.738812 Si / 1000 Ang^3
#
#
#
# Elastic Constant Matrix: (Units=GPa)
#
#
# Indices 1 2 3 4 5 6 
#
# 1 76.5160 30.0777 27.6767 15.5446 -11.3008 -18.5897
# 2 30.0777 117.2828 18.2887 15.1531 6.7270 10.8801
# 3 27.6767 18.2887 99.4666 4.6253 -5.6888 -16.1367
# 4 15.5446 15.1531 4.6253 35.7364 -4.4688 4.0807
# 5 -11.3008 6.7270 -5.6888 -4.4688 29.5361 5.1344
# 6 -18.5897 10.8801 -16.1367 4.0807 5.1344 41.8795
#
#
#
# Elastic Compliance Matrix: (Units=1/GPa)
#
#
# Indices 1 2 3 4 5 6 
#
# 1 0.020592 -0.005219 -0.002588 -0.006747 0.005908 0.009432
# 2 -0.005219 0.011106 -0.001554 -0.002195 -0.004278 -0.005062
# 3 -0.002588 -0.001554 0.011709 -0.000025 0.000981 0.003648
# 4 -0.006747 -0.002195 -0.000025 0.033051 0.003982 -0.006143
# 5 0.005908 -0.004278 0.000981 0.003982 0.038047 -0.000941
# 6 0.009432 -0.005062 0.003648 -0.006143 -0.000941 0.031500
#
#
# Mechanical properties :
#
#
# Convention : Reuss Voigt Hill
#
# Bulk Modulus (GPa) = 40.51219 49.48349 44.99784
# Shear Modulus (GPa) = 28.90949 35.91191 32.41070
#
# Velocity S-wave (km/s) = 3.49351 3.89368 3.69901
# Velocity P-wave (km/s) = 5.77717 6.41129 6.10247
#
# Compressibility (1/GPa) = 0.02468393
#
# Stress axis : x y z
#
# Youngs Moduli (GPa) = 48.56261 90.04367 85.40754
#
# Poissons Ratio (x) = 0.46998 0.22105
# Poissons Ratio (y) = 0.25347 0.13268
# Poissons Ratio (z) = 0.12569 0.13989
#
# Static dielectric constant tensor:
#      x y z
#    x 4.368730 0.036950 -0.007940 
#    y 0.036950 4.435020 -0.070790 
#    z -0.007940 -0.070790 4.401160 
# 
# 
# High freq. dielectric constant tensor:
#      x y z
#    x 1.938780 -0.002240 -0.000300 
#    y -0.002240 1.957140 0.005360 
#    z -0.000300 0.005360 1.938270 
# 
# From -- ./inp_files/455634.got.cif
#   From: 2010.06.25/outbox.cif.g09.slc.cpg/sg2_228_cif.got.tgz:455634.got - 2010.06.27 13:26:56.
