data_PCOD8036988
_publ_section_title
;
Structure prediction by ZEFSAII (Michael W. Deem and Ramdas Pophale) SiO2 
 PCOD8036988
Probable space group: P -1
;
_chemical_formula_sum "Si O2"
_cell_formula_units_Z 16
_cell_length_a 9.230972
_cell_length_b 27.736043
_cell_length_c 8.488154
_cell_angle_alpha 141.030573
_cell_angle_beta 67.951323
_cell_angle_gamma 140.173668
_cell_volume 730.824683
_symmetry_space_group_name_H-M "P -1"
_symmetry_group_IT_number 2
_symmetry_cell_setting 'triclinic'
loop_
_space_group_symop_operation_xyz
x,y,z
-x,-y,-z
loop_
_atom_site_type_symbol
_atom_site_label
_atom_site_fract_x
_atom_site_fract_y
_atom_site_fract_z
Si Si1 0.970802 0.986846 0.663411
Si Si2 0.091371 0.189063 0.609019
Si Si3 0.368575 0.784875 0.376572
Si Si4 0.412194 0.238772 0.334979
Si Si5 0.100389 0.475032 0.283314
Si Si6 0.782982 0.612627 0.752532
Si Si7 0.556508 0.036578 0.385597
Si Si8 0.743100 0.223797 0.261946
O O1 0.063721 0.940307 0.562369
O O2 0.651349 0.863545 0.525283
O O3 0.000000 0.000000 0.500000
O O4 0.161278 0.126028 0.028044
O O5 0.317057 0.243442 0.543065
O O6 0.863448 0.139389 0.472733
O O7 0.193493 0.290726 0.953941
O O8 0.473007 0.888024 0.466575
O O9 0.199688 0.745183 0.496833
O O10 0.160608 0.642587 0.020396
O O11 0.635567 0.387256 0.560304
O O12 0.536548 0.205440 0.236406
O O13 0.190008 0.432868 0.225187
O O14 0.000000 0.500000 0.500000
O O15 0.500000 0.500000 0.500000
O O16 0.989596 0.665555 0.670751
O O17 0.500000 0.000000 0.500000
O O18 0.364094 0.905376 0.031873
#
# Coordination Sequence:
#
# PCOD8036988 Si02
#       8
#     2   2   2   2   2   2   2   2
#     4  12  26  44  76 113 145 187 250 297 363 433
#     4  12  25  48  73 107 146 187 243 304 359 427
#     4  12  27  45  74 112 144 195 243 299 361 438
#     4  12  27  46  78 106 149 195 238 308 360 434
#     4  12  27  50  73 104 149 196 242 290 375 440
#     4  12  30  48  75 105 147 194 243 300 365 440
#     4  12  23  46  75 105 149 190 236 301 369 419
#     4  12  25  48  75 107 146 192 242 299 372 426
#
# _framework density 21.893077000000002
#
# number of rings (size 3 to 8) (size 9 to 14) (size 15 to 20)
#    0.000    0.000    6.250    3.000    5.250    2.000 
#    0.000    0.000    0.000    0.000    0.000    0.000 
#    0.000    0.000    0.000    0.000    0.000    0.000 
#
# Total GULP energy -198315.649987 kJ/mol
# GULP energy per Si atom -12394.728124 kJ/mol
# Density = 2.184325 g / cm^3
# Si number density = 21.893077 Si / 1000 Ang^3
#
#
#
# Elastic Constant Matrix: (Units=GPa)
#
#
# Indices 1 2 3 4 5 6 
#
# 1 70.3414 29.1962 38.2544 2.5445 6.0376 9.9769
# 2 29.1962 141.0556 54.4354 -11.5808 -2.7508 -1.3105
# 3 38.2544 54.4354 156.1864 3.2064 7.6329 1.1715
# 4 2.5445 -11.5808 3.2064 44.4564 4.2473 -2.1418
# 5 6.0376 -2.7508 7.6329 4.2473 39.6977 4.3737
# 6 9.9769 -1.3105 1.1715 -2.1418 4.3737 36.3597
#
#
#
# Elastic Compliance Matrix: (Units=1/GPa)
#
#
# Indices 1 2 3 4 5 6 
#
# 1 0.018009 -0.002640 -0.003345 -0.001559 -0.001580 -0.004831
# 2 -0.002640 0.008869 -0.002560 0.002596 0.001104 0.001147
# 3 -0.003345 -0.002560 0.008188 -0.000918 -0.001217 0.000654
# 4 -0.001559 0.002596 -0.000918 0.023640 -0.002179 0.002206
# 5 -0.001580 0.001104 -0.001217 -0.002179 0.026280 -0.002777
# 6 -0.004831 0.001147 0.000654 0.002206 -0.002777 0.029313
#
#
# Mechanical properties :
#
#
# Convention : Reuss Voigt Hill
#
# Bulk Modulus (GPa) = 55.63584 67.92836 61.78210
# Shear Modulus (GPa) = 36.39499 40.48259 38.43879
#
# Velocity S-wave (km/s) = 4.08167 4.30479 4.19471
# Velocity P-wave (km/s) = 6.90515 7.47014 7.19319
#
# Compressibility (1/GPa) = 0.01797403
#
# Stress axis : x y z
#
# Youngs Moduli (GPa) = 55.52899 112.74846 122.13419
#
# Poissons Ratio (x) = 0.29768 0.40856
# Poissons Ratio (y) = 0.14661 0.31271
# Poissons Ratio (z) = 0.18575 0.28868
#
# Static dielectric constant tensor:
#      x y z
#    x 5.715040 -1.146340 0.100180 
#    y -1.146340 4.805480 -0.469380 
#    z 0.100180 -0.469380 3.885460 
# 
# 
# High freq. dielectric constant tensor:
#      x y z
#    x 1.867980 0.003220 -0.002660 
#    y 0.003220 1.874010 -0.001530 
#    z -0.002660 -0.001530 1.871240 
# 
# From -- ./inp_files/189895.got.cif
#   From: 2010.06.25/outbox.cif.g09.slc.cpg/sg2_95_cif.got.tgz:189895.got - 2010.06.27 13:26:56.
