data_PCOD8036954
_publ_section_title
;
Structure prediction by ZEFSAII (Michael W. Deem and Ramdas Pophale) SiO2 
 PCOD8036954
Probable space group: P -1
;
_chemical_formula_sum "Si O2"
_cell_formula_units_Z 16
_cell_length_a 12.273848
_cell_length_b 8.814374
_cell_length_c 27.124124
_cell_angle_alpha 150.095810
_cell_angle_beta 29.694471
_cell_angle_gamma 141.937918
_cell_volume 717.690707
_symmetry_space_group_name_H-M "P -1"
_symmetry_group_IT_number 2
_symmetry_cell_setting 'triclinic'
loop_
_space_group_symop_operation_xyz
x,y,z
-x,-y,-z
loop_
_atom_site_type_symbol
_atom_site_label
_atom_site_fract_x
_atom_site_fract_y
_atom_site_fract_z
Si Si1 0.895862 0.348174 0.866820
Si Si2 0.550120 0.787658 0.687107
Si Si3 0.281937 0.693889 0.863325
Si Si4 0.678183 0.673244 0.771116
Si Si5 0.092165 0.291008 0.135882
Si Si6 0.690840 0.539555 0.395329
Si Si7 0.959399 0.128101 0.497513
Si Si8 0.464083 0.544593 0.133190
O O1 0.957352 0.525721 0.842010
O O2 0.115989 0.392660 0.827059
O O3 0.815094 0.990867 0.788458
O O4 0.711799 0.504410 0.011483
O O5 0.434514 0.827586 0.795704
O O6 0.431308 0.501365 0.621186
O O7 0.804974 0.745798 0.584218
O O8 0.540876 0.103447 0.749009
O O9 0.439959 0.601632 0.818130
O O10 0.130938 0.945740 0.011836
O O11 0.821687 0.407085 0.629587
O O12 0.628553 0.689343 0.853221
O O13 0.311200 0.471451 0.125002
O O14 0.872365 0.296787 0.258462
O O15 0.500000 0.500000 0.500000
O O16 0.830889 0.873385 0.440382
O O17 0.000000 0.000000 0.500000
#
# Coordination Sequence:
#
# PCOD8036954 Si02
#       8
#     2   2   2   2   2   2   2   2
#     4  12  25  46  72 109 146 190 237 298 369 429
#     4  12  24  46  76 103 140 190 250 295 354 436
#     4  12  27  47  73 111 146 191 241 303 364 431
#     4  12  28  47  67 109 153 187 241 304 368 428
#     4  12  23  46  79 106 143 193 245 294 360 434
#     4  12  24  42  75 110 134 183 250 297 344 423
#     4  12  25  48  72 100 142 193 243 293 359 429
#     4  12  23  45  75 108 146 189 240 305 364 425
#
# _framework density 22.293724999999998
#
# number of rings (size 3 to 8) (size 9 to 14) (size 15 to 20)
#    0.000    0.000    7.500    2.625    0.000    2.000 
#    4.500    1.250    0.000    0.000    0.000    0.000 
#    0.000    0.000    0.000    0.000    0.000    0.000 
#
# Total GULP energy -198440.915436 kJ/mol
# GULP energy per Si atom -12402.557215 kJ/mol
# Density = 2.224298 g / cm^3
# Si number density = 22.293725 Si / 1000 Ang^3
#
#
#
# Elastic Constant Matrix: (Units=GPa)
#
#
# Indices 1 2 3 4 5 6 
#
# 1 97.7201 48.3604 56.2622 16.6063 -8.6392 31.7895
# 2 48.3604 64.0846 42.9839 -9.2101 -11.9217 29.4660
# 3 56.2622 42.9839 158.3024 -16.0822 -9.8649 2.7118
# 4 16.6063 -9.2101 -16.0822 39.2410 2.6795 -0.4403
# 5 -8.6392 -11.9217 -9.8649 2.6795 31.5810 0.0096
# 6 31.7895 29.4660 2.7118 -0.4403 0.0096 46.5710
#
#
#
# Elastic Compliance Matrix: (Units=1/GPa)
#
#
# Indices 1 2 3 4 5 6 
#
# 1 0.028203 -0.013510 -0.007960 -0.018602 0.001710 -0.010417
# 2 -0.013510 0.038350 -0.003552 0.012509 0.008615 -0.014719
# 3 -0.007960 -0.003552 0.010654 0.007035 -0.000790 0.007127
# 4 -0.018602 0.012509 0.007035 0.039331 -0.001508 0.004746
# 5 0.001710 0.008615 -0.000790 -0.001508 0.035268 -0.006594
# 6 -0.010417 -0.014719 0.007127 0.004746 -0.006594 0.037527
#
#
# Mechanical properties :
#
#
# Convention : Reuss Voigt Hill
#
# Bulk Modulus (GPa) = 36.81377 68.36888 52.59132
# Shear Modulus (GPa) = 20.12626 34.97863 27.55244
#
# Velocity S-wave (km/s) = 3.00788 3.96535 3.51933
# Velocity P-wave (km/s) = 5.34902 7.19021 6.33685
#
# Compressibility (1/GPa) = 0.02716375
#
# Stress axis : x y z
#
# Youngs Moduli (GPa) = 35.45703 26.07561 93.86116
#
# Poissons Ratio (x) = 0.35227 0.74715
# Poissons Ratio (y) = 0.47901 0.33339
# Poissons Ratio (z) = 0.28224 0.09262
#
# Static dielectric constant tensor:
#      x y z
#    x 4.199380 0.186930 0.040340 
#    y 0.186930 4.076810 -0.201760 
#    z 0.040340 -0.201760 4.296520 
# 
# 
# High freq. dielectric constant tensor:
#      x y z
#    x 1.878280 0.026610 0.005700 
#    y 0.026610 1.870000 -0.017100 
#    z 0.005700 -0.017100 1.896440 
# 
# From -- ./inp_files/306303.got.cif
#   From: 2010.06.25/outbox.cif.g09.slc.cpg/sg2_154_cif.got.tgz:306303.got - 2010.06.27 13:26:56.
