data_PCOD8036370
_publ_section_title
;
Structure prediction by ZEFSAII (Michael W. Deem and Ramdas Pophale) SiO2 
 PCOD8036370
Probable space group: P -1
;
_chemical_formula_sum "Si O2"
_cell_formula_units_Z 16
_cell_length_a 13.887381
_cell_length_b 25.204790
_cell_length_c 16.375531
_cell_angle_alpha 21.382504
_cell_angle_beta 156.825864
_cell_angle_gamma 156.912075
_cell_volume 736.415993
_symmetry_space_group_name_H-M "P -1"
_symmetry_group_IT_number 2
_symmetry_cell_setting 'triclinic'
loop_
_space_group_symop_operation_xyz
x,y,z
-x,-y,-z
loop_
_atom_site_type_symbol
_atom_site_label
_atom_site_fract_x
_atom_site_fract_y
_atom_site_fract_z
Si Si1 0.777748 0.206865 0.758386
Si Si2 0.202619 0.184967 0.382609
Si Si3 0.191881 0.408963 0.916693
Si Si4 0.416465 0.592213 0.235242
Si Si5 0.084056 0.005891 0.298843
Si Si6 0.990416 0.870263 0.242463
Si Si7 0.035642 0.302782 0.240995
Si Si8 0.692950 0.256496 0.436106
O O1 0.498041 0.190056 0.602536
O O2 0.793380 0.223969 0.648637
O O3 0.009336 0.364662 0.756538
O O4 0.829859 0.050355 0.044445
O O5 0.173658 0.292398 0.278958
O O6 0.129304 0.249891 0.149257
O O7 0.000000 0.000000 0.500000
O O8 0.161752 0.549343 0.743673
O O9 0.500000 0.500000 0.000000
O O10 0.500000 0.500000 0.500000
O O11 0.682754 0.731143 0.203391
O O12 0.252656 0.463509 0.223089
O O13 0.239931 0.676310 0.017096
O O14 0.100839 0.946258 0.307141
O O15 0.040690 0.862001 0.532780
O O16 0.361677 0.168018 0.303630
O O17 0.201252 0.806209 0.467674
O O18 0.000000 0.000000 0.000000
#
# Coordination Sequence:
#
# PCOD8036370 Si02
#       8
#     2   2   2   2   2   2   2   2
#     4  12  25  47  74 103 150 189 239 295 368 425
#     4  12  29  46  72 109 144 195 245 291 359 438
#     4  12  26  46  72 105 146 188 240 303 356 427
#     4  11  26  49  71 104 145 190 237 297 362 425
#     4  12  25  47  73 105 149 188 236 306 358 431
#     4  12  26  45  77 107 139 190 241 294 370 431
#     4  11  27  46  74 101 149 190 239 297 358 429
#     4  12  26  44  73 108 144 185 240 300 363 432
#
# _framework density 21.726849999999999
#
# number of rings (size 3 to 8) (size 9 to 14) (size 15 to 20)
#    0.000    0.250    5.000    3.000    5.250    3.000 
#    0.000    0.000    0.000    0.000    0.000    0.000 
#    0.000    0.000    0.000    0.000    0.000    0.000 
#
# Total GULP energy -198426.920808 kJ/mol
# GULP energy per Si atom -12401.682551 kJ/mol
# Density = 2.167740 g / cm^3
# Si number density = 21.726850 Si / 1000 Ang^3
#
#
#
# Elastic Constant Matrix: (Units=GPa)
#
#
# Indices 1 2 3 4 5 6 
#
# 1 125.3042 34.5763 52.5577 7.6149 12.4951 -1.6665
# 2 34.5763 129.3055 38.5487 1.7227 -7.6607 4.5604
# 3 52.5577 38.5487 154.0083 -2.8099 7.4214 9.7082
# 4 7.6149 1.7227 -2.8099 40.8008 2.4714 -1.3363
# 5 12.4951 -7.6607 7.4214 2.4714 44.6003 -5.9983
# 6 -1.6665 4.5604 9.7082 -1.3363 -5.9983 38.9876
#
#
#
# Elastic Compliance Matrix: (Units=1/GPa)
#
#
# Indices 1 2 3 4 5 6 
#
# 1 0.010129 -0.001989 -0.002934 -0.001828 -0.002462 0.000955
# 2 -0.001989 0.008911 -0.001645 -0.000271 0.002327 -0.000369
# 3 -0.002934 -0.001645 0.008115 0.001178 -0.001158 -0.002091
# 4 -0.001828 -0.000271 0.001178 0.025019 -0.001069 0.000353
# 5 -0.002462 0.002327 -0.001158 -0.001069 0.024247 0.003605
# 6 0.000955 -0.000369 -0.002091 0.000353 0.003605 0.026821
#
#
# Mechanical properties :
#
#
# Convention : Reuss Voigt Hill
#
# Bulk Modulus (GPa) = 71.33394 73.33150 72.33272
# Shear Modulus (GPa) = 41.30462 43.74009 42.52235
#
# Velocity S-wave (km/s) = 4.36487 4.49172 4.42875
# Velocity P-wave (km/s) = 7.63585 7.79266 7.71465
#
# Compressibility (1/GPa) = 0.01401857
#
# Stress axis : x y z
#
# Youngs Moduli (GPa) = 98.72387 112.22711 123.22393
#
# Poissons Ratio (x) = 0.22323 0.36152
# Poissons Ratio (y) = 0.19637 0.20275
# Poissons Ratio (z) = 0.28964 0.18465
#
# Static dielectric constant tensor:
#      x y z
#    x 3.353720 -0.374240 0.316720 
#    y -0.374240 3.313830 0.368380 
#    z 0.316720 0.368380 3.676320 
# 
# 
# High freq. dielectric constant tensor:
#      x y z
#    x 1.860320 -0.012410 0.008910 
#    y -0.012410 1.866920 -0.006420 
#    z 0.008910 -0.006420 1.874100 
# 
# From -- ./inp_files/574531.got.cif
#   From: 2010.06.25/outbox.cif.g09.slc.cpg/sg2_288_cif.got.tgz:574531.got - 2010.06.27 13:26:56.
