data_PCOD8036943
_publ_section_title
;
Structure prediction by ZEFSAII (Michael W. Deem and Ramdas Pophale) SiO2 
 PCOD8036943
Probable space group: P -1
;
_chemical_formula_sum "Si O2"
_cell_formula_units_Z 14
_cell_length_a 12.613796
_cell_length_b 8.683833
_cell_length_c 9.240619
_cell_angle_alpha 132.869253
_cell_angle_beta 117.548596
_cell_angle_gamma 78.293294
_cell_volume 647.926630
_symmetry_space_group_name_H-M "P -1"
_symmetry_group_IT_number 2
_symmetry_cell_setting 'triclinic'
loop_
_space_group_symop_operation_xyz
x,y,z
-x,-y,-z
loop_
_atom_site_type_symbol
_atom_site_label
_atom_site_fract_x
_atom_site_fract_y
_atom_site_fract_z
Si Si1 0.612995 0.022677 0.190871
Si Si2 0.283503 0.292406 0.327969
Si Si3 0.699561 0.611555 0.940334
Si Si4 0.846358 0.335656 0.431842
Si Si5 0.056650 0.476189 0.868081
Si Si6 0.526640 0.201389 0.540995
Si Si7 0.891852 0.129396 0.036064
O O1 0.733405 0.153010 0.278503
O O2 0.584526 0.136093 0.389544
O O3 0.500000 0.000000 0.000000
O O4 0.633947 0.785737 0.086595
O O5 0.296977 0.366258 0.217473
O O6 0.198360 0.434747 0.449102
O O7 0.411953 0.315191 0.504578
O O8 0.230747 0.041719 0.143376
O O9 0.626252 0.381202 0.792758
O O10 0.832323 0.649059 0.119094
O O11 0.903076 0.283483 0.281493
O O12 0.955567 0.338883 0.615780
O O13 0.107928 0.714683 0.999056
O O14 0.000000 0.500000 0.000000
O O15 0.500000 0.000000 0.500000
O O16 0.000000 0.000000 0.000000
#
# Coordination Sequence:
#
# PCOD8036943 Si02
#       7
#     2   2   2   2   2   2   2
#     4  12  24  44  73 101 137 186 233 279 347 412
#     4  12  23  45  74 100 139 181 231 291 347 408
#     4  12  24  45  69 102 140 183 227 291 339 406
#     4  12  25  44  73 105 134 189 233 279 355 409
#     4  12  25  45  67 103 145 178 233 285 343 417
#     4  12  26  45  71 106 139 179 231 287 346 412
#     4  12  25  46  70 102 139 181 234 286 344 411
#
# _framework density 21.607382999999999
#
# number of rings (size 3 to 8) (size 9 to 14) (size 15 to 20)
#    0.000    0.000    7.143    2.571    0.000    2.286 
#    2.571    0.000    0.000    0.000    0.000    0.000 
#    0.000    0.000    0.000    0.000    0.000    0.000 
#
# Total GULP energy -173645.274969 kJ/mol
# GULP energy per Si atom -12403.233926 kJ/mol
# Density = 2.155820 g / cm^3
# Si number density = 21.607383 Si / 1000 Ang^3
#
#
#
# Elastic Constant Matrix: (Units=GPa)
#
#
# Indices 1 2 3 4 5 6 
#
# 1 99.7875 45.8749 50.5024 -9.1892 3.6830 -24.1045
# 2 45.8749 122.6500 45.2994 0.5496 10.9322 -6.0390
# 3 50.5024 45.2994 120.0640 8.9818 13.2169 -13.3187
# 4 -9.1892 0.5496 8.9818 39.6528 -4.8316 8.8180
# 5 3.6830 10.9322 13.2169 -4.8316 51.4283 4.0081
# 6 -24.1045 -6.0390 -13.3187 8.8180 4.0081 56.4557
#
#
#
# Elastic Compliance Matrix: (Units=1/GPa)
#
#
# Indices 1 2 3 4 5 6 
#
# 1 0.015801 -0.003923 -0.005090 0.004012 0.001043 0.004425
# 2 -0.003923 0.010524 -0.002232 -0.000515 -0.001361 -0.000899
# 3 -0.005090 -0.002232 0.012110 -0.004534 -0.002805 0.001352
# 4 0.004012 -0.000515 -0.004534 0.028596 0.003998 -0.004162
# 5 0.001043 -0.001361 -0.002805 0.003998 0.020948 -0.002474
# 6 0.004425 -0.000899 0.001352 -0.004162 -0.002474 0.020651
#
#
# Mechanical properties :
#
#
# Convention : Reuss Voigt Hill
#
# Bulk Modulus (GPa) = 62.71589 69.53942 66.12766
# Shear Modulus (GPa) = 36.64734 42.89569 39.77151
#
# Velocity S-wave (km/s) = 4.12279 4.46043 4.29493
# Velocity P-wave (km/s) = 7.19384 7.66683 7.43410
#
# Compressibility (1/GPa) = 0.01594492
#
# Stress axis : x y z
#
# Youngs Moduli (GPa) = 63.28752 95.01789 82.57641
#
# Poissons Ratio (x) = 0.37276 0.42033
# Poissons Ratio (y) = 0.24828 0.18430
# Poissons Ratio (z) = 0.32215 0.21207
#
# Static dielectric constant tensor:
#      x y z
#    x 4.160960 0.126950 0.226960 
#    y 0.126950 4.327580 0.271960 
#    z 0.226960 0.271960 4.225810 
# 
# 
# High freq. dielectric constant tensor:
#      x y z
#    x 1.866950 -0.005300 0.009330 
#    y -0.005300 1.852080 0.011740 
#    z 0.009330 0.011740 1.855590 
# 
# From -- ./inp_files/180805.got.cif
#   From: 2010.06.25/outbox.cif.g09.slc.cpg/sg2_91_cif.got.tgz:180805.got - 2010.06.27 13:26:56.
