data_PCOD8036443
_publ_section_title
;
Structure prediction by ZEFSAII (Michael W. Deem and Ramdas Pophale) SiO2 
 PCOD8036443
Probable space group: P -1
;
_chemical_formula_sum "Si O2"
_cell_formula_units_Z 16
_cell_length_a 9.707290
_cell_length_b 5.141097
_cell_length_c 17.801555
_cell_angle_alpha 91.687008
_cell_angle_beta 50.289390
_cell_angle_gamma 89.987138
_cell_volume 682.928950
_symmetry_space_group_name_H-M "P -1"
_symmetry_group_IT_number 2
_symmetry_cell_setting 'triclinic'
loop_
_space_group_symop_operation_xyz
x,y,z
-x,-y,-z
loop_
_atom_site_type_symbol
_atom_site_label
_atom_site_fract_x
_atom_site_fract_y
_atom_site_fract_z
Si Si1 0.926989 0.247940 0.292636
Si Si2 0.476618 0.753189 0.559086
Si Si3 0.575462 0.247614 0.013444
Si Si4 0.172319 0.401336 0.893221
Si Si5 0.950024 0.284539 0.457223
Si Si6 0.966464 0.267805 0.825298
Si Si7 0.306900 0.050486 0.384655
Si Si8 0.388656 0.900213 0.838095
O O1 0.721955 0.241627 0.336455
O O2 0.939792 0.352017 0.373942
O O3 0.041963 0.451471 0.208268
O O4 0.010580 0.959474 0.246665
O O5 0.500000 0.500000 0.500000
O O6 0.622053 0.742503 0.576701
O O7 0.500000 0.000000 0.500000
O O8 0.522288 0.228436 0.119390
O O9 0.500000 0.500000 0.000000
O O10 0.788795 0.238510 0.935262
O O11 0.500000 0.000000 0.000000
O O12 0.281846 0.660156 0.837941
O O13 0.127526 0.262411 0.828936
O O14 0.274475 0.165495 0.900824
O O15 0.000000 0.500000 0.000000
O O16 0.121624 0.092320 0.404414
O O17 0.000000 0.500000 0.500000
O O18 0.749341 0.194588 0.547146
O O19 0.460447 0.997017 0.269929
#
# Coordination Sequence:
#
# PCOD8036443 Si02
#       8
#     2   2   2   2   2   2   2   2
#     4  12  27  47  75 107 145 199 242 306 374 445
#     4  12  24  45  74 104 145 187 242 304 373 434
#     4  12  28  48  72 108 149 196 246 303 361 446
#     4  12  25  49  78 111 149 191 247 311 380 437
#     4  11  27  48  73 104 152 195 253 307 371 444
#     4  12  27  46  76 105 148 189 248 302 370 442
#     4  11  27  46  72 109 144 196 248 311 369 447
#     4  12  28  47  79 108 149 196 248 308 377 444
#
# _framework density 23.428501000000001
#
# number of rings (size 3 to 8) (size 9 to 14) (size 15 to 20)
#    0.000    0.250    2.500    5.625   10.500    0.000 
#    0.000    0.000    0.000    0.000    0.000    0.000 
#    0.000    0.000    0.000    0.000    0.000    0.000 
#
# Total GULP energy -198292.200217 kJ/mol
# GULP energy per Si atom -12393.262514 kJ/mol
# Density = 2.337518 g / cm^3
# Si number density = 23.428501 Si / 1000 Ang^3
#
#
#
# Elastic Constant Matrix: (Units=GPa)
#
#
# Indices 1 2 3 4 5 6 
#
# 1 108.4556 34.7589 44.7903 -6.7269 10.5242 15.5021
# 2 34.7589 153.4989 40.1841 -0.4395 -0.8818 3.2153
# 3 44.7903 40.1841 125.0684 -6.7129 3.5432 8.3673
# 4 -6.7269 -0.4395 -6.7129 36.2867 4.3913 1.0987
# 5 10.5242 -0.8818 3.5432 4.3913 41.8406 -0.0700
# 6 15.5021 3.2153 8.3673 1.0987 -0.0700 45.9924
#
#
#
# Elastic Compliance Matrix: (Units=1/GPa)
#
#
# Indices 1 2 3 4 5 6 
#
# 1 0.012077 -0.001806 -0.003321 0.002071 -0.003018 -0.003394
# 2 -0.001806 0.007393 -0.001819 -0.000697 0.000838 0.000441
# 3 -0.003321 -0.001819 0.009879 0.001228 -0.000169 -0.000580
# 4 0.002071 -0.000697 0.001228 0.028650 -0.003649 -0.001563
# 5 -0.003018 0.000838 -0.000169 -0.003649 0.025076 0.001115
# 6 -0.003394 0.000441 -0.000580 -0.001563 0.001115 0.023001
#
#
# Mechanical properties :
#
#
# Convention : Reuss Voigt Hill
#
# Bulk Modulus (GPa) = 64.69559 69.60994 67.15277
# Shear Modulus (GPa) = 39.96125 42.64324 41.30224
#
# Velocity S-wave (km/s) = 4.13445 4.27094 4.20325
# Velocity P-wave (km/s) = 7.10392 7.35509 7.23060
#
# Compressibility (1/GPa) = 0.01545700
#
# Stress axis : x y z
#
# Youngs Moduli (GPa) = 82.80153 135.25435 101.22303
#
# Poissons Ratio (x) = 0.24422 0.33619
# Poissons Ratio (y) = 0.14951 0.18417
# Poissons Ratio (z) = 0.27501 0.24609
#
# Static dielectric constant tensor:
#      x y z
#    x 3.589970 0.343360 0.041990 
#    y 0.343360 4.191780 -0.106490 
#    z 0.041990 -0.106490 4.393260 
# 
# 
# High freq. dielectric constant tensor:
#      x y z
#    x 1.938480 0.012250 0.002450 
#    y 0.012250 1.932750 -0.009900 
#    z 0.002450 -0.009900 1.934720 
# 
# From -- ./inp_files/553519.got.cif
#   From: 2010.06.25/outbox.cif.g09.slc.cpg/sg2_277_cif.got.tgz:553519.got - 2010.06.27 13:26:56.
