data_PCOD8036428
_publ_section_title
;
Structure prediction by ZEFSAII (Michael W. Deem and Ramdas Pophale) SiO2 
 PCOD8036428
Probable space group: P -1
;
_chemical_formula_sum "Si O2"
_cell_formula_units_Z 10
_cell_length_a 8.858883
_cell_length_b 4.969399
_cell_length_c 12.572985
_cell_angle_alpha 73.979096
_cell_angle_beta 78.363027
_cell_angle_gamma 125.759221
_cell_volume 382.110246
_symmetry_space_group_name_H-M "P -1"
_symmetry_group_IT_number 2
_symmetry_cell_setting 'triclinic'
loop_
_space_group_symop_operation_xyz
x,y,z
-x,-y,-z
loop_
_atom_site_type_symbol
_atom_site_label
_atom_site_fract_x
_atom_site_fract_y
_atom_site_fract_z
Si Si1 0.849843 0.123358 0.131657
Si Si2 0.093917 0.408514 0.740573
Si Si3 0.150390 0.429449 0.318870
Si Si4 0.290549 0.412433 0.516824
Si Si5 0.469456 0.658488 0.086856
O O1 0.799497 0.235917 0.233005
O O2 0.957769 0.956456 0.159350
O O3 0.639144 0.790178 0.136875
O O4 0.000000 0.500000 0.000000
O O5 0.260431 0.585008 0.601392
O O6 0.873161 0.271468 0.744552
O O7 0.297517 0.592428 0.384875
O O8 0.247022 0.373630 0.212302
O O9 0.912519 0.037296 0.415343
O O10 0.500000 0.500000 0.500000
O O11 0.500000 0.500000 0.000000
O O12 0.500000 0.000000 0.000000
#
# Coordination Sequence:
#
# PCOD8036428 Si02
#       5
#     2   2   2   2   2
#     4  12  27  48  81 115 158 214 267 321 398 476
#     4  12  25  50  77 116 158 201 269 329 390 471
#     4  11  27  49  82 118 159 210 267 326 398 476
#     4  11  26  52  82 116 160 210 266 332 397 471
#     4  12  29  51  78 116 163 207 260 329 398 472
#
# _framework density 26.170459000000001
#
# number of rings (size 3 to 8) (size 9 to 14) (size 15 to 20)
#    0.000    0.400    2.000    4.800    5.600    0.800 
#    3.600    0.000    0.000    0.000    0.000    0.000 
#    0.000    0.000    0.000    0.000    0.000    0.000 
#
# Total GULP energy -123976.106083 kJ/mol
# GULP energy per Si atom -12397.610608 kJ/mol
# Density = 2.611089 g / cm^3
# Si number density = 26.170459 Si / 1000 Ang^3
#
#
#
# Elastic Constant Matrix: (Units=GPa)
#
#
# Indices 1 2 3 4 5 6 
#
# 1 257.6153 89.2305 113.0227 25.9475 13.8597 -4.2600
# 2 89.2305 101.5941 43.5475 32.9015 9.5563 -16.1300
# 3 113.0227 43.5475 164.5634 38.5455 1.0317 -3.7934
# 4 25.9475 32.9015 38.5455 55.1024 2.0531 -3.4047
# 5 13.8597 9.5563 1.0317 2.0531 58.2241 2.6114
# 6 -4.2600 -16.1300 -3.7934 -3.4047 2.6114 54.9800
#
#
#
# Elastic Compliance Matrix: (Units=1/GPa)
#
#
# Indices 1 2 3 4 5 6 
#
# 1 0.007528 -0.005811 -0.004338 0.002915 -0.000810 -0.001202
# 2 -0.005811 0.018010 0.001361 -0.008638 -0.001492 0.004463
# 3 -0.004338 0.001361 0.010061 -0.005816 0.000820 0.000358
# 4 0.002915 -0.008638 -0.005816 0.025935 -0.000038 -0.001102
# 5 -0.000810 -0.001492 0.000820 -0.000038 0.017657 -0.001285
# 6 -0.001202 0.004463 0.000358 -0.001102 -0.001285 0.019422
#
#
# Mechanical properties :
#
#
# Convention : Reuss Voigt Hill
#
# Bulk Modulus (GPa) = 55.48559 112.81936 84.15247
# Shear Modulus (GPa) = 40.91733 52.19277 46.55505
#
# Velocity S-wave (km/s) = 3.95839 4.47065 4.22230
# Velocity P-wave (km/s) = 6.49149 8.35775 7.48303
#
# Compressibility (1/GPa) = 0.01802270
#
# Stress axis : x y z
#
# Youngs Moduli (GPa) = 132.84274 55.52432 99.39056
#
# Poissons Ratio (x) = 0.32265 0.43114
# Poissons Ratio (y) = 0.77195 -0.13523
# Poissons Ratio (z) = 0.57624 -0.07554
#
# Static dielectric constant tensor:
#      x y z
#    x 5.268490 -0.041000 0.218610 
#    y -0.041000 4.377970 0.194950 
#    z 0.218610 0.194950 5.324950 
# 
# 
# High freq. dielectric constant tensor:
#      x y z
#    x 2.073020 -0.003240 0.012130 
#    y -0.003240 2.039790 0.016870 
#    z 0.012130 0.016870 2.064510 
# 
# From -- ./inp_files/371722.got.cif
#   From: 2010.06.25/outbox.cif.g09.slc.cpg/sg2_186_cif.got.tgz:371722.got - 2010.06.27 13:26:56.
