data_PCOD8036036
_publ_section_title
;
Structure prediction by ZEFSAII (Michael W. Deem and Ramdas Pophale) SiO2 
 PCOD8036036
Probable space group: P -1
;
_chemical_formula_sum "Si O2"
_cell_formula_units_Z 16
_cell_length_a 31.464475
_cell_length_b 4.941608
_cell_length_c 9.335448
_cell_angle_alpha 89.695641
_cell_angle_beta 29.404723
_cell_angle_gamma 98.409268
_cell_volume 678.170814
_symmetry_space_group_name_H-M "P -1"
_symmetry_group_IT_number 2
_symmetry_cell_setting 'triclinic'
loop_
_space_group_symop_operation_xyz
x,y,z
-x,-y,-z
loop_
_atom_site_type_symbol
_atom_site_label
_atom_site_fract_x
_atom_site_fract_y
_atom_site_fract_z
Si Si1 0.459619 0.308161 0.337100
Si Si2 0.655256 0.641475 0.068993
Si Si3 0.378330 0.194323 0.277536
Si Si4 0.804357 0.743494 0.098565
Si Si5 0.960804 0.431837 0.269357
Si Si6 0.914901 0.350130 0.847545
Si Si7 0.838662 0.815466 0.675123
Si Si8 0.601895 0.094118 0.043762
O O1 0.395416 0.427835 0.628105
O O2 0.406220 0.131387 0.357085
O O3 0.498437 0.098070 0.320439
O O4 0.541166 0.568824 0.038314
O O5 0.656086 0.363701 0.978492
O O6 0.603988 0.814514 0.123563
O O7 0.761291 0.809593 0.785079
O O8 0.289760 0.296193 0.543656
O O9 0.356375 0.915364 0.239589
O O10 0.830323 0.458426 0.053166
O O11 0.792217 0.791141 0.966447
O O12 0.884614 0.011237 0.921661
O O13 0.877518 0.552275 0.544327
O O14 0.052010 0.573323 0.089947
O O15 0.923351 0.096959 0.409250
O O16 0.000000 0.500000 0.000000
O O17 0.000000 0.500000 0.500000
#
# Coordination Sequence:
#
# PCOD8036036 Si02
#       8
#     2   2   2   2   2   2   2   2
#     4  11  25  50  73 107 146 198 241 295 365 420
#     4  12  27  46  78 102 150 196 239 294 361 430
#     4  11  27  47  74 109 149 189 244 304 354 419
#     4  12  25  46  75 106 142 186 245 294 347 426
#     4  12  27  47  74 106 145 180 231 296 365 428
#     4  12  24  45  78 103 137 185 236 294 354 426
#     4  12  24  49  72 107 141 188 240 286 356 436
#     4  12  26  48  69 107 144 191 249 293 356 424
#
# _framework density 23.592876
#
# number of rings (size 3 to 8) (size 9 to 14) (size 15 to 20)
#    0.000    0.250    5.000    3.375    3.500    3.000 
#    0.000    0.000    0.000    0.000    0.000    0.000 
#    0.000    0.000    0.000    0.000    0.000    0.000 
#
# Total GULP energy -198426.216849 kJ/mol
# GULP energy per Si atom -12401.638553 kJ/mol
# Density = 2.353918 g / cm^3
# Si number density = 23.592876 Si / 1000 Ang^3
#
#
#
# Elastic Constant Matrix: (Units=GPa)
#
#
# Indices 1 2 3 4 5 6 
#
# 1 145.3585 29.0503 37.5222 12.2265 8.7226 24.8943
# 2 29.0503 90.8318 25.1726 13.8260 14.1228 14.1155
# 3 37.5222 25.1726 76.6633 17.4631 -3.2123 18.1333
# 4 12.2265 13.8260 17.4631 26.9027 0.5595 7.2148
# 5 8.7226 14.1228 -3.2123 0.5595 36.9690 13.7077
# 6 24.8943 14.1155 18.1333 7.2148 13.7077 43.4966
#
#
#
# Elastic Compliance Matrix: (Units=1/GPa)
#
#
# Indices 1 2 3 4 5 6 
#
# 1 0.008477 -0.001255 -0.002967 -0.000487 -0.000693 -0.002908
# 2 -0.001255 0.013743 -0.003094 -0.004346 -0.005113 -0.000120
# 3 -0.002967 -0.003094 0.018901 -0.007928 0.005748 -0.005674
# 4 -0.000487 -0.004346 -0.007928 0.045556 0.001525 -0.003043
# 5 -0.000693 -0.005113 0.005748 0.001525 0.033814 -0.011250
# 6 -0.002908 -0.000120 -0.005674 -0.003043 -0.011250 0.031109
#
#
# Mechanical properties :
#
#
# Convention : Reuss Voigt Hill
#
# Bulk Modulus (GPa) = 37.75239 55.14931 46.45085
# Shear Modulus (GPa) = 28.56107 36.21423 32.38765
#
# Velocity S-wave (km/s) = 3.48311 3.92211 3.70911
# Velocity P-wave (km/s) = 5.67560 6.62848 6.17046
#
# Compressibility (1/GPa) = 0.02648839
#
# Stress axis : x y z
#
# Youngs Moduli (GPa) = 117.96809 72.76242 52.90670
#
# Poissons Ratio (x) = 0.09132 0.15697
# Poissons Ratio (y) = 0.14806 0.16372
# Poissons Ratio (z) = 0.35001 0.22516
#
# Static dielectric constant tensor:
#      x y z
#    x 4.364260 0.251610 0.317840 
#    y 0.251610 4.272900 0.283320 
#    z 0.317840 0.283320 3.879020 
# 
# 
# High freq. dielectric constant tensor:
#      x y z
#    x 1.953850 0.011170 0.002080 
#    y 0.011170 1.935360 0.015420 
#    z 0.002080 0.015420 1.929740 
# 
# From -- ./inp_files/358224.got.cif
#   From: 2010.06.25/outbox.cif.g09.slc.cpg/sg2_180_cif.got.tgz:358224.got - 2010.06.27 13:26:56.
