data_PCOD8036778
_publ_section_title
;
Structure prediction by ZEFSAII (Michael W. Deem and Ramdas Pophale) SiO2 
 PCOD8036778
Probable space group: P -1
;
_chemical_formula_sum "Si O2"
_cell_formula_units_Z 16
_cell_length_a 8.723329
_cell_length_b 14.047159
_cell_length_c 14.046922
_cell_angle_alpha 94.576553
_cell_angle_beta 129.962126
_cell_angle_gamma 50.037744
_cell_volume 833.379242
_symmetry_space_group_name_H-M "P -1"
_symmetry_group_IT_number 2
_symmetry_cell_setting 'triclinic'
loop_
_space_group_symop_operation_xyz
x,y,z
-x,-y,-z
loop_
_atom_site_type_symbol
_atom_site_label
_atom_site_fract_x
_atom_site_fract_y
_atom_site_fract_z
Si Si1 0.072357 0.014582 0.326740
Si Si2 0.927641 0.826738 0.514581
Si Si3 0.837935 0.912724 0.157664
Si Si4 0.871475 0.570041 0.349372
Si Si5 0.162062 0.657659 0.412720
Si Si6 0.201512 0.115466 0.226001
Si Si7 0.798488 0.726005 0.615472
Si Si8 0.871474 0.150624 0.929954
O O1 0.972644 0.113005 0.386997
O O2 0.061733 0.083952 0.234489
O O3 0.427050 0.844144 0.465502
O O4 0.829545 0.015493 0.222010
O O5 0.938269 0.734498 0.583962
O O6 0.170450 0.721998 0.515495
O O7 0.572946 0.965500 0.344141
O O8 0.000001 0.770049 0.270049
O O9 0.047093 0.857359 0.145779
O O10 0.500000 0.000000 0.000000
O O11 0.499996 0.701377 0.201375
O O12 0.000000 0.500000 0.500000
O O13 0.952907 0.645770 0.357341
O O14 0.026220 0.439881 0.325300
O O15 0.500000 0.500000 0.500000
O O16 0.134262 0.242717 0.257275
O O17 0.026246 0.174686 0.060117
O O18 0.000000 0.000000 0.000000
#
# Coordination Sequence:
#
# PCOD8036778 Si02
#       8
#     2   2   2   2   2   2   2   2
#     4   9  18  36  63  90 118 155 202 252 302 360
#     4   9  18  36  63  90 118 155 202 252 302 360
#     4  12  25  39  58  90 128 159 199 251 306 361
#     4  12  23  39  64  88 120 163 208 252 299 357
#     4  12  25  39  58  90 128 159 199 251 306 361
#     4   9  18  35  63  94 117 149 206 261 298 348
#     4   9  18  35  63  94 117 149 206 261 298 348
#     4  12  23  39  64  88 120 163 208 252 299 357
#
# _framework density 19.198941000000001
#
# number of rings (size 3 to 8) (size 9 to 14) (size 15 to 20)
#    0.000    1.500    2.500    6.000    0.000    1.000 
#    0.000    1.250    0.000    1.500    0.000    0.000 
#    0.000    0.000    0.000    0.000    0.000    0.000 
#
# Total GULP energy -198405.672285 kJ/mol
# GULP energy per Si atom -12400.354518 kJ/mol
# Density = 1.915524 g / cm^3
# Si number density = 19.198941 Si / 1000 Ang^3
#
#
#
# Elastic Constant Matrix: (Units=GPa)
#
#
# Indices 1 2 3 4 5 6 
#
# 1 75.7134 44.2261 23.2063 10.5937 -6.4691 2.7012
# 2 44.2261 149.2687 57.6275 9.3761 0.4621 -5.1191
# 3 23.2063 57.6275 89.1364 20.9331 0.4597 4.7424
# 4 10.5937 9.3761 20.9331 30.6894 3.5021 3.4284
# 5 -6.4691 0.4621 0.4597 3.5021 33.7371 1.8174
# 6 2.7012 -5.1191 4.7424 3.4284 1.8174 37.3465
#
#
#
# Elastic Compliance Matrix: (Units=1/GPa)
#
#
# Indices 1 2 3 4 5 6 
#
# 1 0.017085 -0.004751 -0.000243 -0.004544 0.003904 -0.001629
# 2 -0.004751 0.010440 -0.006243 0.002597 -0.001368 0.002396
# 3 -0.000243 -0.006243 0.017779 -0.009996 0.000954 -0.002225
# 4 -0.004544 0.002597 -0.009996 0.040915 -0.004934 -0.001562
# 5 0.003904 -0.001368 0.000954 -0.004934 0.030996 -0.001646
# 6 -0.001629 0.002396 -0.002225 -0.001562 -0.001646 0.027728
#
#
# Mechanical properties :
#
#
# Convention : Reuss Voigt Hill
#
# Bulk Modulus (GPa) = 43.80099 62.69315 53.24707
# Shear Modulus (GPa) = 28.56676 32.95852 30.76264
#
# Velocity S-wave (km/s) = 3.86156 4.14778 4.00723
# Velocity P-wave (km/s) = 6.53804 7.46084 7.01463
#
# Compressibility (1/GPa) = 0.02283053
#
# Stress axis : x y z
#
# Youngs Moduli (GPa) = 58.53241 95.78102 56.24475
#
# Poissons Ratio (x) = 0.45502 0.01366
# Poissons Ratio (y) = 0.27807 0.35116
# Poissons Ratio (z) = 0.01422 0.59800
#
# Static dielectric constant tensor:
#      x y z
#    x 3.437160 0.014520 -0.034860 
#    y 0.014520 3.829250 0.206090 
#    z -0.034860 0.206090 3.420370 
# 
# 
# High freq. dielectric constant tensor:
#      x y z
#    x 1.738020 0.000690 -0.001650 
#    y 0.000690 1.761680 0.013780 
#    z -0.001650 0.013780 1.734350 
# 
# From -- ./inp_files/258892.got.cif
#   From: 2010.06.25/outbox.cif.g09.slc.cpg/sg2_130_cif.got.tgz:258892.got - 2010.06.27 13:26:56.
