data_PCOD8036852
_publ_section_title
;
Structure prediction by ZEFSAII (Michael W. Deem and Ramdas Pophale) SiO2 
 PCOD8036852
Probable space group: P -1
;
_chemical_formula_sum "Si O2"
_cell_formula_units_Z 16
_cell_length_a 26.629199
_cell_length_b 26.127511
_cell_length_c 8.829644
_cell_angle_alpha 40.429684
_cell_angle_beta 41.680028
_cell_angle_gamma 11.137306
_cell_volume 769.552147
_symmetry_space_group_name_H-M "P -1"
_symmetry_group_IT_number 2
_symmetry_cell_setting 'triclinic'
loop_
_space_group_symop_operation_xyz
x,y,z
-x,-y,-z
loop_
_atom_site_type_symbol
_atom_site_label
_atom_site_fract_x
_atom_site_fract_y
_atom_site_fract_z
Si Si1 0.000183 0.658695 0.337799
Si Si2 0.000043 0.327349 0.347542
Si Si3 0.500002 0.585466 0.877242
Si Si4 0.500057 0.412154 0.764178
Si Si5 0.499809 0.950626 0.464683
Si Si6 0.999985 0.834738 0.442880
Si Si7 0.999934 0.172832 0.180533
Si Si8 0.499948 0.072510 0.943698
O O1 0.250929 0.353637 0.435745
O O2 0.999976 0.696283 0.422060
O O3 0.749821 0.854603 0.435926
O O4 0.000049 0.732505 0.056232
O O5 0.000060 0.256149 0.391848
O O6 0.749122 0.626972 0.200288
O O7 0.250945 0.125155 0.200251
O O8 0.750579 0.377794 0.717638
O O9 0.249459 0.878908 0.717614
O O10 0.500000 0.500000 0.000000
O O11 0.499964 0.584204 0.062152
O O12 0.500000 0.500000 0.500000
O O13 0.250355 0.615001 0.811345
O O14 0.749877 0.115513 0.811327
O O15 0.500000 0.000000 0.500000
O O16 0.499903 0.032555 0.192970
O O17 0.999998 0.846513 0.597311
O O18 0.500000 0.000000 0.000000
#
# Coordination Sequence:
#
# PCOD8036852 Si02
#       8
#     2   2   2   2   2   2   2   2
#     4  12  24  45  65  95 132 176 217 278 333 403
#     4  12  24  42  69  94 132 172 223 274 337 394
#     4  12  25  47  74 103 140 179 230 276 330 402
#     4  12  25  47  74 103 140 183 222 276 338 405
#     4  12  27  41  66  93 132 170 225 274 340 393
#     4  12  27  45  70 106 137 181 228 282 334 402
#     4  12  27  45  70 103 143 178 228 276 346 401
#     4  12  23  43  66  95 126 172 223 278 330 403
#
# _framework density 20.791312999999999
#
# number of rings (size 3 to 8) (size 9 to 14) (size 15 to 20)
#    0.000    0.000    2.500    8.250    3.500    0.000 
#    0.000    0.000    0.000    0.000    0.000    0.000 
#    0.000    0.000    0.000    0.000    0.000    0.000 
#
# Total GULP energy -198326.483289 kJ/mol
# GULP energy per Si atom -12395.405206 kJ/mol
# Density = 2.074399 g / cm^3
# Si number density = 20.791313 Si / 1000 Ang^3
#
#
#
# Elastic Constant Matrix: (Units=GPa)
#
#
# Indices 1 2 3 4 5 6 
#
# 1 208.7003 24.3209 69.0441 74.3357 -1.4498 -134.9751
# 2 24.3209 263.9218 62.5151 -85.0151 13.1988 157.9037
# 3 69.0441 62.5151 156.6790 17.8292 11.0716 -32.3796
# 4 74.3357 -85.0151 17.8292 179.5098 -33.1051 -261.2943
# 5 -1.4498 13.1988 11.0716 -33.1051 66.0350 66.9587
# 6 -134.9751 157.9037 -32.3796 -261.2943 66.9587 540.2497
#
#
#
# Elastic Compliance Matrix: (Units=1/GPa)
#
#
# Indices 1 2 3 4 5 6 
#
# 1 0.007167 -0.001567 -0.001920 -0.001419 -0.001586 0.001643
# 2 -0.001567 0.005921 -0.002321 0.001348 0.001691 -0.001819
# 3 -0.001920 -0.002321 0.008497 -0.000424 -0.001973 0.000747
# 4 -0.001419 0.001348 -0.000424 0.019311 0.000876 0.008457
# 5 -0.001586 0.001691 -0.001973 0.000876 0.018453 -0.002872
# 6 0.001643 -0.001819 0.000747 0.008457 -0.002872 0.007284
#
#
# Mechanical properties :
#
#
# Convention : Reuss Voigt Hill
#
# Bulk Modulus (GPa) = 100.30684 104.56237 102.43460
# Shear Modulus (GPa) = 61.29687 188.72030 125.00859
#
# Velocity S-wave (km/s) = 5.43562 9.53760 7.76247
# Velocity P-wave (km/s) = 9.36717 13.10299 11.38930
#
# Compressibility (1/GPa) = 0.00996941
#
# Stress axis : x y z
#
# Youngs Moduli (GPa) = 139.53401 168.89323 117.69416
#
# Poissons Ratio (x) = 0.26463 0.22595
# Poissons Ratio (y) = 0.21863 0.27314
# Poissons Ratio (z) = 0.26788 0.39196
#
# Static dielectric constant tensor:
#      x y z
#    x 4.098980 0.002140 0.102670 
#    y 0.002140 4.036530 0.010520 
#    z 0.102670 0.010520 4.097830 
# 
# 
# High freq. dielectric constant tensor:
#      x y z
#    x 1.838720 -0.000280 0.001350 
#    y -0.000280 1.840140 0.000310 
#    z 0.001350 0.000310 1.837870 
# 
# From -- ./inp_files/357955.got.cif
#   From: 2010.06.25/outbox.cif.g09.slc.cpg/sg2_179_cif.got.tgz:357955.got - 2010.06.27 13:26:56.
