data_PCOD8036918
_publ_section_title
;
Structure prediction by ZEFSAII (Michael W. Deem and Ramdas Pophale) SiO2 
 PCOD8036918
Probable space group: P -1
;
_chemical_formula_sum "Si O2"
_cell_formula_units_Z 16
_cell_length_a 6.723007
_cell_length_b 14.922979
_cell_length_c 13.934022
_cell_angle_alpha 53.615438
_cell_angle_beta 117.568834
_cell_angle_gamma 139.825831
_cell_volume 725.910139
_symmetry_space_group_name_H-M "P -1"
_symmetry_group_IT_number 2
_symmetry_cell_setting 'triclinic'
loop_
_space_group_symop_operation_xyz
x,y,z
-x,-y,-z
loop_
_atom_site_type_symbol
_atom_site_label
_atom_site_fract_x
_atom_site_fract_y
_atom_site_fract_z
Si Si1 0.652969 0.954741 0.123334
Si Si2 0.301867 0.765554 0.345743
Si Si3 0.636282 0.545100 0.255005
Si Si4 0.586097 0.287170 0.924902
Si Si5 0.601879 0.636193 0.502351
Si Si6 0.716446 0.085409 0.585058
Si Si7 0.292658 0.521721 0.890523
Si Si8 0.347499 0.156077 0.154354
O O1 0.521686 0.905945 0.232196
O O2 0.579716 0.812555 0.145147
O O3 0.015084 0.102202 0.114809
O O4 0.500000 0.000000 0.000000
O O5 0.355717 0.651757 0.426101
O O6 0.366132 0.831520 0.426125
O O7 0.949635 0.673815 0.300933
O O8 0.491560 0.610163 0.143192
O O9 0.391881 0.402992 0.361230
O O10 0.704518 0.488845 0.216590
O O11 0.949174 0.391174 0.935778
O O12 0.457512 0.174663 0.058092
O O13 0.500000 0.500000 0.500000
O O14 0.934477 0.795864 0.448768
O O15 0.500000 0.000000 0.500000
O O16 0.668012 0.967130 0.720625
O O17 0.411957 0.685047 0.836835
O O18 0.500000 0.500000 0.000000
#
# Coordination Sequence:
#
# PCOD8036918 Si02
#       8
#     2   2   2   2   2   2   2   2
#     4  12  23  44  76 105 144 188 238 300 370 433
#     4  12  25  49  73 107 144 190 250 302 360 438
#     4  12  26  44  80 106 138 193 248 300 364 426
#     4  12  25  47  76 106 145 189 242 300 365 440
#     4  12  27  48  78 105 145 192 253 303 355 438
#     4  12  30  48  72 108 149 197 242 302 378 428
#     4  12  27  47  72 112 147 191 242 296 370 438
#     4  12  26  47  70 107 155 184 242 306 364 437
#
# _framework density 22.041295999999999
#
# number of rings (size 3 to 8) (size 9 to 14) (size 15 to 20)
#    0.000    0.000    5.000    4.875    3.500    1.500 
#    0.000    0.000    0.000    0.000    0.000    0.000 
#    0.000    0.000    0.000    0.000    0.000    0.000 
#
# Total GULP energy -198549.186493 kJ/mol
# GULP energy per Si atom -12409.324156 kJ/mol
# Density = 2.199113 g / cm^3
# Si number density = 22.041296 Si / 1000 Ang^3
#
#
#
# Elastic Constant Matrix: (Units=GPa)
#
#
# Indices 1 2 3 4 5 6 
#
# 1 113.5012 29.7758 53.2099 3.6083 -10.1282 2.3241
# 2 29.7758 87.3621 38.0938 7.4993 -17.6938 2.0002
# 3 53.2099 38.0938 139.5880 -9.3092 -13.1663 11.2624
# 4 3.6083 7.4993 -9.3092 40.4584 0.3278 -6.6591
# 5 -10.1282 -17.6938 -13.1663 0.3278 46.6449 -2.0700
# 6 2.3241 2.0002 11.2624 -6.6591 -2.0700 38.2141
#
#
#
# Elastic Compliance Matrix: (Units=1/GPa)
#
#
# Indices 1 2 3 4 5 6 
#
# 1 0.011195 -0.001901 -0.003811 -0.001475 0.000659 0.000320
# 2 -0.001901 0.014580 -0.003063 -0.003287 0.004272 -0.000086
# 3 -0.003811 -0.003063 0.009867 0.002846 0.000688 -0.001983
# 4 -0.001475 -0.003287 0.002846 0.026785 -0.000772 0.004049
# 5 0.000659 0.004272 0.000688 -0.000772 0.023431 0.000668
# 6 0.000320 -0.000086 -0.001983 0.004049 0.000668 0.027479
#
#
# Mechanical properties :
#
#
# Convention : Reuss Voigt Hill
#
# Bulk Modulus (GPa) = 55.27543 64.73447 60.00495
# Shear Modulus (GPa) = 36.51810 39.68829 38.10320
#
# Velocity S-wave (km/s) = 4.07480 4.24799 4.16230
# Velocity P-wave (km/s) = 6.87541 7.31396 7.09807
#
# Compressibility (1/GPa) = 0.01809122
#
# Stress axis : x y z
#
# Youngs Moduli (GPa) = 89.32715 68.58830 101.34608
#
# Poissons Ratio (x) = 0.13040 0.38619
# Poissons Ratio (y) = 0.16983 0.31046
# Poissons Ratio (z) = 0.34039 0.21011
#
# Static dielectric constant tensor:
#      x y z
#    x 4.322780 -0.056980 -0.218150 
#    y -0.056980 4.234050 -0.096240 
#    z -0.218150 -0.096240 4.142730 
# 
# 
# High freq. dielectric constant tensor:
#      x y z
#    x 1.882580 0.000360 -0.010810 
#    y 0.000360 1.869550 -0.006660 
#    z -0.010810 -0.006660 1.880640 
# 
# From -- ./inp_files/367989.got.cif
#   From: 2010.06.25/outbox.cif.g09.slc.cpg/sg2_184_cif.got.tgz:367989.got - 2010.06.27 13:26:56.
