data_PCOD8036151
_publ_section_title
;
Structure prediction by ZEFSAII (Michael W. Deem and Ramdas Pophale) SiO2 
 PCOD8036151
Probable space group: P -1
;
_chemical_formula_sum "Si O2"
_cell_formula_units_Z 16
_cell_length_a 8.429244
_cell_length_b 13.048957
_cell_length_c 19.187940
_cell_angle_alpha 24.593010
_cell_angle_beta 44.837868
_cell_angle_gamma 48.587411
_cell_volume 618.317879
_symmetry_space_group_name_H-M "P -1"
_symmetry_group_IT_number 2
_symmetry_cell_setting 'triclinic'
loop_
_space_group_symop_operation_xyz
x,y,z
-x,-y,-z
loop_
_atom_site_type_symbol
_atom_site_label
_atom_site_fract_x
_atom_site_fract_y
_atom_site_fract_z
Si Si1 0.315486 0.684582 0.704840
Si Si2 0.844831 0.804427 0.810290
Si Si3 0.432147 0.460590 0.158920
Si Si4 0.746661 0.638317 0.446639
Si Si5 0.952822 0.718619 0.184200
Si Si6 0.890160 0.122540 0.731722
Si Si7 0.631666 0.971433 0.643150
Si Si8 0.325566 0.225690 0.895824
O O1 0.504704 0.712952 0.687016
O O2 0.401395 0.466706 0.761870
O O3 0.072951 0.625377 0.850739
O O4 0.284443 0.933050 0.516086
O O5 0.835995 0.927694 0.660160
O O6 0.878589 0.021511 0.720033
O O7 0.610999 0.674276 0.975235
O O8 0.468161 0.294785 0.180067
O O9 0.175407 0.568120 0.178782
O O10 0.884861 0.624240 0.339814
O O11 0.688502 0.348663 0.659972
O O12 0.886701 0.732949 0.410927
O O13 0.536196 0.832110 0.386215
O O14 0.743123 0.700496 0.207341
O O15 0.000000 0.000000 0.000000
O O16 0.891544 0.892452 0.926991
O O17 0.500000 0.000000 0.000000
#
# Coordination Sequence:
#
# PCOD8036151 Si02
#       8
#     2   2   2   2   2   2   2   2
#     4  12  27  47  74 107 145 195 250 305 370 428
#     4  12  27  47  75 108 147 196 247 306 368 436
#     4  12  27  49  76 107 147 199 246 301 370 442
#     4  11  27  46  74 108 149 193 241 308 369 438
#     4  12  26  46  75 109 146 194 246 302 368 440
#     4  11  26  45  73 103 149 189 248 293 376 432
#     4  12  28  47  74 109 149 193 250 299 372 437
#     4  12  26  46  73 104 149 191 247 303 367 439
#
# _framework density 25.876657999999999
#
# number of rings (size 3 to 8) (size 9 to 14) (size 15 to 20)
#    0.000    0.250    2.500    5.250   10.500    0.500 
#    0.000    0.000    0.000    0.000    0.000    0.000 
#    0.000    0.000    0.000    0.000    0.000    0.000 
#
# Total GULP energy -198318.090142 kJ/mol
# GULP energy per Si atom -12394.880634 kJ/mol
# Density = 2.581776 g / cm^3
# Si number density = 25.876658 Si / 1000 Ang^3
#
#
#
# Elastic Constant Matrix: (Units=GPa)
#
#
# Indices 1 2 3 4 5 6 
#
# 1 159.4077 49.2986 8.4499 -4.4201 18.1173 16.4997
# 2 49.2986 131.6404 6.2248 -19.2002 1.5972 0.2763
# 3 8.4499 6.2248 74.1831 -7.1764 14.7560 16.1484
# 4 -4.4201 -19.2002 -7.1764 33.2908 9.2400 -3.6610
# 5 18.1173 1.5972 14.7560 9.2400 33.8016 0.1929
# 6 16.4997 0.2763 16.1484 -3.6610 0.1929 55.7031
#
#
#
# Elastic Compliance Matrix: (Units=1/GPa)
#
#
# Indices 1 2 3 4 5 6 
#
# 1 0.007916 -0.002856 0.000868 0.000600 -0.004636 -0.002527
# 2 -0.002856 0.009439 -0.000163 0.005239 -0.000283 0.001192
# 3 0.000868 -0.000163 0.016837 0.005725 -0.009346 -0.004729
# 4 0.000600 0.005239 0.005725 0.038201 -0.013515 0.000694
# 5 -0.004636 -0.000283 -0.009346 -0.013515 0.039840 0.003058
# 6 -0.002527 0.001192 -0.004729 0.000694 0.003058 0.020101
#
#
# Mechanical properties :
#
#
# Convention : Reuss Voigt Hill
#
# Bulk Modulus (GPa) = 33.45663 54.79755 44.12709
# Shear Modulus (GPa) = 34.10674 44.64297 39.37485
#
# Velocity S-wave (km/s) = 3.63444 4.15808 3.90505
# Velocity P-wave (km/s) = 5.52897 6.65397 6.11738
#
# Compressibility (1/GPa) = 0.02988945
#
# Stress axis : x y z
#
# Youngs Moduli (GPa) = 126.33161 105.94432 59.39244
#
# Poissons Ratio (x) = 0.30262 -0.05157
# Poissons Ratio (y) = 0.36085 0.00968
# Poissons Ratio (z) = -0.10970 0.01728
#
# Static dielectric constant tensor:
#      x y z
#    x 12.171150 4.641820 -4.546760 
#    y 4.641820 7.676260 -2.994480 
#    z -4.546760 -2.994480 8.785280 
# 
# 
# High freq. dielectric constant tensor:
#      x y z
#    x 2.048130 0.004050 0.009780 
#    y 0.004050 2.040500 -0.006570 
#    z 0.009780 -0.006570 2.050420 
# 
# From -- ./inp_files/559507.got.cif
#   From: 2010.06.25/outbox.cif.g09.slc.cpg/sg2_280_cif.got.tgz:559507.got - 2010.06.27 13:26:56.
