data_PCOD8036180
_publ_section_title
;
Structure prediction by ZEFSAII (Michael W. Deem and Ramdas Pophale) SiO2 
 PCOD8036180
Probable space group: P -1
;
_chemical_formula_sum "Si O2"
_cell_formula_units_Z 16
_cell_length_a 15.849739
_cell_length_b 21.422750
_cell_length_c 6.740504
_cell_angle_alpha 77.387352
_cell_angle_beta 64.627035
_cell_angle_gamma 22.456091
_cell_volume 677.208600
_symmetry_space_group_name_H-M "P -1"
_symmetry_group_IT_number 2
_symmetry_cell_setting 'triclinic'
loop_
_space_group_symop_operation_xyz
x,y,z
-x,-y,-z
loop_
_atom_site_type_symbol
_atom_site_label
_atom_site_fract_x
_atom_site_fract_y
_atom_site_fract_z
Si Si1 0.585136 0.880890 0.603184
Si Si2 0.522773 0.318860 0.250611
Si Si3 0.988193 0.002655 0.279068
Si Si4 0.022218 0.211395 0.146497
Si Si5 0.972567 0.661910 0.717666
Si Si6 0.136610 0.059816 0.492643
Si Si7 0.256359 0.292385 0.813068
Si Si8 0.260957 0.606589 0.100006
O O1 0.722321 0.738186 0.420503
O O2 0.815855 0.757444 0.604228
O O3 0.500000 0.000000 0.500000
O O4 0.325694 0.016176 0.879522
O O5 0.731536 0.206794 0.295760
O O6 0.282730 0.430803 0.521106
O O7 0.345180 0.485326 0.194107
O O8 0.726167 0.154304 0.997705
O O9 0.957731 0.946223 0.311157
O O10 0.000000 0.000000 0.500000
O O11 0.004183 0.158472 0.337770
O O12 0.979691 0.296816 0.283986
O O13 0.777939 0.371473 0.115248
O O14 0.788953 0.746453 0.010048
O O15 0.034913 0.180008 0.663773
O O16 0.468169 0.850540 0.287070
O O17 0.000000 0.500000 0.000000
O O18 0.500000 0.500000 0.000000
#
# Coordination Sequence:
#
# PCOD8036180 Si02
#       8
#     2   2   2   2   2   2   2   2
#     4  12  23  44  75 104 149 196 245 307 370 446
#     4  11  26  46  70 107 142 187 251 305 370 449
#     4  11  28  49  74  97 149 202 246 309 381 450
#     4  12  25  42  78 112 146 191 249 321 376 443
#     4  12  25  43  74 111 145 189 251 304 377 449
#     4  12  25  48  73 108 149 193 250 311 380 450
#     4  12  27  46  71 109 158 201 245 305 381 462
#     4  12  26  45  76 108 146 191 256 319 373 438
#
# _framework density 23.626397999999998
#
# number of rings (size 3 to 8) (size 9 to 14) (size 15 to 20)
#    0.000    0.250    6.250    2.625    3.500    2.000 
#    2.250    0.000    0.000    0.000    0.000    0.000 
#    0.000    0.000    0.000    0.000    0.000    0.000 
#
# Total GULP energy -198272.964070 kJ/mol
# GULP energy per Si atom -12392.060254 kJ/mol
# Density = 2.357262 g / cm^3
# Si number density = 23.626398 Si / 1000 Ang^3
#
#
#
# Elastic Constant Matrix: (Units=GPa)
#
#
# Indices 1 2 3 4 5 6 
#
# 1 66.0809 27.6378 23.8983 -1.9481 18.9111 -22.5618
# 2 27.6378 128.2911 42.2854 -1.1868 22.5624 -25.0292
# 3 23.8983 42.2854 132.9970 5.2210 15.1203 -25.0237
# 4 -1.9481 -1.1868 5.2210 50.1327 -9.8791 -0.5632
# 5 18.9111 22.5624 15.1203 -9.8791 45.0112 -8.7270
# 6 -22.5618 -25.0292 -25.0237 -0.5632 -8.7270 37.1934
#
#
#
# Elastic Compliance Matrix: (Units=1/GPa)
#
#
# Indices 1 2 3 4 5 6 
#
# 1 0.021090 -0.001266 -0.000814 -0.000209 -0.006066 0.009967
# 2 -0.001266 0.010000 -0.001838 -0.000194 -0.003133 0.003987
# 3 -0.000814 -0.001838 0.009228 -0.001247 -0.001305 0.004153
# 4 -0.000209 -0.000194 -0.001247 0.021120 0.005331 0.000475
# 5 -0.006066 -0.003133 -0.001305 0.005331 0.027939 -0.000030
# 6 0.009967 0.003987 0.004153 0.000475 -0.000030 0.038410
#
#
# Mechanical properties :
#
#
# Convention : Reuss Voigt Hill
#
# Bulk Modulus (GPa) = 30.78524 57.22353 44.00439
# Shear Modulus (GPa) = 34.14127 42.03728 38.08928
#
# Velocity S-wave (km/s) = 3.80550 4.22269 4.01951
# Velocity P-wave (km/s) = 5.68924 6.93164 6.34094
#
# Compressibility (1/GPa) = 0.03248310
#
# Stress axis : x y z
#
# Youngs Moduli (GPa) = 47.41659 99.99613 108.36152
#
# Poissons Ratio (x) = 0.12655 0.08821
# Poissons Ratio (y) = 0.06001 0.19918
# Poissons Ratio (z) = 0.03860 0.18381
#
# Static dielectric constant tensor:
#      x y z
#    x 4.295990 0.012440 -0.210010 
#    y 0.012440 4.534820 -0.079210 
#    z -0.210010 -0.079210 4.804130 
# 
# 
# High freq. dielectric constant tensor:
#      x y z
#    x 1.909920 -0.011850 -0.007340 
#    y -0.011850 1.944260 -0.002000 
#    z -0.007340 -0.002000 1.965380 
# 
# From -- ./inp_files/112816.got.cif
#   From: 2010.06.25/outbox.cif.g09.slc.cpg/sg2_57_cif.got.tgz:112816.got - 2010.06.27 13:26:56.
