data_PCOD8036640
_publ_section_title
;
Structure prediction by ZEFSAII (Michael W. Deem and Ramdas Pophale) SiO2 
 PCOD8036640
Probable space group: P -1
;
_chemical_formula_sum "Si O2"
_cell_formula_units_Z 16
_cell_length_a 22.389412
_cell_length_b 5.137534
_cell_length_c 22.841321
_cell_angle_alpha 103.096018
_cell_angle_beta 19.282456
_cell_angle_gamma 110.428433
_cell_volume 766.813079
_symmetry_space_group_name_H-M "P -1"
_symmetry_group_IT_number 2
_symmetry_cell_setting 'triclinic'
loop_
_space_group_symop_operation_xyz
x,y,z
-x,-y,-z
loop_
_atom_site_type_symbol
_atom_site_label
_atom_site_fract_x
_atom_site_fract_y
_atom_site_fract_z
Si Si1 0.018068 0.120207 0.054327
Si Si2 0.430911 0.171413 0.525670
Si Si3 0.841240 0.225182 0.009119
Si Si4 0.148596 0.334032 0.626288
Si Si5 0.014384 0.880788 0.359372
Si Si6 0.584343 0.979830 0.595128
Si Si7 0.134406 0.641418 0.438759
Si Si8 0.471483 0.191079 0.984631
O O1 0.102123 0.470449 0.993276
O O2 0.158442 0.018865 0.957879
O O3 0.803604 0.982563 0.275510
O O4 0.000000 0.000000 0.000000
O O5 0.500000 0.500000 0.500000
O O6 0.513289 0.162554 0.384536
O O7 0.500000 0.000000 0.500000
O O8 0.990158 0.268683 0.820684
O O9 0.615914 0.097484 0.185207
O O10 0.287385 0.168324 0.501105
O O11 0.027498 0.218816 0.673402
O O12 0.285301 0.676558 0.513076
O O13 0.912261 0.600887 0.480839
O O14 0.915148 0.099516 0.477795
O O15 0.251782 0.029904 0.153504
O O16 0.367500 0.766747 0.212962
O O17 0.000000 0.500000 0.500000
O O18 0.500000 0.500000 0.000000
O O19 0.500000 0.000000 0.000000
#
# Coordination Sequence:
#
# PCOD8036640 Si02
#       8
#     2   2   2   2   2   2   2   2
#     4  12  23  41  66 101 135 168 223 287 345 407
#     4  12  22  38  64 100 131 165 222 281 338 406
#     4  12  24  46  69  93 134 181 221 281 342 397
#     4  12  26  47  67  96 139 183 230 270 331 412
#     4  12  26  43  68 104 136 181 230 272 327 414
#     4  12  25  46  70  95 135 182 226 280 345 394
#     4  12  23  43  72 101 142 178 218 281 345 384
#     4  12  23  41  70 103 138 178 219 276 342 393
#
# _framework density 20.865580000000001
#
# number of rings (size 3 to 8) (size 9 to 14) (size 15 to 20)
#    0.000    0.000    5.000    6.000    0.000    2.000 
#    0.000    0.000    0.000    0.000    0.000    0.000 
#    0.000    0.000    0.000    0.000    0.000    0.000 
#
# Total GULP energy -198480.983194 kJ/mol
# GULP energy per Si atom -12405.061450 kJ/mol
# Density = 2.081809 g / cm^3
# Si number density = 20.865580 Si / 1000 Ang^3
#
#
#
# Elastic Constant Matrix: (Units=GPa)
#
#
# Indices 1 2 3 4 5 6 
#
# 1 135.7669 60.5019 45.7302 2.1629 -12.9592 -5.1218
# 2 60.5019 133.4648 37.6819 7.8244 -6.9710 -19.7860
# 3 45.7302 37.6819 177.4387 3.7159 -14.4573 -10.3441
# 4 2.1629 7.8244 3.7159 33.6265 -5.3936 -0.2851
# 5 -12.9592 -6.9710 -14.4573 -5.3936 30.4529 1.7533
# 6 -5.1218 -19.7860 -10.3441 -0.2851 1.7533 42.2738
#
#
#
# Elastic Compliance Matrix: (Units=1/GPa)
#
#
# Indices 1 2 3 4 5 6 
#
# 1 0.009946 -0.004165 -0.001543 0.000936 0.002783 -0.001231
# 2 -0.004165 0.010338 -0.000873 -0.002074 -0.000425 0.004124
# 3 -0.001543 -0.000873 0.006447 -0.000059 0.002142 0.000893
# 4 0.000936 -0.002074 -0.000059 0.031033 0.005443 -0.000888
# 5 0.002783 -0.000425 0.002142 0.005443 0.035951 -0.000792
# 6 -0.001231 0.004124 0.000893 -0.000888 -0.000792 0.025682
#
#
# Mechanical properties :
#
#
# Convention : Reuss Voigt Hill
#
# Bulk Modulus (GPa) = 73.70200 81.61091 77.65645
# Shear Modulus (GPa) = 36.47491 41.45442 38.96467
#
# Velocity S-wave (km/s) = 4.18555 4.46212 4.32605
# Velocity P-wave (km/s) = 7.66534 8.10833 7.88994
#
# Compressibility (1/GPa) = 0.01356815
#
# Stress axis : x y z
#
# Youngs Moduli (GPa) = 100.54617 96.73232 155.11862
#
# Poissons Ratio (x) = 0.40287 0.23941
# Poissons Ratio (y) = 0.41876 0.13539
# Poissons Ratio (z) = 0.15518 0.08443
#
# Static dielectric constant tensor:
#      x y z
#    x 3.768060 0.035360 0.042180 
#    y 0.035360 3.953040 -0.054620 
#    z 0.042180 -0.054620 4.172840 
# 
# 
# High freq. dielectric constant tensor:
#      x y z
#    x 1.815090 -0.011120 -0.001420 
#    y -0.011120 1.837010 0.001080 
#    z -0.001420 0.001080 1.841870 
# 
# From -- ./inp_files/600787.got.cif
#   From: 2010.06.25/outbox.cif.g09.slc.cpg/sg2_301_cif.got.tgz:600787.got - 2010.06.27 13:26:56.
