data_PCOD8036146
_publ_section_title
;
Structure prediction by ZEFSAII (Michael W. Deem and Ramdas Pophale) SiO2 
 PCOD8036146
Probable space group: P -1
;
_chemical_formula_sum "Si O2"
_cell_formula_units_Z 16
_cell_length_a 19.401902
_cell_length_b 8.570574
_cell_length_c 23.282996
_cell_angle_alpha 147.286961
_cell_angle_beta 20.870944
_cell_angle_gamma 149.734262
_cell_volume 682.345043
_symmetry_space_group_name_H-M "P -1"
_symmetry_group_IT_number 2
_symmetry_cell_setting 'triclinic'
loop_
_space_group_symop_operation_xyz
x,y,z
-x,-y,-z
loop_
_atom_site_type_symbol
_atom_site_label
_atom_site_fract_x
_atom_site_fract_y
_atom_site_fract_z
Si Si1 0.155594 0.174605 0.883073
Si Si2 0.893718 0.850542 0.878560
Si Si3 0.551233 0.111392 0.430014
Si Si4 0.368157 0.838538 0.873737
Si Si5 0.536473 0.200302 0.959691
Si Si6 0.776435 0.830939 0.711133
Si Si7 0.817720 0.186422 0.453554
Si Si8 0.771499 0.814795 0.489882
O O1 0.221898 0.545945 0.937183
O O2 0.358732 0.136296 0.738738
O O3 0.077444 0.992267 0.826639
O O4 0.000000 0.000000 0.000000
O O5 0.710579 0.534475 0.946777
O O6 0.970483 0.751688 0.728285
O O7 0.791420 0.105876 0.029161
O O8 0.729936 0.464427 0.393856
O O9 0.500000 0.000000 0.500000
O O10 0.359041 0.083037 0.529926
O O11 0.553070 0.779819 0.679020
O O12 0.472699 0.155769 0.928663
O O13 0.633624 0.938865 0.813527
O O14 0.321843 0.160087 0.147182
O O15 0.766922 0.493408 0.594402
O O16 0.025897 0.066285 0.588774
O O17 0.831542 0.058894 0.466213
#
# Coordination Sequence:
#
# PCOD8036146 Si02
#       8
#     2   2   2   2   2   2   2   2
#     4  12  29  44  74 102 141 184 232 286 345 412
#     4  12  26  47  71 104 142 184 230 284 348 410
#     4  12  25  48  70 104 137 182 236 282 344 410
#     4  12  26  47  71 104 142 184 230 284 348 410
#     4  11  26  45  72 105 140 180 230 289 340 419
#     4  11  26  45  74 105 137 181 235 281 352 407
#     4  12  26  46  73 103 142 184 229 287 344 411
#     4  12  26  46  73 103 142 184 229 287 344 411
#
# _framework density 23.448547000000001
#
# number of rings (size 3 to 8) (size 9 to 14) (size 15 to 20)
#    0.000    0.250    2.500    5.250   10.500    1.000 
#    0.000    0.000    0.000    0.000    0.000    0.000 
#    0.000    0.000    0.000    0.000    0.000    0.000 
#
# Total GULP energy -198320.477897 kJ/mol
# GULP energy per Si atom -12395.029869 kJ/mol
# Density = 2.339518 g / cm^3
# Si number density = 23.448547 Si / 1000 Ang^3
#
#
#
# Elastic Constant Matrix: (Units=GPa)
#
#
# Indices 1 2 3 4 5 6 
#
# 1 65.5151 10.9623 20.8336 -6.3480 1.7251 7.2551
# 2 10.9623 123.9373 23.3078 5.1117 -5.8706 -1.5579
# 3 20.8336 23.3078 120.6724 -4.3516 -10.3136 -14.3519
# 4 -6.3480 5.1117 -4.3516 37.0904 -2.0306 1.7638
# 5 1.7251 -5.8706 -10.3136 -2.0306 32.7656 -3.8165
# 6 7.2551 -1.5579 -14.3519 1.7638 -3.8165 40.2620
#
#
#
# Elastic Compliance Matrix: (Units=1/GPa)
#
#
# Indices 1 2 3 4 5 6 
#
# 1 0.017441 -0.001190 -0.003473 0.002827 -0.002608 -0.004798
# 2 -0.001190 0.008550 -0.001380 -0.001495 0.001093 0.000223
# 3 -0.003473 -0.001380 0.010023 0.000760 0.003657 0.004459
# 4 0.002827 -0.001495 0.000760 0.027882 0.001389 -0.001386
# 5 -0.002608 0.001093 0.003657 0.001389 0.032655 0.004851
# 6 -0.004798 0.000223 0.004459 -0.001386 0.004851 0.027820
#
#
# Mechanical properties :
#
#
# Convention : Reuss Voigt Hill
#
# Bulk Modulus (GPa) = 41.79145 46.70359 44.24752
# Shear Modulus (GPa) = 34.61809 39.02502 36.82156
#
# Velocity S-wave (km/s) = 3.84649 4.08399 3.96702
# Velocity P-wave (km/s) = 6.13096 6.49610 6.31617
#
# Compressibility (1/GPa) = 0.02392834
#
# Stress axis : x y z
#
# Youngs Moduli (GPa) = 57.33604 116.96474 99.76805
#
# Poissons Ratio (x) = 0.13919 0.34648
# Poissons Ratio (y) = 0.06823 0.13767
# Poissons Ratio (z) = 0.19912 0.16140
#
# Static dielectric constant tensor:
#      x y z
#    x 4.150200 -0.041640 -0.095550 
#    y -0.041640 4.184740 0.016600 
#    z -0.095550 0.016600 4.199750 
# 
# 
# High freq. dielectric constant tensor:
#      x y z
#    x 1.929560 0.002050 -0.011740 
#    y 0.002050 1.934470 -0.002430 
#    z -0.011740 -0.002430 1.943010 
# 
# From -- ./inp_files/613632.got.cif
#   From: 2010.06.25/outbox.cif.g09.slc.cpg/sg2_307_cif.got.tgz:613632.got - 2010.06.27 13:26:56.
