data_PCOD8036387
_publ_section_title
;
Structure prediction by ZEFSAII (Michael W. Deem and Ramdas Pophale) SiO2 
 PCOD8036387
Probable space group: P -1
;
_chemical_formula_sum "Si O2"
_cell_formula_units_Z 14
_cell_length_a 8.637372
_cell_length_b 6.410365
_cell_length_c 19.596889
_cell_angle_alpha 72.499799
_cell_angle_beta 135.284205
_cell_angle_gamma 125.894857
_cell_volume 605.528483
_symmetry_space_group_name_H-M "P -1"
_symmetry_group_IT_number 2
_symmetry_cell_setting 'triclinic'
loop_
_space_group_symop_operation_xyz
x,y,z
-x,-y,-z
loop_
_atom_site_type_symbol
_atom_site_label
_atom_site_fract_x
_atom_site_fract_y
_atom_site_fract_z
Si Si1 0.977623 0.657749 0.344916
Si Si2 0.873875 0.947614 0.743661
Si Si3 0.487113 0.933258 0.734469
Si Si4 0.789749 0.792077 0.403504
Si Si5 0.916760 0.199491 0.947825
Si Si6 0.195940 0.760064 0.937988
Si Si7 0.535186 0.344992 0.466409
O O1 0.793621 0.342540 0.319999
O O2 0.904461 0.795997 0.365696
O O3 0.287376 0.758668 0.441014
O O4 0.931274 0.742894 0.246310
O O5 0.671316 0.901861 0.743427
O O6 0.748735 0.863760 0.635587
O O7 0.024587 0.811266 0.826697
O O8 0.443488 0.158233 0.676131
O O9 0.625002 0.032166 0.840965
O O10 0.682476 0.511613 0.428969
O O11 0.000000 0.000000 0.500000
O O12 0.118401 0.457214 0.936867
O O13 0.900943 0.266694 0.013311
O O14 0.000000 0.000000 0.000000
O O15 0.500000 0.000000 0.000000
O O16 0.500000 0.500000 0.500000
#
# Coordination Sequence:
#
# PCOD8036387 Si02
#       7
#     2   2   2   2   2   2   2
#     4  12  27  44  71 107 145 191 238 295 360 434
#     4  12  26  46  70 105 145 186 242 298 359 433
#     4  12  26  46  73 103 145 192 239 298 362 432
#     4  12  23  43  70 100 144 190 240 290 356 424
#     4  11  26  49  76 106 141 189 245 303 363 427
#     4  11  28  48  76 107 146 186 243 306 365 437
#     4  12  24  45  71 103 147 189 239 293 356 427
#
# _framework density 23.1203
#
# number of rings (size 3 to 8) (size 9 to 14) (size 15 to 20)
#    0.000    0.286    4.286    4.286    4.000    1.714 
#    0.000    0.000    0.000    0.000    0.000    0.000 
#    0.000    0.000    0.000    0.000    0.000    0.000 
#
# Total GULP energy -173453.091165 kJ/mol
# GULP energy per Si atom -12389.506512 kJ/mol
# Density = 2.306768 g / cm^3
# Si number density = 23.120300 Si / 1000 Ang^3
#
#
#
# Elastic Constant Matrix: (Units=GPa)
#
#
# Indices 1 2 3 4 5 6 
#
# 1 71.9627 32.5330 21.4195 -15.4504 7.3252 10.6076
# 2 32.5330 115.3643 58.7777 -24.9438 6.2550 14.9302
# 3 21.4195 58.7777 149.6599 -25.6632 6.5070 -0.5280
# 4 -15.4504 -24.9438 -25.6632 49.9776 -2.2976 -1.6351
# 5 7.3252 6.2550 6.5070 -2.2976 37.8976 -5.5298
# 6 10.6076 14.9302 -0.5280 -1.6351 -5.5298 42.0503
#
#
#
# Elastic Compliance Matrix: (Units=1/GPa)
#
#
# Indices 1 2 3 4 5 6 
#
# 1 0.016993 -0.003262 -0.000499 0.003122 -0.002968 -0.003404
# 2 -0.003262 0.012877 -0.004007 0.003182 -0.001173 -0.003830
# 3 -0.000499 -0.004007 0.008757 0.002382 -0.000353 0.001705
# 4 0.003122 0.003182 0.002382 0.023741 -0.000243 -0.000996
# 5 -0.002968 -0.001173 -0.000353 -0.000243 0.027903 0.004821
# 6 -0.003404 -0.003830 0.001705 -0.000996 0.004821 0.026616
#
#
# Mechanical properties :
#
#
# Convention : Reuss Voigt Hill
#
# Bulk Modulus (GPa) = 43.30648 62.49415 52.90032
# Shear Modulus (GPa) = 35.68357 40.93554 38.30956
#
# Velocity S-wave (km/s) = 3.93286 4.21235 4.07500
# Velocity P-wave (km/s) = 6.27653 7.12371 6.71349
#
# Compressibility (1/GPa) = 0.02309123
#
# Stress axis : x y z
#
# Youngs Moduli (GPa) = 58.84731 77.65824 114.19589
#
# Poissons Ratio (x) = 0.25329 0.05696
# Poissons Ratio (y) = 0.19194 0.45764
# Poissons Ratio (z) = 0.02935 0.31121
#
# Static dielectric constant tensor:
#      x y z
#    x 3.801680 0.105710 -0.186640 
#    y 0.105710 4.188660 -0.038710 
#    z -0.186640 -0.038710 4.326430 
# 
# 
# High freq. dielectric constant tensor:
#      x y z
#    x 1.904830 0.008150 -0.007710 
#    y 0.008150 1.943290 -0.010650 
#    z -0.007710 -0.010650 1.921720 
# 
# From -- ./inp_files/106182.got.cif
#   From: 2010.06.25/outbox.cif.g09.slc.cpg/sg2_54_cif.got.tgz:106182.got - 2010.06.27 13:26:56.
