data_PCOD8036099
_publ_section_title
;
Structure prediction by ZEFSAII (Michael W. Deem and Ramdas Pophale) SiO2 
 PCOD8036099
Probable space group: P -1
;
_chemical_formula_sum "Si O2"
_cell_formula_units_Z 12
_cell_length_a 6.878933
_cell_length_b 16.180425
_cell_length_c 8.952664
_cell_angle_alpha 137.457832
_cell_angle_beta 82.672789
_cell_angle_gamma 122.272075
_cell_volume 504.317000
_symmetry_space_group_name_H-M "P -1"
_symmetry_group_IT_number 2
_symmetry_cell_setting 'triclinic'
loop_
_space_group_symop_operation_xyz
x,y,z
-x,-y,-z
loop_
_atom_site_type_symbol
_atom_site_label
_atom_site_fract_x
_atom_site_fract_y
_atom_site_fract_z
Si Si1 0.390621 0.136255 0.541145
Si Si2 0.874733 0.570447 0.476767
Si Si3 0.456228 0.839274 0.774746
Si Si4 0.886989 0.373557 0.974165
Si Si5 0.650114 0.708170 0.742214
Si Si6 0.111229 0.223195 0.862724
O O1 0.513082 0.195512 0.443002
O O2 0.625320 0.198739 0.713032
O O3 0.260128 0.211830 0.701483
O O4 0.182226 0.943618 0.311436
O O5 0.827823 0.694051 0.598328
O O6 0.650602 0.459413 0.476365
O O7 0.169525 0.684325 0.658107
O O8 0.807546 0.440792 0.192050
O O9 0.666422 0.854758 0.877955
O O10 0.500000 0.000000 0.000000
O O11 0.090819 0.357130 0.994990
O O12 0.000000 0.500000 0.000000
O O13 0.743631 0.737081 0.942404
#
# Coordination Sequence:
#
# PCOD8036099 Si02
#       6
#     2   2   2   2   2   2
#     4  11  26  47  71 104 141 188 234 291 346 417
#     4  11  26  44  72 104 141 188 230 289 350 413
#     4  12  28  46  74 104 143 185 236 290 351 419
#     4  12  26  45  75 105 141 184 239 290 349 417
#     4  11  27  47  73 105 143 184 236 289 352 416
#     4  11  27  47  74 103 143 188 234 288 353 414
#
# _framework density 23.794556
#
# number of rings (size 3 to 8) (size 9 to 14) (size 15 to 20)
#    0.000    0.667    3.333    2.000   11.667    6.000 
#    0.000    0.000    0.000    0.000    0.000    0.000 
#    0.000    0.000    0.000    0.000    0.000    0.000 
#
# Total GULP energy -148713.273607 kJ/mol
# GULP energy per Si atom -12392.772801 kJ/mol
# Density = 2.374040 g / cm^3
# Si number density = 23.794556 Si / 1000 Ang^3
#
#
#
# Elastic Constant Matrix: (Units=GPa)
#
#
# Indices 1 2 3 4 5 6 
#
# 1 191.1500 58.9907 71.0277 -12.0997 -17.6254 -33.6953
# 2 58.9907 35.6752 30.7247 -5.3021 -0.0680 -10.8993
# 3 71.0277 30.7247 126.5751 -4.5389 -6.4041 -13.9642
# 4 -12.0997 -5.3021 -4.5389 34.8124 11.2002 1.7079
# 5 -17.6254 -0.0680 -6.4041 11.2002 47.5868 3.7479
# 6 -33.6953 -10.8993 -13.9642 1.7079 3.7479 50.4276
#
#
#
# Elastic Compliance Matrix: (Units=1/GPa)
#
#
# Indices 1 2 3 4 5 6 
#
# 1 0.012502 -0.017762 -0.002102 -0.000120 0.004064 0.003635
# 2 -0.017762 0.063171 -0.005527 0.005450 -0.008571 0.000707
# 3 -0.002102 -0.005527 0.010470 -0.000448 0.000707 0.000263
# 4 -0.000120 0.005450 -0.000448 0.031891 -0.007639 0.000462
# 5 0.004064 -0.008571 0.000707 -0.007639 0.024440 -0.000499
# 6 0.003635 0.000707 0.000263 0.000462 -0.000499 0.022506
#
#
# Mechanical properties :
#
#
# Convention : Reuss Voigt Hill
#
# Bulk Modulus (GPa) = 28.27934 74.98739 51.63337
# Shear Modulus (GPa) = 21.97343 39.40918 30.69131
#
# Velocity S-wave (km/s) = 3.04215 4.07409 3.59534
# Velocity P-wave (km/s) = 4.92445 7.32898 6.24356
#
# Compressibility (1/GPa) = 0.03536150
#
# Stress axis : x y z
#
# Youngs Moduli (GPa) = 79.98861 15.83008 95.50995
#
# Poissons Ratio (x) = 0.28118 0.20072
# Poissons Ratio (y) = 1.42076 0.52789
# Poissons Ratio (z) = 0.16810 0.08749
#
# Static dielectric constant tensor:
#      x y z
#    x 4.677370 0.149520 -0.039860 
#    y 0.149520 4.000160 0.283180 
#    z -0.039860 0.283180 4.091230 
# 
# 
# High freq. dielectric constant tensor:
#      x y z
#    x 1.969650 0.012490 -0.011320 
#    y 0.012490 1.924660 0.008500 
#    z -0.011320 0.008500 1.951660 
# 
# From -- ./inp_files/39315.got.cif
#   From: 2010.06.25/outbox.cif.g09.slc.cpg/sg2_20_cif.got.tgz:39315.got - 2010.06.27 13:26:56.
