data_PCOD8036784
_publ_section_title
;
Structure prediction by ZEFSAII (Michael W. Deem and Ramdas Pophale) SiO2 
 PCOD8036784
Probable space group: P -1
;
_chemical_formula_sum "Si O2"
_cell_formula_units_Z 16
_cell_length_a 5.037832
_cell_length_b 16.064935
_cell_length_c 16.132799
_cell_angle_alpha 140.364748
_cell_angle_beta 60.709174
_cell_angle_gamma 118.429326
_cell_volume 714.732276
_symmetry_space_group_name_H-M "P -1"
_symmetry_group_IT_number 2
_symmetry_cell_setting 'triclinic'
loop_
_space_group_symop_operation_xyz
x,y,z
-x,-y,-z
loop_
_atom_site_type_symbol
_atom_site_label
_atom_site_fract_x
_atom_site_fract_y
_atom_site_fract_z
Si Si1 0.887605 0.846457 0.916051
Si Si2 0.001116 0.531268 0.228869
Si Si3 0.244875 0.758735 0.644938
Si Si4 0.928601 0.891868 0.268471
Si Si5 0.487854 0.063202 0.394203
Si Si6 0.171438 0.771038 0.981564
Si Si7 0.257384 0.398715 0.509368
Si Si8 0.641421 0.695179 0.293717
O O1 0.062537 0.767436 0.764045
O O2 0.523780 0.806206 0.924506
O O3 0.956128 0.804366 0.965733
O O4 0.000000 0.000000 0.000000
O O5 0.366517 0.578022 0.219465
O O6 0.830079 0.528338 0.340212
O O7 0.883914 0.631701 0.260976
O O8 0.929824 0.381181 0.091615
O O9 0.308153 0.895742 0.688415
O O10 0.584262 0.726488 0.587188
O O11 0.048609 0.644065 0.531132
O O12 0.125009 0.861596 0.136264
O O13 0.814727 0.757425 0.233008
O O14 0.137741 0.999768 0.377073
O O15 0.630380 0.952738 0.336224
O O16 0.493980 0.193759 0.548658
O O17 0.500000 0.500000 0.500000
#
# Coordination Sequence:
#
# PCOD8036784 Si02
#       8
#     2   2   2   2   2   2   2   2
#     4  12  25  45  67 100 137 180 227 272 329 400
#     4  12  24  45  67  99 143 172 222 282 325 410
#     4  12  23  40  67  94 130 172 213 269 337 387
#     4  12  26  44  71  97 133 183 224 282 336 397
#     4  12  23  45  68 103 134 168 232 283 338 398
#     4  12  27  46  67 101 139 180 229 271 333 401
#     4  12  23  40  63  95 129 171 217 261 331 392
#     4  12  25  45  70 101 134 177 225 281 344 386
#
# _framework density 22.386008
#
# number of rings (size 3 to 8) (size 9 to 14) (size 15 to 20)
#    0.000    0.000    2.500    9.000    0.000    1.000 
#    0.000    0.000    0.000    0.000    0.000    0.000 
#    0.000    0.000    0.000    0.000    0.000    0.000 
#
# Total GULP energy -198554.665864 kJ/mol
# GULP energy per Si atom -12409.666616 kJ/mol
# Density = 2.233506 g / cm^3
# Si number density = 22.386008 Si / 1000 Ang^3
#
#
#
# Elastic Constant Matrix: (Units=GPa)
#
#
# Indices 1 2 3 4 5 6 
#
# 1 88.9411 17.6778 16.5392 -1.7790 9.4334 -1.1879
# 2 17.6778 118.3564 6.0878 2.0769 9.4863 -7.8497
# 3 16.5392 6.0878 69.4771 7.7595 3.6332 0.9175
# 4 -1.7790 2.0769 7.7595 36.6339 3.5071 2.3486
# 5 9.4334 9.4863 3.6332 3.5071 25.4351 1.2840
# 6 -1.1879 -7.8497 0.9175 2.3486 1.2840 33.9095
#
#
#
# Elastic Compliance Matrix: (Units=1/GPa)
#
#
# Indices 1 2 3 4 5 6 
#
# 1 0.012507 -0.001421 -0.002834 0.001651 -0.003943 0.000221
# 2 -0.001421 0.009058 -0.000291 -0.000387 -0.002867 0.002190
# 3 -0.002834 -0.000291 0.015500 -0.003327 -0.000579 -0.000334
# 4 0.001651 -0.000387 -0.003327 0.028586 -0.003845 -0.001776
# 5 -0.003943 -0.002867 -0.000579 -0.003845 0.042568 -0.002132
# 6 0.000221 0.002190 -0.000334 -0.001776 -0.002132 0.030218
#
#
# Mechanical properties :
#
#
# Convention : Reuss Voigt Hill
#
# Bulk Modulus (GPa) = 35.74897 39.70935 37.72916
# Shear Modulus (GPa) = 31.87715 34.96037 33.41876
#
# Velocity S-wave (km/s) = 3.77766 3.95613 3.86792
# Velocity P-wave (km/s) = 5.91875 6.21650 6.06945
#
# Compressibility (1/GPa) = 0.02797283
#
# Stress axis : x y z
#
# Youngs Moduli (GPa) = 79.95576 110.39882 64.51753
#
# Poissons Ratio (x) = 0.15683 0.18284
# Poissons Ratio (y) = 0.11358 0.01880
# Poissons Ratio (z) = 0.22659 0.03216
#
# Static dielectric constant tensor:
#      x y z
#    x 4.588420 -0.060620 -0.130560 
#    y -0.060620 4.215990 -0.075190 
#    z -0.130560 -0.075190 4.116080 
# 
# 
# High freq. dielectric constant tensor:
#      x y z
#    x 1.896370 -0.001350 0.004790 
#    y -0.001350 1.900440 -0.001540 
#    z 0.004790 -0.001540 1.875810 
# 
# From -- ./inp_files/484439.got.cif
#   From: 2010.06.25/outbox.cif.g09.slc.cpg/sg2_243_cif.got.tgz:484439.got - 2010.06.27 13:26:56.
