data_PCOD8036013
_publ_section_title
;
Structure prediction by ZEFSAII (Michael W. Deem and Ramdas Pophale) SiO2 
 PCOD8036013
Probable space group: P -1
;
_chemical_formula_sum "Si O2"
_cell_formula_units_Z 16
_cell_length_a 22.863893
_cell_length_b 11.320411
_cell_length_c 7.859121
_cell_angle_alpha 138.315183
_cell_angle_beta 127.889533
_cell_angle_gamma 31.235195
_cell_volume 699.729574
_symmetry_space_group_name_H-M "P -1"
_symmetry_group_IT_number 2
_symmetry_cell_setting 'triclinic'
loop_
_space_group_symop_operation_xyz
x,y,z
-x,-y,-z
loop_
_atom_site_type_symbol
_atom_site_label
_atom_site_fract_x
_atom_site_fract_y
_atom_site_fract_z
Si Si1 0.997623 0.802827 0.337604
Si Si2 0.869425 0.774092 0.563005
Si Si3 0.095569 0.926915 0.194511
Si Si4 0.216202 0.985770 0.989741
Si Si5 0.532587 0.975418 0.232669
Si Si6 0.625308 0.631140 0.340670
Si Si7 0.744276 0.743388 0.809077
Si Si8 0.740281 0.691475 0.112699
O O1 0.119741 0.500213 0.193010
O O2 0.000000 0.000000 0.500000
O O3 0.967013 0.850044 0.530827
O O4 0.901786 0.869518 0.139192
O O5 0.814765 0.734501 0.292469
O O6 0.000000 0.500000 0.500000
O O7 0.842020 0.031438 0.754667
O O8 0.816253 0.832376 0.713674
O O9 0.187036 0.620647 0.091699
O O10 0.000000 0.000000 0.000000
O O11 0.295385 0.681275 0.856740
O O12 0.286512 0.996262 0.008566
O O13 0.553217 0.771149 0.183833
O O14 0.653032 0.853656 0.287552
O O15 0.449983 0.251146 0.493108
O O16 0.500000 0.000000 0.000000
O O17 0.699949 0.677340 0.525491
O O18 0.682926 0.799897 0.938740
#
# Coordination Sequence:
#
# PCOD8036013 Si02
#       8
#     2   2   2   2   2   2   2   2
#     4  12  22  40  65 100 144 185 223 275 348 422
#     4  12  24  40  65 102 142 180 226 281 342 423
#     4  12  24  40  66  98 140 181 228 282 342 428
#     4  12  25  44  67 104 143 186 233 282 353 427
#     4  11  25  49  78 102 136 185 241 306 358 411
#     4  11  25  49  76 101 137 184 241 297 359 414
#     4  12  24  43  70 101 145 185 225 290 352 420
#     4  12  24  44  69 102 137 184 234 287 357 413
#
# _framework density 22.865976
#
# number of rings (size 3 to 8) (size 9 to 14) (size 15 to 20)
#    0.000    0.250    5.000    4.875    1.750    0.000 
#    2.250    7.500    0.000    0.000    0.000    0.000 
#    0.000    0.000    0.000    0.000    0.000    0.000 
#
# Total GULP energy -198283.723113 kJ/mol
# GULP energy per Si atom -12392.732695 kJ/mol
# Density = 2.281393 g / cm^3
# Si number density = 22.865976 Si / 1000 Ang^3
#
#
#
# Elastic Constant Matrix: (Units=GPa)
#
#
# Indices 1 2 3 4 5 6 
#
# 1 118.7112 25.0409 41.1354 9.3297 -8.3932 14.1663
# 2 25.0409 80.8139 38.6177 3.4746 -10.5933 17.9009
# 3 41.1354 38.6177 98.6660 3.8539 -1.1356 13.8559
# 4 9.3297 3.4746 3.8539 29.6962 7.5583 -11.5499
# 5 -8.3932 -10.5933 -1.1356 7.5583 57.5349 9.7482
# 6 14.1663 17.9009 13.8559 -11.5499 9.7482 32.4994
#
#
#
# Elastic Compliance Matrix: (Units=1/GPa)
#
#
# Indices 1 2 3 4 5 6 
#
# 1 0.011229 0.000680 -0.003593 -0.006995 0.003862 -0.007381
# 2 0.000680 0.019094 -0.005394 -0.008889 0.007010 -0.013775
# 3 -0.003593 -0.005394 0.013908 -0.000244 -0.001012 -0.001175
# 4 -0.006995 -0.008889 -0.000244 0.052931 -0.014925 0.031337
# 5 0.003862 0.007010 -0.001012 -0.014925 0.024169 -0.017667
# 6 -0.007381 -0.013775 -0.001175 0.031337 -0.017667 0.058512
#
#
# Mechanical properties :
#
#
# Convention : Reuss Voigt Hill
#
# Bulk Modulus (GPa) = 36.21277 56.41993 46.31635
# Shear Modulus (GPa) = 24.31164 36.83921 30.57543
#
# Velocity S-wave (km/s) = 3.26425 4.01820 3.66068
# Velocity P-wave (km/s) = 5.48438 6.80115 6.17795
#
# Compressibility (1/GPa) = 0.02761457
#
# Stress axis : x y z
#
# Youngs Moduli (GPa) = 89.05317 52.37364 71.90317
#
# Poissons Ratio (x) = -0.03560 0.25838
# Poissons Ratio (y) = -0.06053 0.38786
# Poissons Ratio (z) = 0.32001 0.28251
#
# Static dielectric constant tensor:
#      x y z
#    x 4.504330 0.052550 -0.327070 
#    y 0.052550 4.285230 -0.172200 
#    z -0.327070 -0.172200 3.896200 
# 
# 
# High freq. dielectric constant tensor:
#      x y z
#    x 1.922160 0.004870 -0.009790 
#    y 0.004870 1.901820 -0.008620 
#    z -0.009790 -0.008620 1.899270 
# 
# From -- ./inp_files/353741.got.cif
#   From: 2010.06.25/outbox.cif.g09.slc.cpg/sg2_177_cif.got.tgz:353741.got - 2010.06.27 13:26:56.
