data_PCOD8036458
_publ_section_title
;
Structure prediction by ZEFSAII (Michael W. Deem and Ramdas Pophale) SiO2 
 PCOD8036458
Probable space group: P -1
;
_chemical_formula_sum "Si O2"
_cell_formula_units_Z 16
_cell_length_a 9.560342
_cell_length_b 9.453487
_cell_length_c 15.874154
_cell_angle_alpha 36.683946
_cell_angle_beta 117.545960
_cell_angle_gamma 104.815970
_cell_volume 741.746913
_symmetry_space_group_name_H-M "P -1"
_symmetry_group_IT_number 2
_symmetry_cell_setting 'triclinic'
loop_
_space_group_symop_operation_xyz
x,y,z
-x,-y,-z
loop_
_atom_site_type_symbol
_atom_site_label
_atom_site_fract_x
_atom_site_fract_y
_atom_site_fract_z
Si Si1 0.844616 0.993597 0.906315
Si Si2 0.933847 0.415395 0.639749
Si Si3 0.487901 0.959951 0.113253
Si Si4 0.756087 0.525090 0.368946
Si Si5 0.412518 0.828654 0.611253
Si Si6 0.066882 0.514580 0.918557
Si Si7 0.405126 0.575472 0.020422
Si Si8 0.883315 0.822107 0.570178
O O1 0.838681 0.211989 0.736896
O O2 0.688989 0.039738 0.901074
O O3 0.863936 0.747556 0.977239
O O4 0.000000 0.000000 0.000000
O O5 0.881076 0.437959 0.518466
O O6 0.877836 0.647300 0.573295
O O7 0.133577 0.355391 0.724472
O O8 0.603877 0.700856 0.285879
O O9 0.500000 0.000000 0.000000
O O10 0.559003 0.168531 0.072830
O O11 0.696843 0.304380 0.413823
O O12 0.541851 0.626894 0.795071
O O13 0.500000 0.000000 0.500000
O O14 0.295815 0.012201 0.552889
O O15 0.936547 0.672026 0.743353
O O16 0.216931 0.636661 0.917355
O O17 0.000000 0.500000 0.000000
O O18 0.500000 0.500000 0.000000
O O19 0.000000 0.000000 0.500000
#
# Coordination Sequence:
#
# PCOD8036458 Si02
#       8
#     2   2   2   2   2   2   2   2
#     4  12  27  47  74 105 145 189 249 302 358 437
#     4  11  27  47  75 105 146 189 244 301 366 436
#     4  12  27  46  76 103 145 193 244 300 367 431
#     4  11  27  48  73 107 144 194 239 299 371 436
#     4  12  28  47  72 104 150 187 241 298 363 434
#     4  12  29  46  75 110 145 192 246 300 363 431
#     4  12  27  48  73 106 147 193 243 300 359 432
#     4  12  26  47  74 103 144 195 240 294 363 435
#
# _framework density 21.570699999999999
#
# number of rings (size 3 to 8) (size 9 to 14) (size 15 to 20)
#    0.000    0.250    5.000    2.250   12.250    0.500 
#    0.000    0.000    0.000    0.000    0.000    0.000 
#    0.000    0.000    0.000    0.000    0.000    0.000 
#
# Total GULP energy -198287.052654 kJ/mol
# GULP energy per Si atom -12392.940791 kJ/mol
# Density = 2.152160 g / cm^3
# Si number density = 21.570700 Si / 1000 Ang^3
#
#
#
# Elastic Constant Matrix: (Units=GPa)
#
#
# Indices 1 2 3 4 5 6 
#
# 1 147.7052 43.9910 4.5263 -18.9326 -7.8443 0.4743
# 2 43.9910 125.8356 16.2651 -5.1790 -1.6449 2.0240
# 3 4.5263 16.2651 50.9484 -13.5142 -7.9258 4.8205
# 4 -18.9326 -5.1790 -13.5142 37.7163 -1.9896 2.2204
# 5 -7.8443 -1.6449 -7.9258 -1.9896 41.4343 -3.7613
# 6 0.4743 2.0240 4.8205 2.2204 -3.7613 42.6612
#
#
#
# Elastic Compliance Matrix: (Units=1/GPa)
#
#
# Indices 1 2 3 4 5 6 
#
# 1 0.008259 -0.002894 0.001703 0.004475 0.001971 -0.000206
# 2 -0.002894 0.009306 -0.003205 -0.001366 -0.000862 -0.000052
# 3 0.001703 -0.003205 0.024033 0.009445 0.005007 -0.002633
# 4 0.004475 -0.001366 0.009445 0.032305 0.003934 -0.002387
# 5 0.001971 -0.000862 0.005007 0.003934 0.025758 0.001519
# 6 -0.000206 -0.000052 -0.002633 -0.002387 0.001519 0.024001
#
#
# Mechanical properties :
#
#
# Convention : Reuss Voigt Hill
#
# Bulk Modulus (GPa) = 30.48248 50.45043 40.46645
# Shear Modulus (GPa) = 34.87000 41.67615 38.27307
#
# Velocity S-wave (km/s) = 4.02499 4.40030 4.21682
# Velocity P-wave (km/s) = 5.98020 7.01827 6.51993
#
# Compressibility (1/GPa) = 0.03280573
#
# Stress axis : x y z
#
# Youngs Moduli (GPa) = 121.08171 107.45401 41.60938
#
# Poissons Ratio (x) = 0.31099 -0.07087
# Poissons Ratio (y) = 0.35043 0.13337
# Poissons Ratio (z) = -0.20623 0.34442
#
# Static dielectric constant tensor:
#      x y z
#    x 5.516680 0.192840 -0.255710 
#    y 0.192840 3.899630 0.206020 
#    z -0.255710 0.206020 3.685730 
# 
# 
# High freq. dielectric constant tensor:
#      x y z
#    x 1.868170 -0.001130 -0.005030 
#    y -0.001130 1.868640 -0.001290 
#    z -0.005030 -0.001290 1.847760 
# 
# From -- ./inp_files/226126.got.cif
#   From: 2010.06.25/outbox.cif.g09.slc.cpg/sg2_114_cif.got.tgz:226126.got - 2010.06.27 13:26:56.
