data_PCOD8036671
_publ_section_title
;
Structure prediction by ZEFSAII (Michael W. Deem and Ramdas Pophale) SiO2 
 PCOD8036671
Probable space group: P -1
;
_chemical_formula_sum "Si O2"
_cell_formula_units_Z 16
_cell_length_a 15.080712
_cell_length_b 12.449430
_cell_length_c 9.294423
_cell_angle_alpha 113.868130
_cell_angle_beta 69.588386
_cell_angle_gamma 52.052477
_cell_volume 704.349284
_symmetry_space_group_name_H-M "P -1"
_symmetry_group_IT_number 2
_symmetry_cell_setting 'triclinic'
loop_
_space_group_symop_operation_xyz
x,y,z
-x,-y,-z
loop_
_atom_site_type_symbol
_atom_site_label
_atom_site_fract_x
_atom_site_fract_y
_atom_site_fract_z
Si Si1 0.921361 0.455536 0.736182
Si Si2 0.445997 0.454218 0.113840
Si Si3 0.339255 0.101285 0.056898
Si Si4 0.368578 0.345687 0.550780
Si Si5 0.821918 0.966657 0.798684
Si Si6 0.881779 0.221655 0.284886
Si Si7 0.816269 0.688563 0.308492
Si Si8 0.437716 0.260416 0.777070
O O1 0.818775 0.627109 0.749767
O O2 0.005547 0.232252 0.529352
O O3 0.110039 0.330709 0.598791
O O4 0.756234 0.613455 0.039298
O O5 0.242330 0.692289 0.456865
O O6 0.500000 0.500000 0.000000
O O7 0.438477 0.345677 0.960510
O O8 0.629784 0.251283 0.013035
O O9 0.235863 0.107020 0.198212
O O10 0.500000 0.000000 0.000000
O O11 0.436294 0.932229 0.771765
O O12 0.282443 0.535188 0.591014
O O13 0.205015 0.424818 0.709050
O O14 0.426469 0.339560 0.671152
O O15 0.931697 0.900566 0.839466
O O16 0.000000 0.000000 0.000000
O O17 0.622981 0.968861 0.512155
O O18 0.000000 0.500000 0.000000
#
# Coordination Sequence:
#
# PCOD8036671 Si02
#       8
#     2   2   2   2   2   2   2   2
#     4  12  22  41  72 105 148 189 236 286 365 448
#     4  12  29  52  79 105 145 198 257 317 379 444
#     4  12  23  42  74 108 156 196 236 295 375 449
#     4  12  25  45  72 109 152 191 243 308 361 441
#     4  12  25  48  76 107 144 194 247 303 376 449
#     4  12  30  52  78 109 145 196 262 318 377 443
#     4  12  23  40  68 111 151 197 234 287 371 442
#     4  12  25  46  71 110 148 191 242 306 363 446
#
# _framework density 22.716004000000002
#
# number of rings (size 3 to 8) (size 9 to 14) (size 15 to 20)
#    0.000    0.000    6.250    4.500    1.750    4.000 
#    0.000    0.000    0.000    0.000    0.000    0.000 
#    0.000    0.000    0.000    0.000    0.000    0.000 
#
# Total GULP energy -198210.476157 kJ/mol
# GULP energy per Si atom -12388.154760 kJ/mol
# Density = 2.266430 g / cm^3
# Si number density = 22.716004 Si / 1000 Ang^3
#
#
#
# Elastic Constant Matrix: (Units=GPa)
#
#
# Indices 1 2 3 4 5 6 
#
# 1 93.8625 36.0590 42.3976 0.3154 -0.8814 -11.5978
# 2 36.0590 108.9212 28.7891 -4.7985 -5.7684 -9.8159
# 3 42.3976 28.7891 144.2976 -5.4153 6.6618 2.0836
# 4 0.3154 -4.7985 -5.4153 36.5038 -3.1630 -4.4933
# 5 -0.8814 -5.7684 6.6618 -3.1630 37.3297 -3.6475
# 6 -11.5978 -9.8159 2.0836 -4.4933 -3.6475 45.0359
#
#
#
# Elastic Compliance Matrix: (Units=1/GPa)
#
#
# Indices 1 2 3 4 5 6 
#
# 1 0.013927 -0.003407 -0.003511 -0.000663 0.000665 0.002994
# 2 -0.003407 0.011006 -0.001259 0.001715 0.002179 0.001927
# 3 -0.003511 -0.001259 0.008351 0.000740 -0.001865 -0.001642
# 4 -0.000663 0.001715 0.000740 0.028379 0.002838 0.003230
# 5 0.000665 0.002179 -0.001865 0.002838 0.028035 0.003286
# 6 0.002994 0.001927 -0.001642 0.003230 0.003286 0.024060
#
#
# Mechanical properties :
#
#
# Convention : Reuss Voigt Hill
#
# Bulk Modulus (GPa) = 59.06641 62.39697 60.73169
# Shear Modulus (GPa) = 36.83105 39.76292 38.29699
#
# Velocity S-wave (km/s) = 4.03099 4.18836 4.11043
# Velocity P-wave (km/s) = 6.90824 7.13567 7.02287
#
# Compressibility (1/GPa) = 0.01693010
#
# Stress axis : x y z
#
# Youngs Moduli (GPa) = 71.80247 90.85819 119.75246
#
# Poissons Ratio (x) = 0.30953 0.42048
# Poissons Ratio (y) = 0.24461 0.15076
# Poissons Ratio (z) = 0.25211 0.11438
#
# Static dielectric constant tensor:
#      x y z
#    x 3.847380 -0.313600 0.241230 
#    y -0.313600 3.820080 0.077340 
#    z 0.241230 0.077340 4.250370 
# 
# 
# High freq. dielectric constant tensor:
#      x y z
#    x 1.896820 -0.022010 -0.003440 
#    y -0.022010 1.887820 -0.007500 
#    z -0.003440 -0.007500 1.926280 
# 
# From -- ./inp_files/307961.got.cif
#   From: 2010.06.25/outbox.cif.g09.slc.cpg/sg2_154_cif.got.tgz:307961.got - 2010.06.27 13:26:56.
