data_PCOD8036016
_publ_section_title
;
Structure prediction by ZEFSAII (Michael W. Deem and Ramdas Pophale) SiO2 
 PCOD8036016
Probable space group: P -1
;
_chemical_formula_sum "Si O2"
_cell_formula_units_Z 14
_cell_length_a 5.880851
_cell_length_b 9.242594
_cell_length_c 11.520547
_cell_angle_alpha 80.389000
_cell_angle_beta 104.137301
_cell_angle_gamma 113.064309
_cell_volume 556.902557
_symmetry_space_group_name_H-M "P -1"
_symmetry_group_IT_number 2
_symmetry_cell_setting 'triclinic'
loop_
_space_group_symop_operation_xyz
x,y,z
-x,-y,-z
loop_
_atom_site_type_symbol
_atom_site_label
_atom_site_fract_x
_atom_site_fract_y
_atom_site_fract_z
Si Si1 0.535101 0.859493 0.763297
Si Si2 0.985281 0.175593 0.792477
Si Si3 0.292476 0.013755 0.564392
Si Si4 0.728034 0.689173 0.409778
Si Si5 0.131840 0.574950 0.122252
Si Si6 0.438543 0.156184 0.974020
Si Si7 0.699951 0.625008 0.667914
O O1 0.280149 0.881547 0.679597
O O2 0.645748 0.772893 0.693697
O O3 0.508237 0.774344 0.896432
O O4 0.714814 0.040503 0.780127
O O5 0.042391 0.218822 0.658735
O O6 0.158345 0.102971 0.896428
O O7 0.021144 0.337020 0.841085
O O8 0.500000 0.000000 0.500000
O O9 0.425794 0.193298 0.606053
O O10 0.000000 0.000000 0.500000
O O11 0.833340 0.665565 0.553076
O O12 0.562029 0.522785 0.357266
O O13 0.406278 0.703876 0.112037
O O14 0.125636 0.427024 0.217982
O O15 0.000000 0.500000 0.000000
O O16 0.500000 0.000000 0.000000
#
# Coordination Sequence:
#
# PCOD8036016 Si02
#       7
#     2   2   2   2   2   2   2
#     4  12  26  47  83 112 154 203 273 322 403 478
#     4  12  26  50  79 113 154 213 261 336 391 494
#     4  12  26  51  78 115 155 210 269 333 396 484
#     4  11  25  49  76 105 163 198 266 323 403 469
#     4  12  28  48  75 114 160 201 266 328 407 479
#     4  12  26  48  77 111 154 204 264 331 397 477
#     4  11  26  48  73 114 153 205 260 326 407 471
#
# _framework density 25.139046
#
# number of rings (size 3 to 8) (size 9 to 14) (size 15 to 20)
#    0.000    0.286    4.286    3.857    4.000    2.857 
#    0.000    0.000    0.000    0.000    0.000    0.000 
#    0.000    0.000    0.000    0.000    0.000    0.000 
#
# Total GULP energy -173478.721596 kJ/mol
# GULP energy per Si atom -12391.337257 kJ/mol
# Density = 2.508183 g / cm^3
# Si number density = 25.139046 Si / 1000 Ang^3
#
#
#
# Elastic Constant Matrix: (Units=GPa)
#
#
# Indices 1 2 3 4 5 6 
#
# 1 96.6684 25.1023 50.8860 -2.5964 8.1178 -23.8018
# 2 25.1023 125.0152 38.4836 4.4837 11.2938 -34.0567
# 3 50.8860 38.4836 185.6185 -18.1612 0.8247 -20.5601
# 4 -2.5964 4.4837 -18.1612 53.9853 -6.8895 -3.0159
# 5 8.1178 11.2938 0.8247 -6.8895 49.9849 -3.3834
# 6 -23.8018 -34.0567 -20.5601 -3.0159 -3.3834 31.2182
#
#
#
# Elastic Compliance Matrix: (Units=1/GPa)
#
#
# Indices 1 2 3 4 5 6 
#
# 1 0.014219 0.000849 -0.003015 -0.000098 -0.001817 0.009575
# 2 0.000849 0.011843 -0.001412 -0.000997 -0.002094 0.012313
# 3 -0.003015 -0.001412 0.006859 0.002479 0.001108 0.001037
# 4 -0.000098 -0.000997 0.002479 0.019990 0.003141 0.002742
# 5 -0.001817 -0.002094 0.001108 0.003141 0.021166 -0.000343
# 6 0.009575 0.012313 0.001037 0.002742 -0.000343 0.053677
#
#
# Mechanical properties :
#
#
# Convention : Reuss Voigt Hill
#
# Bulk Modulus (GPa) = 38.81338 70.69401 54.75369
# Shear Modulus (GPa) = 34.84375 46.55970 40.70172
#
# Velocity S-wave (km/s) = 3.72700 4.30826 4.02812
# Velocity P-wave (km/s) = 5.83041 7.27532 6.59257
#
# Compressibility (1/GPa) = 0.02576431
#
# Stress axis : x y z
#
# Youngs Moduli (GPa) = 70.32973 84.44012 145.78717
#
# Poissons Ratio (x) = -0.07170 0.43954
# Poissons Ratio (y) = -0.05972 0.20592
# Poissons Ratio (z) = 0.21204 0.11927
#
# Static dielectric constant tensor:
#      x y z
#    x 4.583460 -0.343680 -0.052600 
#    y -0.343680 5.788070 0.132710 
#    z -0.052600 0.132710 5.396400 
# 
# 
# High freq. dielectric constant tensor:
#      x y z
#    x 1.978960 -0.006460 -0.001750 
#    y -0.006460 2.020410 -0.000400 
#    z -0.001750 -0.000400 2.033760 
# 
# From -- ./inp_files/229547.got.cif
#   From: 2010.06.25/outbox.cif.g09.slc.cpg/sg2_115_cif.got.tgz:229547.got - 2010.06.27 13:26:56.
