data_PCOD8036584
_publ_section_title
;
Structure prediction by ZEFSAII (Michael W. Deem and Ramdas Pophale) SiO2 
 PCOD8036584
Probable space group: P -1
;
_chemical_formula_sum "Si O2"
_cell_formula_units_Z 14
_cell_length_a 7.413331
_cell_length_b 7.540241
_cell_length_c 20.401861
_cell_angle_alpha 108.884925
_cell_angle_beta 112.776478
_cell_angle_gamma 39.675673
_cell_volume 670.681428
_symmetry_space_group_name_H-M "P -1"
_symmetry_group_IT_number 2
_symmetry_cell_setting 'triclinic'
loop_
_space_group_symop_operation_xyz
x,y,z
-x,-y,-z
loop_
_atom_site_type_symbol
_atom_site_label
_atom_site_fract_x
_atom_site_fract_y
_atom_site_fract_z
Si Si1 0.835584 0.473931 0.520183
Si Si2 0.701507 0.319628 0.365282
Si Si3 0.786876 0.749743 0.049705
Si Si4 0.260759 0.903392 0.308516
Si Si5 0.949556 0.041396 0.856554
Si Si6 0.608315 0.027578 0.387477
Si Si7 0.601190 0.544899 0.082101
O O1 0.704366 0.401214 0.448870
O O2 0.567964 0.767662 0.551328
O O3 0.000000 0.500000 0.500000
O O4 0.057281 0.239094 0.577252
O O5 0.457048 0.589211 0.319203
O O6 0.612027 0.165774 0.342618
O O7 0.017541 0.120416 0.354174
O O8 0.728961 0.653682 0.090962
O O9 0.922404 0.841766 0.108389
O O10 0.000000 0.500000 0.000000
O O11 0.500000 0.000000 0.000000
O O12 0.101828 0.968437 0.227014
O O13 0.468531 0.934181 0.331918
O O14 0.660783 0.228583 0.879784
O O15 0.165233 0.735954 0.878769
O O16 0.500000 0.500000 0.000000
#
# Coordination Sequence:
#
# PCOD8036584 Si02
#       7
#     2   2   2   2   2   2   2
#     4  12  21  41  69  94 125 168 215 275 314 357
#     4  12  25  42  67  93 130 170 216 262 318 372
#     4  12  23  40  68  96 124 160 204 260 318 369
#     4  12  26  44  63  92 134 174 206 259 316 390
#     4  12  26  43  65  98 130 165 214 257 316 386
#     4  12  24  42  66  95 129 167 218 264 318 371
#     4  12  23  42  70  95 126 163 206 266 320 367
#
# _framework density 20.874292000000001
#
# number of rings (size 3 to 8) (size 9 to 14) (size 15 to 20)
#    0.000    0.000    5.714    5.143    0.000    2.286 
#    0.000    0.000    0.000    0.000    0.000    0.000 
#    0.000    0.000    0.000    0.000    0.000    0.000 
#
# Total GULP energy -173711.351816 kJ/mol
# GULP energy per Si atom -12407.953701 kJ/mol
# Density = 2.082678 g / cm^3
# Si number density = 20.874292 Si / 1000 Ang^3
#
#
#
# Elastic Constant Matrix: (Units=GPa)
#
#
# Indices 1 2 3 4 5 6 
#
# 1 129.0704 46.6157 46.5062 -12.7121 0.2439 29.2496
# 2 46.6157 150.1063 35.6416 -20.4186 0.4459 14.5912
# 3 46.5062 35.6416 109.0623 -15.2112 15.0520 13.4413
# 4 -12.7121 -20.4186 -15.2112 36.2572 -3.4450 -9.5927
# 5 0.2439 0.4459 15.0520 -3.4450 17.0084 1.5382
# 6 29.2496 14.5912 13.4413 -9.5927 1.5382 44.6711
#
#
#
# Elastic Compliance Matrix: (Units=1/GPa)
#
#
# Indices 1 2 3 4 5 6 
#
# 1 0.011152 -0.001990 -0.003951 0.000023 0.003899 -0.005593
# 2 -0.001990 0.008125 -0.001576 0.003338 0.001907 -0.000225
# 3 -0.003951 -0.001576 0.013218 0.002208 -0.011151 -0.000017
# 4 0.000023 0.003338 0.002208 0.032094 0.004008 0.004984
# 5 0.003899 0.001907 -0.011151 0.004008 0.069491 -0.001353
# 6 -0.005593 -0.000225 -0.000017 0.004984 -0.001353 0.027244
#
#
# Mechanical properties :
#
#
# Convention : Reuss Voigt Hill
#
# Bulk Modulus (GPa) = 57.27314 71.75179 64.51247
# Shear Modulus (GPa) = 27.44563 36.88572 32.16567
#
# Velocity S-wave (km/s) = 3.62996 4.20818 3.92972
# Velocity P-wave (km/s) = 6.71309 7.61968 7.18071
#
# Compressibility (1/GPa) = 0.01746019
#
# Stress axis : x y z
#
# Youngs Moduli (GPa) = 89.66743 123.08361 75.65419
#
# Poissons Ratio (x) = 0.24495 0.29890
# Poissons Ratio (y) = 0.17845 0.11926
# Poissons Ratio (z) = 0.35426 0.19403
#
# Static dielectric constant tensor:
#      x y z
#    x 3.318490 -0.286630 0.119650 
#    y -0.286630 3.952000 0.008810 
#    z 0.119650 0.008810 3.703970 
# 
# 
# High freq. dielectric constant tensor:
#      x y z
#    x 1.838910 0.002000 -0.000910 
#    y 0.002000 1.842690 -0.000390 
#    z -0.000910 -0.000390 1.804840 
# 
# From -- ./inp_files/588050.got.cif
#   From: 2010.06.25/outbox.cif.g09.slc.cpg/sg2_295_cif.got.tgz:588050.got - 2010.06.27 13:26:56.
