data_PCOD8036901
_publ_section_title
;
Structure prediction by ZEFSAII (Michael W. Deem and Ramdas Pophale) SiO2 
 PCOD8036901
Probable space group: P -1
;
_chemical_formula_sum "Si O2"
_cell_formula_units_Z 14
_cell_length_a 8.837136
_cell_length_b 31.446431
_cell_length_c 6.926779
_cell_angle_alpha 42.800839
_cell_angle_beta 58.081386
_cell_angle_gamma 30.329084
_cell_volume 629.009201
_symmetry_space_group_name_H-M "P -1"
_symmetry_group_IT_number 2
_symmetry_cell_setting 'triclinic'
loop_
_space_group_symop_operation_xyz
x,y,z
-x,-y,-z
loop_
_atom_site_type_symbol
_atom_site_label
_atom_site_fract_x
_atom_site_fract_y
_atom_site_fract_z
Si Si1 0.789253 0.114536 0.851167
Si Si2 0.182758 0.115823 0.736202
Si Si3 0.701653 0.383997 0.818573
Si Si4 0.659209 0.518385 0.897313
Si Si5 0.332706 0.197916 0.190344
Si Si6 0.365691 0.275531 0.251779
Si Si7 0.327707 0.697892 0.239557
O O1 0.515404 0.216607 0.552868
O O2 0.001367 0.112334 0.766638
O O3 0.643902 0.126590 0.102075
O O4 0.000000 0.000000 0.000000
O O5 0.277275 0.139241 0.431204
O O6 0.973640 0.209117 0.730496
O O7 0.500000 0.000000 0.000000
O O8 0.500000 0.500000 0.500000
O O9 0.768672 0.316181 0.829762
O O10 0.517464 0.403713 0.053186
O O11 0.033070 0.315873 0.894781
O O12 0.616702 0.582070 0.545922
O O13 0.500000 0.500000 0.000000
O O14 0.021724 0.404105 0.087539
O O15 0.353702 0.215473 0.337378
O O16 0.574251 0.262678 0.030173
#
# Coordination Sequence:
#
# PCOD8036901 Si02
#       7
#     2   2   2   2   2   2   2
#     4  12  30  50  76 112 143 193 253 303 373 438
#     4  12  28  51  78 107 147 194 248 308 367 439
#     4  12  24  41  73 107 146 196 241 295 365 437
#     4  12  23  44  70 108 148 193 246 294 364 438
#     4  12  26  48  76 106 151 192 242 304 369 436
#     4  12  26  47  74 106 152 192 243 310 363 437
#     4  12  26  46  72 110 150 192 248 302 370 436
#
# _framework density 22.257225999999999
#
# number of rings (size 3 to 8) (size 9 to 14) (size 15 to 20)
#    0.000    0.000    5.714    3.000    6.000    2.286 
#    0.000    0.000    0.000    0.000    0.000    0.000 
#    0.000    0.000    0.000    0.000    0.000    0.000 
#
# Total GULP energy -173691.240565 kJ/mol
# GULP energy per Si atom -12406.517183 kJ/mol
# Density = 2.220657 g / cm^3
# Si number density = 22.257226 Si / 1000 Ang^3
#
#
#
# Elastic Constant Matrix: (Units=GPa)
#
#
# Indices 1 2 3 4 5 6 
#
# 1 146.9382 48.1099 51.0903 -0.2479 4.3498 5.7067
# 2 48.1099 107.9310 34.9522 -8.1167 9.9800 6.7454
# 3 51.0903 34.9522 114.4819 -1.8719 0.7225 -5.1697
# 4 -0.2479 -8.1167 -1.8719 39.4434 -7.4601 6.3652
# 5 4.3498 9.9800 0.7225 -7.4601 48.2044 1.0066
# 6 5.7067 6.7454 -5.1697 6.3652 1.0066 40.8779
#
#
#
# Elastic Compliance Matrix: (Units=1/GPa)
#
#
# Indices 1 2 3 4 5 6 
#
# 1 0.008895 -0.002903 -0.003139 -0.000560 -0.000219 -0.001067
# 2 -0.002903 0.011791 -0.002353 0.002315 -0.001741 -0.002156
# 3 -0.003139 -0.002353 0.010948 -0.000247 0.000521 0.002237
# 4 -0.000560 0.002315 -0.000247 0.027307 0.003899 -0.004683
# 5 -0.000219 -0.001741 0.000521 0.003899 0.021737 -0.000759
# 6 -0.001067 -0.002156 0.002237 -0.004683 -0.000759 0.025999
#
#
# Mechanical properties :
#
#
# Convention : Reuss Voigt Hill
#
# Bulk Modulus (GPa) = 67.37019 70.85064 69.11042
# Shear Modulus (GPa) = 38.93677 41.38505 40.16091
#
# Velocity S-wave (km/s) = 4.18712 4.31675 4.25243
# Velocity P-wave (km/s) = 7.32875 7.53310 7.43163
#
# Compressibility (1/GPa) = 0.01484336
#
# Stress axis : x y z
#
# Youngs Moduli (GPa) = 112.42793 84.81040 91.34253
#
# Poissons Ratio (x) = 0.24624 0.28672
# Poissons Ratio (y) = 0.32642 0.21490
# Poissons Ratio (z) = 0.35291 0.19953
#
# Static dielectric constant tensor:
#      x y z
#    x 23.742450 -0.440360 1.429140 
#    y -0.440360 4.179960 0.096660 
#    z 1.429140 0.096660 4.564430 
# 
# 
# High freq. dielectric constant tensor:
#      x y z
#    x 1.880860 -0.000980 0.004360 
#    y -0.000980 1.885730 0.001740 
#    z 0.004360 0.001740 1.891510 
# 
# From -- ./inp_files/48908.got.cif
#   From: 2010.06.25/outbox.cif.g09.slc.cpg/sg2_25_cif.got.tgz:48908.got - 2010.06.27 13:26:56.
