data_PCOD8036582
_publ_section_title
;
Structure prediction by ZEFSAII (Michael W. Deem and Ramdas Pophale) SiO2 
 PCOD8036582
Probable space group: P -1
;
_chemical_formula_sum "Si O2"
_cell_formula_units_Z 14
_cell_length_a 16.420480
_cell_length_b 15.096784
_cell_length_c 12.286053
_cell_angle_alpha 18.018632
_cell_angle_beta 45.083992
_cell_angle_gamma 43.323756
_cell_volume 644.936610
_symmetry_space_group_name_H-M "P -1"
_symmetry_group_IT_number 2
_symmetry_cell_setting 'triclinic'
loop_
_space_group_symop_operation_xyz
x,y,z
-x,-y,-z
loop_
_atom_site_type_symbol
_atom_site_label
_atom_site_fract_x
_atom_site_fract_y
_atom_site_fract_z
Si Si1 0.918914 0.981218 0.703595
Si Si2 0.770968 0.624644 0.138987
Si Si3 0.594307 0.924841 0.804856
Si Si4 0.913489 0.677636 0.279928
Si Si5 0.424335 0.831233 0.698056
Si Si6 0.446360 0.486912 0.403132
Si Si7 0.246499 0.758821 0.110124
O O1 0.869285 0.315087 0.402668
O O2 0.000000 0.000000 0.500000
O O3 0.813708 0.846979 0.918455
O O4 0.976059 0.780294 0.991608
O O5 0.643410 0.601995 0.325957
O O6 0.732682 0.769482 0.887868
O O7 0.603326 0.008263 0.576109
O O8 0.548403 0.205867 0.597530
O O9 0.505497 0.713145 0.145768
O O10 0.825911 0.486255 0.546814
O O11 0.000000 0.500000 0.500000
O O12 0.835703 0.971975 0.062925
O O13 0.500000 0.000000 0.500000
O O14 0.500000 0.500000 0.000000
O O15 0.290907 0.855535 0.840612
O O16 0.371609 0.634921 0.196659
#
# Coordination Sequence:
#
# PCOD8036582 Si02
#       7
#     2   2   2   2   2   2   2
#     4  12  26  46  70  94 127 171 218 276 331 375
#     4  12  25  42  67  96 132 169 214 267 319 383
#     4  12  24  39  63 101 134 171 214 255 312 387
#     4  12  26  46  70  96 123 166 224 275 326 385
#     4  12  23  38  61  93 132 173 209 253 308 377
#     4  12  21  41  67  94 130 172 212 249 318 391
#     4  12  23  42  70  92 128 174 209 260 324 383
#
# _framework density 21.707559
#
# number of rings (size 3 to 8) (size 9 to 14) (size 15 to 20)
#    0.000    0.000    5.714    5.143    0.000    2.286 
#    0.000    0.000    0.000    0.000    0.000    0.000 
#    0.000    0.000    0.000    0.000    0.000    0.000 
#
# Total GULP energy -173539.734422 kJ/mol
# GULP energy per Si atom -12395.695316 kJ/mol
# Density = 2.165815 g / cm^3
# Si number density = 21.707559 Si / 1000 Ang^3
#
#
#
# Elastic Constant Matrix: (Units=GPa)
#
#
# Indices 1 2 3 4 5 6 
#
# 1 92.3012 17.9778 37.5326 -4.1625 23.3320 4.7278
# 2 17.9778 102.0645 51.9742 9.7974 3.1897 14.8395
# 3 37.5326 51.9742 114.5308 -0.2808 8.8544 6.4925
# 4 -4.1625 9.7974 -0.2808 49.4539 16.3467 0.0087
# 5 23.3320 3.1897 8.8544 16.3467 45.8719 -0.7050
# 6 4.7278 14.8395 6.4925 0.0087 -0.7050 26.6442
#
#
#
# Elastic Compliance Matrix: (Units=1/GPa)
#
#
# Indices 1 2 3 4 5 6 
#
# 1 0.014872 -0.000536 -0.003891 0.004062 -0.008248 -0.001612
# 2 -0.000536 0.014146 -0.006017 -0.003398 0.001565 -0.006275
# 3 -0.003891 -0.006017 0.012720 0.001078 -0.000427 0.000931
# 4 0.004062 -0.003398 0.001078 0.024838 -0.010880 0.000613
# 5 -0.008248 0.001565 -0.000427 -0.010880 0.029869 0.001490
# 6 -0.001612 -0.006275 0.000931 0.000613 0.001490 0.041125
#
#
# Mechanical properties :
#
#
# Convention : Reuss Voigt Hill
#
# Bulk Modulus (GPa) = 47.96518 58.20730 53.08624
# Shear Modulus (GPa) = 30.22822 37.82147 34.02484
#
# Velocity S-wave (km/s) = 3.73570 4.17864 3.96336
# Velocity P-wave (km/s) = 6.38367 7.08194 6.74185
#
# Compressibility (1/GPa) = 0.02084846
#
# Stress axis : x y z
#
# Youngs Moduli (GPa) = 67.24236 70.69168 78.61518
#
# Poissons Ratio (x) = 0.03787 0.30592
# Poissons Ratio (y) = 0.03602 0.47307
# Poissons Ratio (z) = 0.26167 0.42539
#
# Static dielectric constant tensor:
#      x y z
#    x 4.123510 0.292390 0.207020 
#    y 0.292390 3.880340 0.259350 
#    z 0.207020 0.259350 3.955150 
# 
# 
# High freq. dielectric constant tensor:
#      x y z
#    x 1.859930 0.023510 0.006330 
#    y 0.023510 1.848860 -0.000970 
#    z 0.006330 -0.000970 1.879440 
# 
# From -- ./inp_files/101156.got.cif
#   From: 2010.06.25/outbox.cif.g09.slc.cpg/sg2_51_cif.got.tgz:101156.got - 2010.06.27 13:26:56.
