data_PCOD8036810
_publ_section_title
;
Structure prediction by ZEFSAII (Michael W. Deem and Ramdas Pophale) SiO2 
 PCOD8036810
Probable space group: P -1
;
_chemical_formula_sum "Si O2"
_cell_formula_units_Z 12
_cell_length_a 12.617686
_cell_length_b 9.652891
_cell_length_c 9.365079
_cell_angle_alpha 47.184412
_cell_angle_beta 44.617549
_cell_angle_gamma 46.983433
_cell_volume 542.345715
_symmetry_space_group_name_H-M "P -1"
_symmetry_group_IT_number 2
_symmetry_cell_setting 'triclinic'
loop_
_space_group_symop_operation_xyz
x,y,z
-x,-y,-z
loop_
_atom_site_type_symbol
_atom_site_label
_atom_site_fract_x
_atom_site_fract_y
_atom_site_fract_z
Si Si1 0.417705 0.000477 0.924631
Si Si2 0.127945 0.487619 0.126290
Si Si3 0.691921 0.379717 0.391546
Si Si4 0.621485 0.616120 0.812835
Si Si5 0.836953 0.968781 0.654062
Si Si6 0.243329 0.367376 0.632726
O O1 0.535085 0.818975 0.844273
O O2 0.364366 0.207506 0.740285
O O3 0.500000 0.000000 0.000000
O O4 0.250816 0.975831 0.145875
O O5 0.209242 0.518409 0.175027
O O6 0.142707 0.255108 0.260449
O O7 0.936977 0.639220 0.202426
O O8 0.226341 0.545981 0.867568
O O9 0.500000 0.500000 0.500000
O O10 0.773544 0.415183 0.436661
O O11 0.731934 0.135817 0.517540
O O12 0.665939 0.674899 0.575056
O O13 0.500000 0.500000 0.000000
O O14 0.000000 0.000000 0.500000
#
# Coordination Sequence:
#
# PCOD8036810 Si02
#       6
#     2   2   2   2   2   2
#     4  12  24  47  74 103 140 188 243 296 351 426
#     4  12  25  48  70 107 149 189 241 299 351 435
#     4  12  24  41  74 107 140 189 246 290 356 427
#     4  12  27  47  70 103 148 191 239 296 365 425
#     4  12  23  41  73 106 140 183 243 295 353 416
#     4  12  24  45  70 101 147 192 229 300 366 417
#
# _framework density 22.126109
#
# number of rings (size 3 to 8) (size 9 to 14) (size 15 to 20)
#    0.000    0.000    5.000    6.500    0.000    0.000 
#    3.000    0.833    0.000    0.000    0.000    0.000 
#    0.000    0.000    0.000    0.000    0.000    0.000 
#
# Total GULP energy -148747.498353 kJ/mol
# GULP energy per Si atom -12395.624863 kJ/mol
# Density = 2.207575 g / cm^3
# Si number density = 22.126109 Si / 1000 Ang^3
#
#
#
# Elastic Constant Matrix: (Units=GPa)
#
#
# Indices 1 2 3 4 5 6 
#
# 1 133.6985 41.2565 68.8653 12.2873 16.7440 -13.5530
# 2 41.2565 86.8057 61.8263 -6.4955 15.1212 -11.1883
# 3 68.8653 61.8263 179.7576 19.5195 8.7829 1.9253
# 4 12.2873 -6.4955 19.5195 45.2912 -4.6612 -1.5028
# 5 16.7440 15.1212 8.7829 -4.6612 37.7146 7.0440
# 6 -13.5530 -11.1883 1.9253 -1.5028 7.0440 34.7440
#
#
#
# Elastic Compliance Matrix: (Units=1/GPa)
#
#
# Indices 1 2 3 4 5 6 
#
# 1 0.010882 -0.001647 -0.003199 -0.002123 -0.004571 0.004727
# 2 -0.001647 0.019317 -0.006394 0.005579 -0.006224 0.007436
# 3 -0.003199 -0.006394 0.009367 -0.004013 0.002135 -0.004433
# 4 -0.002123 0.005579 -0.004013 0.025498 0.002456 0.001796
# 5 -0.004571 -0.006224 0.002135 0.002456 0.032798 -0.010449
# 6 0.004727 0.007436 -0.004433 0.001796 -0.010449 0.035462
#
#
# Mechanical properties :
#
#
# Convention : Reuss Voigt Hill
#
# Bulk Modulus (GPa) = 58.52964 82.68422 70.60693
# Shear Modulus (GPa) = 30.95972 38.77088 34.86530
#
# Velocity S-wave (km/s) = 3.74470 4.19055 3.97388
# Velocity P-wave (km/s) = 6.72363 7.80160 7.28259
#
# Compressibility (1/GPa) = 0.01708536
#
# Stress axis : x y z
#
# Youngs Moduli (GPa) = 91.89130 51.76788 106.75714
#
# Poissons Ratio (x) = 0.08525 0.34156
# Poissons Ratio (y) = 0.15132 0.68265
# Poissons Ratio (z) = 0.29400 0.33103
#
# Static dielectric constant tensor:
#      x y z
#    x 4.576410 -0.133910 -0.066530 
#    y -0.133910 4.113420 0.311060 
#    z -0.066530 0.311060 4.529620 
# 
# 
# High freq. dielectric constant tensor:
#      x y z
#    x 1.880120 -0.022130 -0.013000 
#    y -0.022130 1.866460 0.001260 
#    z -0.013000 0.001260 1.893080 
# 
# From -- ./inp_files/148686.got.cif
#   From: 2010.06.25/outbox.cif.g09.slc.cpg/sg2_75_cif.got.tgz:148686.got - 2010.06.27 13:26:56.
