data_PCOD8036111
_publ_section_title
;
Structure prediction by ZEFSAII (Michael W. Deem and Ramdas Pophale) SiO2 
 PCOD8036111
Probable space group: P -1
;
_chemical_formula_sum "Si O2"
_cell_formula_units_Z 16
_cell_length_a 12.197083
_cell_length_b 5.037309
_cell_length_c 16.940041
_cell_angle_alpha 127.017868
_cell_angle_beta 132.405843
_cell_angle_gamma 63.536155
_cell_volume 612.232992
_symmetry_space_group_name_H-M "P -1"
_symmetry_group_IT_number 2
_symmetry_cell_setting 'triclinic'
loop_
_space_group_symop_operation_xyz
x,y,z
-x,-y,-z
loop_
_atom_site_type_symbol
_atom_site_label
_atom_site_fract_x
_atom_site_fract_y
_atom_site_fract_z
Si Si1 0.394778 0.717696 0.409500
Si Si2 0.454060 0.218877 0.818432
Si Si3 0.177312 0.764852 0.175856
Si Si4 0.332866 0.766882 0.554093
Si Si5 0.009878 0.315971 0.116697
Si Si6 0.194575 0.632352 0.831632
Si Si7 0.344153 0.257953 0.060317
Si Si8 0.034861 0.608269 0.448198
O O1 0.318300 0.706194 0.286998
O O2 0.280422 0.807452 0.443815
O O3 0.498685 0.380670 0.405166
O O4 0.500000 0.000000 0.500000
O O5 0.325879 0.341807 0.839550
O O6 0.542126 0.541150 0.898917
O O7 0.361231 0.102135 0.676010
O O8 0.563534 0.927210 0.856209
O O9 0.040181 0.638776 0.137981
O O10 0.212161 0.525487 0.074204
O O11 0.145892 0.159622 0.211224
O O12 0.211092 0.549931 0.500401
O O13 0.865576 0.402236 0.114731
O O14 0.000000 0.000000 0.000000
O O15 0.065881 0.589522 0.696429
O O16 0.264288 0.990561 0.919985
O O17 0.000000 0.500000 0.500000
O O18 0.000000 0.000000 0.500000
#
# Coordination Sequence:
#
# PCOD8036111 Si02
#       8
#     2   2   2   2   2   2   2   2
#     4  11  26  44  80 110 154 205 256 328 385 457
#     4  12  27  49  78 113 157 196 259 322 384 460
#     4  12  26  48  76 111 152 197 256 318 390 448
#     4  11  26  49  74 117 155 206 264 321 393 457
#     4  12  28  50  76 111 152 199 251 317 378 473
#     4  12  29  51  80 111 157 206 260 315 394 464
#     4  12  27  48  80 114 151 201 255 325 387 457
#     4  12  30  51  78 109 155 206 255 316 382 467
#
# _framework density 26.133839999999999
#
# number of rings (size 3 to 8) (size 9 to 14) (size 15 to 20)
#    0.000    0.250    3.750    3.375    8.750    3.000 
#    0.000    0.000    0.000    0.000    0.000    0.000 
#    0.000    0.000    0.000    0.000    0.000    0.000 
#
# Total GULP energy -198295.115350 kJ/mol
# GULP energy per Si atom -12393.444709 kJ/mol
# Density = 2.607436 g / cm^3
# Si number density = 26.133840 Si / 1000 Ang^3
#
#
#
# Elastic Constant Matrix: (Units=GPa)
#
#
# Indices 1 2 3 4 5 6 
#
# 1 186.5414 17.1395 45.6293 5.2848 -12.5125 -9.9207
# 2 17.1395 51.6583 -4.8095 3.5119 -12.2676 -9.9496
# 3 45.6293 -4.8095 142.7471 15.5562 5.0751 -2.7375
# 4 5.2848 3.5119 15.5562 32.2469 -5.3038 -5.8380
# 5 -12.5125 -12.2676 5.0751 -5.3038 40.7449 -1.8706
# 6 -9.9207 -9.9496 -2.7375 -5.8380 -1.8706 38.7725
#
#
#
# Elastic Compliance Matrix: (Units=1/GPa)
#
#
# Indices 1 2 3 4 5 6 
#
# 1 0.006207 -0.001641 -0.002160 0.000724 0.001831 0.001212
# 2 -0.001641 0.022666 0.001252 -0.000734 0.006329 0.005680
# 3 -0.002160 0.001252 0.008248 -0.004134 -0.001868 -0.000362
# 4 0.000724 -0.000734 -0.004134 0.034776 0.005282 0.005196
# 5 0.001831 0.006329 -0.001868 0.005282 0.028120 0.004113
# 6 0.001212 0.005680 -0.000362 0.005196 0.004113 0.028514
#
#
# Mechanical properties :
#
#
# Convention : Reuss Voigt Hill
#
# Bulk Modulus (GPa) = 31.22815 55.20727 43.21771
# Shear Modulus (GPa) = 34.64924 43.88537 39.26730
#
# Velocity S-wave (km/s) = 3.64516 4.10232 3.88047
# Velocity P-wave (km/s) = 5.44899 6.60374 6.05396
#
# Compressibility (1/GPa) = 0.03202239
#
# Stress axis : x y z
#
# Youngs Moduli (GPa) = 161.11772 44.11872 121.24058
#
# Poissons Ratio (x) = 0.07242 0.26188
# Poissons Ratio (y) = 0.26447 -0.15183
# Poissons Ratio (z) = 0.34802 -0.05525
#
# Static dielectric constant tensor:
#      x y z
#    x 5.359490 0.920590 -0.472530 
#    y 0.920590 5.930140 -0.817230 
#    z -0.472530 -0.817230 5.274500 
# 
# 
# High freq. dielectric constant tensor:
#      x y z
#    x 2.061530 -0.008000 -0.003950 
#    y -0.008000 2.043030 -0.003340 
#    z -0.003950 -0.003340 2.067400 
# 
# From -- ./inp_files/564584.got.cif
#   From: 2010.06.25/outbox.cif.g09.slc.cpg/sg2_283_cif.got.tgz:564584.got - 2010.06.27 13:26:56.
