data_PCOD8036995
_publ_section_title
;
Structure prediction by ZEFSAII (Michael W. Deem and Ramdas Pophale) SiO2 
 PCOD8036995
Probable space group: P -1
;
_chemical_formula_sum "Si O2"
_cell_formula_units_Z 12
_cell_length_a 11.746882
_cell_length_b 13.085898
_cell_length_c 8.741193
_cell_angle_alpha 124.209639
_cell_angle_beta 40.805411
_cell_angle_gamma 144.558400
_cell_volume 503.893310
_symmetry_space_group_name_H-M "P -1"
_symmetry_group_IT_number 2
_symmetry_cell_setting 'triclinic'
loop_
_space_group_symop_operation_xyz
x,y,z
-x,-y,-z
loop_
_atom_site_type_symbol
_atom_site_label
_atom_site_fract_x
_atom_site_fract_y
_atom_site_fract_z
Si Si1 0.081027 0.717154 0.832045
Si Si2 0.295081 0.792793 0.003946
Si Si3 0.678303 0.364099 0.644563
Si Si4 0.440460 0.632441 0.899587
Si Si5 0.100341 0.294683 0.451162
Si Si6 0.810117 0.005671 0.250330
O O1 0.087211 0.609179 0.605766
O O2 0.205504 0.902444 0.792875
O O3 0.232930 0.753705 0.856584
O O4 0.786149 0.583568 0.057791
O O5 0.039525 0.694231 0.271660
O O6 0.403070 0.714895 0.875562
O O7 0.500000 0.000000 0.000000
O O8 0.740146 0.536319 0.681996
O O9 0.460572 0.193670 0.614730
O O10 0.564424 0.299687 0.875772
O O11 0.704389 0.698527 0.659701
O O12 0.897538 0.113033 0.409425
O O13 0.000000 0.000000 0.000000
#
# Coordination Sequence:
#
# PCOD8036995 Si02
#       6
#     2   2   2   2   2   2
#     4  12  25  46  72 104 145 193 234 289 361 421
#     4  12  28  49  68 102 150 191 237 289 355 432
#     4  12  23  46  76 105 144 184 237 301 350 415
#     4  12  24  46  73 104 143 186 238 292 354 419
#     4  12  26  48  75 107 142 189 237 296 356 417
#     4  12  24  44  73 108 139 181 243 294 348 418
#
# _framework density 23.814565999999999
#
# number of rings (size 3 to 8) (size 9 to 14) (size 15 to 20)
#    0.000    0.000    5.000    6.000    0.000    1.333 
#    3.000    0.000    0.000    0.000    0.000    0.000 
#    0.000    0.000    0.000    0.000    0.000    0.000 
#
# Total GULP energy -148888.024485 kJ/mol
# GULP energy per Si atom -12407.335374 kJ/mol
# Density = 2.376036 g / cm^3
# Si number density = 23.814566 Si / 1000 Ang^3
#
#
#
# Elastic Constant Matrix: (Units=GPa)
#
#
# Indices 1 2 3 4 5 6 
#
# 1 125.0177 4.2140 31.2681 7.9106 -9.9732 -14.0578
# 2 4.2140 84.1417 -6.8969 -1.9078 -5.1242 9.7070
# 3 31.2681 -6.8969 52.8234 3.6043 -5.5335 -23.6049
# 4 7.9106 -1.9078 3.6043 34.7854 6.9396 -9.1034
# 5 -9.9732 -5.1242 -5.5335 6.9396 37.5759 7.5419
# 6 -14.0578 9.7070 -23.6049 -9.1034 7.5419 35.3788
#
#
#
# Elastic Compliance Matrix: (Units=1/GPa)
#
#
# Indices 1 2 3 4 5 6 
#
# 1 0.009715 -0.000780 -0.005869 -0.002326 0.002221 -0.000914
# 2 -0.000780 0.012586 0.000586 -0.000784 0.002568 -0.004121
# 3 -0.005869 0.000586 0.030658 0.003499 -0.001458 0.019173
# 4 -0.002326 -0.000784 0.003499 0.033852 -0.008917 0.012237
# 5 0.002221 0.002568 -0.001458 -0.008917 0.030928 -0.009682
# 6 -0.000914 -0.004121 0.019173 0.012237 -0.009682 0.047038
#
#
# Mechanical properties :
#
#
# Convention : Reuss Voigt Hill
#
# Bulk Modulus (GPa) = 24.49072 35.46147 29.97610
# Shear Modulus (GPa) = 26.24466 37.10787 31.67626
#
# Velocity S-wave (km/s) = 3.32330 3.95169 3.65104
# Velocity P-wave (km/s) = 5.00320 5.97864 5.51254
#
# Compressibility (1/GPa) = 0.04083179
#
# Stress axis : x y z
#
# Youngs Moduli (GPa) = 102.93679 79.45449 32.61767
#
# Poissons Ratio (x) = 0.06195 0.19144
# Poissons Ratio (y) = 0.08026 -0.01910
# Poissons Ratio (z) = 0.60417 -0.04652
#
# Static dielectric constant tensor:
#      x y z
#    x 4.503720 0.065390 -0.162720 
#    y 0.065390 1.156600 0.122610 
#    z -0.162720 0.122610 4.281640 
# 
# 
# High freq. dielectric constant tensor:
#      x y z
#    x 1.951350 0.013810 -0.008410 
#    y 0.013810 1.957080 -0.001510 
#    z -0.008410 -0.001510 1.941540 
# 
# From -- ./inp_files/174381.got.cif
#   From: 2010.06.25/outbox.cif.g09.slc.cpg/sg2_88_cif.got.tgz:174381.got - 2010.06.27 13:26:56.
