data_PCOD8036761
_publ_section_title
;
Structure prediction by ZEFSAII (Michael W. Deem and Ramdas Pophale) SiO2 
 PCOD8036761
Probable space group: P -1
;
_chemical_formula_sum "Si O2"
_cell_formula_units_Z 16
_cell_length_a 8.693603
_cell_length_b 20.600622
_cell_length_c 9.235610
_cell_angle_alpha 115.243477
_cell_angle_beta 63.631158
_cell_angle_gamma 149.952020
_cell_volume 738.785078
_symmetry_space_group_name_H-M "P -1"
_symmetry_group_IT_number 2
_symmetry_cell_setting 'triclinic'
loop_
_space_group_symop_operation_xyz
x,y,z
-x,-y,-z
loop_
_atom_site_type_symbol
_atom_site_label
_atom_site_fract_x
_atom_site_fract_y
_atom_site_fract_z
Si Si1 0.132780 0.367725 0.047179
Si Si2 0.200183 0.529531 0.824059
Si Si3 0.160689 0.729248 0.241206
Si Si4 0.140705 0.864235 0.545356
Si Si5 0.826000 0.896967 0.598094
Si Si6 0.851838 0.915814 0.119077
Si Si7 0.142813 0.243371 0.124810
Si Si8 0.171860 0.613636 0.644438
O O1 0.014478 0.254160 0.069259
O O2 0.068152 0.411777 0.221468
O O3 0.500000 0.500000 0.000000
O O4 0.942471 0.306408 0.918128
O O5 0.516926 0.609858 0.835203
O O6 0.298524 0.613909 0.729849
O O7 0.004118 0.393356 0.721579
O O8 0.000000 0.500000 0.000000
O O9 0.040354 0.757717 0.400682
O O10 0.529415 0.845263 0.216711
O O11 0.966152 0.868479 0.546767
O O12 0.076339 0.836914 0.718530
O O13 0.500000 0.000000 0.500000
O O14 0.461139 0.755900 0.582897
O O15 0.000000 0.000000 0.500000
O O16 0.876449 0.970987 0.774793
O O17 0.810031 0.816387 0.030036
O O18 0.000000 0.000000 0.000000
O O19 0.000000 0.500000 0.500000
#
# Coordination Sequence:
#
# PCOD8036761 Si02
#       8
#     2   2   2   2   2   2   2   2
#     4  12  27  45  67 113 145 179 241 299 352 419
#     4  12  22  46  73 101 139 189 239 284 355 429
#     4  12  26  44  75 101 146 186 236 297 359 420
#     4  12  27  49  70 106 141 185 238 296 356 424
#     4  12  29  48  73 107 147 186 244 293 357 426
#     4  12  23  49  74  97 138 196 237 286 359 432
#     4  12  25  44  75 103 143 185 235 293 356 419
#     4  12  29  48  75 105 145 192 241 292 356 429
#
# _framework density 21.657177999999998
#
# number of rings (size 3 to 8) (size 9 to 14) (size 15 to 20)
#    0.000    0.000    7.500    0.750    8.750    0.500 
#    0.000    1.875    0.000    0.000    0.000    0.000 
#    0.000    0.000    0.000    0.000    0.000    0.000 
#
# Total GULP energy -198376.055127 kJ/mol
# GULP energy per Si atom -12398.503445 kJ/mol
# Density = 2.160788 g / cm^3
# Si number density = 21.657178 Si / 1000 Ang^3
#
#
#
# Elastic Constant Matrix: (Units=GPa)
#
#
# Indices 1 2 3 4 5 6 
#
# 1 89.5440 30.1690 38.1857 -1.9645 -8.5405 -21.0031
# 2 30.1690 144.1068 45.0595 -5.1254 -0.8943 -0.1964
# 3 38.1857 45.0595 127.8099 7.5581 -12.2645 -7.2456
# 4 -1.9645 -5.1254 7.5581 42.3975 -4.7384 2.1919
# 5 -8.5405 -0.8943 -12.2645 -4.7384 38.5822 -1.4166
# 6 -21.0031 -0.1964 -7.2456 2.1919 -1.4166 46.8255
#
#
#
# Elastic Compliance Matrix: (Units=1/GPa)
#
#
# Indices 1 2 3 4 5 6 
#
# 1 0.014961 -0.002074 -0.003194 0.000980 0.002598 0.006241
# 2 -0.002074 0.008200 -0.002519 0.001308 -0.000960 -0.001376
# 3 -0.003194 -0.002519 0.010009 -0.002007 0.002180 0.000266
# 4 0.000980 0.001308 -0.002007 0.024484 0.002582 -0.000934
# 5 0.002598 -0.000960 0.002180 0.002582 0.027563 0.002212
# 6 0.006241 -0.001376 0.000266 -0.000934 0.002212 0.024301
#
#
# Mechanical properties :
#
#
# Convention : Reuss Voigt Hill
#
# Bulk Modulus (GPa) = 56.82582 65.36545 61.09564
# Shear Modulus (GPa) = 38.18047 42.09747 40.13897
#
# Velocity S-wave (km/s) = 4.20330 4.41365 4.30976
# Velocity P-wave (km/s) = 7.06065 7.49808 7.28265
#
# Compressibility (1/GPa) = 0.01759763
#
# Stress axis : x y z
#
# Youngs Moduli (GPa) = 66.83822 121.95536 99.90917
#
# Poissons Ratio (x) = 0.25295 0.31907
# Poissons Ratio (y) = 0.13863 0.25163
# Poissons Ratio (z) = 0.21346 0.30715
#
# Static dielectric constant tensor:
#      x y z
#    x 4.152550 -0.255690 -0.030180 
#    y -0.255690 4.304430 -0.116610 
#    z -0.030180 -0.116610 4.144020 
# 
# 
# High freq. dielectric constant tensor:
#      x y z
#    x 1.855610 -0.010190 -0.005770 
#    y -0.010190 1.870690 -0.001160 
#    z -0.005770 -0.001160 1.857220 
# 
# From -- ./inp_files/223784.got.cif
#   From: 2010.06.25/outbox.cif.g09.slc.cpg/sg2_112_cif.got.tgz:223784.got - 2010.06.27 13:26:56.
