data_PCOD8036555
_publ_section_title
;
Structure prediction by ZEFSAII (Michael W. Deem and Ramdas Pophale) SiO2 
 PCOD8036555
Probable space group: P -1
;
_chemical_formula_sum "Si O2"
_cell_formula_units_Z 16
_cell_length_a 9.926773
_cell_length_b 13.281396
_cell_length_c 7.313095
_cell_angle_alpha 93.308141
_cell_angle_beta 134.716644
_cell_angle_gamma 83.890501
_cell_volume 681.040870
_symmetry_space_group_name_H-M "P -1"
_symmetry_group_IT_number 2
_symmetry_cell_setting 'triclinic'
loop_
_space_group_symop_operation_xyz
x,y,z
-x,-y,-z
loop_
_atom_site_type_symbol
_atom_site_label
_atom_site_fract_x
_atom_site_fract_y
_atom_site_fract_z
Si Si1 0.838121 0.102112 0.434824
Si Si2 0.218763 0.939380 0.003414
Si Si3 0.266467 0.273709 0.535802
Si Si4 0.520991 0.750590 0.883635
Si Si5 0.615373 0.952564 0.431938
Si Si6 0.471694 0.619178 0.476133
Si Si7 0.904332 0.270053 0.019756
Si Si8 0.843709 0.842855 0.015624
O O1 0.903659 0.047416 0.299484
O O2 0.682293 0.195752 0.245824
O O3 0.021605 0.152259 0.680898
O O4 0.758008 0.028323 0.499169
O O5 0.169297 0.044331 0.086787
O O6 0.435949 0.931772 0.128625
O O7 0.184260 0.838468 0.068785
O O8 0.278223 0.159549 0.447205
O O9 0.370657 0.343276 0.503762
O O10 0.356017 0.286276 0.823443
O O11 0.032977 0.303522 0.318885
O O12 0.487598 0.659224 0.703024
O O13 0.633120 0.830189 0.885308
O O14 0.500000 0.000000 0.500000
O O15 0.500000 0.500000 0.500000
O O16 0.262910 0.647646 0.190107
O O17 0.069257 0.254471 0.022423
#
# Coordination Sequence:
#
# PCOD8036555 Si02
#       8
#     2   2   2   2   2   2   2   2
#     4  12  22  39  61  98 146 186 230 270 318 400
#     4  12  22  37  61 100 144 191 226 263 324 399
#     4  12  25  46  71 102 139 181 228 285 339 406
#     4  12  24  46  71 101 140 181 227 286 344 404
#     4  12  21  36  62  94 144 192 226 265 324 395
#     4  12  28  52  76  99 129 173 232 299 363 413
#     4  12  24  45  68 102 140 181 229 281 335 407
#     4  12  23  38  66 102 143 187 226 266 328 405
#
# _framework density 23.493451
#
# number of rings (size 3 to 8) (size 9 to 14) (size 15 to 20)
#    0.000    0.000    6.250    5.625    0.000    1.000 
#    0.000    0.625    0.000    0.000    0.000    0.000 
#    0.000    0.000    0.000    0.000    0.000    0.000 
#
# Total GULP energy -198301.042820 kJ/mol
# GULP energy per Si atom -12393.815176 kJ/mol
# Density = 2.343998 g / cm^3
# Si number density = 23.493451 Si / 1000 Ang^3
#
#
#
# Elastic Constant Matrix: (Units=GPa)
#
#
# Indices 1 2 3 4 5 6 
#
# 1 53.5093 24.4528 12.2950 0.9269 -2.7411 -4.5305
# 2 24.4528 129.2909 59.5507 -9.6449 -7.2144 -6.1496
# 3 12.2950 59.5507 137.9305 -6.4200 16.0612 -12.7318
# 4 0.9269 -9.6449 -6.4200 29.5860 -3.9431 1.3208
# 5 -2.7411 -7.2144 16.0612 -3.9431 45.2056 -2.7885
# 6 -4.5305 -6.1496 -12.7318 1.3208 -2.7885 19.1720
#
#
#
# Elastic Compliance Matrix: (Units=1/GPa)
#
#
# Indices 1 2 3 4 5 6 
#
# 1 0.020860 -0.003865 -0.000005 -0.001994 0.000718 0.003928
# 2 -0.003865 0.011051 -0.004701 0.003174 0.003464 -0.000205
# 3 -0.000005 -0.004701 0.010183 -0.000076 -0.004087 0.004664
# 4 -0.001994 0.003174 -0.000076 0.035400 0.003411 -0.001446
# 5 0.000718 0.003464 -0.004087 0.003411 0.024585 0.001907
# 6 0.003928 -0.000205 0.004664 -0.001446 0.001907 0.056496
#
#
# Mechanical properties :
#
#
# Convention : Reuss Voigt Hill
#
# Bulk Modulus (GPa) = 40.07653 57.03641 48.55647
# Shear Modulus (GPa) = 27.16893 33.75487 30.46190
#
# Velocity S-wave (km/s) = 3.40435 3.79460 3.60476
# Velocity P-wave (km/s) = 5.70512 6.59764 6.16755
#
# Compressibility (1/GPa) = 0.02495226
#
# Stress axis : x y z
#
# Youngs Moduli (GPa) = 47.93974 90.48797 98.20117
#
# Poissons Ratio (x) = 0.34973 0.00045
# Poissons Ratio (y) = 0.18528 0.46168
# Poissons Ratio (z) = 0.00022 0.42541
#
# Static dielectric constant tensor:
#      x y z
#    x 4.278130 -0.049810 0.673650 
#    y -0.049810 3.721880 0.218670 
#    z 0.673650 0.218670 6.583880 
# 
# 
# High freq. dielectric constant tensor:
#      x y z
#    x 1.928690 -0.002050 0.011880 
#    y -0.002050 1.873910 0.003320 
#    z 0.011880 0.003320 1.987790 
# 
# From -- ./inp_files/258723.got.cif
#   From: 2010.06.25/outbox.cif.g09.slc.cpg/sg2_130_cif.got.tgz:258723.got - 2010.06.27 13:26:56.
