data_PCOD8036289
_publ_section_title
;
Structure prediction by ZEFSAII (Michael W. Deem and Ramdas Pophale) SiO2 
 PCOD8036289
Probable space group: P -1
;
_chemical_formula_sum "Si O2"
_cell_formula_units_Z 14
_cell_length_a 10.901801
_cell_length_b 5.138231
_cell_length_c 11.269881
_cell_angle_alpha 99.931890
_cell_angle_beta 92.774684
_cell_angle_gamma 58.852172
_cell_volume 531.562539
_symmetry_space_group_name_H-M "P -1"
_symmetry_group_IT_number 2
_symmetry_cell_setting 'triclinic'
loop_
_space_group_symop_operation_xyz
x,y,z
-x,-y,-z
loop_
_atom_site_type_symbol
_atom_site_label
_atom_site_fract_x
_atom_site_fract_y
_atom_site_fract_z
Si Si1 0.265525 0.891846 0.216898
Si Si2 0.422754 0.364185 0.819298
Si Si3 0.889086 0.367584 0.947736
Si Si4 0.262048 0.387930 0.602958
Si Si5 0.978552 0.432655 0.200163
Si Si6 0.339936 0.729358 0.468097
Si Si7 0.646028 0.977943 0.045550
O O1 0.406627 0.870757 0.160889
O O2 0.220010 0.733490 0.103307
O O3 0.320614 0.693125 0.324312
O O4 0.130449 0.230116 0.259966
O O5 0.397476 0.370002 0.677710
O O6 0.323593 0.232776 0.850807
O O7 0.371981 0.696752 0.898133
O O8 0.015025 0.290544 0.848898
O O9 0.950323 0.248892 0.076371
O O10 0.792708 0.751147 0.962412
O O11 0.130937 0.475000 0.690818
O O12 0.230229 0.648391 0.522897
O O13 0.303233 0.073865 0.515725
O O14 0.500000 0.500000 0.500000
O O15 0.500000 0.000000 0.000000
#
# Coordination Sequence:
#
# PCOD8036289 Si02
#       7
#     2   2   2   2   2   2   2
#     4  12  28  46  78 110 158 198 258 315 383 453
#     4  12  26  44  78 111 151 195 255 316 375 443
#     4  11  26  47  76 111 158 202 251 313 385 459
#     4  12  28  52  81 111 152 201 258 313 378 454
#     4  11  28  48  76 109 159 202 252 307 391 456
#     4  12  29  51  83 113 152 198 259 322 379 441
#     4  12  24  42  71 115 149 195 250 306 380 449
#
# _framework density 26.337448999999999
#
# number of rings (size 3 to 8) (size 9 to 14) (size 15 to 20)
#    0.000    0.286    4.286    3.000    6.000    2.286 
#    0.000    0.000    0.000    0.000    0.000    0.000 
#    0.000    0.000    0.000    0.000    0.000    0.000 
#
# Total GULP energy -173479.705461 kJ/mol
# GULP energy per Si atom -12391.407533 kJ/mol
# Density = 2.627750 g / cm^3
# Si number density = 26.337449 Si / 1000 Ang^3
#
#
#
# Elastic Constant Matrix: (Units=GPa)
#
#
# Indices 1 2 3 4 5 6 
#
# 1 118.6755 20.3620 51.5910 -8.9959 -16.2069 4.8715
# 2 20.3620 69.5092 30.7227 -6.7702 5.0083 10.7785
# 3 51.5910 30.7227 105.9824 -8.4283 -7.0658 3.3867
# 4 -8.9959 -6.7702 -8.4283 36.1508 4.9544 4.1825
# 5 -16.2069 5.0083 -7.0658 4.9544 44.6575 -4.9904
# 6 4.8715 10.7785 3.3867 4.1825 -4.9904 38.1528
#
#
#
# Elastic Compliance Matrix: (Units=1/GPa)
#
#
# Indices 1 2 3 4 5 6 
#
# 1 0.011280 -0.001266 -0.004810 0.001032 0.003323 -0.000334
# 2 -0.001266 0.018222 -0.004511 0.003256 -0.004191 -0.005491
# 3 -0.004810 -0.004511 0.013183 0.000832 0.000836 0.000737
# 4 0.001032 0.003256 0.000832 0.029795 -0.003709 -0.004877
# 5 0.003323 -0.004191 0.000836 -0.003709 0.025101 0.004376
# 6 -0.000334 -0.005491 0.000737 -0.004877 0.004376 0.028846
#
#
# Mechanical properties :
#
#
# Convention : Reuss Voigt Hill
#
# Bulk Modulus (GPa) = 46.48649 55.50205 50.99427
# Shear Modulus (GPa) = 32.30576 36.55831 34.43203
#
# Velocity S-wave (km/s) = 3.50610 3.72973 3.61964
# Velocity P-wave (km/s) = 5.83772 6.29817 6.07231
#
# Compressibility (1/GPa) = 0.02151163
#
# Stress axis : x y z
#
# Youngs Moduli (GPa) = 88.65101 54.87938 75.85493
#
# Poissons Ratio (x) = 0.06945 0.36486
# Poissons Ratio (y) = 0.11219 0.34220
# Poissons Ratio (z) = 0.42641 0.24757
#
# Static dielectric constant tensor:
#      x y z
#    x 5.279360 0.114840 -0.316280 
#    y 0.114840 5.279620 -0.784210 
#    z -0.316280 -0.784210 5.257670 
# 
# 
# High freq. dielectric constant tensor:
#      x y z
#    x 2.080600 -0.004040 -0.013950 
#    y -0.004040 2.054520 -0.029740 
#    z -0.013950 -0.029740 2.065050 
# 
# From -- ./inp_files/410795.got.cif
#   From: 2010.06.25/outbox.cif.g09.slc.cpg/sg2_206_cif.got.tgz:410795.got - 2010.06.27 13:26:56.
