data_PCOD8036042
_publ_section_title
;
Structure prediction by ZEFSAII (Michael W. Deem and Ramdas Pophale) SiO2 
 PCOD8036042
Probable space group: P -1
;
_chemical_formula_sum "Si O2"
_cell_formula_units_Z 12
_cell_length_a 8.824516
_cell_length_b 15.155886
_cell_length_c 15.241532
_cell_angle_alpha 160.905704
_cell_angle_beta 50.317632
_cell_angle_gamma 130.543826
_cell_volume 504.307715
_symmetry_space_group_name_H-M "P -1"
_symmetry_group_IT_number 2
_symmetry_cell_setting 'triclinic'
loop_
_space_group_symop_operation_xyz
x,y,z
-x,-y,-z
loop_
_atom_site_type_symbol
_atom_site_label
_atom_site_fract_x
_atom_site_fract_y
_atom_site_fract_z
Si Si1 0.120144 0.949099 0.770314
Si Si2 0.230180 0.828822 0.800605
Si Si3 0.497184 0.784198 0.222465
Si Si4 0.778252 0.628046 0.501831
Si Si5 0.640968 0.144004 0.971014
Si Si6 0.860392 0.210736 0.772172
O O1 0.182505 0.772358 0.662418
O O2 0.015533 0.741137 0.537515
O O3 0.310354 0.147239 0.846702
O O4 0.965364 0.132400 0.036318
O O5 0.306698 0.561810 0.561303
O O6 0.402944 0.101609 0.001741
O O7 0.299089 0.775339 0.231172
O O8 0.500000 0.000000 0.500000
O O9 0.500000 0.500000 0.000000
O O10 0.672687 0.894110 0.788674
O O11 0.735075 0.441744 0.255695
O O12 0.752533 0.111768 0.809427
O O13 0.000000 0.000000 0.500000
O O14 0.000000 0.500000 0.000000
#
# Coordination Sequence:
#
# PCOD8036042 Si02
#       6
#     2   2   2   2   2   2
#     4  11  27  49  76 110 154 191 248 312 372 442
#     4  11  25  50  74 112 151 198 241 308 378 438
#     4  12  30  52  80 110 149 200 259 310 373 447
#     4  12  26  45  74 110 150 192 245 295 378 444
#     4  12  27  47  75 109 153 193 247 306 370 449
#     4  12  28  52  76 109 150 201 254 313 373 442
#
# _framework density 23.794995
#
# number of rings (size 3 to 8) (size 9 to 14) (size 15 to 20)
#    0.000    0.333    3.333    3.500   11.667    0.000 
#    0.000    0.000    0.000    0.000    0.000    0.000 
#    0.000    0.000    0.000    0.000    0.000    0.000 
#
# Total GULP energy -148816.711366 kJ/mol
# GULP energy per Si atom -12401.392614 kJ/mol
# Density = 2.374084 g / cm^3
# Si number density = 23.794995 Si / 1000 Ang^3
#
#
#
# Elastic Constant Matrix: (Units=GPa)
#
#
# Indices 1 2 3 4 5 6 
#
# 1 176.9912 53.1556 57.7740 0.5189 19.6071 20.7749
# 2 53.1556 140.5054 41.7700 -4.7126 -11.4763 23.1723
# 3 57.7740 41.7700 135.9774 8.9083 5.9787 12.6813
# 4 0.5189 -4.7126 8.9083 38.0730 0.8239 0.1067
# 5 19.6071 -11.4763 5.9787 0.8239 32.0157 7.9404
# 6 20.7749 23.1723 12.6813 0.1067 7.9404 37.0541
#
#
#
# Elastic Compliance Matrix: (Units=1/GPa)
#
#
# Indices 1 2 3 4 5 6 
#
# 1 0.007814 -0.002538 -0.002245 0.000216 -0.005048 -0.000945
# 2 -0.002538 0.010238 -0.001937 0.001620 0.006987 -0.005818
# 3 -0.002245 -0.001937 0.009136 -0.002327 -0.000850 -0.000468
# 4 0.000216 0.001620 -0.002327 0.027002 0.000307 -0.000482
# 5 -0.005048 0.006987 -0.000850 0.000307 0.039385 -0.009689
# 6 -0.000945 -0.005818 -0.000468 -0.000482 -0.009689 0.033394
#
#
# Mechanical properties :
#
#
# Convention : Reuss Voigt Hill
#
# Bulk Modulus (GPa) = 72.73461 84.31925 78.52693
# Shear Modulus (GPa) = 34.48453 41.48019 37.98236
#
# Velocity S-wave (km/s) = 3.81101 4.17973 3.99962
# Velocity P-wave (km/s) = 7.07097 7.66852 7.37580
#
# Compressibility (1/GPa) = 0.01374861
#
# Stress axis : x y z
#
# Youngs Moduli (GPa) = 127.96805 97.67541 109.45209
#
# Poissons Ratio (x) = 0.24793 0.24568
# Poissons Ratio (y) = 0.32482 0.21203
# Poissons Ratio (z) = 0.28724 0.18922
#
# Static dielectric constant tensor:
#      x y z
#    x 4.897200 -0.019670 0.173850 
#    y -0.019670 4.385990 0.114240 
#    z 0.173850 0.114240 4.053060 
# 
# 
# High freq. dielectric constant tensor:
#      x y z
#    x 1.974570 0.000810 0.009480 
#    y 0.000810 1.947350 0.008800 
#    z 0.009480 0.008800 1.941020 
# 
# From -- ./inp_files/503421.got.cif
#   From: 2010.06.25/outbox.cif.g09.slc.cpg/sg2_252_cif.got.tgz:503421.got - 2010.06.27 13:26:56.
