data_PCOD8036656
_publ_section_title
;
Structure prediction by ZEFSAII (Michael W. Deem and Ramdas Pophale) SiO2 
 PCOD8036656
Probable space group: P -1
;
_chemical_formula_sum "Si O2"
_cell_formula_units_Z 16
_cell_length_a 7.756747
_cell_length_b 21.407710
_cell_length_c 14.397349
_cell_angle_alpha 147.503558
_cell_angle_beta 53.578894
_cell_angle_gamma 144.803914
_cell_volume 704.208084
_symmetry_space_group_name_H-M "P -1"
_symmetry_group_IT_number 2
_symmetry_cell_setting 'triclinic'
loop_
_space_group_symop_operation_xyz
x,y,z
-x,-y,-z
loop_
_atom_site_type_symbol
_atom_site_label
_atom_site_fract_x
_atom_site_fract_y
_atom_site_fract_z
Si Si1 0.797920 0.004366 0.182315
Si Si2 0.112093 0.785135 0.046516
Si Si3 0.841143 0.500263 0.137000
Si Si4 0.821642 0.810951 0.336855
Si Si5 0.855423 0.775518 0.942000
Si Si6 0.847246 0.137929 0.524865
Si Si7 0.879445 0.452295 0.714721
Si Si8 0.858575 0.662338 0.613557
O O1 0.462538 0.904311 0.120392
O O2 0.831717 0.040119 0.325384
O O3 0.878223 0.899342 0.024441
O O4 0.051536 0.181459 0.269312
O O5 0.902728 0.753148 0.157061
O O6 0.116632 0.870633 0.060403
O O7 0.940687 0.599920 0.830272
O O8 0.469647 0.367621 0.075176
O O9 0.035074 0.693194 0.340608
O O10 0.866637 0.437372 0.144662
O O11 0.000000 0.500000 0.000000
O O12 0.454187 0.690839 0.307351
O O13 0.909197 0.797157 0.391835
O O14 0.000000 0.000000 0.500000
O O15 0.897705 0.688147 0.744683
O O16 0.500000 0.000000 0.500000
O O17 0.930910 0.363515 0.518900
O O18 0.500000 0.500000 0.500000
#
# Coordination Sequence:
#
# PCOD8036656 Si02
#       8
#     2   2   2   2   2   2   2   2
#     4  12  24  47  72 105 145 183 242 297 357 431
#     4  12  25  46  70 107 147 182 239 297 358 434
#     4  12  22  42  69 103 137 180 236 286 361 425
#     4  12  24  42  67 107 147 181 237 296 360 433
#     4  12  26  46  73 104 139 196 237 293 363 419
#     4  12  22  40  69 101 141 188 227 288 367 426
#     4  12  24  44  70 102 142 189 232 300 358 416
#     4  12  25  49  74 100 141 192 248 295 352 426
#
# _framework density 22.720555999999998
#
# number of rings (size 3 to 8) (size 9 to 14) (size 15 to 20)
#    0.000    0.000    5.000    6.000    0.000    1.000 
#    0.000    1.250    0.000    0.000    0.000    0.000 
#    0.000    0.000    0.000    0.000    0.000    0.000 
#
# Total GULP energy -198393.004678 kJ/mol
# GULP energy per Si atom -12399.562792 kJ/mol
# Density = 2.266884 g / cm^3
# Si number density = 22.720556 Si / 1000 Ang^3
#
#
#
# Elastic Constant Matrix: (Units=GPa)
#
#
# Indices 1 2 3 4 5 6 
#
# 1 128.3544 40.1365 48.6609 -13.7091 11.9038 -2.5700
# 2 40.1365 107.9079 52.7419 -2.7036 -5.7856 -4.2215
# 3 48.6609 52.7419 121.9694 -15.1013 -1.6277 1.9894
# 4 -13.7091 -2.7036 -15.1013 59.5225 -13.1306 1.0355
# 5 11.9038 -5.7856 -1.6277 -13.1306 42.7329 -5.0340
# 6 -2.5700 -4.2215 1.9894 1.0355 -5.0340 25.6039
#
#
#
# Elastic Compliance Matrix: (Units=1/GPa)
#
#
# Indices 1 2 3 4 5 6 
#
# 1 0.010012 -0.002447 -0.002879 0.000808 -0.002957 0.000211
# 2 -0.002447 0.012629 -0.004583 -0.000687 0.002321 0.002677
# 3 -0.002879 -0.004583 0.011668 0.002372 0.001140 -0.001823
# 4 0.000808 -0.000687 0.002372 0.018781 0.005557 0.000116
# 5 -0.002957 0.002321 0.001140 0.005557 0.026886 0.005059
# 6 0.000211 0.002677 -0.001823 0.000116 0.005059 0.040651
#
#
# Mechanical properties :
#
#
# Convention : Reuss Voigt Hill
#
# Bulk Modulus (GPa) = 69.00479 71.25668 70.13073
# Shear Modulus (GPa) = 34.41758 40.01803 37.21781
#
# Velocity S-wave (km/s) = 3.89629 4.20135 4.05170
# Velocity P-wave (km/s) = 7.11888 7.41387 7.26787
#
# Compressibility (1/GPa) = 0.01449175
#
# Stress axis : x y z
#
# Youngs Moduli (GPa) = 99.87579 79.18253 85.70629
#
# Poissons Ratio (x) = 0.19375 0.24677
# Poissons Ratio (y) = 0.24438 0.39276
# Poissons Ratio (z) = 0.28757 0.36286
#
# Static dielectric constant tensor:
#      x y z
#    x 3.863800 0.058450 -0.143220 
#    y 0.058450 4.049290 -0.081660 
#    z -0.143220 -0.081660 4.196940 
# 
# 
# High freq. dielectric constant tensor:
#      x y z
#    x 1.900370 -0.005790 0.000950 
#    y -0.005790 1.901300 -0.000980 
#    z 0.000950 -0.000980 1.912450 
# 
# From -- ./inp_files/428004.got.cif
#   From: 2010.06.25/outbox.cif.g09.slc.cpg/sg2_215_cif.got.tgz:428004.got - 2010.06.27 13:26:56.
