data_PCOD8036548
_publ_section_title
;
Structure prediction by ZEFSAII (Michael W. Deem and Ramdas Pophale) SiO2 
 PCOD8036548
Probable space group: P -1
;
_chemical_formula_sum "Si O2"
_cell_formula_units_Z 16
_cell_length_a 13.460362
_cell_length_b 22.923185
_cell_length_c 13.656393
_cell_angle_alpha 157.840567
_cell_angle_beta 148.167051
_cell_angle_gamma 31.273726
_cell_volume 788.023729
_symmetry_space_group_name_H-M "P -1"
_symmetry_group_IT_number 2
_symmetry_cell_setting 'triclinic'
loop_
_space_group_symop_operation_xyz
x,y,z
-x,-y,-z
loop_
_atom_site_type_symbol
_atom_site_label
_atom_site_fract_x
_atom_site_fract_y
_atom_site_fract_z
Si Si1 0.323396 0.218695 0.981498
Si Si2 0.561010 0.349550 0.517376
Si Si3 0.770131 0.544929 0.894651
Si Si4 0.028743 0.989119 0.202093
Si Si5 0.358664 0.946626 0.145213
Si Si6 0.956958 0.115195 0.550106
Si Si7 0.752648 0.299688 0.198270
Si Si8 0.147863 0.228568 0.542088
O O1 0.440144 0.069291 0.772785
O O2 0.108923 0.217259 0.833065
O O3 0.452077 0.225190 0.195181
O O4 0.323267 0.376376 0.163887
O O5 0.695706 0.391268 0.609726
O O6 0.393524 0.519753 0.678459
O O7 0.729012 0.244150 0.571661
O O8 0.738782 0.652439 0.136196
O O9 0.000000 0.500000 0.000000
O O10 0.999435 0.998227 0.308378
O O11 0.098617 0.137122 0.453120
O O12 0.179530 0.812173 0.015988
O O13 0.816087 0.011638 0.013961
O O14 0.320813 0.097901 0.421490
O O15 0.369683 0.780206 0.955258
O O16 0.000000 0.000000 0.500000
O O17 0.947383 0.313085 0.440510
#
# Coordination Sequence:
#
# PCOD8036548 Si02
#       8
#     2   2   2   2   2   2   2   2
#     4  12  23  37  63  90 124 159 197 243 309 360
#     4  12  24  39  59  93 127 153 200 250 307 364
#     4  12  21  32  57  93 130 158 184 244 310 369
#     4   9  17  40  58  86 126 161 199 245 287 357
#     4   9  18  33  58  94 125 162 188 234 303 377
#     4  12  27  45  64  83 114 165 219 257 289 344
#     4   9  19  32  63  92 126 161 186 237 312 370
#     4   9  18  33  57  93 132 157 193 227 303 380
#
# _framework density 20.303957
#
# number of rings (size 3 to 8) (size 9 to 14) (size 15 to 20)
#    0.000    1.500    5.000    2.625    1.750    2.000 
#    0.000    0.625    0.000    0.750    0.000    0.000 
#    0.000    0.000    0.000    0.000    0.000    0.000 
#
# Total GULP energy -198238.189712 kJ/mol
# GULP energy per Si atom -12389.886857 kJ/mol
# Density = 2.025774 g / cm^3
# Si number density = 20.303957 Si / 1000 Ang^3
#
#
#
# Elastic Constant Matrix: (Units=GPa)
#
#
# Indices 1 2 3 4 5 6 
#
# 1 60.9675 40.6557 14.5613 6.4575 -17.3222 4.5834
# 2 40.6557 135.3160 24.8798 6.8906 -4.6846 -4.9012
# 3 14.5613 24.8798 56.2242 -11.8196 -6.3220 5.4805
# 4 6.4575 6.8906 -11.8196 28.4347 -6.3710 0.3515
# 5 -17.3222 -4.6846 -6.3220 -6.3710 16.8634 0.4165
# 6 4.5834 -4.9012 5.4805 0.3515 0.4165 34.2446
#
#
#
# Elastic Compliance Matrix: (Units=1/GPa)
#
#
# Indices 1 2 3 4 5 6 
#
# 1 0.030934 -0.008590 0.000191 0.002011 0.030364 -0.005790
# 2 -0.008590 0.010975 -0.005153 -0.005074 -0.009716 0.003715
# 3 0.000191 -0.005153 0.025214 0.014878 0.013965 -0.005121
# 4 0.002011 -0.005074 0.014878 0.047629 0.024331 -0.004161
# 5 0.030364 -0.009716 0.013965 0.024331 0.102446 -0.009185
# 6 -0.005790 0.003715 -0.005121 -0.004161 -0.009185 0.031482
#
#
# Mechanical properties :
#
#
# Convention : Reuss Voigt Hill
#
# Bulk Modulus (GPa) = 24.98824 45.85571 35.42197
# Shear Modulus (GPa) = 17.29362 27.40260 22.34811
#
# Velocity S-wave (km/s) = 2.92162 3.67770 3.32125
# Velocity P-wave (km/s) = 4.86980 6.37712 5.67374
#
# Compressibility (1/GPa) = 0.04001883
#
# Stress axis : x y z
#
# Youngs Moduli (GPa) = 32.32656 91.11527 39.66070
#
# Poissons Ratio (x) = 0.78271 -0.00758
# Poissons Ratio (y) = 0.27769 0.20437
# Poissons Ratio (z) = -0.00618 0.46952
#
# Static dielectric constant tensor:
#      x y z
#    x 3.560970 -0.529220 -0.524590 
#    y -0.529220 3.935000 0.288960 
#    z -0.524590 0.288960 4.354230 
# 
# 
# High freq. dielectric constant tensor:
#      x y z
#    x 1.751700 -0.042150 -0.024420 
#    y -0.042150 1.801200 -0.024200 
#    z -0.024420 -0.024200 1.787710 
# 
# From -- ./inp_files/473048.got.cif
#   From: 2010.06.25/outbox.cif.g09.slc.cpg/sg2_237_cif.got.tgz:473048.got - 2010.06.27 13:26:56.
