data_PCOD8036586
_publ_section_title
;
Structure prediction by ZEFSAII (Michael W. Deem and Ramdas Pophale) SiO2 
 PCOD8036586
Probable space group: P -1
;
_chemical_formula_sum "Si O2"
_cell_formula_units_Z 16
_cell_length_a 9.849993
_cell_length_b 13.851702
_cell_length_c 10.860176
_cell_angle_alpha 32.189335
_cell_angle_beta 92.509058
_cell_angle_gamma 103.685364
_cell_volume 731.074618
_symmetry_space_group_name_H-M "P -1"
_symmetry_group_IT_number 2
_symmetry_cell_setting 'triclinic'
loop_
_space_group_symop_operation_xyz
x,y,z
-x,-y,-z
loop_
_atom_site_type_symbol
_atom_site_label
_atom_site_fract_x
_atom_site_fract_y
_atom_site_fract_z
Si Si1 0.363686 0.717233 0.919629
Si Si2 0.669777 0.124153 0.882521
Si Si3 0.636314 0.353547 0.283315
Si Si4 0.664581 0.932864 0.337650
Si Si5 0.172531 0.853042 0.385019
Si Si6 0.669777 0.545625 0.447702
Si Si7 0.827469 0.680511 0.557550
Si Si8 0.664581 0.731717 0.997769
O O1 0.410974 0.705487 0.794513
O O2 0.327737 0.911986 0.722664
O O3 0.221604 0.530858 0.152456
O O4 0.498059 0.726841 0.004479
O O5 0.754876 0.082334 0.815574
O O6 0.707186 0.353593 0.646407
O O7 0.500000 0.000000 0.000000
O O8 0.722298 0.052484 0.085552
O O9 0.501941 0.228783 0.502537
O O10 0.778396 0.309254 0.374060
O O11 0.672263 0.584249 0.050401
O O12 0.773442 0.819870 0.491484
O O13 0.000000 0.765373 0.459820
O O14 0.226558 0.046428 0.264926
O O15 0.500000 0.500000 0.500000
O O16 0.754876 0.672542 0.429550
O O17 0.722298 0.669814 0.192151
#
# Coordination Sequence:
#
# PCOD8036586 Si02
#       8
#     2   2   2   2   2   2   2   2
#     4  12  25  45  75 103 136 184 246 288 329 408
#     4  12  21  41  71 103 137 176 227 282 344 415
#     4  12  25  45  75 103 136 184 246 288 329 408
#     4  12  23  43  73 103 134 184 234 287 343 404
#     4  12  28  45  69 108 145 179 226 288 355 415
#     4  12  21  41  71 103 137 176 227 282 344 415
#     4  12  28  45  69 108 145 179 226 288 355 415
#     4  12  23  43  73 103 134 184 234 287 343 404
#
# _framework density 21.885591000000002
#
# number of rings (size 3 to 8) (size 9 to 14) (size 15 to 20)
#    0.000    0.000    7.500    3.000    0.000    4.000 
#    0.000    1.250    0.000    0.000    0.000    0.000 
#    0.000    0.000    0.000    0.000    0.000    0.000 
#
# Total GULP energy -198481.913281 kJ/mol
# GULP energy per Si atom -12405.119580 kJ/mol
# Density = 2.183578 g / cm^3
# Si number density = 21.885591 Si / 1000 Ang^3
#
#
#
# Elastic Constant Matrix: (Units=GPa)
#
#
# Indices 1 2 3 4 5 6 
#
# 1 146.9937 42.1501 50.5165 -22.0046 -10.1252 5.1685
# 2 42.1501 104.2227 43.2135 -18.7985 3.3943 -14.1236
# 3 50.5165 43.2135 71.9580 -20.2091 -6.3409 -0.6525
# 4 -22.0046 -18.7985 -20.2091 47.2662 -3.3105 9.5045
# 5 -10.1252 3.3943 -6.3409 -3.3105 28.0096 -11.0410
# 6 5.1685 -14.1236 -0.6525 9.5045 -11.0410 24.3670
#
#
#
# Elastic Compliance Matrix: (Units=1/GPa)
#
#
# Indices 1 2 3 4 5 6 
#
# 1 0.009613 -0.002013 -0.004742 0.002480 0.001514 -0.003614
# 2 -0.002013 0.014618 -0.007371 -0.000006 -0.000897 0.008298
# 3 -0.004742 -0.007371 0.023624 0.005867 0.003993 -0.003113
# 4 0.002480 -0.000006 0.005867 0.026979 0.001362 -0.010279
# 5 0.001514 -0.000897 0.003993 0.001362 0.044953 0.019103
# 6 -0.003614 0.008298 -0.003113 -0.010279 0.019103 0.059198
#
#
# Mechanical properties :
#
#
# Convention : Reuss Voigt Hill
#
# Bulk Modulus (GPa) = 51.01583 66.10384 58.55984
# Shear Modulus (GPa) = 23.38946 32.41484 27.90215
#
# Velocity S-wave (km/s) = 3.27267 3.85269 3.57446
# Velocity P-wave (km/s) = 6.13525 7.07536 6.62201
#
# Compressibility (1/GPa) = 0.01960176
#
# Stress axis : x y z
#
# Youngs Moduli (GPa) = 104.03052 68.41000 42.32940
#
# Poissons Ratio (x) = 0.13771 0.20074
# Poissons Ratio (y) = 0.20942 0.31201
# Poissons Ratio (z) = 0.49335 0.50425
#
# Static dielectric constant tensor:
#      x y z
#    x 3.565550 -0.191660 0.306400 
#    y -0.191660 4.107740 -0.111970 
#    z 0.306400 -0.111970 4.226900 
# 
# 
# High freq. dielectric constant tensor:
#      x y z
#    x 1.831460 -0.013780 0.019630 
#    y -0.013780 1.866690 -0.010960 
#    z 0.019630 -0.010960 1.871080 
# 
# From -- ./inp_files/188160.got.cif
#   From: 2010.06.25/outbox.cif.g09.slc.cpg/sg2_95_cif.got.tgz:188160.got - 2010.06.27 13:26:56.
