data_PCOD8036846
_publ_section_title
;
Structure prediction by ZEFSAII (Michael W. Deem and Ramdas Pophale) SiO2 
 PCOD8036846
Probable space group: P -1
;
_chemical_formula_sum "Si O2"
_cell_formula_units_Z 14
_cell_length_a 9.323778
_cell_length_b 16.279269
_cell_length_c 9.357299
_cell_angle_alpha 142.921403
_cell_angle_beta 102.716942
_cell_angle_gamma 56.037641
_cell_volume 633.868613
_symmetry_space_group_name_H-M "P -1"
_symmetry_group_IT_number 2
_symmetry_cell_setting 'triclinic'
loop_
_space_group_symop_operation_xyz
x,y,z
-x,-y,-z
loop_
_atom_site_type_symbol
_atom_site_label
_atom_site_fract_x
_atom_site_fract_y
_atom_site_fract_z
Si Si1 0.163960 0.424820 0.321865
Si Si2 0.391747 0.497359 0.103527
Si Si3 0.508872 0.608870 0.542314
Si Si4 0.366968 0.038497 0.891026
Si Si5 0.012879 0.326986 0.645635
Si Si6 0.587631 0.823738 0.369791
Si Si7 0.167602 0.007791 0.033919
O O1 0.275967 0.466271 0.500704
O O2 0.000000 0.500000 0.500000
O O3 0.095845 0.516046 0.278835
O O4 0.285798 0.214803 0.029018
O O5 0.455505 0.571041 0.332046
O O6 0.154570 0.637147 0.239097
O O7 0.500000 0.500000 0.000000
O O8 0.459893 0.299021 0.874167
O O9 0.500000 0.500000 0.500000
O O10 0.370452 0.815352 0.844072
O O11 0.493940 0.876631 0.581371
O O12 0.187037 0.061196 0.952124
O O13 0.500000 0.000000 0.000000
O O14 0.175590 0.309575 0.749818
O O15 0.136081 0.138296 0.329626
O O16 0.500000 0.000000 0.500000
O O17 0.000000 0.000000 0.000000
#
# Coordination Sequence:
#
# PCOD8036846 Si02
#       7
#     2   2   2   2   2   2   2
#     4  12  23  42  76 113 136 182 248 301 355 422
#     4  12  28  47  71 107 152 194 232 301 371 435
#     4  12  25  45  73 105 144 186 245 300 360 420
#     4  12  23  44  76 104 138 188 246 297 344 428
#     4  12  25  48  74 105 144 197 239 300 364 439
#     4  12  28  51  73 104 152 196 240 296 371 446
#     4  12  23  42  73 107 140 179 244 306 350 407
#
# _framework density 22.086594000000002
#
# number of rings (size 3 to 8) (size 9 to 14) (size 15 to 20)
#    0.000    0.000    7.143    2.143    4.000    0.000 
#    0.000    0.714    0.000    0.000    0.000    0.000 
#    0.000    0.000    0.000    0.000    0.000    0.000 
#
# Total GULP energy -173452.301021 kJ/mol
# GULP energy per Si atom -12389.450073 kJ/mol
# Density = 2.203632 g / cm^3
# Si number density = 22.086594 Si / 1000 Ang^3
#
#
#
# Elastic Constant Matrix: (Units=GPa)
#
#
# Indices 1 2 3 4 5 6 
#
# 1 185.7454 54.0261 34.5808 -0.4618 -11.9248 3.5465
# 2 54.0261 106.6272 37.2127 25.6683 0.5977 -2.7165
# 3 34.5808 37.2127 97.8967 18.1917 -8.7941 10.0467
# 4 -0.4618 25.6683 18.1917 32.5418 15.5974 2.5280
# 5 -11.9248 0.5977 -8.7941 15.5974 39.7978 -2.4263
# 6 3.5465 -2.7165 10.0467 2.5280 -2.4263 38.3276
#
#
#
# Elastic Compliance Matrix: (Units=1/GPa)
#
#
# Indices 1 2 3 4 5 6 
#
# 1 0.006853 -0.003917 -0.001605 0.004091 0.000109 -0.000754
# 2 -0.003917 0.015198 -0.002040 -0.012729 0.003321 0.003024
# 3 -0.001605 -0.002040 0.014028 -0.008909 0.005976 -0.002707
# 4 0.004091 -0.012729 -0.008909 0.057282 -0.023258 -0.004196
# 5 0.000109 0.003321 0.005976 -0.023258 0.035695 0.002452
# 6 -0.000754 0.003024 -0.002707 -0.004196 0.002452 0.027517
#
#
# Mechanical properties :
#
#
# Convention : Reuss Voigt Hill
#
# Bulk Modulus (GPa) = 47.72172 71.32319 59.52246
# Shear Modulus (GPa) = 27.98283 39.76342 33.87312
#
# Velocity S-wave (km/s) = 3.56330 4.24765 3.92043
# Velocity P-wave (km/s) = 6.21152 7.51128 6.89211
#
# Compressibility (1/GPa) = 0.02095482
#
# Stress axis : x y z
#
# Youngs Moduli (GPa) = 145.91484 65.79894 71.28841
#
# Poissons Ratio (x) = 0.25773 0.11442
# Poissons Ratio (y) = 0.57153 0.14543
# Poissons Ratio (z) = 0.23419 0.13424
#
# Static dielectric constant tensor:
#      x y z
#    x 4.378650 0.133000 -0.182120 
#    y 0.133000 3.863030 0.139240 
#    z -0.182120 0.139240 4.440830 
# 
# 
# High freq. dielectric constant tensor:
#      x y z
#    x 1.892990 0.010890 -0.004130 
#    y 0.010890 1.852120 0.007620 
#    z -0.004130 0.007620 1.892110 
# 
# From -- ./inp_files/209412.got.cif
#   From: 2010.06.25/outbox.cif.g09.slc.cpg/sg2_105_cif.got.tgz:209412.got - 2010.06.27 13:26:56.
