data_PCOD8036847
_publ_section_title
;
Structure prediction by ZEFSAII (Michael W. Deem and Ramdas Pophale) SiO2 
 PCOD8036847
Probable space group: P -1
;
_chemical_formula_sum "Si O2"
_cell_formula_units_Z 14
_cell_length_a 12.325416
_cell_length_b 10.975734
_cell_length_c 6.802214
_cell_angle_alpha 114.820905
_cell_angle_beta 121.262864
_cell_angle_gamma 51.963495
_cell_volume 612.657203
_symmetry_space_group_name_H-M "P -1"
_symmetry_group_IT_number 2
_symmetry_cell_setting 'triclinic'
loop_
_space_group_symop_operation_xyz
x,y,z
-x,-y,-z
loop_
_atom_site_type_symbol
_atom_site_label
_atom_site_fract_x
_atom_site_fract_y
_atom_site_fract_z
Si Si1 0.853606 0.364310 0.446526
Si Si2 0.541065 0.822216 0.875053
Si Si3 0.316523 0.864604 0.380441
Si Si4 0.923003 0.825210 0.799771
Si Si5 0.067454 0.857949 0.319223
Si Si6 0.155705 0.377950 0.162131
Si Si7 0.407929 0.674888 0.946786
O O1 0.948096 0.274937 0.671448
O O2 0.796182 0.543307 0.566444
O O3 0.727512 0.319454 0.290361
O O4 0.946459 0.313847 0.298616
O O5 0.464837 0.833856 0.602584
O O6 0.717081 0.704383 0.939284
O O7 0.492835 0.736095 0.930740
O O8 0.500000 0.000000 0.000000
O O9 0.240520 0.792250 0.394176
O O10 0.195997 0.049364 0.376117
O O11 0.351179 0.794954 0.151238
O O12 0.845627 0.760123 0.819787
O O13 0.985643 0.903843 0.062527
O O14 0.000000 0.000000 0.500000
O O15 0.000000 0.500000 0.000000
O O16 0.500000 0.500000 0.000000
#
# Coordination Sequence:
#
# PCOD8036847 Si02
#       7
#     2   2   2   2   2   2   2
#     4  12  25  46  75 110 147 192 251 310 375 449
#     4  12  31  52  76 110 156 204 252 312 386 455
#     4  12  26  47  75 110 150 193 255 310 378 453
#     4  12  26  46  78 112 150 201 248 308 387 455
#     4  12  23  42  74 113 147 189 249 308 373 444
#     4  12  29  49  75 107 154 201 249 314 383 451
#     4  12  28  47  79 109 149 199 255 319 378 448
#
# _framework density 22.851279000000002
#
# number of rings (size 3 to 8) (size 9 to 14) (size 15 to 20)
#    0.000    0.000    5.714    3.429    8.000    4.571 
#    0.000    0.000    0.000    0.000    0.000    0.000 
#    0.000    0.000    0.000    0.000    0.000    0.000 
#
# Total GULP energy -173543.122011 kJ/mol
# GULP energy per Si atom -12395.937286 kJ/mol
# Density = 2.279927 g / cm^3
# Si number density = 22.851279 Si / 1000 Ang^3
#
#
#
# Elastic Constant Matrix: (Units=GPa)
#
#
# Indices 1 2 3 4 5 6 
#
# 1 151.9305 46.0292 44.4821 10.8086 -14.0162 -9.6044
# 2 46.0292 105.0186 40.3181 11.8737 0.2181 -7.8385
# 3 44.4821 40.3181 112.7124 12.9100 -4.6049 -6.2647
# 4 10.8086 11.8737 12.9100 43.5317 -2.6924 -5.3207
# 5 -14.0162 0.2181 -4.6049 -2.6924 37.0531 2.9866
# 6 -9.6044 -7.8385 -6.2647 -5.3207 2.9866 42.0459
#
#
#
# Elastic Compliance Matrix: (Units=1/GPa)
#
#
# Indices 1 2 3 4 5 6 
#
# 1 0.008379 -0.002758 -0.002110 -0.000426 0.002826 0.000831
# 2 -0.002758 0.012193 -0.003088 -0.001698 -0.001710 0.001090
# 3 -0.002110 -0.003088 0.011057 -0.001846 0.000434 0.000325
# 4 -0.000426 -0.001698 -0.001846 0.024446 0.001209 0.002319
# 5 0.002826 -0.001710 0.000434 0.001209 0.028327 -0.001468
# 6 0.000831 0.001090 0.000325 0.002319 -0.001468 0.024623
#
#
# Mechanical properties :
#
#
# Convention : Reuss Voigt Hill
#
# Bulk Modulus (GPa) = 63.62473 70.14668 66.88570
# Shear Modulus (GPa) = 38.40965 40.44827 39.42896
#
# Velocity S-wave (km/s) = 4.10427 4.21178 4.15837
# Velocity P-wave (km/s) = 7.09672 7.37671 7.23807
#
# Compressibility (1/GPa) = 0.01571716
#
# Stress axis : x y z
#
# Youngs Moduli (GPa) = 119.34989 82.01181 90.44370
#
# Poissons Ratio (x) = 0.22620 0.19080
# Poissons Ratio (y) = 0.32918 0.27929
# Poissons Ratio (z) = 0.25179 0.25325
#
# Static dielectric constant tensor:
#      x y z
#    x 4.835470 0.637490 -0.102750 
#    y 0.637490 4.805680 -0.138010 
#    z -0.102750 -0.138010 4.346070 
# 
# 
# High freq. dielectric constant tensor:
#      x y z
#    x 1.914510 0.008460 -0.005430 
#    y 0.008460 1.904510 0.003750 
#    z -0.005430 0.003750 1.917030 
# 
# From -- ./inp_files/69438.got.cif
#   From: 2010.06.25/outbox.cif.g09.slc.cpg/sg2_35_cif.got.tgz:69438.got - 2010.06.27 13:26:56.
