data_PCOD8036498
_publ_section_title
;
Structure prediction by ZEFSAII (Michael W. Deem and Ramdas Pophale) SiO2 
 PCOD8036498
Probable space group: P -1
;
_chemical_formula_sum "Si O2"
_cell_formula_units_Z 14
_cell_length_a 5.122416
_cell_length_b 19.143511
_cell_length_c 9.957232
_cell_angle_alpha 38.947612
_cell_angle_beta 68.267913
_cell_angle_gamma 87.677878
_cell_volume 516.436464
_symmetry_space_group_name_H-M "P -1"
_symmetry_group_IT_number 2
_symmetry_cell_setting 'triclinic'
loop_
_space_group_symop_operation_xyz
x,y,z
-x,-y,-z
loop_
_atom_site_type_symbol
_atom_site_label
_atom_site_fract_x
_atom_site_fract_y
_atom_site_fract_z
Si Si1 0.254458 0.454881 0.899054
Si Si2 0.475440 0.992488 0.356147
Si Si3 0.151982 0.747692 0.203566
Si Si4 0.156989 0.153313 0.453417
Si Si5 0.173130 0.688889 0.586113
Si Si6 0.742572 0.368722 0.898654
Si Si7 0.814167 0.857225 0.254003
O O1 0.290283 0.583126 0.761519
O O2 0.594924 0.467939 0.768041
O O3 0.017871 0.409562 0.889380
O O4 0.128421 0.348135 0.199663
O O5 0.736260 0.943645 0.345162
O O6 0.124842 0.903232 0.511994
O O7 0.500000 0.000000 0.500000
O O8 0.549471 0.123251 0.076326
O O9 0.156331 0.680449 0.441250
O O10 0.112276 0.649744 0.241496
O O11 0.870605 0.789508 0.212370
O O12 0.061952 0.194315 0.557827
O O13 0.457550 0.242042 0.183131
O O14 0.445780 0.817327 0.393022
O O15 0.000000 0.000000 0.000000
#
# Coordination Sequence:
#
# PCOD8036498 Si02
#       7
#     2   2   2   2   2   2   2
#     4  11  28  53  81 110 150 210 268 316 379 458
#     4  12  26  45  72 110 155 203 249 311 383 464
#     4  12  29  44  76 113 161 196 260 317 396 451
#     4  12  25  45  75 105 152 204 256 305 380 461
#     4  11  28  50  80 112 153 206 262 324 381 457
#     4  12  27  48  80 112 154 206 259 320 386 455
#     4  12  26  46  75 114 158 198 253 321 391 460
#
# _framework density 27.108853
#
# number of rings (size 3 to 8) (size 9 to 14) (size 15 to 20)
#    0.000    0.286    4.286    3.000    6.000    3.429 
#    0.000    0.000    0.000    0.000    0.000    0.000 
#    0.000    0.000    0.000    0.000    0.000    0.000 
#
# Total GULP energy -173516.098317 kJ/mol
# GULP energy per Si atom -12394.007023 kJ/mol
# Density = 2.704715 g / cm^3
# Si number density = 27.108853 Si / 1000 Ang^3
#
#
#
# Elastic Constant Matrix: (Units=GPa)
#
#
# Indices 1 2 3 4 5 6 
#
# 1 129.0380 49.7505 25.6481 9.8871 8.1247 11.7825
# 2 49.7505 157.8171 29.5155 37.6404 1.5448 0.5380
# 3 25.6481 29.5155 87.7560 21.9769 -0.8848 8.1556
# 4 9.8871 37.6404 21.9769 44.5439 2.1147 0.7210
# 5 8.1247 1.5448 -0.8848 2.1147 27.9025 -0.7612
# 6 11.7825 0.5380 8.1556 0.7210 -0.7612 49.8276
#
#
#
# Elastic Compliance Matrix: (Units=1/GPa)
#
#
# Indices 1 2 3 4 5 6 
#
# 1 0.009533 -0.002962 -0.002026 0.001554 -0.002847 -0.001957
# 2 -0.002962 0.008958 -0.000534 -0.006703 0.000880 0.000802
# 3 -0.002026 -0.000534 0.013831 -0.005965 0.001465 -0.001670
# 4 0.001554 -0.006703 -0.005965 0.030833 -0.002602 0.000195
# 5 -0.002847 0.000880 0.001465 -0.002602 0.036891 0.001025
# 6 -0.001957 0.000802 -0.001670 0.000195 0.001025 0.020809
#
#
# Mechanical properties :
#
#
# Convention : Reuss Voigt Hill
#
# Bulk Modulus (GPa) = 46.99820 64.93773 55.96796
# Shear Modulus (GPa) = 35.97332 42.43460 39.20396
#
# Velocity S-wave (km/s) = 3.64675 3.96073 3.80698
# Velocity P-wave (km/s) = 5.92505 6.70246 6.32571
#
# Compressibility (1/GPa) = 0.02127741
#
# Stress axis : x y z
#
# Youngs Moduli (GPa) = 104.89443 111.63735 72.30226
#
# Poissons Ratio (x) = 0.33072 0.14647
# Poissons Ratio (y) = 0.31074 0.03860
# Poissons Ratio (z) = 0.21250 0.05960
#
# Static dielectric constant tensor:
#      x y z
#    x 5.371470 -0.841690 0.418890 
#    y -0.841690 5.619970 -0.021720 
#    z 0.418890 -0.021720 5.299370 
# 
# 
# High freq. dielectric constant tensor:
#      x y z
#    x 2.100340 -0.026770 0.016390 
#    y -0.026770 2.115960 0.004670 
#    z 0.016390 0.004670 2.119180 
# 
# From -- ./inp_files/99926.got.cif
#   From: 2010.06.25/outbox.cif.g09.slc.cpg/sg2_50_cif.got.tgz:99926.got - 2010.06.27 13:26:56.
