data_PCOD8036383
_publ_section_title
;
Structure prediction by ZEFSAII (Michael W. Deem and Ramdas Pophale) SiO2 
 PCOD8036383
Probable space group: P -1
;
_chemical_formula_sum "Si O2"
_cell_formula_units_Z 16
_cell_length_a 8.693693
_cell_length_b 6.721529
_cell_length_c 21.656943
_cell_angle_alpha 131.200159
_cell_angle_beta 130.327705
_cell_angle_gamma 54.836862
_cell_volume 700.778336
_symmetry_space_group_name_H-M "P -1"
_symmetry_group_IT_number 2
_symmetry_cell_setting 'triclinic'
loop_
_space_group_symop_operation_xyz
x,y,z
-x,-y,-z
loop_
_atom_site_type_symbol
_atom_site_label
_atom_site_fract_x
_atom_site_fract_y
_atom_site_fract_z
Si Si1 0.733161 0.330873 0.047395
Si Si2 0.277386 0.117322 0.302730
Si Si3 0.035848 0.074536 0.595045
Si Si4 0.413736 0.647248 0.634647
Si Si5 0.857600 0.408062 0.225719
Si Si6 0.527159 0.492903 0.771880
Si Si7 0.274717 0.164491 0.455060
Si Si8 0.098874 0.299471 0.039675
O O1 0.778039 0.492817 0.153013
O O2 0.899339 0.320554 0.035022
O O3 0.500000 0.500000 0.000000
O O4 0.770692 0.008760 0.009857
O O5 0.380095 0.355769 0.352655
O O6 0.235966 0.137287 0.368215
O O7 0.051957 0.135895 0.216149
O O8 0.430701 0.825689 0.265649
O O9 0.269828 0.953523 0.656660
O O10 0.883075 0.960719 0.574407
O O11 0.020488 0.393784 0.666851
O O12 0.000000 0.000000 0.500000
O O13 0.474955 0.540858 0.696742
O O14 0.261656 0.478858 0.530733
O O15 0.669520 0.350993 0.205751
O O16 0.731767 0.591226 0.857130
O O17 0.500000 0.000000 0.500000
O O18 0.000000 0.500000 0.000000
#
# Coordination Sequence:
#
# PCOD8036383 Si02
#       8
#     2   2   2   2   2   2   2   2
#     4  11  27  48  76 109 146 186 239 298 361 431
#     4  12  25  45  68 103 141 186 241 292 346 419
#     4  12  25  44  70 103 144 188 239 292 350 417
#     4  12  24  45  68  97 144 187 233 296 350 412
#     4  12  26  46  72 106 142 189 237 289 354 424
#     4  12  26  45  72 104 142 184 234 291 353 421
#     4  12  23  41  67  98 138 187 240 289 351 416
#     4  11  26  49  75 107 146 185 236 300 363 429
#
# _framework density 22.831755000000001
#
# number of rings (size 3 to 8) (size 9 to 14) (size 15 to 20)
#    0.000    0.250    2.500    6.750    3.500    5.000 
#    0.000    0.000    0.000    0.000    0.000    0.000 
#    0.000    0.000    0.000    0.000    0.000    0.000 
#
# Total GULP energy -198335.273362 kJ/mol
# GULP energy per Si atom -12395.954585 kJ/mol
# Density = 2.277979 g / cm^3
# Si number density = 22.831755 Si / 1000 Ang^3
#
#
#
# Elastic Constant Matrix: (Units=GPa)
#
#
# Indices 1 2 3 4 5 6 
#
# 1 144.9466 44.4870 27.5753 -16.7963 7.8515 0.1418
# 2 44.4870 114.1613 31.0232 -17.0003 8.2364 -7.4618
# 3 27.5753 31.0232 103.1569 -9.7818 4.2438 -8.7942
# 4 -16.7963 -17.0003 -9.7818 38.2348 -4.1169 9.9346
# 5 7.8515 8.2364 4.2438 -4.1169 38.1504 -7.3241
# 6 0.1418 -7.4618 -8.7942 9.9346 -7.3241 30.8220
#
#
#
# Elastic Compliance Matrix: (Units=1/GPa)
#
#
# Indices 1 2 3 4 5 6 
#
# 1 0.008300 -0.002539 -0.001344 0.002609 -0.001142 -0.002148
# 2 -0.002539 0.010908 -0.002216 0.002828 -0.001119 0.000843
# 3 -0.001344 -0.002216 0.010981 0.000612 0.000064 0.002421
# 4 0.002609 0.002828 0.000612 0.031119 0.000398 -0.009088
# 5 -0.001142 -0.001119 0.000064 0.000398 0.027926 0.006261
# 6 -0.002148 0.000843 0.002421 -0.009088 0.006261 0.037766
#
#
# Mechanical properties :
#
#
# Convention : Reuss Voigt Hill
#
# Bulk Modulus (GPa) = 55.57891 63.15952 59.36921
# Shear Modulus (GPa) = 34.43638 38.72006 36.57822
#
# Velocity S-wave (km/s) = 3.88785 4.12258 4.00694
# Velocity P-wave (km/s) = 6.67454 7.09817 6.88961
#
# Compressibility (1/GPa) = 0.01799244
#
# Stress axis : x y z
#
# Youngs Moduli (GPa) = 120.47821 91.67591 91.06333
#
# Poissons Ratio (x) = 0.23275 0.12240
# Poissons Ratio (y) = 0.30587 0.20177
# Poissons Ratio (z) = 0.16193 0.20313
#
# Static dielectric constant tensor:
#      x y z
#    x 6.351560 0.163240 2.617280 
#    y 0.163240 4.630250 0.393770 
#    z 2.617280 0.393770 7.089780 
# 
# 
# High freq. dielectric constant tensor:
#      x y z
#    x 1.918480 -0.006460 0.006640 
#    y -0.006460 1.919270 -0.011680 
#    z 0.006640 -0.011680 1.903910 
# 
# From -- ./inp_files/585883.got.cif
#   From: 2010.06.25/outbox.cif.g09.slc.cpg/sg2_293_cif.got.tgz:585883.got - 2010.06.27 13:26:56.
