data_PCOD8036938
_publ_section_title
;
Structure prediction by ZEFSAII (Michael W. Deem and Ramdas Pophale) SiO2 
 PCOD8036938
Probable space group: P -1
;
_chemical_formula_sum "Si O2"
_cell_formula_units_Z 12
_cell_length_a 14.505863
_cell_length_b 23.950898
_cell_length_c 6.602301
_cell_angle_alpha 133.349063
_cell_angle_beta 59.161139
_cell_angle_gamma 159.036933
_cell_volume 519.047154
_symmetry_space_group_name_H-M "P -1"
_symmetry_group_IT_number 2
_symmetry_cell_setting 'triclinic'
loop_
_space_group_symop_operation_xyz
x,y,z
-x,-y,-z
loop_
_atom_site_type_symbol
_atom_site_label
_atom_site_fract_x
_atom_site_fract_y
_atom_site_fract_z
Si Si1 0.340264 0.967797 0.190143
Si Si2 0.239280 0.366914 0.838429
Si Si3 0.475307 0.787795 0.724888
Si Si4 0.320928 0.566974 0.027365
Si Si5 0.819394 0.954932 0.123479
Si Si6 0.202266 0.695358 0.148143
O O1 0.362643 0.053965 0.230853
O O2 0.493573 0.088019 0.534325
O O3 0.983447 0.722878 0.012956
O O4 0.500000 0.000000 0.000000
O O5 0.500000 0.500000 0.000000
O O6 0.385035 0.519269 0.880748
O O7 0.034581 0.163623 0.480787
O O8 0.315923 0.611284 0.352680
O O9 0.708811 0.906752 0.910178
O O10 0.254363 0.695842 0.867366
O O11 0.554818 0.759969 0.090511
O O12 0.987748 0.352688 0.776421
O O13 0.000000 0.000000 0.000000
O O14 0.000000 0.500000 0.000000
#
# Coordination Sequence:
#
# PCOD8036938 Si02
#       6
#     2   2   2   2   2   2
#     4  12  28  46  74 113 152 192 249 312 369 443
#     4  12  28  51  74 111 147 197 255 302 374 444
#     4  12  23  47  75 103 155 195 240 311 374 434
#     4  12  27  47  79 108 151 195 245 310 370 446
#     4  12  28  50  73 109 150 198 251 308 368 443
#     4  12  23  45  72 113 148 192 248 293 382 442
#
# _framework density 23.119289999999999
#
# number of rings (size 3 to 8) (size 9 to 14) (size 15 to 20)
#    0.000    0.000    6.667    2.500    7.000    4.667 
#    0.000    0.000    0.000    0.000    0.000    0.000 
#    0.000    0.000    0.000    0.000    0.000    0.000 
#
# Total GULP energy -148748.532521 kJ/mol
# GULP energy per Si atom -12395.711043 kJ/mol
# Density = 2.306667 g / cm^3
# Si number density = 23.119290 Si / 1000 Ang^3
#
#
#
# Elastic Constant Matrix: (Units=GPa)
#
#
# Indices 1 2 3 4 5 6 
#
# 1 199.8766 49.5283 56.4376 16.0526 17.1435 9.1432
# 2 49.5283 86.5038 61.3789 4.6728 10.1396 13.2879
# 3 56.4376 61.3789 84.6035 1.4480 12.0892 -0.1435
# 4 16.0526 4.6728 1.4480 36.0933 3.6842 -2.9943
# 5 17.1435 10.1396 12.0892 3.6842 44.4013 2.6938
# 6 9.1432 13.2879 -0.1435 -2.9943 2.6938 52.7586
#
#
#
# Elastic Compliance Matrix: (Units=1/GPa)
#
#
# Indices 1 2 3 4 5 6 
#
# 1 0.006572 -0.000742 -0.003646 -0.002657 -0.001091 -0.001057
# 2 -0.000742 0.026373 -0.018597 -0.002894 -0.000025 -0.006727
# 3 -0.003646 -0.018597 0.028068 0.003648 -0.002638 0.005734
# 4 -0.002657 -0.002894 0.003648 0.029561 -0.001940 0.002976
# 5 -0.001091 -0.000025 -0.002638 -0.001940 0.023897 -0.001142
# 6 -0.001057 -0.006727 0.005734 0.002976 -0.001142 0.021075
#
#
# Mechanical properties :
#
#
# Convention : Reuss Voigt Hill
#
# Bulk Modulus (GPa) = 66.47501 78.40816 72.44159
# Shear Modulus (GPa) = 26.80540 40.22657 33.51598
#
# Velocity S-wave (km/s) = 3.40875 4.17580 3.81162
# Velocity P-wave (km/s) = 6.65644 7.56558 7.12553
#
# Compressibility (1/GPa) = 0.01504325
#
# Stress axis : x y z
#
# Youngs Moduli (GPa) = 152.16692 37.91771 35.62742
#
# Poissons Ratio (x) = 0.02813 0.12991
# Poissons Ratio (y) = 0.11287 0.66256
# Poissons Ratio (z) = 0.55484 0.70515
#
# Static dielectric constant tensor:
#      x y z
#    x 6.059500 -1.624660 2.368260 
#    y -1.624660 5.002770 -2.192490 
#    z 2.368260 -2.192490 7.816750 
# 
# 
# High freq. dielectric constant tensor:
#      x y z
#    x 1.944050 -0.000230 0.001420 
#    y -0.000230 1.918350 0.001630 
#    z 0.001420 0.001630 1.907180 
# 
# From -- ./inp_files/22980.got.cif
#   From: 2010.06.25/outbox.cif.g09.slc.cpg/sg2_12_cif.got.tgz:22980.got - 2010.06.27 13:26:56.
