data_PCOD8036930
_publ_section_title
;
Structure prediction by ZEFSAII (Michael W. Deem and Ramdas Pophale) SiO2 
 PCOD8036930
Probable space group: P -1
;
_chemical_formula_sum "Si O2"
_cell_formula_units_Z 12
_cell_length_a 17.844886
_cell_length_b 9.135522
_cell_length_c 11.872922
_cell_angle_alpha 52.673437
_cell_angle_beta 158.613598
_cell_angle_gamma 129.336660
_cell_volume 545.004797
_symmetry_space_group_name_H-M "P -1"
_symmetry_group_IT_number 2
_symmetry_cell_setting 'triclinic'
loop_
_space_group_symop_operation_xyz
x,y,z
-x,-y,-z
loop_
_atom_site_type_symbol
_atom_site_label
_atom_site_fract_x
_atom_site_fract_y
_atom_site_fract_z
Si Si1 0.513151 0.545434 0.363635
Si Si2 0.693756 0.952574 0.359515
Si Si3 0.484632 0.808304 0.631530
Si Si4 0.937504 0.473922 0.297286
Si Si5 0.136250 0.849048 0.286718
Si Si6 0.078729 0.125911 0.658383
O O1 0.500000 0.500000 0.500000
O O2 0.691920 0.731191 0.487889
O O3 0.523777 0.362253 0.389132
O O4 0.309421 0.621441 0.010854
O O5 0.686780 0.059245 0.417732
O O6 0.918766 0.046175 0.573266
O O7 0.500000 0.000000 0.000000
O O8 0.258608 0.772303 0.393568
O O9 0.500000 0.000000 0.500000
O O10 0.680788 0.845157 0.976192
O O11 0.000000 0.500000 0.500000
O O12 0.970012 0.666770 0.184704
O O13 0.067554 0.330500 0.498424
O O14 0.000000 0.000000 0.000000
O O15 0.000000 0.000000 0.500000
#
# Coordination Sequence:
#
# PCOD8036930 Si02
#       6
#     2   2   2   2   2   2
#     4  12  26  45  73 106 143 183 233 290 352 417
#     4  12  23  45  71 103 140 183 232 286 348 413
#     4  12  27  47  71 103 143 186 234 291 352 419
#     4  12  23  48  71 100 143 187 231 289 351 414
#     4  12  26  48  72 100 140 189 234 290 354 416
#     4  12  27  44  72 105 143 182 239 289 346 418
#
# _framework density 22.018156999999999
#
# number of rings (size 3 to 8) (size 9 to 14) (size 15 to 20)
#    0.000    0.000    5.000    5.000    4.667    0.667 
#    0.000    2.500    0.000    0.000    0.000    0.000 
#    0.000    0.000    0.000    0.000    0.000    0.000 
#
# Total GULP energy -148694.066087 kJ/mol
# GULP energy per Si atom -12391.172174 kJ/mol
# Density = 2.196804 g / cm^3
# Si number density = 22.018157 Si / 1000 Ang^3
#
#
#
# Elastic Constant Matrix: (Units=GPa)
#
#
# Indices 1 2 3 4 5 6 
#
# 1 118.1568 45.0191 42.3862 -6.0925 -4.1668 -13.7867
# 2 45.0191 153.5626 27.0447 -23.7626 -4.5082 -2.7997
# 3 42.3862 27.0447 117.9030 -15.1578 3.9281 -9.3528
# 4 -6.0925 -23.7626 -15.1578 40.0439 -0.8133 -4.0911
# 5 -4.1668 -4.5082 3.9281 -0.8133 34.9294 5.8182
# 6 -13.7867 -2.7997 -9.3528 -4.0911 5.8182 55.3201
#
#
#
# Elastic Compliance Matrix: (Units=1/GPa)
#
#
# Indices 1 2 3 4 5 6 
#
# 1 0.010875 -0.002696 -0.003305 -0.000989 0.000992 0.001837
# 2 -0.002696 0.008046 -0.000370 0.004231 0.000875 -0.000106
# 3 -0.003305 -0.000370 0.010342 0.003293 -0.001751 0.001334
# 4 -0.000989 0.004231 0.003293 0.028854 0.000292 0.002628
# 5 0.000992 0.000875 -0.001751 0.000292 0.029579 -0.003094
# 6 0.001837 -0.000106 0.001334 0.002628 -0.003094 0.019274
#
#
# Mechanical properties :
#
#
# Convention : Reuss Voigt Hill
#
# Bulk Modulus (GPa) = 60.53347 68.72470 64.62908
# Shear Modulus (GPa) = 39.92947 44.40351 42.16649
#
# Velocity S-wave (km/s) = 4.26312 4.49561 4.38091
# Velocity P-wave (km/s) = 7.19614 7.63072 7.41661
#
# Compressibility (1/GPa) = 0.01651979
#
# Stress axis : x y z
#
# Youngs Moduli (GPa) = 91.95558 124.28336 96.69140
#
# Poissons Ratio (x) = 0.33511 0.31961
# Poissons Ratio (y) = 0.24795 0.03576
# Poissons Ratio (z) = 0.30395 0.04597
#
# Static dielectric constant tensor:
#      x y z
#    x 4.394300 -0.048680 -0.069550 
#    y -0.048680 4.035250 0.013540 
#    z -0.069550 0.013540 4.036910 
# 
# 
# High freq. dielectric constant tensor:
#      x y z
#    x 1.868140 0.000750 -0.010420 
#    y 0.000750 1.890340 -0.001710 
#    z -0.010420 -0.001710 1.879150 
# 
# From -- ./inp_files/147473.got.cif
#   From: 2010.06.25/outbox.cif.g09.slc.cpg/sg2_74_cif.got.tgz:147473.got - 2010.06.27 13:26:56.
