data_PCOD8036283
_publ_section_title
;
Structure prediction by ZEFSAII (Michael W. Deem and Ramdas Pophale) SiO2 
 PCOD8036283
Probable space group: P -1
;
_chemical_formula_sum "Si O2"
_cell_formula_units_Z 12
_cell_length_a 9.065170
_cell_length_b 9.615656
_cell_length_c 14.197880
_cell_angle_alpha 121.620883
_cell_angle_beta 151.326715
_cell_angle_gamma 72.439507
_cell_volume 466.166713
_symmetry_space_group_name_H-M "P -1"
_symmetry_group_IT_number 2
_symmetry_cell_setting 'triclinic'
loop_
_space_group_symop_operation_xyz
x,y,z
-x,-y,-z
loop_
_atom_site_type_symbol
_atom_site_label
_atom_site_fract_x
_atom_site_fract_y
_atom_site_fract_z
Si Si1 0.584265 0.703272 0.346973
Si Si2 0.718911 0.048503 0.736022
Si Si3 0.673910 0.520613 0.503649
Si Si4 0.607000 0.417287 0.116450
Si Si5 0.757860 0.972281 0.202974
Si Si6 0.559001 0.877435 0.782310
O O1 0.270947 0.754064 0.157871
O O2 0.518662 0.631905 0.391980
O O3 0.669738 0.557754 0.285935
O O4 0.873643 0.900259 0.574414
O O5 0.500000 0.000000 0.500000
O O6 0.582258 0.906469 0.693424
O O7 0.095929 0.060523 0.941995
O O8 0.500000 0.500000 0.500000
O O9 0.619392 0.328272 0.366157
O O10 0.074902 0.625132 0.753852
O O11 0.500000 0.500000 0.000000
O O12 0.299193 0.234736 0.905755
O O13 0.674191 0.023058 0.278399
O O14 0.500000 0.000000 0.000000
#
# Coordination Sequence:
#
# PCOD8036283 Si02
#       6
#     2   2   2   2   2   2
#     4  12  26  51  74 111 148 193 253 309 369 451
#     4  11  26  47  76 112 150 200 252 302 383 448
#     4  12  27  49  73 110 152 196 250 310 375 447
#     4  12  28  47  77 113 148 196 251 305 375 446
#     4  12  24  47  79 105 148 198 249 307 376 443
#     4  11  26  47  75 109 154 196 247 316 370 445
#
# _framework density 25.741862999999999
#
# number of rings (size 3 to 8) (size 9 to 14) (size 15 to 20)
#    0.000    0.333    3.333    4.500    9.333    2.000 
#    3.000    0.000    0.000    0.000    0.000    0.000 
#    0.000    0.000    0.000    0.000    0.000    0.000 
#
# Total GULP energy -148703.549950 kJ/mol
# GULP energy per Si atom -12391.962496 kJ/mol
# Density = 2.568327 g / cm^3
# Si number density = 25.741863 Si / 1000 Ang^3
#
#
#
# Elastic Constant Matrix: (Units=GPa)
#
#
# Indices 1 2 3 4 5 6 
#
# 1 119.1451 34.7545 39.5282 0.9567 7.7049 4.1229
# 2 34.7545 173.7272 42.4214 11.1914 8.4441 21.0159
# 3 39.5282 42.4214 66.2316 13.2666 -13.0993 12.7223
# 4 0.9567 11.1914 13.2666 56.0009 4.7614 -0.1515
# 5 7.7049 8.4441 -13.0993 4.7614 30.1235 -7.2268
# 6 4.1229 21.0159 12.7223 -0.1515 -7.2268 54.4930
#
#
#
# Elastic Compliance Matrix: (Units=1/GPa)
#
#
# Indices 1 2 3 4 5 6 
#
# 1 0.011853 0.000009 -0.009096 0.002575 -0.007335 0.000258
# 2 0.000009 0.007611 -0.005485 0.000207 -0.005114 -0.002333
# 3 -0.009096 -0.005485 0.029226 -0.007146 0.017283 -0.001747
# 4 0.002575 0.000207 -0.007146 0.020050 -0.006864 0.000539
# 5 -0.007335 -0.005114 0.017283 -0.006864 0.046211 0.004601
# 6 0.000258 -0.002333 -0.001747 0.000539 0.004601 0.020251
#
#
# Mechanical properties :
#
#
# Convention : Reuss Voigt Hill
#
# Bulk Modulus (GPa) = 51.16040 65.83467 58.49753
# Shear Modulus (GPa) = 29.26380 44.28346 36.77363
#
# Velocity S-wave (km/s) = 3.37533 4.15214 3.78372
# Velocity P-wave (km/s) = 5.92520 6.97262 6.47014
#
# Compressibility (1/GPa) = 0.01954637
#
# Stress axis : x y z
#
# Youngs Moduli (GPa) = 84.36801 131.38674 34.21642
#
# Poissons Ratio (x) = -0.00123 0.31123
# Poissons Ratio (y) = -0.00079 0.18768
# Poissons Ratio (z) = 0.76740 0.72067
#
# Static dielectric constant tensor:
#      x y z
#    x 6.087660 0.216660 -0.186090 
#    y 0.216660 5.313810 -0.412430 
#    z -0.186090 -0.412430 4.734780 
# 
# 
# High freq. dielectric constant tensor:
#      x y z
#    x 2.045700 0.003190 0.004040 
#    y 0.003190 2.056210 -0.001620 
#    z 0.004040 -0.001620 2.010240 
# 
# From -- ./inp_files/495670.got.cif
#   From: 2010.06.25/outbox.cif.g09.slc.cpg/sg2_248_cif.got.tgz:495670.got - 2010.06.27 13:26:56.
