data_PCOD8036278
_publ_section_title
;
Structure prediction by ZEFSAII (Michael W. Deem and Ramdas Pophale) SiO2 
 PCOD8036278
Probable space group: P -1
;
_chemical_formula_sum "Si O2"
_cell_formula_units_Z 16
_cell_length_a 5.114556
_cell_length_b 8.945701
_cell_length_c 14.934471
_cell_angle_alpha 88.589209
_cell_angle_beta 78.964954
_cell_angle_gamma 95.464251
_cell_volume 666.977204
_symmetry_space_group_name_H-M "P -1"
_symmetry_group_IT_number 2
_symmetry_cell_setting 'triclinic'
loop_
_space_group_symop_operation_xyz
x,y,z
-x,-y,-z
loop_
_atom_site_type_symbol
_atom_site_label
_atom_site_fract_x
_atom_site_fract_y
_atom_site_fract_z
Si Si1 0.466986 0.426836 0.405982
Si Si2 0.796611 0.609394 0.045935
Si Si3 0.370083 0.372111 0.138292
Si Si4 0.040254 0.516292 0.296433
Si Si5 0.396550 0.044980 0.198311
Si Si6 0.406702 0.157702 0.526539
Si Si7 0.933900 0.926551 0.099205
Si Si8 0.826062 0.173837 0.643672
O O1 0.500000 0.500000 0.500000
O O2 0.197379 0.457749 0.372012
O O3 0.440240 0.249514 0.430527
O O4 0.723586 0.476632 0.327916
O O5 0.594121 0.513428 0.126824
O O6 0.931708 0.746650 0.093614
O O7 0.667511 0.673448 0.963226
O O8 0.000000 0.500000 0.000000
O O9 0.113679 0.435255 0.200673
O O10 0.451052 0.226869 0.189820
O O11 0.108228 0.697575 0.286754
O O12 0.654340 0.969047 0.153077
O O13 0.304802 0.982914 0.302769
O O14 0.158232 0.992303 0.149598
O O15 0.606209 0.232553 0.589530
O O16 0.098157 0.143623 0.576757
O O17 0.500000 0.000000 0.500000
O O18 0.000000 0.000000 0.000000
#
# Coordination Sequence:
#
# PCOD8036278 Si02
#       8
#     2   2   2   2   2   2   2   2
#     4  12  24  47  74 100 139 184 236 285 346 426
#     4  11  26  47  75 101 147 188 242 295 353 423
#     4  11  28  45  71 110 141 186 241 298 352 421
#     4  12  26  44  74 105 141 183 234 293 351 414
#     4  12  28  46  72 105 144 186 241 291 357 419
#     4  12  27  45  72 102 139 184 234 283 355 417
#     4  12  25  47  74 100 141 191 235 290 355 425
#     4  12  25  47  69 102 143 182 231 290 350 422
#
# _framework density 23.988827000000001
#
# number of rings (size 3 to 8) (size 9 to 14) (size 15 to 20)
#    0.000    0.250    3.750    4.125   10.500    0.000 
#    0.000    0.000    0.000    0.000    0.000    0.000 
#    0.000    0.000    0.000    0.000    0.000    0.000 
#
# Total GULP energy -198434.465904 kJ/mol
# GULP energy per Si atom -12402.154119 kJ/mol
# Density = 2.393423 g / cm^3
# Si number density = 23.988827 Si / 1000 Ang^3
#
#
#
# Elastic Constant Matrix: (Units=GPa)
#
#
# Indices 1 2 3 4 5 6 
#
# 1 108.8707 -3.4075 17.7590 -6.2122 -20.9005 -0.4810
# 2 -3.4075 132.2850 22.1855 -13.0552 -15.2377 -4.7149
# 3 17.7590 22.1855 85.4410 -15.3433 -21.9905 7.1719
# 4 -6.2122 -13.0552 -15.3433 47.4393 -3.3875 -2.3635
# 5 -20.9005 -15.2377 -21.9905 -3.3875 47.1751 2.8508
# 6 -0.4810 -4.7149 7.1719 -2.3635 2.8508 34.7608
#
#
#
# Elastic Compliance Matrix: (Units=1/GPa)
#
#
# Indices 1 2 3 4 5 6 
#
# 1 0.010363 0.001138 -0.000978 0.001695 0.004610 0.000237
# 2 0.001138 0.008406 -0.001460 0.002247 0.002616 0.001395
# 3 -0.000978 -0.001460 0.015152 0.004672 0.006709 -0.003570
# 4 0.001695 0.002247 0.004672 0.023839 0.005333 0.000548
# 5 0.004610 0.002616 0.006709 0.005333 0.027770 -0.002881
# 6 0.000237 0.001395 -0.003570 0.000548 -0.002881 0.029971
#
#
# Mechanical properties :
#
#
# Convention : Reuss Voigt Hill
#
# Bulk Modulus (GPa) = 31.92780 44.40784 38.16782
# Shear Modulus (GPa) = 38.89799 45.21237 42.05518
#
# Velocity S-wave (km/s) = 4.03116 4.34605 4.19156
# Velocity P-wave (km/s) = 5.91653 6.61334 6.27462
#
# Compressibility (1/GPa) = 0.03132067
#
# Stress axis : x y z
#
# Youngs Moduli (GPa) = 96.49530 118.95809 65.99862
#
# Poissons Ratio (x) = -0.13535 0.06458
# Poissons Ratio (y) = -0.10979 0.09634
# Poissons Ratio (z) = 0.09441 0.17364
#
# Static dielectric constant tensor:
#      x y z
#    x 5.568600 0.239440 -0.017690 
#    y 0.239440 4.510830 -0.192180 
#    z -0.017690 -0.192180 4.851010 
# 
# 
# High freq. dielectric constant tensor:
#      x y z
#    x 1.958900 -0.001490 -0.002250 
#    y -0.001490 1.967850 -0.008900 
#    z -0.002250 -0.008900 1.958290 
# 
# From -- ./inp_files/135330.got.cif
#   From: 2010.06.25/outbox.cif.g09.slc.cpg/sg2_68_cif.got.tgz:135330.got - 2010.06.27 13:26:56.
