data_PCOD8036961
_publ_section_title
;
Structure prediction by ZEFSAII (Michael W. Deem and Ramdas Pophale) SiO2 
 PCOD8036961
Probable space group: P -1
;
_chemical_formula_sum "Si O2"
_cell_formula_units_Z 16
_cell_length_a 11.618346
_cell_length_b 12.608068
_cell_length_c 9.241938
_cell_angle_alpha 98.643772
_cell_angle_beta 65.537477
_cell_angle_gamma 48.315721
_cell_volume 717.517484
_symmetry_space_group_name_H-M "P -1"
_symmetry_group_IT_number 2
_symmetry_cell_setting 'triclinic'
loop_
_space_group_symop_operation_xyz
x,y,z
-x,-y,-z
loop_
_atom_site_type_symbol
_atom_site_label
_atom_site_fract_x
_atom_site_fract_y
_atom_site_fract_z
Si Si1 0.414693 0.851326 0.848182
Si Si2 0.690743 0.332598 0.766386
Si Si3 0.451995 0.588096 0.692824
Si Si4 0.118740 0.147941 0.597680
Si Si5 0.566852 0.188027 0.833250
Si Si6 0.811051 0.546592 0.129083
Si Si7 0.999478 0.813057 0.020098
Si Si8 0.638696 0.823534 0.488668
O O1 0.505490 0.677021 0.700899
O O2 0.531380 0.869352 0.708160
O O3 0.462941 0.829070 0.989326
O O4 0.158989 0.040260 0.994585
O O5 0.615452 0.403265 0.658857
O O6 0.725781 0.182302 0.745233
O O7 0.898054 0.262817 0.666626
O O8 0.500000 0.500000 0.000000
O O9 0.500000 0.500000 0.500000
O O10 0.204574 0.749969 0.905135
O O11 0.135522 0.266871 0.622001
O O12 0.320030 0.978329 0.358368
O O13 0.132083 0.088607 0.740130
O O14 0.332635 0.373653 0.924282
O O15 0.913313 0.365738 0.091098
O O16 0.665895 0.692964 0.363747
O O17 0.000000 0.500000 0.000000
O O18 0.500000 0.000000 0.500000
#
# Coordination Sequence:
#
# PCOD8036961 Si02
#       8
#     2   2   2   2   2   2   2   2
#     4  12  27  46  70 109 148 185 242 301 359 422
#     4  12  24  48  73 105 143 189 236 302 363 423
#     4  12  27  44  73 106 149 185 244 298 361 426
#     4  12  25  45  76 101 141 194 241 285 362 433
#     4  12  26  46  75 107 145 187 240 301 357 425
#     4  12  23  45  77 104 138 194 239 284 359 430
#     4  12  24  46  73 104 143 193 240 293 356 434
#     4  12  24  49  71 103 144 193 236 291 358 438
#
# _framework density 22.299109000000001
#
# number of rings (size 3 to 8) (size 9 to 14) (size 15 to 20)
#    0.000    0.000    7.500    1.500    3.500    0.500 
#    0.000    1.250    0.000    0.000    0.000    0.000 
#    0.000    0.000    0.000    0.000    0.000    0.000 
#
# Total GULP energy -198384.450607 kJ/mol
# GULP energy per Si atom -12399.028163 kJ/mol
# Density = 2.224836 g / cm^3
# Si number density = 22.299109 Si / 1000 Ang^3
#
#
#
# Elastic Constant Matrix: (Units=GPa)
#
#
# Indices 1 2 3 4 5 6 
#
# 1 115.1741 27.9789 41.7259 -16.5234 -4.3423 -9.4434
# 2 27.9789 102.7404 45.2432 -17.1653 14.0582 -8.2778
# 3 41.7259 45.2432 108.8172 -14.4889 15.8027 4.9074
# 4 -16.5234 -17.1653 -14.4889 35.2876 5.5166 -0.4246
# 5 -4.3423 14.0582 15.8027 5.5166 51.8866 2.5286
# 6 -9.4434 -8.2778 4.9074 -0.4246 2.5286 35.3241
#
#
#
# Elastic Compliance Matrix: (Units=1/GPa)
#
#
# Indices 1 2 3 4 5 6 
#
# 1 0.011054 -0.000783 -0.003941 0.002924 0.001870 0.003221
# 2 -0.000783 0.013408 -0.004347 0.004898 -0.003081 0.003816
# 3 -0.003941 -0.004347 0.013418 0.002017 -0.003274 -0.003678
# 4 0.002924 0.004898 0.002017 0.033794 -0.005409 0.002443
# 5 0.001870 -0.003081 -0.003274 -0.005409 0.021904 -0.001400
# 6 0.003221 0.003816 -0.003678 0.002443 -0.001400 0.030705
#
#
# Mechanical properties :
#
#
# Convention : Reuss Voigt Hill
#
# Bulk Modulus (GPa) = 50.66012 61.84753 56.25383
# Shear Modulus (GPa) = 33.55596 38.61857 36.08727
#
# Velocity S-wave (km/s) = 3.88340 4.16606 4.02721
# Velocity P-wave (km/s) = 6.54794 7.13702 6.84881
#
# Compressibility (1/GPa) = 0.01973939
#
# Stress axis : x y z
#
# Youngs Moduli (GPa) = 90.46188 74.58113 74.52657
#
# Poissons Ratio (x) = 0.05839 0.29369
# Poissons Ratio (y) = 0.07082 0.32397
# Poissons Ratio (z) = 0.35649 0.32420
#
# Static dielectric constant tensor:
#      x y z
#    x 4.551290 0.207830 -0.021260 
#    y 0.207830 3.957060 -0.072630 
#    z -0.021260 -0.072630 4.081880 
# 
# 
# High freq. dielectric constant tensor:
#      x y z
#    x 1.894680 0.004110 0.000310 
#    y 0.004110 1.870890 0.000950 
#    z 0.000310 0.000950 1.882390 
# 
# From -- ./inp_files/262497.got.cif
#   From: 2010.06.25/outbox.cif.g09.slc.cpg/sg2_132_cif.got.tgz:262497.got - 2010.06.27 13:26:56.
