data_PCOD8036101
_publ_section_title
;
Structure prediction by ZEFSAII (Michael W. Deem and Ramdas Pophale) SiO2 
 PCOD8036101
Probable space group: P -1
;
_chemical_formula_sum "Si O2"
_cell_formula_units_Z 12
_cell_length_a 17.673336
_cell_length_b 14.464831
_cell_length_c 11.896608
_cell_angle_alpha 19.600501
_cell_angle_beta 149.517339
_cell_angle_gamma 149.232503
_cell_volume 497.051160
_symmetry_space_group_name_H-M "P -1"
_symmetry_group_IT_number 2
_symmetry_cell_setting 'triclinic'
loop_
_space_group_symop_operation_xyz
x,y,z
-x,-y,-z
loop_
_atom_site_type_symbol
_atom_site_label
_atom_site_fract_x
_atom_site_fract_y
_atom_site_fract_z
Si Si1 0.598589 0.169346 0.733843
Si Si2 0.931063 0.262420 0.094112
Si Si3 0.085119 0.443761 0.855016
Si Si4 0.327234 0.518452 0.751561
Si Si5 0.432542 0.530904 0.255891
Si Si6 0.150881 0.861774 0.271928
O O1 0.684958 0.313821 0.568313
O O2 0.510983 0.370724 0.451118
O O3 0.747163 0.138962 0.028824
O O4 0.476484 0.866633 0.897638
O O5 0.000000 0.000000 0.500000
O O6 0.000000 0.500000 0.000000
O O7 0.971031 0.407904 0.856207
O O8 0.104971 0.751757 0.466834
O O9 0.999342 0.209081 0.920917
O O10 0.247650 0.399745 0.157588
O O11 0.279183 0.699594 0.583204
O O12 0.500000 0.500000 0.000000
O O13 0.214335 0.200817 0.968897
O O14 0.500000 0.500000 0.500000
#
# Coordination Sequence:
#
# PCOD8036101 Si02
#       6
#     2   2   2   2   2   2
#     4  12  25  46  69 103 140 184 240 293 353 427
#     4  12  27  46  73 103 142 190 240 299 355 423
#     4  11  26  48  73 107 148 189 244 297 364 428
#     4  12  24  45  71 107 144 186 235 292 365 430
#     4  12  26  46  71 103 143 192 243 294 356 424
#     4  11  26  44  73 107 144 191 235 300 360 432
#
# _framework density 24.142384
#
# number of rings (size 3 to 8) (size 9 to 14) (size 15 to 20)
#    0.000    0.333    1.667    7.000    2.333    6.667 
#    0.000    0.000    0.000    0.000    0.000    0.000 
#    0.000    0.000    0.000    0.000    0.000    0.000 
#
# Total GULP energy -148791.223384 kJ/mol
# GULP energy per Si atom -12399.268615 kJ/mol
# Density = 2.408744 g / cm^3
# Si number density = 24.142384 Si / 1000 Ang^3
#
#
#
# Elastic Constant Matrix: (Units=GPa)
#
#
# Indices 1 2 3 4 5 6 
#
# 1 124.7339 40.8041 56.5725 -8.8665 14.9620 6.0819
# 2 40.8041 116.3782 60.7009 21.1745 30.4948 20.6925
# 3 56.5725 60.7009 128.8054 -11.4372 32.9331 9.0176
# 4 -8.8665 21.1745 -11.4372 66.4447 9.8396 11.4102
# 5 14.9620 30.4948 32.9331 9.8396 91.4481 17.8055
# 6 6.0819 20.6925 9.0176 11.4102 17.8055 44.0023
#
#
#
# Elastic Compliance Matrix: (Units=1/GPa)
#
#
# Indices 1 2 3 4 5 6 
#
# 1 0.010369 -0.002106 -0.003451 0.001471 0.000123 -0.000167
# 2 -0.002106 0.014073 -0.005623 -0.004979 -0.001120 -0.003430
# 3 -0.003451 -0.005623 0.012934 0.003865 -0.002747 0.000580
# 4 0.001471 -0.004979 0.003865 0.018186 -0.001382 -0.002811
# 5 0.000123 -0.001120 -0.002747 -0.001382 0.013187 -0.003905
# 6 -0.000167 -0.003430 0.000580 -0.002811 -0.003905 0.026553
#
#
# Mechanical properties :
#
#
# Convention : Reuss Voigt Hill
#
# Bulk Modulus (GPa) = 66.59013 76.23029 71.41021
# Shear Modulus (GPa) = 40.76126 54.50170 47.63148
#
# Velocity S-wave (km/s) = 4.11343 4.75648 4.44660
# Velocity P-wave (km/s) = 7.08538 7.86189 7.48371
#
# Compressibility (1/GPa) = 0.01501724
#
# Stress axis : x y z
#
# Youngs Moduli (GPa) = 96.44086 71.05835 77.31547
#
# Poissons Ratio (x) = 0.14964 0.26680
# Poissons Ratio (y) = 0.20309 0.43472
# Poissons Ratio (z) = 0.33280 0.39954
#
# Static dielectric constant tensor:
#      x y z
#    x 4.443700 0.179830 0.018240 
#    y 0.179830 4.664590 0.100790 
#    z 0.018240 0.100790 4.075680 
# 
# 
# High freq. dielectric constant tensor:
#      x y z
#    x 1.970470 0.014290 -0.000630 
#    y 0.014290 1.977400 0.009610 
#    z -0.000630 0.009610 1.969170 
# 
# From -- ./inp_files/131170.got.cif
#   From: 2010.06.25/outbox.cif.g09.slc.cpg/sg2_66_cif.got.tgz:131170.got - 2010.06.27 13:26:56.
