data_PCOD8036769
_publ_section_title
;
Structure prediction by ZEFSAII (Michael W. Deem and Ramdas Pophale) SiO2 
 PCOD8036769
Probable space group: P -1
;
_chemical_formula_sum "Si O2"
_cell_formula_units_Z 16
_cell_length_a 9.295912
_cell_length_b 17.892908
_cell_length_c 9.212309
_cell_angle_alpha 78.624282
_cell_angle_beta 55.092599
_cell_angle_gamma 39.360587
_cell_volume 702.802835
_symmetry_space_group_name_H-M "P -1"
_symmetry_group_IT_number 2
_symmetry_cell_setting 'triclinic'
loop_
_space_group_symop_operation_xyz
x,y,z
-x,-y,-z
loop_
_atom_site_type_symbol
_atom_site_label
_atom_site_fract_x
_atom_site_fract_y
_atom_site_fract_z
Si Si1 0.608287 0.390532 0.393646
Si Si2 0.266741 0.261272 0.583698
Si Si3 0.303678 0.118769 0.179549
Si Si4 0.340135 0.752765 0.161400
Si Si5 0.325621 0.012498 0.480582
Si Si6 0.636547 0.142632 0.131306
Si Si7 0.367164 0.564893 0.204665
Si Si8 0.743423 0.613931 0.226747
O O1 0.500000 0.500000 0.500000
O O2 0.521746 0.443810 0.259177
O O3 0.407586 0.394279 0.575499
O O4 0.976834 0.253248 0.243031
O O5 0.492460 0.210744 0.346512
O O6 0.127045 0.372082 0.735926
O O7 0.999178 0.314039 0.630818
O O8 0.458765 0.135907 0.624029
O O9 0.224164 0.092648 0.367193
O O10 0.490498 0.124289 0.132346
O O11 0.500000 0.000000 0.000000
O O12 0.427301 0.632234 0.182292
O O13 0.476699 0.745032 0.229266
O O14 0.985995 0.901836 0.295510
O O15 0.463766 0.745645 0.943555
O O16 0.500000 0.000000 0.500000
O O17 0.000000 0.000000 0.000000
O O18 0.500000 0.500000 0.000000
O O19 0.000000 0.500000 0.000000
#
# Coordination Sequence:
#
# PCOD8036769 Si02
#       8
#     2   2   2   2   2   2   2   2
#     4  12  27  52  77 106 157 204 260 312 387 466
#     4  12  28  48  78 112 152 199 254 318 389 451
#     4  12  29  47  80 114 153 206 253 318 386 463
#     4  12  25  47  73 107 155 192 253 316 380 452
#     4  12  22  48  76 107 150 197 249 312 382 459
#     4  12  27  46  74 116 155 195 252 319 383 457
#     4  12  28  48  76 107 148 210 255 307 381 463
#     4  12  30  50  76 112 152 200 257 325 382 452
#
# _framework density 22.765986999999999
#
# number of rings (size 3 to 8) (size 9 to 14) (size 15 to 20)
#    0.000    0.000    6.250    1.500   10.500    1.000 
#    0.000    0.000    0.000    0.000    0.000    0.000 
#    0.000    0.000    0.000    0.000    0.000    0.000 
#
# Total GULP energy -198219.208744 kJ/mol
# GULP energy per Si atom -12388.700547 kJ/mol
# Density = 2.271417 g / cm^3
# Si number density = 22.765987 Si / 1000 Ang^3
#
#
#
# Elastic Constant Matrix: (Units=GPa)
#
#
# Indices 1 2 3 4 5 6 
#
# 1 108.7303 40.7517 48.2916 3.1092 4.2624 -4.2809
# 2 40.7517 148.4227 59.2285 -12.9723 -4.1817 -16.8999
# 3 48.2916 59.2285 137.2171 -0.3611 10.5095 -6.3977
# 4 3.1092 -12.9723 -0.3611 51.9255 -0.1600 2.0341
# 5 4.2624 -4.1817 10.5095 -0.1600 42.3643 3.8067
# 6 -4.2809 -16.8999 -6.3977 2.0341 3.8067 36.3640
#
#
#
# Elastic Compliance Matrix: (Units=1/GPa)
#
#
# Indices 1 2 3 4 5 6 
#
# 1 0.011384 -0.002013 -0.003097 -0.001207 -0.000579 -0.000012
# 2 -0.002013 0.009183 -0.003227 0.002273 0.001634 0.003165
# 3 -0.003097 -0.003227 0.009969 -0.000566 -0.002499 0.000183
# 4 -0.001207 0.002273 -0.000566 0.019911 0.000594 -0.000361
# 5 -0.000579 0.001634 -0.002499 0.000594 0.024659 -0.002363
# 6 -0.000012 0.003165 0.000183 -0.000361 -0.002363 0.029269
#
#
# Mechanical properties :
#
#
# Convention : Reuss Voigt Hill
#
# Bulk Modulus (GPa) = 72.13885 76.76818 74.45352
# Shear Modulus (GPa) = 39.78743 42.53733 41.16238
#
# Velocity S-wave (km/s) = 4.18505 4.32726 4.25675
# Velocity P-wave (km/s) = 7.42353 7.66555 7.54551
#
# Compressibility (1/GPa) = 0.01386216
#
# Stress axis : x y z
#
# Youngs Moduli (GPa) = 87.84479 108.89706 100.31244
#
# Poissons Ratio (x) = 0.21921 0.31065
# Poissons Ratio (y) = 0.17683 0.32370
# Poissons Ratio (z) = 0.27204 0.35140
#
# Static dielectric constant tensor:
#      x y z
#    x 4.062530 0.132680 -0.263190 
#    y 0.132680 3.748320 0.195010 
#    z -0.263190 0.195010 3.697030 
# 
# 
# High freq. dielectric constant tensor:
#      x y z
#    x 1.901860 -0.015540 -0.004940 
#    y -0.015540 1.911380 -0.006540 
#    z -0.004940 -0.006540 1.917810 
# 
# From -- ./inp_files/217442.got.cif
#   From: 2010.06.25/outbox.cif.g09.slc.cpg/sg2_109_cif.got.tgz:217442.got - 2010.06.27 13:26:56.
