data_PCOD8036597
_publ_section_title
;
Structure prediction by ZEFSAII (Michael W. Deem and Ramdas Pophale) SiO2 
 PCOD8036597
Probable space group: P -1
;
_chemical_formula_sum "Si O2"
_cell_formula_units_Z 14
_cell_length_a 13.156682
_cell_length_b 23.307227
_cell_length_c 16.471142
_cell_angle_alpha 17.464069
_cell_angle_beta 25.391360
_cell_angle_gamma 26.609238
_cell_volume 629.128615
_symmetry_space_group_name_H-M "P -1"
_symmetry_group_IT_number 2
_symmetry_cell_setting 'triclinic'
loop_
_space_group_symop_operation_xyz
x,y,z
-x,-y,-z
loop_
_atom_site_type_symbol
_atom_site_label
_atom_site_fract_x
_atom_site_fract_y
_atom_site_fract_z
Si Si1 0.922766 0.083701 0.853310
Si Si2 0.826765 0.216957 0.331342
Si Si3 0.914114 0.471739 0.690045
Si Si4 0.363507 0.836146 0.292580
Si Si5 0.135756 0.950636 0.720693
Si Si6 0.534768 0.859918 0.437044
Si Si7 0.173818 0.457594 0.680471
O O1 0.847886 0.317822 0.584012
O O2 0.147205 0.000007 0.741338
O O3 0.697394 0.001099 0.094879
O O4 0.000000 0.000000 0.000000
O O5 0.718048 0.271925 0.424830
O O6 0.608185 0.215382 0.430001
O O7 0.000000 0.000000 0.500000
O O8 0.972208 0.377216 0.983890
O O9 0.714532 0.661993 0.611271
O O10 0.000000 0.500000 0.500000
O O11 0.140303 0.436173 0.636891
O O12 0.807000 0.282171 0.023547
O O13 0.551345 0.672428 0.323775
O O14 0.125778 0.930276 0.284535
O O15 0.500000 0.000000 0.000000
O O16 0.361188 0.995730 0.446957
#
# Coordination Sequence:
#
# PCOD8036597 Si02
#       7
#     2   2   2   2   2   2   2
#     4  12  28  49  67 103 150 186 227 293 363 417
#     4  12  23  43  73 106 138 179 235 292 346 412
#     4  12  21  42  73 104 133 184 243 288 341 412
#     4  12  22  43  73 103 139 180 238 291 345 417
#     4  12  25  43  72 103 138 188 236 287 353 415
#     4  12  24  43  75 101 143 180 238 289 349 413
#     4  12  26  45  69 107 139 186 236 292 352 413
#
# _framework density 22.253003
#
# number of rings (size 3 to 8) (size 9 to 14) (size 15 to 20)
#    0.000    0.000    8.571    2.143    0.000    2.286 
#    0.000    1.429    0.000    0.000    0.000    0.000 
#    0.000    0.000    0.000    0.000    0.000    0.000 
#
# Total GULP energy -173610.821800 kJ/mol
# GULP energy per Si atom -12400.772986 kJ/mol
# Density = 2.220235 g / cm^3
# Si number density = 22.253003 Si / 1000 Ang^3
#
#
#
# Elastic Constant Matrix: (Units=GPa)
#
#
# Indices 1 2 3 4 5 6 
#
# 1 63.4004 31.3084 22.1733 9.8922 21.7240 10.2910
# 2 31.3084 123.2985 56.2129 -2.9654 -0.9092 4.8617
# 3 22.1733 56.2129 138.9946 -11.7552 3.6183 1.3399
# 4 9.8922 -2.9654 -11.7552 46.4762 10.3471 5.5772
# 5 21.7240 -0.9092 3.6183 10.3471 26.4895 0.3366
# 6 10.2910 4.8617 1.3399 5.5772 0.3366 39.9988
#
#
#
# Elastic Compliance Matrix: (Units=1/GPa)
#
#
# Indices 1 2 3 4 5 6 
#
# 1 0.028507 -0.006593 -0.001305 -0.000965 -0.022971 -0.006161
# 2 -0.006593 0.011548 -0.003816 -0.000308 0.006440 0.000409
# 3 -0.001305 -0.003816 0.009204 0.002648 -0.001354 0.000134
# 4 -0.000965 -0.000308 0.002648 0.024809 -0.009231 -0.003185
# 5 -0.022971 0.006440 -0.001354 -0.009231 0.060526 0.005951
# 6 -0.006161 0.000409 0.000134 -0.003185 0.005951 0.026926
#
#
# Mechanical properties :
#
#
# Convention : Reuss Voigt Hill
#
# Bulk Modulus (GPa) = 38.71515 60.56474 49.63995
# Shear Modulus (GPa) = 25.83191 36.99282 31.41237
#
# Velocity S-wave (km/s) = 3.41079 4.08165 3.76120
# Velocity P-wave (km/s) = 5.73993 7.03482 6.42010
#
# Compressibility (1/GPa) = 0.02582968
#
# Stress axis : x y z
#
# Youngs Moduli (GPa) = 35.07938 86.59241 108.64782
#
# Poissons Ratio (x) = 0.57091 0.14183
# Poissons Ratio (y) = 0.23128 0.41463
# Poissons Ratio (z) = 0.04579 0.33046
#
# Static dielectric constant tensor:
#      x y z
#    x 4.021150 0.137000 0.336260 
#    y 0.137000 4.042070 0.109460 
#    z 0.336260 0.109460 4.342540 
# 
# 
# High freq. dielectric constant tensor:
#      x y z
#    x 1.869930 -0.002200 0.017930 
#    y -0.002200 1.887650 0.006590 
#    z 0.017930 0.006590 1.877730 
# 
# From -- ./inp_files/398027.got.cif
#   From: 2010.06.25/outbox.cif.g09.slc.cpg/sg2_200_cif.got.tgz:398027.got - 2010.06.27 13:26:56.
