data_PCOD8036663
_publ_section_title
;
Structure prediction by ZEFSAII (Michael W. Deem and Ramdas Pophale) SiO2 
 PCOD8036663
Probable space group: P -1
;
_chemical_formula_sum "Si O2"
_cell_formula_units_Z 16
_cell_length_a 15.561016
_cell_length_b 16.151786
_cell_length_c 15.785600
_cell_angle_alpha 17.727299
_cell_angle_beta 35.882617
_cell_angle_gamma 33.207372
_cell_volume 659.525581
_symmetry_space_group_name_H-M "P -1"
_symmetry_group_IT_number 2
_symmetry_cell_setting 'triclinic'
loop_
_space_group_symop_operation_xyz
x,y,z
-x,-y,-z
loop_
_atom_site_type_symbol
_atom_site_label
_atom_site_fract_x
_atom_site_fract_y
_atom_site_fract_z
Si Si1 0.554600 0.578139 0.591373
Si Si2 0.992087 0.495926 0.801972
Si Si3 0.322740 0.870930 0.350625
Si Si4 0.198428 0.850267 0.293118
Si Si5 0.818856 0.141504 0.037097
Si Si6 0.470539 0.851421 0.845119
Si Si7 0.842606 0.500903 0.083543
Si Si8 0.236502 0.295004 0.369584
O O1 0.480667 0.678223 0.460248
O O2 0.725025 0.339689 0.665650
O O3 0.562880 0.843970 0.379224
O O4 0.463552 0.413008 0.881512
O O5 0.056076 0.748492 0.533143
O O6 0.912149 0.553607 0.718813
O O7 0.857224 0.500301 0.971280
O O8 0.135534 0.186955 0.988222
O O9 0.323546 0.807743 0.311319
O O10 0.183569 0.791435 0.582994
O O11 0.298073 0.208842 0.055704
O O12 0.698439 0.134521 0.067030
O O13 0.786775 0.985871 0.298203
O O14 0.772441 0.481400 0.765664
O O15 0.000000 0.000000 0.000000
O O16 0.596393 0.804387 0.715237
O O17 0.000000 0.500000 0.000000
#
# Coordination Sequence:
#
# PCOD8036663 Si02
#       8
#     2   2   2   2   2   2   2   2
#     4  12  27  44  72 101 145 188 249 289 358 429
#     4  12  25  40  69 101 142 185 240 291 355 408
#     4  12  23  43  66  97 140 193 243 291 357 408
#     4  12  25  42  64 100 145 193 233 303 345 412
#     4  12  28  49  81 112 146 182 229 299 369 442
#     4  12  27  51  76 107 145 190 237 300 362 428
#     4  12  22  41  65  99 135 186 241 299 347 413
#     4  12  26  49  76 111 145 187 240 288 361 440
#
# _framework density 24.259862999999999
#
# number of rings (size 3 to 8) (size 9 to 14) (size 15 to 20)
#    0.000    0.000    2.500    7.875    5.250    0.000 
#    0.000    3.750    0.000    0.000    0.000    0.000 
#    0.000    0.000    0.000    0.000    0.000    0.000 
#
# Total GULP energy -198455.042600 kJ/mol
# GULP energy per Si atom -12403.440162 kJ/mol
# Density = 2.420465 g / cm^3
# Si number density = 24.259863 Si / 1000 Ang^3
#
#
#
# Elastic Constant Matrix: (Units=GPa)
#
#
# Indices 1 2 3 4 5 6 
#
# 1 99.3823 39.7589 22.6590 -5.6358 -0.3605 2.7878
# 2 39.7589 113.8314 14.0218 -8.6844 -9.9470 7.5325
# 3 22.6590 14.0218 85.9667 -9.3298 5.2942 5.1227
# 4 -5.6358 -8.6844 -9.3298 36.8178 6.6082 -7.0931
# 5 -0.3605 -9.9470 5.2942 6.6082 40.1600 -2.7991
# 6 2.7878 7.5325 5.1227 -7.0931 -2.7991 34.8607
#
#
#
# Elastic Compliance Matrix: (Units=1/GPa)
#
#
# Indices 1 2 3 4 5 6 
#
# 1 0.012253 -0.004009 -0.002506 0.000462 -0.000608 0.000300
# 2 -0.004009 0.010650 -0.000630 0.001019 0.002413 -0.001487
# 3 -0.002506 -0.000630 0.012937 0.002963 -0.002452 -0.001159
# 4 0.000462 0.001019 0.002963 0.030042 -0.004726 0.005041
# 5 -0.000608 0.002413 -0.002452 -0.004726 0.026668 0.001067
# 6 0.000300 -0.001487 -0.001159 0.005041 0.001067 0.030264
#
#
# Mechanical properties :
#
#
# Convention : Reuss Voigt Hill
#
# Bulk Modulus (GPa) = 46.40232 50.22888 48.31560
# Shear Modulus (GPa) = 34.65314 37.21709 35.93511
#
# Velocity S-wave (km/s) = 3.78354 3.92101 3.85289
# Velocity P-wave (km/s) = 6.18511 6.42250 6.30492
#
# Compressibility (1/GPa) = 0.02155065
#
# Stress axis : x y z
#
# Youngs Moduli (GPa) = 81.61391 93.89951 77.29560
#
# Poissons Ratio (x) = 0.37641 0.19371
# Poissons Ratio (y) = 0.32716 0.04869
# Poissons Ratio (z) = 0.20453 0.05915
#
# Static dielectric constant tensor:
#      x y z
#    x 4.440990 0.257760 0.032980 
#    y 0.257760 4.971390 -0.239320 
#    z 0.032980 -0.239320 4.725610 
# 
# 
# High freq. dielectric constant tensor:
#      x y z
#    x 1.972640 0.005530 0.001790 
#    y 0.005530 1.960870 -0.005080 
#    z 0.001790 -0.005080 1.981080 
# 
# From -- ./inp_files/534006.got.cif
#   From: 2010.06.25/outbox.cif.g09.slc.cpg/sg2_268_cif.got.tgz:534006.got - 2010.06.27 13:26:56.
