data_PCOD8036977
_publ_section_title
;
Structure prediction by ZEFSAII (Michael W. Deem and Ramdas Pophale) SiO2 
 PCOD8036977
Probable space group: P -1
;
_chemical_formula_sum "Si O2"
_cell_formula_units_Z 12
_cell_length_a 17.230013
_cell_length_b 13.755510
_cell_length_c 5.817438
_cell_angle_alpha 95.126655
_cell_angle_beta 102.519678
_cell_angle_gamma 24.360595
_cell_volume 534.805143
_symmetry_space_group_name_H-M "P -1"
_symmetry_group_IT_number 2
_symmetry_cell_setting 'triclinic'
loop_
_space_group_symop_operation_xyz
x,y,z
-x,-y,-z
loop_
_atom_site_type_symbol
_atom_site_label
_atom_site_fract_x
_atom_site_fract_y
_atom_site_fract_z
Si Si1 0.484261 0.631810 0.054045
Si Si2 0.391053 0.904308 0.723349
Si Si3 0.028485 0.415962 0.750527
Si Si4 0.857941 0.919229 0.745873
Si Si5 0.098830 0.784911 0.550884
Si Si6 0.182053 0.524223 0.217427
O O1 0.685046 0.450399 0.247496
O O2 0.293648 0.856218 0.138026
O O3 0.500000 0.500000 0.000000
O O4 0.445709 0.735345 0.818300
O O5 0.587216 0.744936 0.757016
O O6 0.255743 0.119596 0.856214
O O7 0.258475 0.038431 0.439563
O O8 0.000000 0.500000 0.500000
O O9 0.873199 0.499924 0.646053
O O10 0.000000 0.500000 0.000000
O O11 0.938434 0.908797 0.622425
O O12 0.046195 0.658650 0.936112
O O13 0.131225 0.689368 0.315412
O O14 0.000000 0.000000 0.500000
#
# Coordination Sequence:
#
# PCOD8036977 Si02
#       6
#     2   2   2   2   2   2
#     4  12  26  42  72 111 153 205 253 309 384 464
#     4  12  26  47  76 109 148 200 253 321 388 464
#     4  12  29  52  82 114 152 202 264 333 400 460
#     4  12  23  46  72 102 162 194 254 313 378 458
#     4  12  26  42  72 111 153 205 253 309 384 464
#     4  12  26  47  76 109 148 200 253 321 388 464
#
# _framework density 22.438078999999998
#
# number of rings (size 3 to 8) (size 9 to 14) (size 15 to 20)
#    0.000    0.000    6.667    3.000    2.333    4.000 
#    0.000    0.000    0.000    0.000    0.000    0.000 
#    0.000    0.000    0.000    0.000    0.000    0.000 
#
# Total GULP energy -148765.327307 kJ/mol
# GULP energy per Si atom -12397.110609 kJ/mol
# Density = 2.238701 g / cm^3
# Si number density = 22.438079 Si / 1000 Ang^3
#
#
#
# Elastic Constant Matrix: (Units=GPa)
#
#
# Indices 1 2 3 4 5 6 
#
# 1 99.6751 102.4140 43.7995 -1.6744 3.6356 -13.0364
# 2 102.4140 119.0506 48.3709 -4.5041 2.1948 -29.2290
# 3 43.7995 48.3709 133.8453 -9.7443 10.8956 -3.5367
# 4 -1.6744 -4.5041 -9.7443 38.5826 -6.2039 4.5320
# 5 3.6356 2.1948 10.8956 -6.2039 39.0818 -5.9720
# 6 -13.0364 -29.2290 -3.5367 4.5320 -5.9720 55.0508
#
#
#
# Elastic Compliance Matrix: (Units=1/GPa)
#
#
# Indices 1 2 3 4 5 6 
#
# 1 0.122427 -0.113384 0.000541 -0.005804 -0.010966 -0.031887
# 2 -0.113384 0.116534 -0.004634 0.005195 0.011552 0.035551
# 3 0.000541 -0.004634 0.009232 0.001676 -0.002425 -0.002140
# 4 -0.005804 0.005195 0.001676 0.027390 0.004080 -0.000321
# 5 -0.010966 0.011552 -0.002425 0.004080 0.028215 0.006106
# 6 -0.031887 0.035551 -0.002140 -0.000321 0.006106 0.030041
#
#
# Mechanical properties :
#
#
# Convention : Reuss Voigt Hill
#
# Bulk Modulus (GPa) = 75.53682 82.41551 78.97617
# Shear Modulus (GPa) = 8.72287 37.07550 22.89918
#
# Velocity S-wave (km/s) = 1.97382 4.06932 3.19807
# Velocity P-wave (km/s) = 6.23957 7.67392 6.99362
#
# Compressibility (1/GPa) = 0.01323858
#
# Stress axis : x y z
#
# Youngs Moduli (GPa) = 8.16814 8.58118 108.32305
#
# Poissons Ratio (x) = 0.97297 -0.05861
# Poissons Ratio (y) = 0.92614 0.50193
# Poissons Ratio (z) = -0.00442 0.03976
#
# Static dielectric constant tensor:
#      x y z
#    x 4.290470 -0.091810 0.044170 
#    y -0.091810 4.288170 -0.011080 
#    z 0.044170 -0.011080 4.348390 
# 
# 
# High freq. dielectric constant tensor:
#      x y z
#    x 1.895840 -0.013500 0.000520 
#    y -0.013500 1.900160 -0.000260 
#    z 0.000520 -0.000260 1.886600 
# 
# From -- ./inp_files/55236.got.cif
#   From: 2010.06.25/outbox.cif.g09.slc.cpg/sg2_28_cif.got.tgz:55236.got - 2010.06.27 13:26:56.
