data_PCOD8036201
_publ_section_title
;
Structure prediction by ZEFSAII (Michael W. Deem and Ramdas Pophale) SiO2 
 PCOD8036201
Probable space group: P -1
;
_chemical_formula_sum "Si O2"
_cell_formula_units_Z 16
_cell_length_a 12.506617
_cell_length_b 12.677165
_cell_length_c 11.350734
_cell_angle_alpha 79.463490
_cell_angle_beta 104.805432
_cell_angle_gamma 33.999463
_cell_volume 664.822986
_symmetry_space_group_name_H-M "P -1"
_symmetry_group_IT_number 2
_symmetry_cell_setting 'triclinic'
loop_
_space_group_symop_operation_xyz
x,y,z
-x,-y,-z
loop_
_atom_site_type_symbol
_atom_site_label
_atom_site_fract_x
_atom_site_fract_y
_atom_site_fract_z
Si Si1 0.660020 0.442402 0.218554
Si Si2 0.001339 0.420931 0.701053
Si Si3 0.188947 0.883915 0.812300
Si Si4 0.035496 0.586412 0.039462
Si Si5 0.066555 0.275523 0.381952
Si Si6 0.408479 0.900422 0.331965
Si Si7 0.644620 0.048317 0.242836
Si Si8 0.350616 0.703735 0.318233
O O1 0.849591 0.170080 0.291364
O O2 0.828106 0.398790 0.308565
O O3 0.471591 0.575720 0.249034
O O4 0.491031 0.618776 0.015426
O O5 0.910628 0.459533 0.796077
O O6 0.077923 0.478256 0.711161
O O7 0.285698 0.102924 0.806445
O O8 0.743827 0.628864 0.492248
O O9 0.148846 0.034427 0.706268
O O10 0.970044 0.054204 0.820986
O O11 0.314585 0.381357 0.089403
O O12 0.000000 0.500000 0.000000
O O13 0.750111 0.911219 0.867276
O O14 0.243038 0.104599 0.348900
O O15 0.290048 0.067200 0.592306
O O16 0.367601 0.810627 0.341552
O O17 0.500000 0.500000 0.500000
#
# Coordination Sequence:
#
# PCOD8036201 Si02
#       8
#     2   2   2   2   2   2   2   2
#     4  11  26  46  73 104 145 188 244 307 369 438
#     4  12  27  51  76 110 157 196 254 305 373 455
#     4  11  26  47  69 107 145 187 245 307 366 436
#     4  12  27  48  75 111 153 203 245 311 374 443
#     4  12  23  48  75 107 150 200 242 309 374 445
#     4  12  25  49  77 111 154 199 247 310 384 442
#     4  12  28  46  79 110 149 198 253 306 374 448
#     4  12  27  47  76 106 143 196 250 302 380 447
#
# _framework density 24.066557
#
# number of rings (size 3 to 8) (size 9 to 14) (size 15 to 20)
#    0.000    0.250    3.750    4.875    5.250    3.500 
#    2.250    0.000    0.000    0.000    0.000    0.000 
#    0.000    0.000    0.000    0.000    0.000    0.000 
#
# Total GULP energy -198430.558565 kJ/mol
# GULP energy per Si atom -12401.909910 kJ/mol
# Density = 2.401178 g / cm^3
# Si number density = 24.066557 Si / 1000 Ang^3
#
#
#
# Elastic Constant Matrix: (Units=GPa)
#
#
# Indices 1 2 3 4 5 6 
#
# 1 120.8507 38.8530 23.3968 6.4915 -13.2856 12.4771
# 2 38.8530 98.1339 32.4330 1.3812 -8.7578 -2.6883
# 3 23.3968 32.4330 88.5309 -0.3517 -11.1056 4.0293
# 4 6.4915 1.3812 -0.3517 27.1653 0.1311 -3.9295
# 5 -13.2856 -8.7578 -11.1056 0.1311 35.9123 -7.7832
# 6 12.4771 -2.6883 4.0293 -3.9295 -7.7832 47.9252
#
#
#
# Elastic Compliance Matrix: (Units=1/GPa)
#
#
# Indices 1 2 3 4 5 6 
#
# 1 0.010270 -0.003577 -0.001037 -0.002683 0.002036 -0.002676
# 2 -0.003577 0.013011 -0.003774 0.000458 0.001158 0.002204
# 3 -0.001037 -0.003774 0.013318 0.000515 0.002686 -0.000583
# 4 -0.002683 0.000458 0.000515 0.037984 -0.000039 0.003789
# 5 0.002036 0.001158 0.002686 -0.000039 0.030640 0.004282
# 6 -0.002676 0.002204 -0.000583 0.003789 0.004282 0.022741
#
#
# Mechanical properties :
#
#
# Convention : Reuss Voigt Hill
#
# Bulk Modulus (GPa) = 50.45008 55.20902 52.82955
# Shear Modulus (GPa) = 33.03626 36.38941 34.71284
#
# Velocity S-wave (km/s) = 3.70902 3.89270 3.80197
# Velocity P-wave (km/s) = 6.27301 6.57222 6.42436
#
# Compressibility (1/GPa) = 0.01982157
#
# Stress axis : x y z
#
# Youngs Moduli (GPa) = 97.37369 76.85717 75.08727
#
# Poissons Ratio (x) = 0.27493 0.07787
# Poissons Ratio (y) = 0.34831 0.28341
# Poissons Ratio (z) = 0.10098 0.29009
#
# Static dielectric constant tensor:
#      x y z
#    x 4.452360 -0.175380 0.093660 
#    y -0.175380 4.680870 -0.277980 
#    z 0.093660 -0.277980 4.670940 
# 
# 
# High freq. dielectric constant tensor:
#      x y z
#    x 1.965420 -0.000730 -0.007350 
#    y -0.000730 1.964350 0.001710 
#    z -0.007350 0.001710 1.954640 
# 
# From -- ./inp_files/428180.got.cif
#   From: 2010.06.25/outbox.cif.g09.slc.cpg/sg2_215_cif.got.tgz:428180.got - 2010.06.27 13:26:56.
