data_PCOD8036156
_publ_section_title
;
Structure prediction by ZEFSAII (Michael W. Deem and Ramdas Pophale) SiO2 
 PCOD8036156
Probable space group: P -1
;
_chemical_formula_sum "Si O2"
_cell_formula_units_Z 16
_cell_length_a 8.542583
_cell_length_b 9.836744
_cell_length_c 11.871407
_cell_angle_alpha 130.526705
_cell_angle_beta 78.045882
_cell_angle_gamma 104.222265
_cell_volume 733.486688
_symmetry_space_group_name_H-M "P -1"
_symmetry_group_IT_number 2
_symmetry_cell_setting 'triclinic'
loop_
_space_group_symop_operation_xyz
x,y,z
-x,-y,-z
loop_
_atom_site_type_symbol
_atom_site_label
_atom_site_fract_x
_atom_site_fract_y
_atom_site_fract_z
Si Si1 0.857935 0.116267 0.561813
Si Si2 0.473695 0.516924 0.381049
Si Si3 0.525875 0.814731 0.950697
Si Si4 0.896081 0.812096 0.943640
Si Si5 0.638275 0.274220 0.838337
Si Si6 0.104026 0.523307 0.385496
Si Si7 0.141938 0.389450 0.946007
Si Si8 0.645001 0.783942 0.333202
O O1 0.784853 0.170129 0.720784
O O2 0.924375 0.293853 0.575468
O O3 0.709585 0.996093 0.452995
O O4 0.000000 0.000000 0.500000
O O5 0.500000 0.500000 0.500000
O O6 0.528108 0.346738 0.216196
O O7 0.289835 0.533943 0.394337
O O8 0.581851 0.698287 0.415798
O O9 0.710796 0.825329 0.959682
O O10 0.415216 0.790320 0.064578
O O11 0.500000 0.000000 0.000000
O O12 0.954434 0.650412 0.776756
O O13 0.924056 0.776494 0.051954
O O14 0.000000 0.000000 0.000000
O O15 0.493214 0.244693 0.755627
O O16 0.708865 0.487478 0.945321
O O17 0.000000 0.500000 0.500000
O O18 0.204207 0.313280 0.780245
O O19 0.000000 0.500000 0.000000
#
# Coordination Sequence:
#
# PCOD8036156 Si02
#       8
#     2   2   2   2   2   2   2   2
#     4  12  28  46  73 110 147 190 245 301 365 432
#     4  11  26  46  72 105 144 188 241 296 362 432
#     4  11  26  45  73 107 140 189 240 302 358 424
#     4  11  26  47  70 103 146 189 236 295 365 432
#     4  12  23  49  75 101 146 186 251 302 349 433
#     4  11  27  47  69 100 149 191 232 296 366 430
#     4  12  25  44  75 108 143 188 242 305 360 424
#     4  12  25  45  77 105 138 193 246 294 363 427
#
# _framework density 21.813621000000001
#
# number of rings (size 3 to 8) (size 9 to 14) (size 15 to 20)
#    0.000    0.500    5.000    2.250    7.000    2.000 
#    0.000    0.000    0.000    0.000    0.000    0.000 
#    0.000    0.000    0.000    0.000    0.000    0.000 
#
# Total GULP energy -198479.162890 kJ/mol
# GULP energy per Si atom -12404.947681 kJ/mol
# Density = 2.176397 g / cm^3
# Si number density = 21.813621 Si / 1000 Ang^3
#
#
#
# Elastic Constant Matrix: (Units=GPa)
#
#
# Indices 1 2 3 4 5 6 
#
# 1 51.7911 64.0124 34.0092 -4.7816 -11.6077 6.3853
# 2 64.0124 204.8459 87.1843 -4.3620 -7.1482 8.8135
# 3 34.0092 87.1843 134.6907 -9.8312 -15.0359 15.2120
# 4 -4.7816 -4.3620 -9.8312 50.0874 7.4628 0.1867
# 5 -11.6077 -7.1482 -15.0359 7.4628 45.4269 1.0246
# 6 6.3853 8.8135 15.2120 0.1867 1.0246 42.2504
#
#
#
# Elastic Compliance Matrix: (Units=1/GPa)
#
#
# Indices 1 2 3 4 5 6 
#
# 1 0.034121 -0.009808 -0.001109 0.001202 0.006676 -0.002879
# 2 -0.009808 0.009569 -0.004132 -0.000576 -0.002297 0.001032
# 3 -0.001109 -0.004132 0.011109 0.001340 0.002592 -0.003039
# 4 0.001202 -0.000576 0.001340 0.020701 -0.002728 -0.000569
# 5 0.006676 -0.002297 0.002592 -0.002728 0.024710 -0.002050
# 6 -0.002879 0.001032 -0.003039 -0.000569 -0.002050 0.025035
#
#
# Mechanical properties :
#
#
# Convention : Reuss Voigt Hill
#
# Bulk Modulus (GPa) = 40.48396 84.63771 62.56084
# Shear Modulus (GPa) = 30.56665 41.29439 35.93052
#
# Velocity S-wave (km/s) = 3.74741 4.35565 4.06292
# Velocity P-wave (km/s) = 6.10929 8.01125 7.12403
#
# Compressibility (1/GPa) = 0.02470114
#
# Stress axis : x y z
#
# Youngs Moduli (GPa) = 29.30729 104.50911 90.01366
#
# Poissons Ratio (x) = 1.02506 0.09979
# Poissons Ratio (y) = 0.28745 0.37194
# Poissons Ratio (z) = 0.03249 0.43184
#
# Static dielectric constant tensor:
#      x y z
#    x 3.988540 0.213600 -0.080700 
#    y 0.213600 4.043580 0.049520 
#    z -0.080700 0.049520 4.362920 
# 
# 
# High freq. dielectric constant tensor:
#      x y z
#    x 1.864760 0.008080 -0.009110 
#    y 0.008080 1.865330 0.000950 
#    z -0.009110 0.000950 1.873110 
# 
# From -- ./inp_files/184291.got.cif
#   From: 2010.06.25/outbox.cif.g09.slc.cpg/sg2_93_cif.got.tgz:184291.got - 2010.06.27 13:26:56.
