data_PCOD8036194
_publ_section_title
;
Structure prediction by ZEFSAII (Michael W. Deem and Ramdas Pophale) SiO2 
 PCOD8036194
Probable space group: P -1
;
_chemical_formula_sum "Si O2"
_cell_formula_units_Z 14
_cell_length_a 8.925780
_cell_length_b 11.719759
_cell_length_c 8.814069
_cell_angle_alpha 107.306853
_cell_angle_beta 67.361998
_cell_angle_gamma 61.159589
_cell_volume 597.677529
_symmetry_space_group_name_H-M "P -1"
_symmetry_group_IT_number 2
_symmetry_cell_setting 'triclinic'
loop_
_space_group_symop_operation_xyz
x,y,z
-x,-y,-z
loop_
_atom_site_type_symbol
_atom_site_label
_atom_site_fract_x
_atom_site_fract_y
_atom_site_fract_z
Si Si1 0.535390 0.953497 0.290212
Si Si2 0.439575 0.818847 0.784425
Si Si3 0.041685 0.389224 0.072124
Si Si4 0.172456 0.477492 0.316982
Si Si5 0.460231 0.407243 0.578891
Si Si6 0.797267 0.265275 0.637543
Si Si7 0.780500 0.066541 0.774839
O O1 0.388534 0.918101 0.267506
O O2 0.500000 0.000000 0.500000
O O3 0.467690 0.097837 0.265472
O O4 0.800906 0.799288 0.112889
O O5 0.601770 0.642655 0.728966
O O6 0.398266 0.773550 0.621758
O O7 0.252881 0.929526 0.028953
O O8 0.805063 0.473005 0.266225
O O9 0.195567 0.383305 0.125759
O O10 0.000000 0.500000 0.000000
O O11 0.120792 0.638301 0.346123
O O12 0.000000 0.500000 0.500000
O O13 0.500000 0.500000 0.500000
O O14 0.557658 0.377083 0.696495
O O15 0.774344 0.210945 0.788301
O O16 0.975658 0.105604 0.406591
#
# Coordination Sequence:
#
# PCOD8036194 Si02
#       7
#     2   2   2   2   2   2   2
#     4  12  27  48  74 107 148 187 247 305 359 435
#     4  12  25  43  75 104 139 190 244 295 360 423
#     4  12  27  46  75 107 141 192 243 296 366 431
#     4  12  24  45  75 105 139 189 240 296 352 435
#     4  12  26  48  69 108 148 188 237 302 363 436
#     4  11  26  48  71 101 156 187 241 296 369 429
#     4  11  26  46  72 106 142 197 239 302 362 430
#
# _framework density 23.424002000000002
#
# number of rings (size 3 to 8) (size 9 to 14) (size 15 to 20)
#    0.000    0.286    4.286    3.857    6.000    2.286 
#    2.571    0.000    0.000    0.000    0.000    0.000 
#    0.000    0.000    0.000    0.000    0.000    0.000 
#
# Total GULP energy -173451.914293 kJ/mol
# GULP energy per Si atom -12389.422449 kJ/mol
# Density = 2.337069 g / cm^3
# Si number density = 23.424002 Si / 1000 Ang^3
#
#
#
# Elastic Constant Matrix: (Units=GPa)
#
#
# Indices 1 2 3 4 5 6 
#
# 1 83.4029 26.5328 36.8828 0.9449 -5.9272 15.4368
# 2 26.5328 131.4512 34.3768 -3.5611 -10.2713 35.0271
# 3 36.8828 34.3768 123.6516 -9.2957 6.5365 9.6373
# 4 0.9449 -3.5611 -9.2957 36.8562 2.3692 -6.9120
# 5 -5.9272 -10.2713 6.5365 2.3692 26.2072 -2.4191
# 6 15.4368 35.0271 9.6373 -6.9120 -2.4191 48.4093
#
#
#
# Elastic Compliance Matrix: (Units=1/GPa)
#
#
# Indices 1 2 3 4 5 6 
#
# 1 0.015175 -0.000673 -0.004468 -0.002527 0.004177 -0.003614
# 2 -0.000673 0.010505 -0.002486 -0.001140 0.004056 -0.006852
# 3 -0.004468 -0.002486 0.010490 0.003076 -0.004756 0.001337
# 4 -0.002527 -0.001140 0.003076 0.029049 -0.003953 0.004969
# 5 0.004177 0.004056 -0.004756 -0.003953 0.042071 -0.001782
# 6 -0.003614 -0.006852 0.001337 0.004969 -0.001782 0.027122
#
#
# Mechanical properties :
#
#
# Convention : Reuss Voigt Hill
#
# Bulk Modulus (GPa) = 47.81371 59.34339 53.57855
# Shear Modulus (GPa) = 31.92093 38.34209 35.13151
#
# Velocity S-wave (km/s) = 3.69554 4.05022 3.87694
# Velocity P-wave (km/s) = 6.21820 6.87472 6.55468
#
# Compressibility (1/GPa) = 0.02091450
#
# Stress axis : x y z
#
# Youngs Moduli (GPa) = 65.89950 95.19170 95.33256
#
# Poissons Ratio (x) = 0.06410 0.42597
# Poissons Ratio (y) = 0.04438 0.23698
# Poissons Ratio (z) = 0.29445 0.23663
#
# Static dielectric constant tensor:
#      x y z
#    x 3.777910 0.364210 0.563710 
#    y 0.364210 4.209490 -0.502300 
#    z 0.563710 -0.502300 3.702420 
# 
# 
# High freq. dielectric constant tensor:
#      x y z
#    x 1.917180 0.006330 0.001290 
#    y 0.006330 1.944760 -0.004310 
#    z 0.001290 -0.004310 1.938170 
# 
# From -- ./inp_files/154150.got.cif
#   From: 2010.06.25/outbox.cif.g09.slc.cpg/sg2_78_cif.got.tgz:154150.got - 2010.06.27 13:26:56.
