data_PCOD8036267
_publ_section_title
;
Structure prediction by ZEFSAII (Michael W. Deem and Ramdas Pophale) SiO2 
 PCOD8036267
Probable space group: P -1
;
_chemical_formula_sum "Si O2"
_cell_formula_units_Z 16
_cell_length_a 15.592945
_cell_length_b 15.479272
_cell_length_c 12.635870
_cell_angle_alpha 56.232266
_cell_angle_beta 142.283035
_cell_angle_gamma 152.158111
_cell_volume 753.256462
_symmetry_space_group_name_H-M "P -1"
_symmetry_group_IT_number 2
_symmetry_cell_setting 'triclinic'
loop_
_space_group_symop_operation_xyz
x,y,z
-x,-y,-z
loop_
_atom_site_type_symbol
_atom_site_label
_atom_site_fract_x
_atom_site_fract_y
_atom_site_fract_z
Si Si1 0.114483 0.168591 0.563026
Si Si2 0.221277 0.587847 0.231299
Si Si3 0.682605 0.757244 0.071049
Si Si4 0.820572 0.077618 0.933299
Si Si5 0.381481 0.968250 0.613401
Si Si6 0.898716 0.731070 0.146622
Si Si7 0.631248 0.501380 0.702808
Si Si8 0.198366 0.820993 0.766932
O O1 0.098701 0.138999 0.693441
O O2 0.453335 0.394751 0.710583
O O3 0.925758 0.144497 0.359360
O O4 0.000000 0.000000 0.500000
O O5 0.438394 0.809865 0.344052
O O6 0.402764 0.628975 0.304501
O O7 0.045848 0.416732 0.269714
O O8 0.000000 0.500000 0.000000
O O9 0.780648 0.762899 0.056450
O O10 0.356233 0.517260 0.945102
O O11 0.690689 0.885705 0.978090
O O12 0.574342 0.003199 0.726642
O O13 0.976185 0.158703 0.919590
O O14 0.035093 0.260595 0.108110
O O15 0.248145 0.835946 0.681249
O O16 0.132723 0.829935 0.382290
O O17 0.500000 0.500000 0.500000
O O18 0.500000 0.000000 0.000000
#
# Coordination Sequence:
#
# PCOD8036267 Si02
#       8
#     2   2   2   2   2   2   2   2
#     4  12  25  42  73 105 139 180 228 290 350 412
#     4  12  25  44  69 104 143 183 219 285 354 416
#     4  11  26  47  74 101 139 182 232 292 344 404
#     4  12  26  46  73 102 138 186 231 288 344 414
#     4  12  27  45  73 102 141 185 234 278 346 424
#     4  11  26  50  69 100 140 183 241 284 339 410
#     4  12  24  42  68 106 141 173 232 282 349 415
#     4  12  25  44  67 101 144 182 221 279 353 414
#
# _framework density 21.241105999999998
#
# number of rings (size 3 to 8) (size 9 to 14) (size 15 to 20)
#    0.000    0.250    6.250    2.250    3.500    2.500 
#    0.000    0.000    0.000    0.000    0.000    0.000 
#    0.000    0.000    0.000    0.000    0.000    0.000 
#
# Total GULP energy -198467.707786 kJ/mol
# GULP energy per Si atom -12404.231737 kJ/mol
# Density = 2.119276 g / cm^3
# Si number density = 21.241106 Si / 1000 Ang^3
#
#
#
# Elastic Constant Matrix: (Units=GPa)
#
#
# Indices 1 2 3 4 5 6 
#
# 1 103.7050 53.3612 22.1346 -5.0866 9.0061 -1.8456
# 2 53.3612 119.8518 43.8879 -11.2962 -3.4565 -9.8246
# 3 22.1346 43.8879 129.5730 -2.8572 3.2767 -14.5989
# 4 -5.0866 -11.2962 -2.8572 30.4598 -1.2673 1.3085
# 5 9.0061 -3.4565 3.2767 -1.2673 42.1866 -6.8741
# 6 -1.8456 -9.8246 -14.5989 1.3085 -6.8741 39.4680
#
#
#
# Elastic Compliance Matrix: (Units=1/GPa)
#
#
# Indices 1 2 3 4 5 6 
#
# 1 0.013031 -0.005932 -0.000310 -0.000131 -0.003507 -0.001588
# 2 -0.005932 0.012688 -0.003040 0.003461 0.002999 0.002164
# 3 -0.000310 -0.003040 0.009087 -0.000455 -0.000492 0.002519
# 4 -0.000131 0.003461 -0.000455 0.034114 0.001337 -0.000211
# 5 -0.003507 0.002999 -0.000492 0.001337 0.025560 0.004808
# 6 -0.001588 0.002164 0.002519 -0.000211 0.004808 0.027578
#
#
# Mechanical properties :
#
#
# Convention : Reuss Voigt Hill
#
# Bulk Modulus (GPa) = 61.56923 65.76636 63.66780
# Shear Modulus (GPa) = 34.23840 38.00597 36.12219
#
# Velocity S-wave (km/s) = 4.01919 4.23456 4.12828
# Velocity P-wave (km/s) = 7.11248 7.41200 7.26378
#
# Compressibility (1/GPa) = 0.01624188
#
# Stress axis : x y z
#
# Youngs Moduli (GPa) = 76.74022 78.81502 110.05326
#
# Poissons Ratio (x) = 0.46752 0.03412
# Poissons Ratio (y) = 0.45521 0.33455
# Poissons Ratio (z) = 0.02379 0.23959
#
# Static dielectric constant tensor:
#      x y z
#    x 3.761210 0.262380 -0.044290 
#    y 0.262380 3.850130 -0.092470 
#    z -0.044290 -0.092470 3.863960 
# 
# 
# High freq. dielectric constant tensor:
#      x y z
#    x 1.845450 0.006410 0.006440 
#    y 0.006410 1.839520 -0.001990 
#    z 0.006440 -0.001990 1.844620 
# 
# From -- ./inp_files/382373.got.cif
#   From: 2010.06.25/outbox.cif.g09.slc.cpg/sg2_192_cif.got.tgz:382373.got - 2010.06.27 13:26:56.
