data_PCOD8036881
_publ_section_title
;
Structure prediction by ZEFSAII (Michael W. Deem and Ramdas Pophale) SiO2 
 PCOD8036881
Probable space group: P -1
;
_chemical_formula_sum "Si O2"
_cell_formula_units_Z 16
_cell_length_a 10.056524
_cell_length_b 9.598961
_cell_length_c 10.826215
_cell_angle_alpha 95.903467
_cell_angle_beta 91.007911
_cell_angle_gamma 136.336843
_cell_volume 711.244918
_symmetry_space_group_name_H-M "P -1"
_symmetry_group_IT_number 2
_symmetry_cell_setting 'triclinic'
loop_
_space_group_symop_operation_xyz
x,y,z
-x,-y,-z
loop_
_atom_site_type_symbol
_atom_site_label
_atom_site_fract_x
_atom_site_fract_y
_atom_site_fract_z
Si Si1 0.517487 0.142018 0.922643
Si Si2 0.171302 0.805114 0.730400
Si Si3 0.931093 0.743678 0.274668
Si Si4 0.161998 0.365546 0.453120
Si Si5 0.454213 0.567315 0.896169
Si Si6 0.699694 0.797922 0.683452
Si Si7 0.586056 0.195853 0.441152
Si Si8 0.079919 0.575383 0.145002
O O1 0.686523 0.251428 0.834581
O O2 0.318344 0.015293 0.831252
O O3 0.578427 0.309062 0.031863
O O4 0.500000 0.000000 0.000000
O O5 0.294635 0.773529 0.669786
O O6 0.053710 0.803661 0.626230
O O7 0.004962 0.619777 0.799803
O O8 0.865630 0.674270 0.406706
O O9 0.741032 0.638877 0.186843
O O10 0.026608 0.677746 0.218546
O O11 0.078229 0.984247 0.282881
O O12 0.300570 0.347883 0.405098
O O13 0.268561 0.598050 0.453503
O O14 0.624073 0.707810 0.810930
O O15 0.500000 0.500000 0.000000
O O16 0.579173 0.826840 0.614826
O O17 0.500000 0.000000 0.500000
O O18 0.000000 0.500000 0.000000
#
# Coordination Sequence:
#
# PCOD8036881 Si02
#       8
#     2   2   2   2   2   2   2   2
#     4  12  25  47  73 108 148 196 253 307 378 441
#     4  12  27  44  75 114 148 191 258 313 372 459
#     4  12  25  50  78 106 154 197 251 313 383 449
#     4  12  28  50  76 113 158 197 252 317 388 454
#     4  12  29  48  75 109 154 199 254 310 369 462
#     4  12  28  50  78 109 157 207 244 316 390 449
#     4  12  26  49  80 112 151 200 255 312 382 456
#     4  12  23  43  75 108 147 195 246 315 374 435
#
# _framework density 22.495768000000002
#
# number of rings (size 3 to 8) (size 9 to 14) (size 15 to 20)
#    0.000    0.000    5.000    4.125    7.000    0.500 
#    0.000    0.000    0.000    0.000    0.000    0.000 
#    0.000    0.000    0.000    0.000    0.000    0.000 
#
# Total GULP energy -198459.595618 kJ/mol
# GULP energy per Si atom -12403.724726 kJ/mol
# Density = 2.244457 g / cm^3
# Si number density = 22.495768 Si / 1000 Ang^3
#
#
#
# Elastic Constant Matrix: (Units=GPa)
#
#
# Indices 1 2 3 4 5 6 
#
# 1 115.1858 48.3266 65.2943 -7.3563 5.6194 3.9747
# 2 48.3266 116.8631 22.4601 -32.4791 36.5620 13.7607
# 3 65.2943 22.4601 107.3249 -29.5678 34.1507 -1.6873
# 4 -7.3563 -32.4791 -29.5678 26.9410 32.4552 -1.3492
# 5 5.6194 36.5620 34.1507 32.4552 19.7340 14.3967
# 6 3.9747 13.7607 -1.6873 -1.3492 14.3967 35.5712
#
#
#
# Elastic Compliance Matrix: (Units=1/GPa)
#
#
# Indices 1 2 3 4 5 6 
#
# 1 0.011593 -0.000911 -0.003415 0.005557 -0.005946 0.001512
# 2 -0.000911 0.007099 -0.004392 -0.004678 0.006544 -0.005679
# 3 -0.003415 -0.004392 0.007867 -0.007059 0.007817 -0.000978
# 4 0.005557 -0.004678 -0.007059 0.003758 0.017585 -0.006121
# 5 -0.005946 0.006544 0.007817 0.017585 -0.002271 0.000090
# 6 0.001512 -0.005679 -0.000978 -0.006121 0.000090 0.029826
#
#
# Mechanical properties :
#
#
# Convention : Reuss Voigt Hill
#
# Bulk Modulus (GPa) = 109.61841 67.94842 88.78341
# Shear Modulus (GPa) = 63.81809 30.00208 46.91008
#
# Velocity S-wave (km/s) = 5.33203 3.65592 4.57145
# Velocity P-wave (km/s) = 9.31352 6.93480 8.21076
#
# Compressibility (1/GPa) = 0.00912256
#
# Stress axis : x y z
#
# Youngs Moduli (GPa) = 86.26157 140.86635 127.11009
#
# Poissons Ratio (x) = 0.12832 0.43413
# Poissons Ratio (y) = 0.07858 0.55824
# Poissons Ratio (z) = 0.29462 0.61866
#
# Static dielectric constant tensor:
#      x y z
#    x 4.097400 0.530500 0.006750 
#    y 0.530500 5.016940 0.367530 
#    z 0.006750 0.367530 4.428800 
# 
# 
# High freq. dielectric constant tensor:
#      x y z
#    x 1.886070 0.011770 -0.004060 
#    y 0.011770 1.901930 0.004520 
#    z -0.004060 0.004520 1.904180 
# 
# From -- ./inp_files/382615.got.cif
#   From: 2010.06.25/outbox.cif.g09.slc.cpg/sg2_192_cif.got.tgz:382615.got - 2010.06.27 13:26:56.
