data_PCOD8036287
_publ_section_title
;
Structure prediction by ZEFSAII (Michael W. Deem and Ramdas Pophale) SiO2 
 PCOD8036287
Probable space group: P -1
;
_chemical_formula_sum "Si O2"
_cell_formula_units_Z 16
_cell_length_a 9.029043
_cell_length_b 15.496017
_cell_length_c 8.595941
_cell_angle_alpha 111.372349
_cell_angle_beta 83.989659
_cell_angle_gamma 47.934394
_cell_volume 717.821437
_symmetry_space_group_name_H-M "P -1"
_symmetry_group_IT_number 2
_symmetry_cell_setting 'triclinic'
loop_
_space_group_symop_operation_xyz
x,y,z
-x,-y,-z
loop_
_atom_site_type_symbol
_atom_site_label
_atom_site_fract_x
_atom_site_fract_y
_atom_site_fract_z
Si Si1 0.346340 0.676808 0.871426
Si Si2 0.956306 0.969196 0.265066
Si Si3 0.563115 0.195038 0.240324
Si Si4 0.886000 0.569571 0.392148
Si Si5 0.946160 0.349136 0.076540
Si Si6 0.890810 0.911607 0.551005
Si Si7 0.838839 0.395358 0.760803
Si Si8 0.467262 0.094128 0.937888
O O1 0.409525 0.708823 0.735846
O O2 0.187285 0.667274 0.822241
O O3 0.572337 0.530449 0.834364
O O4 0.205294 0.806734 0.095984
O O5 0.836264 0.970807 0.420370
O O6 0.797227 0.036640 0.173407
O O7 0.979084 0.067044 0.362314
O O8 0.374301 0.271866 0.446948
O O9 0.486721 0.183574 0.080141
O O10 0.876429 0.481303 0.235649
O O11 0.000000 0.500000 0.500000
O O12 0.023849 0.579082 0.286914
O O13 0.858059 0.377247 0.930594
O O14 0.219005 0.202663 0.957052
O O15 0.057261 0.743749 0.427126
O O16 0.652804 0.997308 0.716756
O O17 0.500000 0.000000 0.000000
#
# Coordination Sequence:
#
# PCOD8036287 Si02
#       8
#     2   2   2   2   2   2   2   2
#     4  12  25  48  76 106 147 190 245 296 363 426
#     4  11  26  47  76 109 145 192 244 300 357 430
#     4  12  26  47  76 103 150 192 242 298 359 434
#     4  12  26  49  69 108 144 189 241 296 364 428
#     4  12  28  45  75 105 145 193 240 297 366 424
#     4  11  27  46  76 109 146 188 246 295 363 423
#     4  12  27  49  75 106 148 188 242 303 358 436
#     4  12  26  45  72 104 148 192 238 297 358 433
#
# _framework density 22.289666
#
# number of rings (size 3 to 8) (size 9 to 14) (size 15 to 20)
#    0.000    0.250    5.000    2.625    5.250    2.000 
#    0.000    0.000    0.000    0.000    0.000    0.000 
#    0.000    0.000    0.000    0.000    0.000    0.000 
#
# Total GULP energy -198504.952203 kJ/mol
# GULP energy per Si atom -12406.559513 kJ/mol
# Density = 2.223893 g / cm^3
# Si number density = 22.289666 Si / 1000 Ang^3
#
#
#
# Elastic Constant Matrix: (Units=GPa)
#
#
# Indices 1 2 3 4 5 6 
#
# 1 138.4690 54.6767 50.3331 16.4620 -5.2490 9.0548
# 2 54.6767 115.9154 37.0813 20.7572 -8.1949 -16.5342
# 3 50.3331 37.0813 113.2956 29.7346 -5.6505 -9.8459
# 4 16.4620 20.7572 29.7346 39.4712 9.4290 -2.6003
# 5 -5.2490 -8.1949 -5.6505 9.4290 43.2123 8.5283
# 6 9.0548 -16.5342 -9.8459 -2.6003 8.5283 43.8379
#
#
#
# Elastic Compliance Matrix: (Units=1/GPa)
#
#
# Indices 1 2 3 4 5 6 
#
# 1 0.010686 -0.004527 -0.003692 0.000170 0.000888 -0.004906
# 2 -0.004527 0.012526 -0.000386 -0.004507 0.001780 0.004959
# 3 -0.003692 -0.000386 0.013220 -0.008666 0.002591 0.002568
# 4 0.000170 -0.004507 -0.008666 0.036589 -0.010038 0.000442
# 5 0.000888 0.001780 0.002591 -0.010038 0.027061 -0.004790
# 6 -0.004906 0.004959 0.002568 0.000442 -0.004790 0.027230
#
#
# Mechanical properties :
#
#
# Convention : Reuss Voigt Hill
#
# Bulk Modulus (GPa) = 52.02615 72.42914 62.22765
# Shear Modulus (GPa) = 33.12792 40.34355 36.73573
#
# Velocity S-wave (km/s) = 3.85937 4.25899 4.06409
# Velocity P-wave (km/s) = 6.57657 7.53328 7.07112
#
# Compressibility (1/GPa) = 0.01922110
#
# Stress axis : x y z
#
# Youngs Moduli (GPa) = 93.58236 79.83395 75.64310
#
# Poissons Ratio (x) = 0.36139 0.27931
# Poissons Ratio (y) = 0.42363 0.02920
# Poissons Ratio (z) = 0.34555 0.03082
#
# Static dielectric constant tensor:
#      x y z
#    x 4.172230 0.077400 -0.155720 
#    y 0.077400 3.941930 0.048010 
#    z -0.155720 0.048010 4.210090 
# 
# 
# High freq. dielectric constant tensor:
#      x y z
#    x 1.895100 0.011860 -0.008620 
#    y 0.011860 1.883560 0.006870 
#    z -0.008620 0.006870 1.883620 
# 
# From -- ./inp_files/206943.got.cif
#   From: 2010.06.25/outbox.cif.g09.slc.cpg/sg2_104_cif.got.tgz:206943.got - 2010.06.27 13:26:56.
