data_PCOD8036802
_publ_section_title
;
Structure prediction by ZEFSAII (Michael W. Deem and Ramdas Pophale) SiO2 
 PCOD8036802
Probable space group: P -1
;
_chemical_formula_sum "Si O2"
_cell_formula_units_Z 12
_cell_length_a 11.366467
_cell_length_b 11.366572
_cell_length_c 12.665094
_cell_angle_alpha 82.951257
_cell_angle_beta 67.299901
_cell_angle_gamma 25.721571
_cell_volume 541.956343
_symmetry_space_group_name_H-M "P -1"
_symmetry_group_IT_number 2
_symmetry_cell_setting 'triclinic'
loop_
_space_group_symop_operation_xyz
x,y,z
-x,-y,-z
loop_
_atom_site_type_symbol
_atom_site_label
_atom_site_fract_x
_atom_site_fract_y
_atom_site_fract_z
Si Si1 0.709322 0.122449 0.356624
Si Si2 0.734772 0.293565 0.632511
Si Si3 0.801514 0.641670 0.446148
Si Si4 0.220173 0.183801 0.157388
Si Si5 0.649905 0.589675 0.149734
Si Si6 0.135965 0.771250 0.046062
O O1 0.547174 0.395085 0.377332
O O2 0.385671 0.321840 0.481038
O O3 0.033537 0.823387 0.358034
O O4 0.849988 0.977830 0.207166
O O5 0.553598 0.353362 0.759857
O O6 0.000000 0.000000 0.500000
O O7 0.000000 0.500000 0.500000
O O8 0.070114 0.401517 0.278021
O O9 0.500000 0.000000 0.500000
O O10 0.894526 0.419478 0.177769
O O11 0.394841 0.919490 0.179870
O O12 0.500000 0.000000 0.000000
O O13 0.854226 0.364863 0.001392
O O14 0.500000 0.500000 0.000000
O O15 0.000000 0.000000 0.000000
#
# Coordination Sequence:
#
# PCOD8036802 Si02
#       6
#     2   2   2   2   2   2
#     4  12  24  43  67  99 136 172 225 276 338 410
#     4  12  23  41  68  98 132 174 213 280 346 404
#     4  12  28  49  71  99 137 183 232 284 338 402
#     4  12  28  47  71 101 134 184 235 280 338 401
#     4  12  24  44  70 100 140 172 225 283 336 407
#     4  12  23  42  67 106 136 176 220 269 344 410
#
# _framework density 22.142005000000001
#
# number of rings (size 3 to 8) (size 9 to 14) (size 15 to 20)
#    0.000    0.000    3.333    7.000    4.667    0.000 
#    0.000    0.000    0.000    0.000    0.000    0.000 
#    0.000    0.000    0.000    0.000    0.000    0.000 
#
# Total GULP energy -148735.982681 kJ/mol
# GULP energy per Si atom -12394.665223 kJ/mol
# Density = 2.209161 g / cm^3
# Si number density = 22.142005 Si / 1000 Ang^3
#
#
#
# Elastic Constant Matrix: (Units=GPa)
#
#
# Indices 1 2 3 4 5 6 
#
# 1 102.5002 47.7109 37.6222 1.0493 17.6123 -10.0389
# 2 47.7109 166.7395 17.7910 3.1505 10.6304 0.5577
# 3 37.6222 17.7910 143.8607 10.4413 15.6371 1.5221
# 4 1.0493 3.1505 10.4413 30.8547 7.5851 6.1181
# 5 17.6123 10.6304 15.6371 7.5851 58.2389 3.2920
# 6 -10.0389 0.5577 1.5221 6.1181 3.2920 55.7090
#
#
#
# Elastic Compliance Matrix: (Units=1/GPa)
#
#
# Indices 1 2 3 4 5 6 
#
# 1 0.013036 -0.003277 -0.002794 0.001045 -0.002872 0.002513
# 2 -0.003277 0.006952 0.000058 -0.000450 -0.000201 -0.000600
# 3 -0.002794 0.000058 0.007951 -0.002279 -0.000980 -0.000413
# 4 0.001045 -0.000450 -0.002279 0.034829 -0.003970 -0.003335
# 5 -0.002872 -0.000201 -0.000980 -0.003970 0.018922 -0.001171
# 6 0.002513 -0.000600 -0.000413 -0.003335 -0.001171 0.018856
#
#
# Mechanical properties :
#
#
# Convention : Reuss Voigt Hill
#
# Bulk Modulus (GPa) = 62.84153 68.81652 65.82902
# Shear Modulus (GPa) = 42.41720 49.62560 46.02140
#
# Velocity S-wave (km/s) = 4.38161 4.73931 4.56397
# Velocity P-wave (km/s) = 7.35124 7.81634 7.58736
#
# Compressibility (1/GPa) = 0.01591304
#
# Stress axis : x y z
#
# Youngs Moduli (GPa) = 76.71104 143.83953 125.77026
#
# Poissons Ratio (x) = 0.47136 0.35141
# Poissons Ratio (y) = 0.25138 -0.00730
# Poissons Ratio (z) = 0.21434 -0.00835
#
# Static dielectric constant tensor:
#      x y z
#    x 4.029550 -0.101740 0.141600 
#    y -0.101740 4.206410 -0.081080 
#    z 0.141600 -0.081080 4.326680 
# 
# 
# High freq. dielectric constant tensor:
#      x y z
#    x 1.869590 -0.002270 0.012540 
#    y -0.002270 1.893580 0.003660 
#    z 0.012540 0.003660 1.893860 
# 
# From -- ./inp_files/424107.got.cif
#   From: 2010.06.25/outbox.cif.g09.slc.cpg/sg2_213_cif.got.tgz:424107.got - 2010.06.27 13:26:56.
