data_PCOD8036697
_publ_section_title
;
Structure prediction by ZEFSAII (Michael W. Deem and Ramdas Pophale) SiO2 
 PCOD8036697
Probable space group: P -1
;
_chemical_formula_sum "Si O2"
_cell_formula_units_Z 16
_cell_length_a 15.664228
_cell_length_b 4.988472
_cell_length_c 9.882445
_cell_angle_alpha 89.372015
_cell_angle_beta 80.784289
_cell_angle_gamma 72.247777
_cell_volume 725.367600
_symmetry_space_group_name_H-M "P -1"
_symmetry_group_IT_number 2
_symmetry_cell_setting 'triclinic'
loop_
_space_group_symop_operation_xyz
x,y,z
-x,-y,-z
loop_
_atom_site_type_symbol
_atom_site_label
_atom_site_fract_x
_atom_site_fract_y
_atom_site_fract_z
Si Si1 0.704351 0.779600 0.829430
Si Si2 0.191198 0.247774 0.939857
Si Si3 0.657668 0.886813 0.302882
Si Si4 0.912140 0.135940 0.431435
Si Si5 0.084001 0.852542 0.885314
Si Si6 0.581229 0.399073 0.873942
Si Si7 0.459803 0.499716 0.655341
Si Si8 0.791674 0.747480 0.514719
O O1 0.790999 0.749202 0.904594
O O2 0.662421 0.530801 0.876169
O O3 0.742735 0.759813 0.669541
O O4 0.624224 0.065399 0.875502
O O5 0.284500 0.235799 0.843242
O O6 0.111527 0.521640 0.911351
O O7 0.165751 0.971916 0.903602
O O8 0.570388 0.778573 0.319134
O O9 0.715603 0.768802 0.421747
O O10 0.626034 0.224198 0.303663
O O11 0.940531 0.092873 0.266869
O O12 0.874475 0.463915 0.475835
O O13 0.832367 0.004692 0.487827
O O14 0.000000 0.000000 0.500000
O O15 0.000000 0.000000 0.000000
O O16 0.540678 0.490315 0.736422
O O17 0.500000 0.500000 0.000000
O O18 0.500000 0.500000 0.500000
#
# Coordination Sequence:
#
# PCOD8036697 Si02
#       8
#     2   2   2   2   2   2   2   2
#     4  12  26  43  69 100 137 180 224 278 334 395
#     4  12  25  45  69 100 132 180 226 266 335 393
#     4  12  22  43  65  94 129 176 220 272 326 391
#     4  12  26  46  71 101 136 178 216 274 341 395
#     4  12  26  46  71 101 136 173 224 276 327 402
#     4  12  24  45  64  99 137 178 227 277 337 394
#     4  12  24  39  66  95 129 172 221 273 331 386
#     4  12  25  45  69 100 140 174 226 274 331 407
#
# _framework density 22.057783000000001
#
# number of rings (size 3 to 8) (size 9 to 14) (size 15 to 20)
#    0.000    0.000    2.500    8.250    3.500    0.000 
#    0.000    0.000    0.000    0.000    0.000    0.000 
#    0.000    0.000    0.000    0.000    0.000    0.000 
#
# Total GULP energy -198550.847780 kJ/mol
# GULP energy per Si atom -12409.427986 kJ/mol
# Density = 2.200758 g / cm^3
# Si number density = 22.057783 Si / 1000 Ang^3
#
#
#
# Elastic Constant Matrix: (Units=GPa)
#
#
# Indices 1 2 3 4 5 6 
#
# 1 73.1322 18.6837 36.1035 1.2925 7.7803 -4.9967
# 2 18.6837 85.9840 17.3767 0.7147 7.8625 -3.1916
# 3 36.1035 17.3767 127.7216 1.1568 1.7823 -2.3607
# 4 1.2925 0.7147 1.1568 31.1852 -6.3764 3.0115
# 5 7.7803 7.8625 1.7823 -6.3764 51.2423 -9.7524
# 6 -4.9967 -3.1916 -2.3607 3.0115 -9.7524 35.0602
#
#
#
# Elastic Compliance Matrix: (Units=1/GPa)
#
#
# Indices 1 2 3 4 5 6 
#
# 1 0.016776 -0.002538 -0.004335 -0.000995 -0.001857 0.001437
# 2 -0.002538 0.012528 -0.000956 -0.000486 -0.001500 0.000339
# 3 -0.004335 -0.000956 0.009180 -0.000044 0.000490 0.000053
# 4 -0.000995 -0.000486 -0.000044 0.033121 0.003982 -0.001926
# 5 -0.001857 -0.001500 0.000490 0.003982 0.021509 0.005273
# 6 0.001437 0.000339 0.000053 -0.001926 0.005273 0.030394
#
#
# Mechanical properties :
#
#
# Convention : Reuss Voigt Hill
#
# Bulk Modulus (GPa) = 43.80867 47.90730 45.85798
# Shear Modulus (GPa) = 34.06614 37.80914 35.93764
#
# Velocity S-wave (km/s) = 3.93415 4.14465 4.04078
# Velocity P-wave (km/s) = 6.36716 6.68359 6.52729
#
# Compressibility (1/GPa) = 0.02282653
#
# Stress axis : x y z
#
# Youngs Moduli (GPa) = 59.60975 79.81886 108.93768
#
# Poissons Ratio (x) = 0.20256 0.47228
# Poissons Ratio (y) = 0.15127 0.10410
# Poissons Ratio (z) = 0.25843 0.07627
#
# Static dielectric constant tensor:
#      x y z
#    x 3.816760 -0.080860 0.117870 
#    y -0.080860 3.997400 0.172730 
#    z 0.117870 0.172730 4.207140 
# 
# 
# High freq. dielectric constant tensor:
#      x y z
#    x 1.872140 0.002830 0.003610 
#    y 0.002830 1.883510 0.000690 
#    z 0.003610 0.000690 1.886580 
# 
# From -- ./inp_files/288824.got.cif
#   From: 2010.06.25/outbox.cif.g09.slc.cpg/sg2_145_cif.got.tgz:288824.got - 2010.06.27 13:26:56.
