data_PCOD8036009
_publ_section_title
;
Structure prediction by ZEFSAII (Michael W. Deem and Ramdas Pophale) SiO2 
 PCOD8036009
Probable space group: P -1
;
_chemical_formula_sum "Si O2"
_cell_formula_units_Z 14
_cell_length_a 8.479743
_cell_length_b 18.917307
_cell_length_c 6.810419
_cell_angle_alpha 105.208889
_cell_angle_beta 125.397202
_cell_angle_gamma 46.545006
_cell_volume 629.141194
_symmetry_space_group_name_H-M "P -1"
_symmetry_group_IT_number 2
_symmetry_cell_setting 'triclinic'
loop_
_space_group_symop_operation_xyz
x,y,z
-x,-y,-z
loop_
_atom_site_type_symbol
_atom_site_label
_atom_site_fract_x
_atom_site_fract_y
_atom_site_fract_z
Si Si1 0.253773 0.569153 0.023807
Si Si2 0.945198 0.048113 0.206855
Si Si3 0.216894 0.050185 0.743800
Si Si4 0.052313 0.730421 0.294317
Si Si5 0.194157 0.390235 0.473857
Si Si6 0.396047 0.264321 0.899264
Si Si7 0.578650 0.606672 0.737882
O O1 0.207520 0.658116 0.163512
O O2 0.278824 0.503120 0.167023
O O3 0.500000 0.500000 0.000000
O O4 0.980677 0.628160 0.759102
O O5 0.183500 0.034934 0.474330
O O6 0.888273 0.992849 0.254888
O O7 0.691695 0.165580 0.093878
O O8 0.000000 0.000000 0.000000
O O9 0.028567 0.166548 0.742031
O O10 0.500000 0.000000 0.000000
O O11 0.262931 0.677875 0.587064
O O12 0.799483 0.751798 0.205955
O O13 0.381527 0.298037 0.691873
O O14 0.372561 0.389820 0.452636
O O15 0.000000 0.500000 0.500000
O O16 0.304335 0.356021 0.030595
#
# Coordination Sequence:
#
# PCOD8036009 Si02
#       7
#     2   2   2   2   2   2   2
#     4  12  25  44  70 108 145 189 240 290 350 423
#     4  11  27  47  76 105 142 186 239 302 364 433
#     4  11  25  49  75 105 144 186 241 300 366 425
#     4  12  25  45  72 102 143 187 232 297 353 421
#     4  12  24  42  70 100 142 190 234 284 344 419
#     4  12  25  46  71 103 140 188 233 285 361 423
#     4  12  25  46  70 100 147 187 233 288 348 421
#
# _framework density 22.252556999999999
#
# number of rings (size 3 to 8) (size 9 to 14) (size 15 to 20)
#    0.000    0.286    5.714    3.429    2.000    1.714 
#    2.571    0.000    0.000    0.000    0.000    0.000 
#    0.000    0.000    0.000    0.000    0.000    0.000 
#
# Total GULP energy -173486.273922 kJ/mol
# GULP energy per Si atom -12391.876709 kJ/mol
# Density = 2.220191 g / cm^3
# Si number density = 22.252557 Si / 1000 Ang^3
#
#
#
# Elastic Constant Matrix: (Units=GPa)
#
#
# Indices 1 2 3 4 5 6 
#
# 1 79.6654 21.1643 60.8021 3.1905 -0.1268 -0.2627
# 2 21.1643 139.5487 64.6961 -0.1748 -5.5477 13.3044
# 3 60.8021 64.6961 162.1143 -1.1847 9.0353 7.7028
# 4 3.1905 -0.1748 -1.1847 34.5291 1.7039 -4.2608
# 5 -0.1268 -5.5477 9.0353 1.7039 47.8277 0.4016
# 6 -0.2627 13.3044 7.7028 -4.2608 0.4016 28.1730
#
#
#
# Elastic Compliance Matrix: (Units=1/GPa)
#
#
# Indices 1 2 3 4 5 6 
#
# 1 0.017906 0.000469 -0.007074 -0.001772 0.001488 0.001590
# 2 0.000469 0.009267 -0.003818 -0.000645 0.001849 -0.003452
# 3 -0.007074 -0.003818 0.010536 0.001000 -0.002480 -0.000957
# 4 -0.001772 -0.000645 0.001000 0.029783 -0.001368 0.004538
# 5 0.001488 0.001849 -0.002480 -0.001368 0.021650 -0.000697
# 6 0.001590 -0.003452 -0.000957 0.004538 -0.000697 0.038098
#
#
# Mechanical properties :
#
#
# Convention : Reuss Voigt Hill
#
# Bulk Modulus (GPa) = 59.30173 74.96148 67.13161
# Shear Modulus (GPa) = 32.52950 37.75035 35.13993
#
# Velocity S-wave (km/s) = 3.82754 4.12327 3.97815
# Velocity P-wave (km/s) = 6.80005 7.51187 7.16481
#
# Compressibility (1/GPa) = 0.01686291
#
# Stress axis : x y z
#
# Youngs Moduli (GPa) = 55.84807 107.91467 94.90856
#
# Poissons Ratio (x) = -0.05067 0.67143
# Poissons Ratio (y) = -0.02622 0.36236
# Poissons Ratio (z) = 0.39510 0.41201
#
# Static dielectric constant tensor:
#      x y z
#    x 3.826450 0.178940 -0.369030 
#    y 0.178940 4.215730 -0.947860 
#    z -0.369030 -0.947860 12.640090 
# 
# 
# High freq. dielectric constant tensor:
#      x y z
#    x 1.866940 0.014150 0.016570 
#    y 0.014150 1.881790 -0.002400 
#    z 0.016570 -0.002400 1.902730 
# 
# From -- ./inp_files/46432.got.cif
#   From: 2010.06.25/outbox.cif.g09.slc.cpg/sg2_24_cif.got.tgz:46432.got - 2010.06.27 13:26:56.
