data_PCOD8036252
_publ_section_title
;
Structure prediction by ZEFSAII (Michael W. Deem and Ramdas Pophale) SiO2 
 PCOD8036252
Probable space group: P -1
;
_chemical_formula_sum "Si O2"
_cell_formula_units_Z 16
_cell_length_a 11.526341
_cell_length_b 15.037849
_cell_length_c 8.874747
_cell_angle_alpha 84.030110
_cell_angle_beta 58.850225
_cell_angle_gamma 40.953521
_cell_volume 741.697996
_symmetry_space_group_name_H-M "P -1"
_symmetry_group_IT_number 2
_symmetry_cell_setting 'triclinic'
loop_
_space_group_symop_operation_xyz
x,y,z
-x,-y,-z
loop_
_atom_site_type_symbol
_atom_site_label
_atom_site_fract_x
_atom_site_fract_y
_atom_site_fract_z
Si Si1 0.593746 0.614441 0.528235
Si Si2 0.735554 0.973739 0.994435
Si Si3 0.467546 0.143836 0.431907
Si Si4 0.008806 0.729643 0.624502
Si Si5 0.831005 0.098995 0.797809
Si Si6 0.716932 0.242074 0.557620
Si Si7 0.835224 0.226790 0.037345
Si Si8 0.880054 0.815000 0.349838
O O1 0.576373 0.726953 0.570603
O O2 0.865977 0.433997 0.401997
O O3 0.527783 0.640739 0.391384
O O4 0.428227 0.638370 0.736815
O O5 0.785317 0.862099 0.869309
O O6 0.672311 0.094786 0.914634
O O7 0.976648 0.873960 0.936275
O O8 0.526161 0.070292 0.238553
O O9 0.228293 0.220672 0.629993
O O10 0.688186 0.999667 0.418868
O O11 0.194192 0.706804 0.545703
O O12 0.930614 0.782762 0.496905
O O13 0.684950 0.244738 0.758279
O O14 0.868240 0.121756 0.931637
O O15 0.096769 0.934824 0.588817
O O16 0.881333 0.290327 0.889601
#
# Coordination Sequence:
#
# PCOD8036252 Si02
#       8
#     2   2   2   2   2   2   2   2
#     4  12  23  37  62  92 122 160 193 243 299 365
#     4  10  20  34  62  91 117 153 197 254 294 346
#     4  10  23  42  65  87 114 159 211 241 292 350
#     4  11  23  37  58  91 127 156 189 247 310 348
#     4  10  17  31  56  92 111 154 190 254 285 339
#     4  10  20  32  56  88 126 148 194 242 308 341
#     4  11  19  34  60  88 123 148 203 240 298 342
#     4  10  23  41  62  88 119 160 199 252 288 352
#
# _framework density 21.572123000000001
#
# number of rings (size 3 to 8) (size 9 to 14) (size 15 to 20)
#    0.000    1.500    5.000    2.250    3.500    1.500 
#    0.000    0.000    0.000    6.750    0.000    0.000 
#    0.000    0.000    0.000    0.000    0.000    0.000 
#
# Total GULP energy -198284.691419 kJ/mol
# GULP energy per Si atom -12392.793214 kJ/mol
# Density = 2.152302 g / cm^3
# Si number density = 21.572123 Si / 1000 Ang^3
#
#
#
# Elastic Constant Matrix: (Units=GPa)
#
#
# Indices 1 2 3 4 5 6 
#
# 1 55.6187 28.6221 26.8751 -6.5995 1.2168 5.6583
# 2 28.6221 106.5974 45.1351 -15.7504 9.6890 5.3994
# 3 26.8751 45.1351 48.9513 -12.1236 0.8671 -1.1696
# 4 -6.5995 -15.7504 -12.1236 20.3672 -5.1101 8.0061
# 5 1.2168 9.6890 0.8671 -5.1101 34.5687 -11.1760
# 6 5.6583 5.3994 -1.1696 8.0061 -11.1760 18.0910
#
#
#
# Elastic Compliance Matrix: (Units=1/GPa)
#
#
# Indices 1 2 3 4 5 6 
#
# 1 0.026784 0.000976 -0.014521 0.005481 -0.004914 -0.015068
# 2 0.000976 0.018944 -0.015777 0.009983 -0.008944 -0.016923
# 3 -0.014521 -0.015777 0.044636 0.006018 0.009704 0.015467
# 4 0.005481 0.009983 0.006018 0.077269 -0.005207 -0.041717
# 5 -0.004914 -0.008944 0.009704 -0.005207 0.041113 0.032536
# 6 -0.015068 -0.016923 0.015467 -0.041717 0.032536 0.104601
#
#
# Mechanical properties :
#
#
# Convention : Reuss Voigt Hill
#
# Bulk Modulus (GPa) = 31.52418 45.82576 38.67497
# Shear Modulus (GPa) = 13.06967 21.97440 17.52204
#
# Velocity S-wave (km/s) = 2.46409 3.19509 2.85310
# Velocity P-wave (km/s) = 4.76873 5.90768 5.36849
#
# Compressibility (1/GPa) = 0.03172168
#
# Stress axis : x y z
#
# Youngs Moduli (GPa) = 37.33509 52.78623 22.40361
#
# Poissons Ratio (x) = -0.05153 0.32532
# Poissons Ratio (y) = -0.03645 0.35346
# Poissons Ratio (z) = 0.54214 0.83280
#
# Static dielectric constant tensor:
#      x y z
#    x 3.736360 0.080380 0.097270 
#    y 0.080380 3.750550 -0.353810 
#    z 0.097270 -0.353810 4.104810 
# 
# 
# High freq. dielectric constant tensor:
#      x y z
#    x 1.835950 0.003700 0.016350 
#    y 0.003700 1.825880 -0.031400 
#    z 0.016350 -0.031400 1.835300 
# 
# From -- ./inp_files/259133.got.cif
#   From: 2010.06.25/outbox.cif.g09.slc.cpg/sg2_130_cif.got.tgz:259133.got - 2010.06.27 13:26:56.
