data_PCOD8036652
_publ_section_title
;
Structure prediction by ZEFSAII (Michael W. Deem and Ramdas Pophale) SiO2 
 PCOD8036652
Probable space group: P -1
;
_chemical_formula_sum "Si O2"
_cell_formula_units_Z 14
_cell_length_a 7.192659
_cell_length_b 12.731165
_cell_length_c 8.004439
_cell_angle_alpha 126.628748
_cell_angle_beta 69.327943
_cell_angle_gamma 80.130075
_cell_volume 473.790106
_symmetry_space_group_name_H-M "P -1"
_symmetry_group_IT_number 2
_symmetry_cell_setting 'triclinic'
loop_
_space_group_symop_operation_xyz
x,y,z
-x,-y,-z
loop_
_atom_site_type_symbol
_atom_site_label
_atom_site_fract_x
_atom_site_fract_y
_atom_site_fract_z
Si Si1 0.741336 0.596335 0.054770
Si Si2 0.770319 0.865918 0.856558
Si Si3 0.162449 0.439406 0.547112
Si Si4 0.057742 0.918715 0.578128
Si Si5 0.250011 0.689420 0.729753
Si Si6 0.657450 0.350492 0.972562
Si Si7 0.450793 0.853481 0.613561
O O1 0.987129 0.492721 0.167203
O O2 0.596949 0.629149 0.957609
O O3 0.673725 0.752356 0.327449
O O4 0.658989 0.506756 0.117811
O O5 0.709377 0.747243 0.668602
O O6 0.834113 0.956914 0.790686
O O7 0.987816 0.771750 0.821620
O O8 0.544201 0.009047 0.153984
O O9 0.338142 0.504575 0.528387
O O10 0.000000 0.500000 0.500000
O O11 0.192398 0.739010 0.322385
O O12 0.224478 0.954573 0.668380
O O13 0.000000 0.000000 0.500000
O O14 0.414399 0.730545 0.613637
O O15 0.239070 0.742077 0.975531
#
# Coordination Sequence:
#
# PCOD8036652 Si02
#       7
#     2   2   2   2   2   2   2
#     4  10  22  40  59  92 126 166 197 264 302 371
#     4  10  19  38  59  90 124 163 204 256 301 368
#     4  10  22  41  63  89 128 164 201 250 324 358
#     4  10  17  31  58  90 119 154 204 260 296 348
#     4  10  21  38  64  97 118 166 206 258 301 374
#     4  10  20  35  62  90 124 154 219 245 305 355
#     4  10  21  37  64  91 125 156 215 253 302 362
#
# _framework density 29.548950000000001
#
# number of rings (size 3 to 8) (size 9 to 14) (size 15 to 20)
#    0.000    2.000    1.429    3.429    6.000    1.143 
#    0.000    2.857    0.000    2.571    0.000   23.000 
#    0.000    0.000    0.000    0.000    0.000    0.000 
#
# Total GULP energy -173561.451886 kJ/mol
# GULP energy per Si atom -12397.246563 kJ/mol
# Density = 2.948169 g / cm^3
# Si number density = 29.548950 Si / 1000 Ang^3
#
#
#
# Elastic Constant Matrix: (Units=GPa)
#
#
# Indices 1 2 3 4 5 6 
#
# 1 126.0947 20.7450 66.0464 7.6365 11.6717 1.1391
# 2 20.7450 138.1906 45.0753 -4.1622 2.6698 -10.1931
# 3 66.0464 45.0753 224.6673 17.4886 0.8117 12.6821
# 4 7.6365 -4.1622 17.4886 45.8093 -5.3129 0.2484
# 5 11.6717 2.6698 0.8117 -5.3129 25.3658 5.7688
# 6 1.1391 -10.1931 12.6821 0.2484 5.7688 16.9286
#
#
#
# Elastic Compliance Matrix: (Units=1/GPa)
#
#
# Indices 1 2 3 4 5 6 
#
# 1 0.010093 -0.000221 -0.002996 -0.001219 -0.005539 0.003338
# 2 -0.000221 0.008626 -0.002191 0.001364 -0.002172 0.007570
# 3 -0.002996 -0.002191 0.006276 -0.001763 0.002555 -0.006664
# 4 -0.001219 0.001364 -0.001763 0.023453 0.005375 0.000049
# 5 -0.005539 -0.002172 0.002555 0.005375 0.047599 -0.019148
# 6 0.003338 0.007570 -0.006664 0.000049 -0.019148 0.074922
#
#
# Mechanical properties :
#
#
# Convention : Reuss Voigt Hill
#
# Bulk Modulus (GPa) = 70.53777 83.63177 77.08477
# Shear Modulus (GPa) = 26.80806 41.42647 34.11726
#
# Velocity S-wave (km/s) = 3.01531 3.74834 3.40163
# Velocity P-wave (km/s) = 6.00384 6.86277 6.44763
#
# Compressibility (1/GPa) = 0.01417680
#
# Stress axis : x y z
#
# Youngs Moduli (GPa) = 99.08183 115.93138 159.34766
#
# Poissons Ratio (x) = 0.02566 0.47741
# Poissons Ratio (y) = 0.02193 0.34916
# Poissons Ratio (z) = 0.29685 0.25403
#
# Static dielectric constant tensor:
#      x y z
#    x 4.207180 -0.831290 -0.634020 
#    y -0.831290 5.390650 -0.152570 
#    z -0.634020 -0.152570 5.893490 
# 
# 
# High freq. dielectric constant tensor:
#      x y z
#    x 2.213940 -0.046320 0.012360 
#    y -0.046320 2.210690 -0.007770 
#    z 0.012360 -0.007770 2.228920 
# 
# From -- ./inp_files/209443.got.cif
#   From: 2010.06.25/outbox.cif.g09.slc.cpg/sg2_105_cif.got.tgz:209443.got - 2010.06.27 13:26:56.
