data_PCOD8036613
_publ_section_title
;
Structure prediction by ZEFSAII (Michael W. Deem and Ramdas Pophale) SiO2 
 PCOD8036613
Probable space group: P -1
;
_chemical_formula_sum "Si O2"
_cell_formula_units_Z 16
_cell_length_a 9.648574
_cell_length_b 10.126484
_cell_length_c 9.526760
_cell_angle_alpha 116.245859
_cell_angle_beta 61.581870
_cell_angle_gamma 110.344662
_cell_volume 723.063903
_symmetry_space_group_name_H-M "P -1"
_symmetry_group_IT_number 2
_symmetry_cell_setting 'triclinic'
loop_
_space_group_symop_operation_xyz
x,y,z
-x,-y,-z
loop_
_atom_site_type_symbol
_atom_site_label
_atom_site_fract_x
_atom_site_fract_y
_atom_site_fract_z
Si Si1 0.995258 0.447364 0.818037
Si Si2 0.345128 0.745268 0.162724
Si Si3 0.061443 0.932762 0.076854
Si Si4 0.557503 0.320957 0.610688
Si Si5 0.508656 0.648388 0.782843
Si Si6 0.258584 0.061360 0.290417
Si Si7 0.806764 0.791152 0.344344
Si Si8 0.764713 0.299603 0.246460
O O1 0.119279 0.337549 0.675888
O O2 0.063182 0.593356 0.759610
O O3 0.819912 0.370904 0.820599
O O4 0.000000 0.500000 0.000000
O O5 0.407660 0.749200 0.291688
O O6 0.332002 0.909854 0.190957
O O7 0.478001 0.686624 0.976529
O O8 0.907941 0.832204 0.173569
O O9 0.137077 0.053745 0.213937
O O10 0.202380 0.845136 0.921569
O O11 0.000000 0.000000 0.000000
O O12 0.592454 0.501999 0.673072
O O13 0.375539 0.260333 0.633417
O O14 0.674814 0.256375 0.415583
O O15 0.611741 0.788896 0.720038
O O16 0.341775 0.613051 0.762068
O O17 0.174064 0.074392 0.487892
#
# Coordination Sequence:
#
# PCOD8036613 Si02
#       8
#     2   2   2   2   2   2   2   2
#     4  12  21  44  75  96 135 192 238 282 356 421
#     4  12  27  44  72 106 147 188 235 294 358 425
#     4  12  29  45  72 105 144 188 239 292 356 428
#     4  12  28  44  74 114 139 181 249 300 343 414
#     4  12  23  46  73 103 142 188 238 293 355 419
#     4  12  26  45  71 101 143 191 233 285 364 421
#     4  12  24  46  75 101 141 189 239 291 346 431
#     4  12  24  47  73 102 140 189 237 294 356 417
#
# _framework density 22.128059
#
# number of rings (size 3 to 8) (size 9 to 14) (size 15 to 20)
#    0.000    0.000    7.500    2.250    3.500    2.000 
#    0.000    0.000    0.000    0.000    0.000    0.000 
#    0.000    0.000    0.000    0.000    0.000    0.000 
#
# Total GULP energy -198413.603481 kJ/mol
# GULP energy per Si atom -12400.850218 kJ/mol
# Density = 2.207769 g / cm^3
# Si number density = 22.128059 Si / 1000 Ang^3
#
#
#
# Elastic Constant Matrix: (Units=GPa)
#
#
# Indices 1 2 3 4 5 6 
#
# 1 79.1079 29.1769 36.6734 -3.9561 7.3379 -4.9124
# 2 29.1769 78.2255 26.6201 -0.2517 2.0485 6.4411
# 3 36.6734 26.6201 159.4927 -12.0594 1.7577 0.5958
# 4 -3.9561 -0.2517 -12.0594 35.5656 -1.6138 2.3767
# 5 7.3379 2.0485 1.7577 -1.6138 34.9889 -11.2617
# 6 -4.9124 6.4411 0.5958 2.3767 -11.2617 29.9105
#
#
#
# Elastic Compliance Matrix: (Units=1/GPa)
#
#
# Indices 1 2 3 4 5 6 
#
# 1 0.016310 -0.005330 -0.002811 0.000527 -0.001942 0.003109
# 2 -0.005330 0.015664 -0.001411 -0.000708 -0.001253 -0.004636
# 3 -0.002811 -0.001411 0.007316 0.002196 0.000287 -0.000370
# 4 0.000527 -0.000708 0.002196 0.029068 0.000547 -0.001909
# 5 -0.001942 -0.001253 0.000287 0.000547 0.033045 0.012344
# 6 0.003109 -0.004636 -0.000370 -0.001909 0.012344 0.039749
#
#
# Mechanical properties :
#
#
# Convention : Reuss Voigt Hill
#
# Bulk Modulus (GPa) = 49.54122 55.75190 52.64656
# Shear Modulus (GPa) = 29.94305 35.05004 32.49654
#
# Velocity S-wave (km/s) = 3.68254 3.98422 3.83635
# Velocity P-wave (km/s) = 6.36541 6.81287 6.59294
#
# Compressibility (1/GPa) = 0.02018521
#
# Stress axis : x y z
#
# Youngs Moduli (GPa) = 61.31384 63.84018 136.68691
#
# Poissons Ratio (x) = 0.34028 0.38421
# Poissons Ratio (y) = 0.32681 0.19289
# Poissons Ratio (z) = 0.17235 0.09009
#
# Static dielectric constant tensor:
#      x y z
#    x 3.978640 0.159700 -0.090670 
#    y 0.159700 4.084540 0.073840 
#    z -0.090670 0.073840 4.374750 
# 
# 
# High freq. dielectric constant tensor:
#      x y z
#    x 1.858400 0.012590 -0.004360 
#    y 0.012590 1.870280 0.000020 
#    z -0.004360 0.000020 1.894380 
# 
# From -- ./inp_files/189795.got.cif
#   From: 2010.06.25/outbox.cif.g09.slc.cpg/sg2_95_cif.got.tgz:189795.got - 2010.06.27 13:26:56.
