data_PCOD8036533
_publ_section_title
;
Structure prediction by ZEFSAII (Michael W. Deem and Ramdas Pophale) SiO2 
 PCOD8036533
Probable space group: P -1
;
_chemical_formula_sum "Si O2"
_cell_formula_units_Z 14
_cell_length_a 11.384924
_cell_length_b 10.829606
_cell_length_c 8.224230
_cell_angle_alpha 58.415006
_cell_angle_beta 41.952576
_cell_angle_gamma 51.329152
_cell_volume 525.849683
_symmetry_space_group_name_H-M "P -1"
_symmetry_group_IT_number 2
_symmetry_cell_setting 'triclinic'
loop_
_space_group_symop_operation_xyz
x,y,z
-x,-y,-z
loop_
_atom_site_type_symbol
_atom_site_label
_atom_site_fract_x
_atom_site_fract_y
_atom_site_fract_z
Si Si1 0.482625 0.436026 0.881047
Si Si2 0.375909 0.906222 0.645865
Si Si3 0.681757 0.838220 0.962340
Si Si4 0.316475 0.388062 0.610235
Si Si5 0.962783 0.418261 0.752361
Si Si6 0.757619 0.092096 0.881584
Si Si7 0.099136 0.152239 0.555161
O O1 0.621277 0.464954 0.580071
O O2 0.554911 0.241504 0.934984
O O3 0.500000 0.500000 0.000000
O O4 0.258015 0.515566 0.004605
O O5 0.529399 0.727210 0.595082
O O6 0.500000 0.000000 0.500000
O O7 0.260198 0.975143 0.550443
O O8 0.229512 0.915725 0.931470
O O9 0.804244 0.760652 0.725777
O O10 0.796858 0.915623 0.902072
O O11 0.648088 0.697750 0.189799
O O12 0.500000 0.000000 0.000000
O O13 0.096022 0.430303 0.754797
O O14 0.000000 0.500000 0.500000
O O15 0.030023 0.238079 0.741138
O O16 0.933845 0.137399 0.624141
#
# Coordination Sequence:
#
# PCOD8036533 Si02
#       7
#     2   2   2   2   2   2   2
#     4  12  24  43  73 105 139 174 234 293 340 402
#     4  12  20  38  71 101 131 170 234 289 337 395
#     4  12  27  46  70  94 144 187 224 278 355 416
#     4  12  24  45  69 107 138 181 230 286 345 410
#     4  12  23  42  77 103 137 183 231 285 347 404
#     4  12  24  45  69 103 136 175 234 293 340 407
#     4  12  24  42  69 104 136 180 231 286 346 410
#
# _framework density 26.623577000000001
#
# number of rings (size 3 to 8) (size 9 to 14) (size 15 to 20)
#    0.000    0.000    8.571    0.857    2.000    1.143 
#    2.571    3.571    0.000    0.000    0.000    0.000 
#    0.000    0.000    0.000    0.000    0.000    0.000 
#
# Total GULP energy -173487.333479 kJ/mol
# GULP energy per Si atom -12391.952391 kJ/mol
# Density = 2.656298 g / cm^3
# Si number density = 26.623577 Si / 1000 Ang^3
#
#
#
# Elastic Constant Matrix: (Units=GPa)
#
#
# Indices 1 2 3 4 5 6 
#
# 1 64.9571 10.5647 49.4955 8.7160 -13.2167 -33.7450
# 2 10.5647 87.3598 25.8784 -9.5334 -1.3531 -8.6214
# 3 49.4955 25.8784 150.8031 -16.4228 -5.2154 -18.1801
# 4 8.7160 -9.5334 -16.4228 43.8183 -8.2161 0.2801
# 5 -13.2167 -1.3531 -5.2154 -8.2161 48.2200 1.1736
# 6 -33.7450 -8.6214 -18.1801 0.2801 1.1736 48.8216
#
#
#
# Elastic Compliance Matrix: (Units=1/GPa)
#
#
# Indices 1 2 3 4 5 6 
#
# 1 0.037692 -0.000286 -0.010566 -0.010370 0.006879 0.021962
# 2 -0.000286 0.012339 -0.001603 0.002214 0.000439 0.001361
# 3 -0.010566 -0.001603 0.010510 0.005572 -0.000765 -0.003686
# 4 -0.010370 0.002214 0.005572 0.027994 0.002712 -0.004928
# 5 0.006879 0.000439 -0.000765 0.002712 0.022919 0.003981
# 6 0.021962 0.001361 -0.003686 -0.004928 0.003981 0.034463
#
#
# Mechanical properties :
#
#
# Convention : Reuss Voigt Hill
#
# Bulk Modulus (GPa) = 28.06520 52.77745 40.42133
# Shear Modulus (GPa) = 27.36656 42.65075 35.00866
#
# Velocity S-wave (km/s) = 3.20958 4.00683 3.63016
# Velocity P-wave (km/s) = 4.92946 6.42440 5.72592
#
# Compressibility (1/GPa) = 0.03563131
#
# Stress axis : x y z
#
# Youngs Moduli (GPa) = 26.53060 81.04282 95.14643
#
# Poissons Ratio (x) = 0.02319 1.00530
# Poissons Ratio (y) = 0.00759 0.15254
# Poissons Ratio (z) = 0.28032 0.12993
#
# Static dielectric constant tensor:
#      x y z
#    x 4.443600 2.970940 -0.909260 
#    y 2.970940 -5.875640 4.151920 
#    z -0.909260 4.151920 3.513910 
# 
# 
# High freq. dielectric constant tensor:
#      x y z
#    x 2.059300 -0.003530 -0.011250 
#    y -0.003530 2.074410 -0.007530 
#    z -0.011250 -0.007530 2.074100 
# 
# From -- ./inp_files/261901.got.cif
#   From: 2010.06.25/outbox.cif.g09.slc.cpg/sg2_131_cif.got.tgz:261901.got - 2010.06.27 13:26:56.
