data_PCOD8036264
_publ_section_title
;
Structure prediction by ZEFSAII (Michael W. Deem and Ramdas Pophale) SiO2 
 PCOD8036264
Probable space group: P -1
;
_chemical_formula_sum "Si O2"
_cell_formula_units_Z 16
_cell_length_a 11.292999
_cell_length_b 12.999599
_cell_length_c 10.276857
_cell_angle_alpha 66.536293
_cell_angle_beta 143.846213
_cell_angle_gamma 126.779745
_cell_volume 701.180018
_symmetry_space_group_name_H-M "P -1"
_symmetry_group_IT_number 2
_symmetry_cell_setting 'triclinic'
loop_
_space_group_symop_operation_xyz
x,y,z
-x,-y,-z
loop_
_atom_site_type_symbol
_atom_site_label
_atom_site_fract_x
_atom_site_fract_y
_atom_site_fract_z
Si Si1 0.763131 0.621525 0.649179
Si Si2 0.342789 0.562252 0.816852
Si Si3 0.531618 0.971217 0.326571
Si Si4 0.938622 0.265133 0.888193
Si Si5 0.968368 0.087017 0.824325
Si Si6 0.235901 0.134090 0.601308
Si Si7 0.611261 0.839971 0.999812
Si Si8 0.075247 0.509485 0.345096
O O1 0.500000 0.500000 0.500000
O O2 0.795178 0.752633 0.546921
O O3 0.909669 0.580827 0.706414
O O4 0.877586 0.656997 0.874729
O O5 0.201692 0.502983 0.589474
O O6 0.188429 0.534729 0.824405
O O7 0.500000 0.500000 0.000000
O O8 0.494147 0.717270 0.861317
O O9 0.265775 0.876383 0.178570
O O10 0.614647 0.893821 0.351590
O O11 0.699905 0.028204 0.572219
O O12 0.526965 0.084210 0.182948
O O13 0.061499 0.232006 0.894900
O O14 0.819020 0.345814 0.692536
O O15 0.114020 0.086340 0.829405
O O16 0.000000 0.000000 0.000000
O O17 0.401477 0.196505 0.842288
O O18 0.000000 0.000000 0.500000
#
# Coordination Sequence:
#
# PCOD8036264 Si02
#       8
#     2   2   2   2   2   2   2   2
#     4  12  29  49  76 107 150 198 246 305 366 436
#     4  11  26  47  73 105 142 187 241 304 359 431
#     4  12  26  47  72 109 144 189 239 304 359 434
#     4  12  26  46  75 104 147 191 242 296 364 434
#     4  12  25  45  70 109 149 187 241 295 367 432
#     4  12  26  48  74 107 147 188 245 302 364 432
#     4  12  26  43  77 103 142 190 236 299 366 428
#     4  11  27  47  73 104 142 192 246 292 365 437
#
# _framework density 22.818676
#
# number of rings (size 3 to 8) (size 9 to 14) (size 15 to 20)
#    0.000    0.250    2.500    5.625   10.500    2.000 
#    0.000    0.000    0.000    0.000    0.000    0.000 
#    0.000    0.000    0.000    0.000    0.000    0.000 
#
# Total GULP energy -198397.465808 kJ/mol
# GULP energy per Si atom -12399.841613 kJ/mol
# Density = 2.276674 g / cm^3
# Si number density = 22.818676 Si / 1000 Ang^3
#
#
#
# Elastic Constant Matrix: (Units=GPa)
#
#
# Indices 1 2 3 4 5 6 
#
# 1 113.6874 43.3704 52.4468 -8.6310 -9.7082 -26.7700
# 2 43.3704 139.0462 43.1283 -27.7352 3.4846 -18.0657
# 3 52.4468 43.1283 124.4861 -6.3203 -4.7659 -12.8978
# 4 -8.6310 -27.7352 -6.3203 51.7241 -3.3220 4.3709
# 5 -9.7082 3.4846 -4.7659 -3.3220 36.0557 0.6047
# 6 -26.7700 -18.0657 -12.8978 4.3709 0.6047 49.1966
#
#
#
# Elastic Compliance Matrix: (Units=1/GPa)
#
#
# Indices 1 2 3 4 5 6 
#
# 1 0.012987 -0.002142 -0.004062 0.000286 0.003107 0.005152
# 2 -0.002142 0.009598 -0.002108 0.004319 -0.001409 0.001440
# 3 -0.004062 -0.002108 0.010446 -0.000485 0.000449 -0.000208
# 4 0.000286 0.004319 -0.000485 0.021770 0.001607 -0.000339
# 5 0.003107 -0.001409 0.000449 0.001607 0.028902 0.000793
# 6 0.005152 0.001440 -0.000208 -0.000339 0.000793 0.023624
#
#
# Mechanical properties :
#
#
# Convention : Reuss Voigt Hill
#
# Bulk Modulus (GPa) = 60.95441 72.79006 66.87223
# Shear Modulus (GPa) = 38.63361 43.28023 40.95692
#
# Velocity S-wave (km/s) = 4.11916 4.35984 4.24121
# Velocity P-wave (km/s) = 7.02807 7.57053 7.30434
#
# Compressibility (1/GPa) = 0.01640570
#
# Stress axis : x y z
#
# Youngs Moduli (GPa) = 76.99724 104.18964 95.73239
#
# Poissons Ratio (x) = 0.22322 0.38889
# Poissons Ratio (y) = 0.16496 0.20181
# Poissons Ratio (z) = 0.31278 0.21964
#
# Static dielectric constant tensor:
#      x y z
#    x 4.618750 -0.037600 0.079350 
#    y -0.037600 4.708460 0.065340 
#    z 0.079350 0.065340 4.131370 
# 
# 
# High freq. dielectric constant tensor:
#      x y z
#    x 1.917510 -0.012620 -0.003520 
#    y -0.012620 1.912700 -0.007950 
#    z -0.003520 -0.007950 1.907540 
# 
# From -- ./inp_files/428059.got.cif
#   From: 2010.06.25/outbox.cif.g09.slc.cpg/sg2_215_cif.got.tgz:428059.got - 2010.06.27 13:26:56.
