data_PCOD8036896
_publ_section_title
;
Structure prediction by ZEFSAII (Michael W. Deem and Ramdas Pophale) SiO2 
 PCOD8036896
Probable space group: P -1
;
_chemical_formula_sum "Si O2"
_cell_formula_units_Z 16
_cell_length_a 21.345136
_cell_length_b 8.851182
_cell_length_c 23.105638
_cell_angle_alpha 28.851877
_cell_angle_beta 159.816426
_cell_angle_gamma 151.032336
_cell_volume 689.269136
_symmetry_space_group_name_H-M "P -1"
_symmetry_group_IT_number 2
_symmetry_cell_setting 'triclinic'
loop_
_space_group_symop_operation_xyz
x,y,z
-x,-y,-z
loop_
_atom_site_type_symbol
_atom_site_label
_atom_site_fract_x
_atom_site_fract_y
_atom_site_fract_z
Si Si1 0.024261 0.372043 0.204051
Si Si2 0.905650 0.440618 0.675767
Si Si3 0.562398 0.641347 0.444906
Si Si4 0.585858 0.635432 0.279260
Si Si5 0.152133 0.364424 0.707159
Si Si6 0.749888 0.389523 0.165945
Si Si7 0.735178 0.673245 0.806649
Si Si8 0.439575 0.643193 0.772870
O O1 0.964352 0.402281 0.208694
O O2 0.254994 0.477747 0.370553
O O3 0.942442 0.008305 0.228965
O O4 0.937185 0.596540 0.012372
O O5 0.750974 0.630283 0.469156
O O6 0.038455 0.507568 0.711842
O O7 0.787623 0.060966 0.712923
O O8 0.500000 0.500000 0.500000
O O9 0.391304 0.504197 0.297405
O O10 0.608349 0.033334 0.356452
O O11 0.380552 0.458906 0.190016
O O12 0.609175 0.429278 0.312285
O O13 0.619407 0.015432 0.163386
O O14 0.240079 0.585024 0.764783
O O15 0.311958 0.360274 0.799890
O O16 0.000000 0.500000 0.500000
O O17 0.656296 0.649334 0.969792
#
# Coordination Sequence:
#
# PCOD8036896 Si02
#       8
#     2   2   2   2   2   2   2   2
#     4  12  26  47  73 103 143 186 235 290 352 417
#     4  12  26  46  73 105 142 183 239 294 348 420
#     4  12  28  46  71 103 146 189 232 287 352 423
#     4  12  24  47  74 103 143 185 236 294 352 415
#     4  12  23  44  69 101 140 182 233 285 354 418
#     4  12  26  44  73 106 138 187 238 290 354 419
#     4  12  27  48  75 105 142 187 238 292 350 420
#     4  12  25  45  71 104 143 182 237 292 350 420
#
# _framework density 23.212993999999998
#
# number of rings (size 3 to 8) (size 9 to 14) (size 15 to 20)
#    0.000    0.000    2.500    7.875    5.250    0.500 
#    0.000    0.000    0.000    0.000    0.000    0.000 
#    0.000    0.000    0.000    0.000    0.000    0.000 
#
# Total GULP energy -198462.802360 kJ/mol
# GULP energy per Si atom -12403.925148 kJ/mol
# Density = 2.316016 g / cm^3
# Si number density = 23.212994 Si / 1000 Ang^3
#
#
#
# Elastic Constant Matrix: (Units=GPa)
#
#
# Indices 1 2 3 4 5 6 
#
# 1 126.3834 37.4473 29.5174 5.1778 -5.5938 -5.4653
# 2 37.4473 95.9021 17.5138 -0.8040 4.2320 -1.2964
# 3 29.5174 17.5138 144.3541 4.2724 -9.4705 -7.0734
# 4 5.1778 -0.8040 4.2724 26.3043 -4.9386 -3.0190
# 5 -5.5938 4.2320 -9.4705 -4.9386 32.3027 6.9957
# 6 -5.4653 -1.2964 -7.0734 -3.0190 6.9957 45.5742
#
#
#
# Elastic Compliance Matrix: (Units=1/GPa)
#
#
# Indices 1 2 3 4 5 6 
#
# 1 0.009401 -0.003491 -0.001342 -0.001424 0.001362 0.000516
# 2 -0.003491 0.012073 -0.000920 0.000782 -0.002380 0.000199
# 3 -0.001342 -0.000920 0.007484 -0.000556 0.001856 0.000653
# 4 -0.001424 0.000782 -0.000556 0.039569 0.005193 0.001589
# 5 0.001362 -0.002380 0.001856 0.005193 0.033809 -0.004462
# 6 0.000516 0.000199 0.000653 0.001589 -0.004462 0.022901
#
#
# Mechanical properties :
#
#
# Convention : Reuss Voigt Hill
#
# Bulk Modulus (GPa) = 57.30329 59.51072 58.40700
# Shear Modulus (GPa) = 35.07287 39.64697 37.35992
#
# Velocity S-wave (km/s) = 3.89127 4.13724 4.01613
# Velocity P-wave (km/s) = 6.70289 6.96525 6.83533
#
# Compressibility (1/GPa) = 0.01745101
#
# Stress axis : x y z
#
# Youngs Moduli (GPa) = 106.36943 82.83111 133.62399
#
# Poissons Ratio (x) = 0.28916 0.17932
# Poissons Ratio (y) = 0.37133 0.12299
# Poissons Ratio (z) = 0.14275 0.07624
#
# Static dielectric constant tensor:
#      x y z
#    x 4.605450 -0.472430 0.507080 
#    y -0.472430 4.589180 -0.431390 
#    z 0.507080 -0.431390 4.747390 
# 
# 
# High freq. dielectric constant tensor:
#      x y z
#    x 1.927340 -0.003020 -0.002420 
#    y -0.003020 1.915730 -0.000950 
#    z -0.002420 -0.000950 1.935160 
# 
# From -- ./inp_files/355266.got.cif
#   From: 2010.06.25/outbox.cif.g09.slc.cpg/sg2_178_cif.got.tgz:355266.got - 2010.06.27 13:26:56.
