data_PCOD8036001
_publ_section_title
;
Structure prediction by ZEFSAII (Michael W. Deem and Ramdas Pophale) SiO2 
 PCOD8036001
Probable space group: P -1
;
_chemical_formula_sum "Si O2"
_cell_formula_units_Z 16
_cell_length_a 11.762503
_cell_length_b 5.593314
_cell_length_c 13.811646
_cell_angle_alpha 60.938330
_cell_angle_beta 84.454056
_cell_angle_gamma 58.731130
_cell_volume 664.039698
_symmetry_space_group_name_H-M "P -1"
_symmetry_group_IT_number 2
_symmetry_cell_setting 'triclinic'
loop_
_space_group_symop_operation_xyz
x,y,z
-x,-y,-z
loop_
_atom_site_type_symbol
_atom_site_label
_atom_site_fract_x
_atom_site_fract_y
_atom_site_fract_z
Si Si1 0.667372 0.418614 0.760267
Si Si2 0.239704 0.323670 0.657366
Si Si3 0.037484 0.208434 0.349235
Si Si4 0.402483 0.381500 0.059637
Si Si5 0.051110 0.237729 0.133003
Si Si6 0.203200 0.790061 0.840441
Si Si7 0.818028 0.548455 0.573042
Si Si8 0.563722 0.681052 0.227260
O O1 0.625507 0.603835 0.827863
O O2 0.701837 0.618014 0.644965
O O3 0.534992 0.444498 0.720814
O O4 0.793782 0.050409 0.842293
O O5 0.246007 0.234211 0.561144
O O6 0.385378 0.265269 0.684432
O O7 0.112240 0.687185 0.622075
O O8 0.209685 0.106824 0.772895
O O9 0.041776 0.380554 0.214041
O O10 0.091874 0.334761 0.406223
O O11 0.112294 0.825175 0.395361
O O12 0.479814 0.000349 0.103590
O O13 0.500000 0.500000 0.000000
O O14 0.259724 0.597796 0.974631
O O15 0.953081 0.099273 0.175772
O O16 0.000000 0.500000 0.000000
O O17 0.297330 0.559994 0.792098
#
# Coordination Sequence:
#
# PCOD8036001 Si02
#       8
#     2   2   2   2   2   2   2   2
#     4  11  27  47  69 108 150 198 242 310 388 444
#     4  12  25  45  77 107 143 197 260 308 361 457
#     4  11  25  49  73 112 152 198 248 309 386 447
#     4  12  25  44  72 103 150 198 240 305 381 452
#     4  11  26  45  76 112 150 193 245 320 379 449
#     4  12  26  46  74 114 143 194 257 310 371 455
#     4  11  28  48  77 108 155 199 250 316 382 435
#     4  12  25  46  73 106 149 195 254 302 379 453
#
# _framework density 24.094946
#
# number of rings (size 3 to 8) (size 9 to 14) (size 15 to 20)
#    0.000    0.500    3.750    3.375   10.500    1.000 
#    0.000    2.500    0.000    0.000    0.000    0.000 
#    0.000    0.000    0.000    0.000    0.000    0.000 
#
# Total GULP energy -198328.773667 kJ/mol
# GULP energy per Si atom -12395.548354 kJ/mol
# Density = 2.404010 g / cm^3
# Si number density = 24.094946 Si / 1000 Ang^3
#
#
#
# Elastic Constant Matrix: (Units=GPa)
#
#
# Indices 1 2 3 4 5 6 
#
# 1 134.0498 29.5721 45.9444 8.0138 19.6440 2.8483
# 2 29.5721 70.9696 11.7062 10.0289 7.0650 4.8496
# 3 45.9444 11.7062 95.8727 20.6456 17.3489 2.4580
# 4 8.0138 10.0289 20.6456 22.8301 6.4405 -8.4943
# 5 19.6440 7.0650 17.3489 6.4405 40.7696 10.3679
# 6 2.8483 4.8496 2.4580 -8.4943 10.3679 36.3070
#
#
#
# Elastic Compliance Matrix: (Units=1/GPa)
#
#
# Indices 1 2 3 4 5 6 
#
# 1 0.010118 -0.003810 -0.004696 0.004031 -0.003344 0.001931
# 2 -0.003810 0.016983 0.001811 -0.009703 0.000825 -0.004598
# 3 -0.004696 0.001811 0.015993 -0.014641 -0.001541 -0.003941
# 4 0.004031 -0.009703 -0.014641 0.070975 -0.010747 0.021645
# 5 -0.003344 0.000825 -0.001541 -0.010747 0.031189 -0.011164
# 6 0.001931 -0.004598 -0.003941 0.021645 -0.011164 0.036525
#
#
# Mechanical properties :
#
#
# Convention : Reuss Voigt Hill
#
# Bulk Modulus (GPa) = 33.66703 52.81528 43.24115
# Shear Modulus (GPa) = 24.38142 34.22595 29.30369
#
# Velocity S-wave (km/s) = 3.18447 3.77299 3.49115
# Velocity P-wave (km/s) = 5.24634 6.39905 5.85115
#
# Compressibility (1/GPa) = 0.02970265
#
# Stress axis : x y z
#
# Youngs Moduli (GPa) = 98.83366 58.88300 62.52886
#
# Poissons Ratio (x) = 0.22435 0.29363
# Poissons Ratio (y) = 0.37656 -0.11321
# Poissons Ratio (z) = 0.46411 -0.10661
#
# Static dielectric constant tensor:
#      x y z
#    x 4.355340 -0.053360 0.189640 
#    y -0.053360 4.253730 0.200960 
#    z 0.189640 0.200960 4.798680 
# 
# 
# High freq. dielectric constant tensor:
#      x y z
#    x 1.959750 -0.003400 0.008580 
#    y -0.003400 1.953940 0.008570 
#    z 0.008580 0.008570 1.964800 
# 
# From -- ./inp_files/510731.got.cif
#   From: 2010.06.25/outbox.cif.g09.slc.cpg/sg2_256_cif.got.tgz:510731.got - 2010.06.27 13:26:56.
