data_PCOD8036879
_publ_section_title
;
Structure prediction by ZEFSAII (Michael W. Deem and Ramdas Pophale) SiO2 
 PCOD8036879
Probable space group: P -1
;
_chemical_formula_sum "Si O2"
_cell_formula_units_Z 14
_cell_length_a 13.766185
_cell_length_b 6.803903
_cell_length_c 22.390902
_cell_angle_alpha 122.391298
_cell_angle_beta 20.081655
_cell_angle_gamma 122.708661
_cell_volume 603.021843
_symmetry_space_group_name_H-M "P -1"
_symmetry_group_IT_number 2
_symmetry_cell_setting 'triclinic'
loop_
_space_group_symop_operation_xyz
x,y,z
-x,-y,-z
loop_
_atom_site_type_symbol
_atom_site_label
_atom_site_fract_x
_atom_site_fract_y
_atom_site_fract_z
Si Si1 0.991540 0.408311 0.386800
Si Si2 0.708661 0.826282 0.639191
Si Si3 0.750513 0.138103 0.192648
Si Si4 0.767605 0.374000 0.831939
Si Si5 0.411428 0.037929 0.490262
Si Si6 0.966644 0.599070 0.202035
Si Si7 0.543284 0.851053 0.866984
O O1 0.776673 0.558955 0.569865
O O2 0.053684 0.591367 0.325888
O O3 0.273001 0.357087 0.252269
O O4 0.841666 0.160184 0.412397
O O5 0.521555 0.869907 0.695682
O O6 0.527559 0.881903 0.810043
O O7 0.000000 0.000000 0.500000
O O8 0.650779 0.040738 0.300364
O O9 0.880523 0.409779 0.169306
O O10 0.000000 0.000000 0.000000
O O11 0.928121 0.516263 0.817357
O O12 0.682859 0.100584 0.854164
O O13 0.500000 0.500000 0.000000
O O14 0.299565 0.287380 0.599382
O O15 0.500000 0.000000 0.500000
O O16 0.215674 0.792508 0.065281
#
# Coordination Sequence:
#
# PCOD8036879 Si02
#       7
#     2   2   2   2   2   2   2
#     4  12  24  46  77 111 149 197 258 316 382 455
#     4  12  27  49  77 106 159 202 254 318 390 456
#     4  12  31  50  76 115 160 204 255 317 395 462
#     4  12  23  43  74 113 152 193 253 318 377 451
#     4  12  26  49  78 108 151 203 259 316 383 457
#     4  12  26  48  76 111 156 197 259 319 383 457
#     4  12  26  44  77 116 147 202 257 313 387 459
#
# _framework density 23.216408000000001
#
# number of rings (size 3 to 8) (size 9 to 14) (size 15 to 20)
#    0.000    0.000    4.286    5.571    8.000    0.571 
#    0.000    0.000    0.000    0.000    0.000    0.000 
#    0.000    0.000    0.000    0.000    0.000    0.000 
#
# Total GULP energy -173512.909769 kJ/mol
# GULP energy per Si atom -12393.779269 kJ/mol
# Density = 2.316357 g / cm^3
# Si number density = 23.216408 Si / 1000 Ang^3
#
#
#
# Elastic Constant Matrix: (Units=GPa)
#
#
# Indices 1 2 3 4 5 6 
#
# 1 155.8400 39.3931 57.1614 -4.4194 1.1704 2.2844
# 2 39.3931 111.1338 43.6130 6.6282 -2.0793 11.0261
# 3 57.1614 43.6130 129.4364 10.8291 8.0022 -2.7507
# 4 -4.4194 6.6282 10.8291 49.0909 -9.4184 5.9538
# 5 1.1704 -2.0793 8.0022 -9.4184 42.7521 -1.0338
# 6 2.2844 11.0261 -2.7507 5.9538 -1.0338 40.9280
#
#
#
# Elastic Compliance Matrix: (Units=1/GPa)
#
#
# Indices 1 2 3 4 5 6 
#
# 1 0.008067 -0.001648 -0.003215 0.001849 0.000697 -0.000474
# 2 -0.001648 0.011152 -0.003123 -0.000403 0.001010 -0.003038
# 3 -0.003215 -0.003123 0.010657 -0.002985 -0.002665 0.002104
# 4 0.001849 -0.000403 -0.002985 0.022695 0.005407 -0.003360
# 5 0.000697 0.001010 -0.002665 0.005407 0.025095 -0.000643
# 6 -0.000474 -0.003038 0.002104 -0.003360 -0.000643 0.025892
#
#
# Mechanical properties :
#
#
# Convention : Reuss Voigt Hill
#
# Bulk Modulus (GPa) = 71.92206 75.19390 73.55798
# Shear Modulus (GPa) = 40.26885 43.63704 41.95295
#
# Velocity S-wave (km/s) = 4.16925 4.34011 4.25554
# Velocity P-wave (km/s) = 7.36363 7.58775 7.47653
#
# Compressibility (1/GPa) = 0.01390394
#
# Stress axis : x y z
#
# Youngs Moduli (GPa) = 123.96479 89.66714 93.83302
#
# Poissons Ratio (x) = 0.14777 0.30167
# Poissons Ratio (y) = 0.20429 0.29306
# Poissons Ratio (z) = 0.39855 0.28005
#
# Static dielectric constant tensor:
#      x y z
#    x 4.320140 0.127270 -0.060060 
#    y 0.127270 3.905690 0.192620 
#    z -0.060060 0.192620 4.057670 
# 
# 
# High freq. dielectric constant tensor:
#      x y z
#    x 1.934830 0.003340 0.007740 
#    y 0.003340 1.918000 0.003570 
#    z 0.007740 0.003570 1.927000 
# 
# From -- ./inp_files/611330.got.cif
#   From: 2010.06.25/outbox.cif.g09.slc.cpg/sg2_306_cif.got.tgz:611330.got - 2010.06.27 13:26:56.
