data_PCOD8036914
_publ_section_title
;
Structure prediction by ZEFSAII (Michael W. Deem and Ramdas Pophale) SiO2 
 PCOD8036914
Probable space group: P -1
;
_chemical_formula_sum "Si O2"
_cell_formula_units_Z 16
_cell_length_a 24.667626
_cell_length_b 9.126763
_cell_length_c 9.376392
_cell_angle_alpha 118.845819
_cell_angle_beta 29.135505
_cell_angle_gamma 132.729031
_cell_volume 718.226067
_symmetry_space_group_name_H-M "P -1"
_symmetry_group_IT_number 2
_symmetry_cell_setting 'triclinic'
loop_
_space_group_symop_operation_xyz
x,y,z
-x,-y,-z
loop_
_atom_site_type_symbol
_atom_site_label
_atom_site_fract_x
_atom_site_fract_y
_atom_site_fract_z
Si Si1 0.021838 0.197339 0.619749
Si Si2 0.259257 0.294454 0.292972
Si Si3 0.603081 0.260943 0.707959
Si Si4 0.126391 0.579515 0.353340
Si Si5 0.719143 0.982744 0.662480
Si Si6 0.575574 0.701451 0.328352
Si Si7 0.738015 0.051654 0.338713
Si Si8 0.384621 0.753988 0.640285
O O1 0.109771 0.245477 0.585756
O O2 0.098639 0.392456 0.426242
O O3 0.000000 0.000000 0.500000
O O4 0.883475 0.166612 0.976068
O O5 0.373738 0.538959 0.179034
O O6 0.255266 0.155241 0.362207
O O7 0.292856 0.245147 0.038169
O O8 0.686498 0.191487 0.569430
O O9 0.675864 0.320705 0.413956
O O10 0.436666 0.082800 0.991538
O O11 0.000000 0.500000 0.500000
O O12 0.162099 0.773196 0.458534
O O13 0.260555 0.671087 0.993124
O O14 0.741254 0.949284 0.430462
O O15 0.500000 0.500000 0.500000
O O16 0.461872 0.652963 0.451936
O O17 0.620707 0.887714 0.419813
O O18 0.500000 0.000000 0.500000
#
# Coordination Sequence:
#
# PCOD8036914 Si02
#       8
#     2   2   2   2   2   2   2   2
#     4  12  27  49  72 104 153 200 250 299 363 452
#     4  12  26  46  74 106 151 191 242 313 367 435
#     4  12  25  45  76 110 149 184 249 316 368 433
#     4  12  26  45  76 109 153 198 247 305 377 442
#     4  12  26  47  73 112 149 190 249 313 371 433
#     4  12  24  43  72 105 140 193 250 297 370 434
#     4  12  27  46  75 102 150 199 244 304 376 442
#     4  12  23  44  74 107 145 193 246 304 367 442
#
# _framework density 22.277108999999999
#
# number of rings (size 3 to 8) (size 9 to 14) (size 15 to 20)
#    0.000    0.000    5.000    4.500    1.750    3.500 
#    0.000    0.000    0.000    0.000    0.000    0.000 
#    0.000    0.000    0.000    0.000    0.000    0.000 
#
# Total GULP energy -198402.222851 kJ/mol
# GULP energy per Si atom -12400.138928 kJ/mol
# Density = 2.222640 g / cm^3
# Si number density = 22.277109 Si / 1000 Ang^3
#
#
#
# Elastic Constant Matrix: (Units=GPa)
#
#
# Indices 1 2 3 4 5 6 
#
# 1 143.1892 52.5916 42.5784 -7.6463 -1.3108 -14.2558
# 2 52.5916 133.1205 35.7440 -2.8784 -2.3478 -11.6561
# 3 42.5784 35.7440 108.1900 -14.8039 -1.5531 -10.4220
# 4 -7.6463 -2.8784 -14.8039 32.8281 0.7101 4.7932
# 5 -1.3108 -2.3478 -1.5531 0.7101 50.6647 -0.0153
# 6 -14.2558 -11.6561 -10.4220 4.7932 -0.0153 43.6211
#
#
#
# Elastic Compliance Matrix: (Units=1/GPa)
#
#
# Indices 1 2 3 4 5 6 
#
# 1 0.008870 -0.002721 -0.002370 0.000532 0.000024 0.001547
# 2 -0.002721 0.009208 -0.001974 -0.000898 0.000309 0.001198
# 3 -0.002370 -0.001974 0.011515 0.004322 0.000140 0.000974
# 4 0.000532 -0.000898 0.004322 0.032850 -0.000357 -0.002643
# 5 0.000024 0.000309 0.000140 -0.000357 0.019762 0.000170
# 6 0.001547 0.001198 0.000974 -0.002643 0.000170 0.024274
#
#
# Mechanical properties :
#
#
# Convention : Reuss Voigt Hill
#
# Bulk Modulus (GPa) = 64.66775 71.81418 68.24096
# Shear Modulus (GPa) = 39.75709 42.32850 41.04280
#
# Velocity S-wave (km/s) = 4.22911 4.36373 4.29695
# Velocity P-wave (km/s) = 7.27592 7.59581 7.43758
#
# Compressibility (1/GPa) = 0.01546366
#
# Stress axis : x y z
#
# Youngs Moduli (GPa) = 112.73410 108.60170 86.84100
#
# Poissons Ratio (x) = 0.29547 0.20580
# Poissons Ratio (y) = 0.30671 0.17146
# Poissons Ratio (z) = 0.26717 0.21443
#
# Static dielectric constant tensor:
#      x y z
#    x 4.773110 -0.088310 -0.846300 
#    y -0.088310 3.644770 -0.465830 
#    z -0.846300 -0.465830 5.160460 
# 
# 
# High freq. dielectric constant tensor:
#      x y z
#    x 1.901580 -0.003470 0.000770 
#    y -0.003470 1.878830 -0.000460 
#    z 0.000770 -0.000460 1.877100 
# 
# From -- ./inp_files/352332.got.cif
#   From: 2010.06.25/outbox.cif.g09.slc.cpg/sg2_177_cif.got.tgz:352332.got - 2010.06.27 13:26:56.
