data_PCOD8036095
_publ_section_title
;
Structure prediction by ZEFSAII (Michael W. Deem and Ramdas Pophale) SiO2 
 PCOD8036095
Probable space group: P -1
;
_chemical_formula_sum "Si O2"
_cell_formula_units_Z 12
_cell_length_a 14.209640
_cell_length_b 8.871723
_cell_length_c 13.659591
_cell_angle_alpha 57.231602
_cell_angle_beta 21.529616
_cell_angle_gamma 55.064287
_cell_volume 517.849767
_symmetry_space_group_name_H-M "P -1"
_symmetry_group_IT_number 2
_symmetry_cell_setting 'triclinic'
loop_
_space_group_symop_operation_xyz
x,y,z
-x,-y,-z
loop_
_atom_site_type_symbol
_atom_site_label
_atom_site_fract_x
_atom_site_fract_y
_atom_site_fract_z
Si Si1 0.949130 0.292978 0.344804
Si Si2 0.513374 0.064558 0.853540
Si Si3 0.747642 0.567863 0.283333
Si Si4 0.425796 0.775303 0.904726
Si Si5 0.259703 0.024407 0.797199
Si Si6 0.825845 0.409799 0.633420
O O1 0.750717 0.161277 0.575942
O O2 0.810310 0.482676 0.360295
O O3 0.987535 0.335214 0.406493
O O4 0.230786 0.201888 0.055441
O O5 0.594491 0.903836 0.749852
O O6 0.500000 0.000000 0.000000
O O7 0.500000 0.500000 0.500000
O O8 0.728835 0.784432 0.230165
O O9 0.000000 0.500000 0.000000
O O10 0.570120 0.571628 0.800576
O O11 0.285928 0.871484 0.909827
O O12 0.232428 0.758702 0.188317
O O13 0.500000 0.000000 0.500000
O O14 0.000000 0.000000 0.000000
O O15 0.000000 0.500000 0.500000
#
# Coordination Sequence:
#
# PCOD8036095 Si02
#       6
#     2   2   2   2   2   2
#     4  12  26  45  75 101 144 179 235 287 347 419
#     4  12  25  46  70 108 137 181 229 286 353 414
#     4  12  26  49  72 106 141 192 237 289 350 417
#     4  11  26  45  71 102 143 180 234 289 350 418
#     4  12  28  48  73 106 142 190 240 290 349 420
#     4  11  26  44  71 104 139 185 226 291 358 411
#
# _framework density 23.172743000000001
#
# number of rings (size 3 to 8) (size 9 to 14) (size 15 to 20)
#    0.000    0.333    1.667    6.500    9.333    0.000 
#    0.000    0.000    0.000    0.000    0.000    0.000 
#    0.000    0.000    0.000    0.000    0.000    0.000 
#
# Total GULP energy -148727.053079 kJ/mol
# GULP energy per Si atom -12393.921090 kJ/mol
# Density = 2.312000 g / cm^3
# Si number density = 23.172743 Si / 1000 Ang^3
#
#
#
# Elastic Constant Matrix: (Units=GPa)
#
#
# Indices 1 2 3 4 5 6 
#
# 1 133.5837 43.2489 48.9026 -16.1057 -1.4954 -10.4984
# 2 43.2489 111.9945 35.2448 -12.3475 0.0740 -2.4552
# 3 48.9026 35.2448 113.8364 3.9444 -24.2456 19.1491
# 4 -16.1057 -12.3475 3.9444 35.1473 10.0832 2.6932
# 5 -1.4954 0.0740 -24.2456 10.0832 45.3468 -1.9415
# 6 -10.4984 -2.4552 19.1491 2.6932 -1.9415 55.0045
#
#
#
# Elastic Compliance Matrix: (Units=1/GPa)
#
#
# Indices 1 2 3 4 5 6 
#
# 1 0.011200 -0.001690 -0.005977 0.006078 -0.004017 0.003704
# 2 -0.001690 0.011273 -0.003752 0.004379 -0.003004 0.001166
# 3 -0.005977 -0.003752 0.015932 -0.008216 0.009893 -0.006104
# 4 0.006078 0.004379 -0.008216 0.037094 -0.012363 0.001963
# 5 -0.004017 -0.003004 0.009893 -0.012363 0.029848 -0.002686
# 6 0.003704 0.001166 -0.006104 0.001963 -0.002686 0.020873
#
#
# Mechanical properties :
#
#
# Convention : Reuss Voigt Hill
#
# Bulk Modulus (GPa) = 64.23932 68.24526 66.24229
# Shear Modulus (GPa) = 32.41530 42.56760 37.49145
#
# Velocity S-wave (km/s) = 3.74418 4.29064 4.02669
# Velocity P-wave (km/s) = 6.81718 7.35260 7.08995
#
# Compressibility (1/GPa) = 0.01556679
#
# Stress axis : x y z
#
# Youngs Moduli (GPa) = 89.28364 88.70940 62.76535
#
# Poissons Ratio (x) = 0.14994 0.37517
# Poissons Ratio (y) = 0.15091 0.23548
# Poissons Ratio (z) = 0.53368 0.33282
#
# Static dielectric constant tensor:
#      x y z
#    x 4.129830 0.018650 0.087010 
#    y 0.018650 35.032990 26.840220 
#    z 0.087010 26.840220 27.413320 
# 
# 
# High freq. dielectric constant tensor:
#      x y z
#    x 1.931740 -0.000130 0.002480 
#    y -0.000130 1.932830 -0.008830 
#    z 0.002480 -0.008830 1.923750 
# 
# From -- ./inp_files/37758.got.cif
#   From: 2010.06.25/outbox.cif.g09.slc.cpg/sg2_19_cif.got.tgz:37758.got - 2010.06.27 13:26:56.
