data_PCOD8036055
_publ_section_title
;
Structure prediction by ZEFSAII (Michael W. Deem and Ramdas Pophale) SiO2 
 PCOD8036055
Probable space group: P -1
;
_chemical_formula_sum "Si O2"
_cell_formula_units_Z 10
_cell_length_a 14.995162
_cell_length_b 11.646098
_cell_length_c 15.597413
_cell_angle_alpha 26.917477
_cell_angle_beta 19.604790
_cell_angle_gamma 28.097223
_cell_volume 397.472824
_symmetry_space_group_name_H-M "P -1"
_symmetry_group_IT_number 2
_symmetry_cell_setting 'triclinic'
loop_
_space_group_symop_operation_xyz
x,y,z
-x,-y,-z
loop_
_atom_site_type_symbol
_atom_site_label
_atom_site_fract_x
_atom_site_fract_y
_atom_site_fract_z
Si Si1 0.275623 0.963283 0.507254
Si Si2 0.703401 0.511700 0.928326
Si Si3 0.127426 0.043735 0.265279
Si Si4 0.267100 0.221961 0.513594
Si Si5 0.581191 0.558270 0.193322
O O1 0.486513 0.682316 0.532133
O O2 0.068762 0.865324 0.698530
O O3 0.393399 0.169268 0.209822
O O4 0.146247 0.111780 0.612991
O O5 0.998269 0.363610 0.717798
O O6 0.441005 0.420944 0.191756
O O7 0.763740 0.445870 0.018713
O O8 0.305059 0.749032 0.275976
O O9 0.289960 0.264802 0.978270
O O10 0.000000 0.000000 0.500000
O O11 0.500000 0.000000 0.500000
#
# Coordination Sequence:
#
# PCOD8036055 Si02
#       5
#     2   2   2   2   2
#     4  12  26  47  80 108 150 207 246 312 392 441
#     4  12  26  52  74 115 155 196 255 314 372 464
#     4  11  25  51  72 111 151 195 262 318 368 457
#     4  12  27  49  78 112 158 200 250 313 382 454
#     4  11  26  49  77 107 155 198 255 317 378 450
#
# _framework density 25.158953
#
# number of rings (size 3 to 8) (size 9 to 14) (size 15 to 20)
#    0.000    0.400    4.000    3.600    0.000    2.400 
#    7.200    0.000    0.000    0.000    0.000    0.000 
#    0.000    0.000    0.000    0.000    0.000    0.000 
#
# Total GULP energy -123880.696451 kJ/mol
# GULP energy per Si atom -12388.069645 kJ/mol
# Density = 2.510169 g / cm^3
# Si number density = 25.158953 Si / 1000 Ang^3
#
#
#
# Elastic Constant Matrix: (Units=GPa)
#
#
# Indices 1 2 3 4 5 6 
#
# 1 137.6814 26.5414 11.8169 -0.7620 11.9910 11.4252
# 2 26.5414 110.6269 56.0115 -20.8816 15.6427 -4.0062
# 3 11.8169 56.0115 102.0638 -4.2133 14.1691 -3.9817
# 4 -0.7620 -20.8816 -4.2133 55.0948 -7.1899 7.9930
# 5 11.9910 15.6427 14.1691 -7.1899 20.3719 -17.1589
# 6 11.4252 -4.0062 -3.9817 7.9930 -17.1589 31.2492
#
#
#
# Elastic Compliance Matrix: (Units=1/GPa)
#
#
# Indices 1 2 3 4 5 6 
#
# 1 0.009867 -0.001272 0.001335 -0.000582 -0.016505 -0.012515
# 2 -0.001272 0.014515 -0.006784 0.004561 -0.007106 -0.003607
# 3 0.001335 -0.006784 0.014534 -0.002117 -0.010344 -0.004645
# 4 -0.000582 0.004561 -0.002117 0.020545 0.002944 -0.003111
# 5 -0.016505 -0.007106 -0.010344 0.002944 0.139653 0.079736
# 6 -0.012515 -0.003607 -0.004645 -0.003111 0.079736 0.080101
#
#
# Mechanical properties :
#
#
# Convention : Reuss Voigt Hill
#
# Bulk Modulus (GPa) = 39.25849 59.90131 49.57990
# Shear Modulus (GPa) = 16.60321 38.40999 27.50660
#
# Velocity S-wave (km/s) = 2.57170 3.91153 3.31012
# Velocity P-wave (km/s) = 4.94533 6.65289 5.86162
#
# Compressibility (1/GPa) = 0.02547220
#
# Stress axis : x y z
#
# Youngs Moduli (GPa) = 101.35205 68.89645 68.80550
#
# Poissons Ratio (x) = 0.08766 -0.09186
# Poissons Ratio (y) = 0.12895 0.46678
# Poissons Ratio (z) = -0.13531 0.46740
#
# Static dielectric constant tensor:
#      x y z
#    x 4.835010 0.164340 0.016550 
#    y 0.164340 4.870640 -0.312790 
#    z 0.016550 -0.312790 4.554510 
# 
# 
# High freq. dielectric constant tensor:
#      x y z
#    x 2.028390 0.009870 0.005830 
#    y 0.009870 2.012050 -0.027820 
#    z 0.005830 -0.027820 1.984840 
# 
# From -- ./inp_files/74789.got.cif
#   From: 2010.06.25/outbox.cif.g09.slc.cpg/sg2_38_cif.got.tgz:74789.got - 2010.06.27 13:26:56.
