data_PCOD8036703
_publ_section_title
;
Structure prediction by ZEFSAII (Michael W. Deem and Ramdas Pophale) SiO2 
 PCOD8036703
Probable space group: P -1
;
_chemical_formula_sum "Si O2"
_cell_formula_units_Z 16
_cell_length_a 12.020709
_cell_length_b 14.343577
_cell_length_c 12.363250
_cell_angle_alpha 20.541218
_cell_angle_beta 84.322961
_cell_angle_gamma 85.132844
_cell_volume 744.109554
_symmetry_space_group_name_H-M "P -1"
_symmetry_group_IT_number 2
_symmetry_cell_setting 'triclinic'
loop_
_space_group_symop_operation_xyz
x,y,z
-x,-y,-z
loop_
_atom_site_type_symbol
_atom_site_label
_atom_site_fract_x
_atom_site_fract_y
_atom_site_fract_z
Si Si1 0.511766 0.063343 0.806938
Si Si2 0.970517 0.284902 0.145247
Si Si3 0.374620 0.383905 0.849099
Si Si4 0.887751 0.057840 0.885975
Si Si5 0.516635 0.286743 0.139659
Si Si6 0.740766 0.920487 0.247897
Si Si7 0.874677 0.630422 0.166148
Si Si8 0.762992 0.350813 0.955134
O O1 0.581088 0.333266 0.500735
O O2 0.393803 0.085061 0.733275
O O3 0.500000 0.000000 0.000000
O O4 0.584089 0.833169 0.001570
O O5 0.839541 0.298043 0.110595
O O6 0.000000 0.000000 0.500000
O O7 0.000000 0.500000 0.000000
O O8 0.033099 0.346759 0.960223
O O9 0.242156 0.381205 0.871320
O O10 0.414625 0.321498 0.031809
O O11 0.889519 0.368373 0.520695
O O12 0.783146 0.985299 0.052527
O O13 0.881091 0.887149 0.963125
O O14 0.000000 0.000000 0.000000
O O15 0.500000 0.000000 0.500000
O O16 0.500000 0.500000 0.000000
O O17 0.634909 0.323454 0.031197
O O18 0.787315 0.640936 0.587529
O O19 0.788564 0.140972 0.086400
#
# Coordination Sequence:
#
# PCOD8036703 Si02
#       8
#     2   2   2   2   2   2   2   2
#     4  12  23  41  65 100 139 180 215 261 329 401
#     4  12  28  48  71  98 131 180 226 283 335 384
#     4  12  25  44  65 101 140 173 219 274 331 397
#     4  12  25  45  72 101 135 180 222 275 334 397
#     4  12  26  43  70  98 132 180 223 277 335 391
#     4  12  22  43  69 102 134 176 218 272 334 396
#     4  12  26  46  68 104 136 176 225 276 332 399
#     4  12  25  46  70 100 134 172 229 277 329 404
#
# _framework density 21.502210000000002
#
# number of rings (size 3 to 8) (size 9 to 14) (size 15 to 20)
#    0.000    0.000    2.500    8.250    3.500    0.000 
#    0.000    0.000    0.000    0.000    0.000    0.000 
#    0.000    0.000    0.000    0.000    0.000    0.000 
#
# Total GULP energy -198516.449031 kJ/mol
# GULP energy per Si atom -12407.278064 kJ/mol
# Density = 2.145327 g / cm^3
# Si number density = 21.502210 Si / 1000 Ang^3
#
#
#
# Elastic Constant Matrix: (Units=GPa)
#
#
# Indices 1 2 3 4 5 6 
#
# 1 103.3984 10.3955 11.7111 4.5349 11.9704 15.3923
# 2 10.3955 142.2611 39.8802 -13.6710 -1.0893 4.9030
# 3 11.7111 39.8802 156.3417 -11.0602 6.6055 1.0465
# 4 4.5349 -13.6710 -11.0602 47.4787 2.2854 1.3068
# 5 11.9704 -1.0893 6.6055 2.2854 38.0640 10.6670
# 6 15.3923 4.9030 1.0465 1.3068 10.6670 43.4285
#
#
#
# Elastic Compliance Matrix: (Units=1/GPa)
#
#
# Indices 1 2 3 4 5 6 
#
# 1 0.010575 -0.000627 -0.000594 -0.001133 -0.002315 -0.003060
# 2 -0.000627 0.007808 -0.001844 0.001861 0.000877 -0.000886
# 3 -0.000594 -0.001844 0.007049 0.001216 -0.001312 0.000535
# 4 -0.001133 0.001861 0.001216 0.022047 -0.001057 -0.000241
# 5 -0.002315 0.000877 -0.001312 -0.001057 0.029099 -0.006362
# 6 -0.003060 -0.000886 0.000535 -0.000241 -0.006362 0.025768
#
#
# Mechanical properties :
#
#
# Convention : Reuss Voigt Hill
#
# Bulk Modulus (GPa) = 51.81092 58.44166 55.12629
# Shear Modulus (GPa) = 43.51186 48.46188 45.98687
#
# Velocity S-wave (km/s) = 4.50332 4.75258 4.62963
# Velocity P-wave (km/s) = 7.15457 7.57327 7.36689
#
# Compressibility (1/GPa) = 0.01930095
#
# Stress axis : x y z
#
# Youngs Moduli (GPa) = 94.56315 128.06958 141.86251
#
# Poissons Ratio (x) = 0.08035 0.08426
# Poissons Ratio (y) = 0.05933 0.26163
# Poissons Ratio (z) = 0.05617 0.23619
#
# Static dielectric constant tensor:
#      x y z
#    x 4.126450 0.061180 -0.015380 
#    y 0.061180 4.137180 -0.102900 
#    z -0.015380 -0.102900 4.123360 
# 
# 
# High freq. dielectric constant tensor:
#      x y z
#    x 1.859950 0.005380 0.004470 
#    y 0.005380 1.861770 -0.004720 
#    z 0.004470 -0.004720 1.864710 
# 
# From -- ./inp_files/433629.got.cif
#   From: 2010.06.25/outbox.cif.g09.slc.cpg/sg2_217_cif.got.tgz:433629.got - 2010.06.27 13:26:56.
