data_PCOD8036789
_publ_section_title
;
Structure prediction by ZEFSAII (Michael W. Deem and Ramdas Pophale) SiO2 
 PCOD8036789
Probable space group: P -1
;
_chemical_formula_sum "Si O2"
_cell_formula_units_Z 16
_cell_length_a 24.380360
_cell_length_b 5.140350
_cell_length_c 11.713166
_cell_angle_alpha 116.250078
_cell_angle_beta 31.025388
_cell_angle_gamma 105.990311
_cell_volume 661.332822
_symmetry_space_group_name_H-M "P -1"
_symmetry_group_IT_number 2
_symmetry_cell_setting 'triclinic'
loop_
_space_group_symop_operation_xyz
x,y,z
-x,-y,-z
loop_
_atom_site_type_symbol
_atom_site_label
_atom_site_fract_x
_atom_site_fract_y
_atom_site_fract_z
Si Si1 0.704723 0.844675 0.993852
Si Si2 0.231993 0.244187 0.899798
Si Si3 0.707793 0.914240 0.615202
Si Si4 0.550350 0.467549 0.095455
Si Si5 0.860663 0.883517 0.544279
Si Si6 0.009298 0.629847 0.632226
Si Si7 0.665752 0.270149 0.539241
Si Si8 0.408785 0.592224 0.588830
O O1 0.787971 0.690012 0.914457
O O2 0.650753 0.614777 0.976024
O O3 0.618724 0.053548 0.271800
O O4 0.760517 0.028275 0.837527
O O5 0.299238 0.471743 0.774769
O O6 0.294780 0.906017 0.684294
O O7 0.109055 0.303983 0.081594
O O8 0.812470 0.851853 0.499169
O O9 0.689470 0.595301 0.553867
O O10 0.730657 0.080614 0.490783
O O11 0.601171 0.128632 0.903860
O O12 0.467292 0.673327 0.192750
O O13 0.463269 0.464580 0.349668
O O14 0.908448 0.570720 0.463298
O O15 0.952792 0.065688 0.400500
O O16 0.000000 0.500000 0.500000
O O17 0.500000 0.500000 0.500000
#
# Coordination Sequence:
#
# PCOD8036789 Si02
#       8
#     2   2   2   2   2   2   2   2
#     4  12  24  43  72 111 152 187 236 307 388 446
#     4  12  27  45  73 111 152 191 241 305 380 443
#     4  12  28  51  73 104 147 203 261 298 354 430
#     4  12  24  45  75 112 149 200 248 302 368 445
#     4  12  27  49  76 108 145 193 246 314 369 432
#     4  12  26  47  78 114 146 182 243 309 386 444
#     4  12  27  49  73 106 151 202 250 303 351 442
#     4  12  23  40  67 109 156 192 230 288 383 456
#
# _framework density 24.193570000000001
#
# number of rings (size 3 to 8) (size 9 to 14) (size 15 to 20)
#    0.000    0.000    3.750    6.750    1.750    2.000 
#    0.000    3.750    0.000    0.000    0.000    0.000 
#    0.000    0.000    0.000    0.000    0.000    0.000 
#
# Total GULP energy -198261.735938 kJ/mol
# GULP energy per Si atom -12391.358496 kJ/mol
# Density = 2.413850 g / cm^3
# Si number density = 24.193570 Si / 1000 Ang^3
#
#
#
# Elastic Constant Matrix: (Units=GPa)
#
#
# Indices 1 2 3 4 5 6 
#
# 1 120.0041 28.3564 20.9567 -8.3793 -15.6788 -5.9871
# 2 28.3564 112.8868 27.2282 -4.4072 0.2600 -1.3197
# 3 20.9567 27.2282 80.5288 -15.0416 -13.0858 11.3158
# 4 -8.3793 -4.4072 -15.0416 44.2997 -1.7973 2.4500
# 5 -15.6788 0.2600 -13.0858 -1.7973 34.1960 -0.2480
# 6 -5.9871 -1.3197 11.3158 2.4500 -0.2480 37.4155
#
#
#
# Elastic Compliance Matrix: (Units=1/GPa)
#
#
# Indices 1 2 3 4 5 6 
#
# 1 0.009753 -0.002108 -0.001160 0.001310 0.004125 0.001779
# 2 -0.002108 0.010251 -0.003625 -0.000773 -0.002464 0.001155
# 3 -0.001160 -0.003625 0.016822 0.005700 0.006191 -0.005733
# 4 0.001310 -0.000773 0.005700 0.025020 0.004080 -0.003153
# 5 0.004125 -0.002464 0.006191 0.004080 0.033727 -0.001343
# 6 0.001779 0.001155 -0.005733 -0.003153 -0.001343 0.028984
#
#
# Mechanical properties :
#
#
# Convention : Reuss Voigt Hill
#
# Bulk Modulus (GPa) = 43.40171 51.83359 47.61765
# Shear Modulus (GPa) = 34.24153 38.97412 36.60783
#
# Velocity S-wave (km/s) = 3.76615 4.01799 3.89411
# Velocity P-wave (km/s) = 6.07373 6.55719 6.32008
#
# Compressibility (1/GPa) = 0.02304056
#
# Stress axis : x y z
#
# Youngs Moduli (GPa) = 102.53348 97.55072 59.44706
#
# Poissons Ratio (x) = 0.20559 0.06898
# Poissons Ratio (y) = 0.21609 0.21548
# Poissons Ratio (z) = 0.11897 0.35359
#
# Static dielectric constant tensor:
#      x y z
#    x 4.616720 0.308650 -0.108060 
#    y 0.308650 4.044010 -0.074970 
#    z -0.108060 -0.074970 4.567530 
# 
# 
# High freq. dielectric constant tensor:
#      x y z
#    x 1.986630 -0.002790 -0.006460 
#    y -0.002790 1.957270 0.005380 
#    z -0.006460 0.005380 1.955900 
# 
# From -- ./inp_files/473468.got.cif
#   From: 2010.06.25/outbox.cif.g09.slc.cpg/sg2_237_cif.got.tgz:473468.got - 2010.06.27 13:26:56.
