data_PCOD8036813
_publ_section_title
;
Structure prediction by ZEFSAII (Michael W. Deem and Ramdas Pophale) SiO2 
 PCOD8036813
Probable space group: P -1
;
_chemical_formula_sum "Si O2"
_cell_formula_units_Z 14
_cell_length_a 4.854167
_cell_length_b 10.640841
_cell_length_c 13.058647
_cell_angle_alpha 70.561415
_cell_angle_beta 101.640446
_cell_angle_gamma 116.774925
_cell_volume 566.788112
_symmetry_space_group_name_H-M "P -1"
_symmetry_group_IT_number 2
_symmetry_cell_setting 'triclinic'
loop_
_space_group_symop_operation_xyz
x,y,z
-x,-y,-z
loop_
_atom_site_type_symbol
_atom_site_label
_atom_site_fract_x
_atom_site_fract_y
_atom_site_fract_z
Si Si1 0.462233 0.830484 0.077695
Si Si2 0.781232 0.825832 0.521764
Si Si3 0.686505 0.474705 0.931755
Si Si4 0.415995 0.890605 0.827972
Si Si5 0.100075 0.675561 0.450284
Si Si6 0.732326 0.748249 0.764258
Si Si7 0.033584 0.832555 0.213792
O O1 0.487135 0.683968 0.083967
O O2 0.142404 0.788134 0.126323
O O3 0.765960 0.892140 0.157477
O O4 0.472703 0.922145 0.948142
O O5 0.471322 0.772636 0.443594
O O6 0.977901 0.738588 0.519894
O O7 0.639610 0.770524 0.637778
O O8 0.000000 0.000000 0.500000
O O9 0.732384 0.589108 0.813113
O O10 0.500000 0.500000 0.000000
O O11 0.000000 0.500000 0.000000
O O12 0.075084 0.870310 0.780635
O O13 0.486069 0.756048 0.827482
O O14 0.669977 0.032060 0.752968
O O15 0.945190 0.703289 0.326277
O O16 0.000000 0.500000 0.500000
#
# Coordination Sequence:
#
# PCOD8036813 Si02
#       7
#     2   2   2   2   2   2   2
#     4  12  24  41  67  96 132 174 219 257 331 401
#     4  12  26  49  75 102 134 183 239 290 343 406
#     4  12  23  42  62  94 133 170 212 271 320 393
#     4  12  23  44  64 103 132 169 214 272 325 403
#     4  12  28  48  70 104 141 180 235 292 343 406
#     4  12  24  41  72  96 131 171 218 273 335 387
#     4  12  26  43  68  92 136 176 216 267 332 394
#
# _framework density 24.700590999999999
#
# number of rings (size 3 to 8) (size 9 to 14) (size 15 to 20)
#    0.000    0.000    2.857    7.714    4.000    0.000 
#    0.000    0.000    0.000    0.000    0.000    0.000 
#    0.000    0.000    0.000    0.000    0.000    0.000 
#
# Total GULP energy -173563.264646 kJ/mol
# GULP energy per Si atom -12397.376046 kJ/mol
# Density = 2.464437 g / cm^3
# Si number density = 24.700591 Si / 1000 Ang^3
#
#
#
# Elastic Constant Matrix: (Units=GPa)
#
#
# Indices 1 2 3 4 5 6 
#
# 1 111.6625 1.3575 22.0841 13.7587 -0.9426 3.6475
# 2 1.3575 86.7203 2.9951 -1.7168 5.4054 1.8512
# 3 22.0841 2.9951 136.1039 -18.1455 7.0690 -3.6699
# 4 13.7587 -1.7168 -18.1455 37.7325 -5.7783 -0.3520
# 5 -0.9426 5.4054 7.0690 -5.7783 40.5724 6.9087
# 6 3.6475 1.8512 -3.6699 -0.3520 6.9087 38.4176
#
#
#
# Elastic Compliance Matrix: (Units=1/GPa)
#
#
# Indices 1 2 3 4 5 6 
#
# 1 0.010042 -0.000157 -0.002304 -0.004759 0.000190 -0.001244
# 2 -0.000157 0.011640 -0.000123 0.000304 -0.001439 -0.000296
# 3 -0.002304 -0.000123 0.008445 0.004747 -0.001048 0.001263
# 4 -0.004759 0.000304 0.004747 0.031052 0.003347 0.000573
# 5 0.000190 -0.001439 -0.001048 0.003347 0.026311 -0.004750
# 6 -0.001244 -0.000296 0.001263 0.000573 -0.004750 0.027142
#
#
# Mechanical properties :
#
#
# Convention : Reuss Voigt Hill
#
# Bulk Modulus (GPa) = 40.06629 43.04001 41.55315
# Shear Modulus (GPa) = 39.02568 43.88117 41.45343
#
# Velocity S-wave (km/s) = 3.97917 4.21945 4.10107
# Velocity P-wave (km/s) = 6.11291 6.41879 6.26772
#
# Compressibility (1/GPa) = 0.02495864
#
# Stress axis : x y z
#
# Youngs Moduli (GPa) = 99.58435 85.90993 118.41039
#
# Poissons Ratio (x) = 0.01350 0.27279
# Poissons Ratio (y) = 0.01565 0.01460
# Poissons Ratio (z) = 0.22942 0.01059
#
# Static dielectric constant tensor:
#      x y z
#    x 4.332420 4.333280 2.280720 
#    y 4.333280 -47.444390 -25.658710 
#    z 2.280720 -25.658710 -8.142250 
# 
# 
# High freq. dielectric constant tensor:
#      x y z
#    x 2.005080 -0.012840 0.000130 
#    y -0.012840 1.994080 -0.001000 
#    z 0.000130 -0.001000 1.980670 
# 
# From -- ./inp_files/364152.got.cif
#   From: 2010.06.25/outbox.cif.g09.slc.cpg/sg2_183_cif.got.tgz:364152.got - 2010.06.27 13:26:56.
