data_PCOD8036979
_publ_section_title
;
Structure prediction by ZEFSAII (Michael W. Deem and Ramdas Pophale) SiO2 
 PCOD8036979
Probable space group: P -1
;
_chemical_formula_sum "Si O2"
_cell_formula_units_Z 16
_cell_length_a 27.348801
_cell_length_b 27.097421
_cell_length_c 8.795176
_cell_angle_alpha 38.456982
_cell_angle_beta 37.729031
_cell_angle_gamma 10.161115
_cell_volume 703.010645
_symmetry_space_group_name_H-M "P -1"
_symmetry_group_IT_number 2
_symmetry_cell_setting 'triclinic'
loop_
_space_group_symop_operation_xyz
x,y,z
-x,-y,-z
loop_
_atom_site_type_symbol
_atom_site_label
_atom_site_fract_x
_atom_site_fract_y
_atom_site_fract_z
Si Si1 0.760814 0.572168 0.936113
Si Si2 0.915082 0.057672 0.738717
Si Si3 0.565103 0.398245 0.245184
Si Si4 0.694260 0.874362 0.237632
Si Si5 0.560310 0.895645 0.253203
Si Si6 0.361941 0.439143 0.501695
Si Si7 0.102813 0.095294 0.716729
Si Si8 0.015538 0.639406 0.427920
O O1 0.820122 0.487097 0.822764
O O2 0.984385 0.429397 0.763390
O O3 0.444203 0.906534 0.930114
O O4 0.806310 0.462246 0.217023
O O5 0.618156 0.384088 0.701235
O O6 0.000000 0.000000 0.500000
O O7 0.116568 0.898971 0.759749
O O8 0.877059 0.999263 0.991975
O O9 0.495652 0.372337 0.455318
O O10 0.500000 0.500000 0.000000
O O11 0.697631 0.836307 0.153248
O O12 0.500000 0.000000 0.500000
O O13 0.788949 0.608182 0.363056
O O14 0.277049 0.125498 0.465179
O O15 0.500000 0.000000 0.000000
O O16 0.141409 0.689689 0.324312
O O17 0.605678 0.167707 0.454499
O O18 0.038722 0.233907 0.637736
#
# Coordination Sequence:
#
# PCOD8036979 Si02
#       8
#     2   2   2   2   2   2   2   2
#     4  12  26  45  70 102 133 182 227 284 349 408
#     4  12  26  46  74 108 141 190 236 290 353 413
#     4  12  23  48  75 102 143 185 245 291 337 416
#     4  12  23  46  72  94 135 174 235 287 334 407
#     4  12  27  44  70 101 130 182 227 284 345 410
#     4  12  27  45  73 103 138 187 233 285 349 411
#     4  12  26  47  68 102 146 182 226 291 349 418
#     4  12  26  47  66 100 143 175 224 286 351 412
#
# _framework density 22.759256000000001
#
# number of rings (size 3 to 8) (size 9 to 14) (size 15 to 20)
#    0.000    0.000    5.000    4.500    7.000    0.000 
#    2.250    0.000    0.000    0.000    0.000    0.000 
#    0.000    0.000    0.000    0.000    0.000    0.000 
#
# Total GULP energy -198411.817483 kJ/mol
# GULP energy per Si atom -12400.738593 kJ/mol
# Density = 2.270745 g / cm^3
# Si number density = 22.759256 Si / 1000 Ang^3
#
#
#
# Elastic Constant Matrix: (Units=GPa)
#
#
# Indices 1 2 3 4 5 6 
#
# 1 99.5462 20.6169 39.6354 -4.0188 1.9096 17.6278
# 2 20.6169 97.6252 19.7588 -3.4549 -4.3367 12.5129
# 3 39.6354 19.7588 121.1949 2.7595 10.6730 18.2983
# 4 -4.0188 -3.4549 2.7595 31.7191 -0.0202 -3.2229
# 5 1.9096 -4.3367 10.6730 -0.0202 37.1274 -1.6180
# 6 17.6278 12.5129 18.2983 -3.2229 -1.6180 48.7224
#
#
#
# Elastic Compliance Matrix: (Units=1/GPa)
#
#
# Indices 1 2 3 4 5 6 
#
# 1 0.012236 -0.001503 -0.003390 0.001410 0.000054 -0.002673
# 2 -0.001503 0.011140 -0.001230 0.000954 0.001657 -0.001737
# 3 -0.003390 -0.001230 0.010246 -0.001713 -0.003025 -0.002520
# 4 0.001410 0.000954 -0.001713 0.032166 0.000638 0.002037
# 5 0.000054 0.001657 -0.003025 0.000638 0.028068 0.001665
# 6 -0.002673 -0.001737 -0.002520 0.002037 0.001665 0.023074
#
#
# Mechanical properties :
#
#
# Convention : Reuss Voigt Hill
#
# Bulk Modulus (GPa) = 46.78178 53.15430 49.96804
# Shear Modulus (GPa) = 36.68384 39.40411 38.04398
#
# Velocity S-wave (km/s) = 4.01910 4.16546 4.09293
# Velocity P-wave (km/s) = 6.49132 6.82205 6.65874
#
# Compressibility (1/GPa) = 0.02137584
#
# Stress axis : x y z
#
# Youngs Moduli (GPa) = 81.72762 89.76956 97.59772
#
# Poissons Ratio (x) = 0.13493 0.33084
# Poissons Ratio (y) = 0.12284 0.12004
# Poissons Ratio (z) = 0.27704 0.11041
#
# Static dielectric constant tensor:
#      x y z
#    x 3.820410 -0.141400 0.012780 
#    y -0.141400 4.421840 0.005470 
#    z 0.012780 0.005470 4.076110 
# 
# 
# High freq. dielectric constant tensor:
#      x y z
#    x 1.902140 0.002530 0.003710 
#    y 0.002530 1.916140 -0.000680 
#    z 0.003710 -0.000680 1.898720 
# 
# From -- ./inp_files/357970.got.cif
#   From: 2010.06.25/outbox.cif.g09.slc.cpg/sg2_179_cif.got.tgz:357970.got - 2010.06.27 13:26:56.
