data_PCOD8036593
_publ_section_title
;
Structure prediction by ZEFSAII (Michael W. Deem and Ramdas Pophale) SiO2 
 PCOD8036593
Probable space group: P -1
;
_chemical_formula_sum "Si O2"
_cell_formula_units_Z 16
_cell_length_a 27.550942
_cell_length_b 11.164665
_cell_length_c 16.811580
_cell_angle_alpha 156.587321
_cell_angle_beta 158.811408
_cell_angle_gamma 33.480032
_cell_volume 734.268132
_symmetry_space_group_name_H-M "P -1"
_symmetry_group_IT_number 2
_symmetry_cell_setting 'triclinic'
loop_
_space_group_symop_operation_xyz
x,y,z
-x,-y,-z
loop_
_atom_site_type_symbol
_atom_site_label
_atom_site_fract_x
_atom_site_fract_y
_atom_site_fract_z
Si Si1 0.763560 0.177148 0.895134
Si Si2 0.966340 0.973043 0.340263
Si Si3 0.201713 0.591983 0.743223
Si Si4 0.513465 0.221461 0.295556
Si Si5 0.401196 0.245282 0.737177
Si Si6 0.975798 0.995732 0.868002
Si Si7 0.220820 0.155761 0.736374
Si Si8 0.798210 0.346213 0.725772
O O1 0.644730 0.994639 0.549464
O O2 0.723250 0.207829 0.946122
O O3 0.802201 0.502608 0.109717
O O4 0.886076 0.975588 0.954648
O O5 0.882254 0.223605 0.331025
O O6 0.865727 0.657131 0.976282
O O7 0.000000 0.000000 0.500000
O O8 0.115484 0.006154 0.550396
O O9 0.292525 0.421602 0.720381
O O10 0.104180 0.329150 0.479860
O O11 0.500000 0.500000 0.500000
O O12 0.641772 0.340035 0.507247
O O13 0.531227 0.924827 0.192877
O O14 0.376531 0.136934 0.984933
O O15 0.500000 0.500000 0.000000
O O16 0.893736 0.282543 0.907057
O O17 0.000000 0.000000 0.000000
O O18 0.186983 0.945831 0.481416
#
# Coordination Sequence:
#
# PCOD8036593 Si02
#       8
#     2   2   2   2   2   2   2   2
#     4  12  24  46  78 106 139 188 241 297 358 426
#     4  12  28  44  71 110 149 182 234 303 362 417
#     4  12  25  47  73 105 142 186 240 294 358 424
#     4  12  25  46  72  98 146 194 236 285 360 434
#     4  12  29  47  73 107 143 190 243 296 354 428
#     4  12  21  41  75 102 137 182 238 289 354 422
#     4  12  25  45  74 106 142 191 239 295 358 425
#     4  12  26  45  69 107 143 186 242 294 354 430
#
# _framework density 21.790406000000001
#
# number of rings (size 3 to 8) (size 9 to 14) (size 15 to 20)
#    0.000    0.000    6.250    3.375    3.500    1.500 
#    0.000    0.000    0.000    0.000    0.000    0.000 
#    0.000    0.000    0.000    0.000    0.000    0.000 
#
# Total GULP energy -198318.956747 kJ/mol
# GULP energy per Si atom -12394.934797 kJ/mol
# Density = 2.174081 g / cm^3
# Si number density = 21.790406 Si / 1000 Ang^3
#
#
#
# Elastic Constant Matrix: (Units=GPa)
#
#
# Indices 1 2 3 4 5 6 
#
# 1 112.5294 31.0353 45.1250 1.8525 -2.9974 -4.5009
# 2 31.0353 115.6398 24.6455 -10.7369 20.6021 -5.9769
# 3 45.1250 24.6455 98.1207 4.8412 15.2746 -3.7862
# 4 1.8525 -10.7369 4.8412 35.6405 3.1851 -5.5020
# 5 -2.9974 20.6021 15.2746 3.1851 48.2955 6.0242
# 6 -4.5009 -5.9769 -3.7862 -5.5020 6.0242 28.8737
#
#
#
# Elastic Compliance Matrix: (Units=1/GPa)
#
#
# Indices 1 2 3 4 5 6 
#
# 1 0.011906 -0.002869 -0.005301 -0.001168 0.003772 -0.000443
# 2 -0.002869 0.011185 -0.000717 0.004698 -0.005509 0.003819
# 3 -0.005301 -0.000717 0.013617 -0.001159 -0.004443 0.001517
# 4 -0.001168 0.004698 -0.001159 0.031284 -0.004719 0.007584
# 5 0.003772 -0.005509 -0.004443 -0.004719 0.025935 -0.007445
# 6 -0.000443 0.003819 0.001517 0.007584 -0.007445 0.038553
#
#
# Mechanical properties :
#
#
# Convention : Reuss Voigt Hill
#
# Bulk Modulus (GPa) = 52.81569 58.65573 55.73571
# Shear Modulus (GPa) = 31.93568 37.59422 34.76495
#
# Velocity S-wave (km/s) = 3.83245 4.15814 3.99861
# Velocity P-wave (km/s) = 6.62376 7.07319 6.85216
#
# Compressibility (1/GPa) = 0.01893377
#
# Stress axis : x y z
#
# Youngs Moduli (GPa) = 83.99416 89.40327 73.43778
#
# Poissons Ratio (x) = 0.25647 0.38932
# Poissons Ratio (y) = 0.24095 0.05266
# Poissons Ratio (z) = 0.44528 0.06411
#
# Static dielectric constant tensor:
#      x y z
#    x 4.016270 0.491490 -0.188520 
#    y 0.491490 11.460440 -1.743160 
#    z -0.188520 -1.743160 4.795590 
# 
# 
# High freq. dielectric constant tensor:
#      x y z
#    x 1.861370 -0.001300 -0.012960 
#    y -0.001300 1.871230 0.001350 
#    z -0.012960 0.001350 1.863000 
# 
# From -- ./inp_files/306213.got.cif
#   From: 2010.06.25/outbox.cif.g09.slc.cpg/sg2_154_cif.got.tgz:306213.got - 2010.06.27 13:26:56.
