data_PCOD8036282
_publ_section_title
;
Structure prediction by ZEFSAII (Michael W. Deem and Ramdas Pophale) SiO2 
 PCOD8036282
Probable space group: P -1
;
_chemical_formula_sum "Si O2"
_cell_formula_units_Z 14
_cell_length_a 9.673498
_cell_length_b 7.777155
_cell_length_c 8.863531
_cell_angle_alpha 68.776936
_cell_angle_beta 102.891604
_cell_angle_gamma 100.611190
_cell_volume 601.996401
_symmetry_space_group_name_H-M "P -1"
_symmetry_group_IT_number 2
_symmetry_cell_setting 'triclinic'
loop_
_space_group_symop_operation_xyz
x,y,z
-x,-y,-z
loop_
_atom_site_type_symbol
_atom_site_label
_atom_site_fract_x
_atom_site_fract_y
_atom_site_fract_z
Si Si1 0.754769 0.779671 0.709546
Si Si2 0.355971 0.929061 0.576046
Si Si3 0.631383 0.127543 0.049816
Si Si4 0.073336 0.505169 0.295696
Si Si5 0.145467 0.932431 0.098525
Si Si6 0.483683 0.519633 0.164600
Si Si7 0.778241 0.463150 0.375951
O O1 0.876470 0.638580 0.771927
O O2 0.597786 0.666146 0.725066
O O3 0.745500 0.904980 0.516298
O O4 0.778676 0.924591 0.806797
O O5 0.373827 0.865166 0.772888
O O6 0.277252 0.749164 0.531301
O O7 0.500000 0.000000 0.500000
O O8 0.771914 0.050552 0.046026
O O9 0.618010 0.319004 0.895762
O O10 0.500000 0.000000 0.000000
O O11 0.126005 0.719380 0.213077
O O12 0.146993 0.442371 0.487531
O O13 0.900283 0.475142 0.270897
O O14 0.000000 0.000000 0.000000
O O15 0.641325 0.567130 0.262061
O O16 0.500000 0.500000 0.000000
#
# Coordination Sequence:
#
# PCOD8036282 Si02
#       7
#     2   2   2   2   2   2   2
#     4  12  27  49  78 106 151 199 251 306 378 441
#     4  12  24  47  77 110 151 196 248 315 368 448
#     4  12  28  45  73 117 155 194 255 311 382 440
#     4  11  28  50  73 110 152 200 251 306 379 459
#     4  12  29  49  75 111 156 200 251 313 376 451
#     4  12  24  45  75 110 148 194 247 310 371 442
#     4  11  26  47  75 109 151 196 255 308 378 452
#
# _framework density 23.255952000000001
#
# number of rings (size 3 to 8) (size 9 to 14) (size 15 to 20)
#    0.000    0.286    5.714    1.714    8.000    2.857 
#    0.000    0.000    0.000    0.000    0.000    0.000 
#    0.000    0.000    0.000    0.000    0.000    0.000 
#
# Total GULP energy -173517.866644 kJ/mol
# GULP energy per Si atom -12394.133332 kJ/mol
# Density = 2.320302 g / cm^3
# Si number density = 23.255952 Si / 1000 Ang^3
#
#
#
# Elastic Constant Matrix: (Units=GPa)
#
#
# Indices 1 2 3 4 5 6 
#
# 1 162.7179 40.9561 46.8013 -0.6695 -4.8668 -2.3969
# 2 40.9561 118.8090 31.7601 -10.9599 -4.2450 -6.6073
# 3 46.8013 31.7601 102.0607 -14.5411 10.0526 -5.9686
# 4 -0.6695 -10.9599 -14.5411 26.7921 -1.1342 3.2851
# 5 -4.8668 -4.2450 10.0526 -1.1342 42.6629 -3.8035
# 6 -2.3969 -6.6073 -5.9686 3.2851 -3.8035 44.0309
#
#
#
# Elastic Compliance Matrix: (Units=1/GPa)
#
#
# Indices 1 2 3 4 5 6 
#
# 1 0.007628 -0.001893 -0.003386 -0.002358 0.001414 -0.000030
# 2 -0.001893 0.009952 -0.001887 0.002931 0.001389 0.001036
# 3 -0.003386 -0.001887 0.013179 0.006080 -0.003467 0.000566
# 4 -0.002358 0.002931 0.006080 0.041994 -0.000475 -0.002039
# 5 0.001414 0.001389 -0.003467 -0.000475 0.024721 0.001986
# 6 -0.000030 0.001036 0.000566 -0.002039 0.001986 0.023265
#
#
# Mechanical properties :
#
#
# Convention : Reuss Voigt Hill
#
# Bulk Modulus (GPa) = 60.87926 69.18028 65.02977
# Shear Modulus (GPa) = 35.57533 40.30185 37.93859
#
# Velocity S-wave (km/s) = 3.91542 4.16741 4.04338
# Velocity P-wave (km/s) = 6.83194 7.27794 7.05846
#
# Compressibility (1/GPa) = 0.01642596
#
# Stress axis : x y z
#
# Youngs Moduli (GPa) = 131.09424 100.48611 75.87911
#
# Poissons Ratio (x) = 0.19023 0.25691
# Poissons Ratio (y) = 0.24817 0.14321
# Poissons Ratio (z) = 0.44386 0.18966
#
# Static dielectric constant tensor:
#      x y z
#    x 4.377840 -0.342410 0.332760 
#    y -0.342410 6.124070 -1.671460 
#    z 0.332760 -1.671460 4.617990 
# 
# 
# High freq. dielectric constant tensor:
#      x y z
#    x 1.931690 -0.001530 0.005750 
#    y -0.001530 1.931880 -0.013110 
#    z 0.005750 -0.013110 1.915270 
# 
# From -- ./inp_files/157521.got.cif
#   From: 2010.06.25/outbox.cif.g09.slc.cpg/sg2_79_cif.got.tgz:157521.got - 2010.06.27 13:26:56.
