data_PCOD8036893
_publ_section_title
;
Structure prediction by ZEFSAII (Michael W. Deem and Ramdas Pophale) SiO2 
 PCOD8036893
Probable space group: P -1
;
_chemical_formula_sum "Si O2"
_cell_formula_units_Z 16
_cell_length_a 24.517353
_cell_length_b 23.954373
_cell_length_c 8.452270
_cell_angle_alpha 45.007204
_cell_angle_beta 133.760999
_cell_angle_gamma 167.930166
_cell_volume 734.061506
_symmetry_space_group_name_H-M "P -1"
_symmetry_group_IT_number 2
_symmetry_cell_setting 'triclinic'
loop_
_space_group_symop_operation_xyz
x,y,z
-x,-y,-z
loop_
_atom_site_type_symbol
_atom_site_label
_atom_site_fract_x
_atom_site_fract_y
_atom_site_fract_z
Si Si1 0.509606 0.767697 0.914418
Si Si2 0.991875 0.802499 0.119113
Si Si3 0.534162 0.481321 0.260779
Si Si4 0.512138 0.743573 0.331956
Si Si5 0.963208 0.955975 0.698031
Si Si6 0.976032 0.534807 0.737082
Si Si7 0.986329 0.705209 0.601955
Si Si8 0.525211 0.964840 0.478284
O O1 0.258533 0.484287 0.890972
O O2 0.508432 0.860934 0.726610
O O3 0.508637 0.731653 0.160585
O O4 0.757952 0.984865 0.885572
O O5 0.986959 0.782225 0.337162
O O6 0.000275 0.903874 0.926143
O O7 0.489030 0.343532 0.413304
O O8 0.325517 0.302145 0.328661
O O9 0.500000 0.500000 0.000000
O O10 0.825497 0.780202 0.314286
O O11 0.267689 0.550787 0.284832
O O12 0.766079 0.046614 0.283814
O O13 0.000000 0.000000 0.500000
O O14 0.700510 0.245770 0.679487
O O15 0.996071 0.642376 0.628258
O O16 0.201160 0.745799 0.638173
O O17 0.000000 0.500000 0.000000
O O18 0.500000 0.000000 0.500000
#
# Coordination Sequence:
#
# PCOD8036893 Si02
#       8
#     2   2   2   2   2   2   2   2
#     4  12  24  44  66  98 136 172 225 270 329 398
#     4  12  23  44  68  94 132 178 221 278 328 392
#     4  12  24  44  63  98 135 173 226 278 334 392
#     4  12  26  41  68  97 135 178 220 279 329 388
#     4  12  24  41  68  96 130 174 225 277 335 391
#     4  12  27  47  72 102 137 172 220 270 323 398
#     4  12  24  44  66  97 131 176 225 262 333 390
#     4  12  26  47  71 102 136 176 214 270 333 392
#
# _framework density 21.796538000000002
#
# number of rings (size 3 to 8) (size 9 to 14) (size 15 to 20)
#    0.000    0.000    2.500    8.250    3.500    0.000 
#    0.000    0.000    0.000    0.000    0.000    0.000 
#    0.000    0.000    0.000    0.000    0.000    0.000 
#
# Total GULP energy -198534.060351 kJ/mol
# GULP energy per Si atom -12408.378772 kJ/mol
# Density = 2.174693 g / cm^3
# Si number density = 21.796538 Si / 1000 Ang^3
#
#
#
# Elastic Constant Matrix: (Units=GPa)
#
#
# Indices 1 2 3 4 5 6 
#
# 1 93.9098 32.5947 -0.4025 -1.8960 7.3355 11.2049
# 2 32.5947 134.0804 12.8576 15.0331 -5.1960 10.0342
# 3 -0.4025 12.8576 78.9731 -1.8942 -7.3640 -1.4460
# 4 -1.8960 15.0331 -1.8942 28.6286 -3.9020 -15.5770
# 5 7.3355 -5.1960 -7.3640 -3.9020 49.9971 2.7227
# 6 11.2049 10.0342 -1.4460 -15.5770 2.7227 49.6666
#
#
#
# Elastic Compliance Matrix: (Units=1/GPa)
#
#
# Indices 1 2 3 4 5 6 
#
# 1 0.012077 -0.003077 0.000394 0.001335 -0.001844 -0.001571
# 2 -0.003077 0.009464 -0.001715 -0.007101 0.000821 -0.003540
# 3 0.000394 -0.001715 0.013211 0.002830 0.001853 0.001428
# 4 0.001335 -0.007101 0.002830 0.048045 0.002353 0.016155
# 5 -0.001844 0.000821 0.001853 0.002353 0.020819 -0.000099
# 6 -0.001571 -0.003540 0.001428 0.016155 -0.000099 0.026318
#
#
# Mechanical properties :
#
#
# Convention : Reuss Voigt Hill
#
# Bulk Modulus (GPa) = 38.52934 44.11811 41.32373
# Shear Modulus (GPa) = 33.92570 43.11937 38.52254
#
# Velocity S-wave (km/s) = 3.94949 4.45260 4.20857
# Velocity P-wave (km/s) = 6.20590 6.83513 6.52810
#
# Compressibility (1/GPa) = 0.02595424
#
# Stress axis : x y z
#
# Youngs Moduli (GPa) = 82.80386 105.66834 75.69691
#
# Poissons Ratio (x) = 0.32516 -0.02981
# Poissons Ratio (y) = 0.25480 0.12982
# Poissons Ratio (z) = -0.03261 0.18122
#
# Static dielectric constant tensor:
#      x y z
#    x 3.943850 0.136350 0.322460 
#    y 0.136350 4.229230 -0.386630 
#    z 0.322460 -0.386630 2.997300 
# 
# 
# High freq. dielectric constant tensor:
#      x y z
#    x 1.870330 0.003660 -0.002640 
#    y 0.003660 1.879130 0.000040 
#    z -0.002640 0.000040 1.869880 
# 
# From -- ./inp_files/343973.got.cif
#   From: 2010.06.25/outbox.cif.g09.slc.cpg/sg2_172_cif.got.tgz:343973.got - 2010.06.27 13:26:56.
