data_PCOD8036862
_publ_section_title
;
Structure prediction by ZEFSAII (Michael W. Deem and Ramdas Pophale) SiO2 
 PCOD8036862
Probable space group: P -1
;
_chemical_formula_sum "Si O2"
_cell_formula_units_Z 16
_cell_length_a 11.893333
_cell_length_b 11.842037
_cell_length_c 11.189752
_cell_angle_alpha 49.564374
_cell_angle_beta 86.235350
_cell_angle_gamma 124.181100
_cell_volume 724.838502
_symmetry_space_group_name_H-M "P -1"
_symmetry_group_IT_number 2
_symmetry_cell_setting 'triclinic'
loop_
_space_group_symop_operation_xyz
x,y,z
-x,-y,-z
loop_
_atom_site_type_symbol
_atom_site_label
_atom_site_fract_x
_atom_site_fract_y
_atom_site_fract_z
Si Si1 0.432287 0.975117 0.889371
Si Si2 0.476616 0.343965 0.702365
Si Si3 0.074086 0.418160 0.795723
Si Si4 0.948675 0.585292 0.747717
Si Si5 0.906336 0.026056 0.909292
Si Si6 0.141490 0.891803 0.744608
Si Si7 0.121731 0.211063 0.533770
Si Si8 0.475070 0.873434 0.471304
O O1 0.405842 0.124727 0.788284
O O2 0.552143 0.067247 0.696449
O O3 0.500000 0.000000 0.000000
O O4 0.247985 0.694939 0.064813
O O5 0.500000 0.500000 0.500000
O O6 0.674805 0.517449 0.628904
O O7 0.318049 0.216186 0.898835
O O8 0.282735 0.578410 0.700155
O O9 0.088553 0.613779 0.655979
O O10 0.994189 0.275784 0.772887
O O11 0.928887 0.204528 0.050284
O O12 0.957155 0.761320 0.579249
O O13 0.000308 0.649647 0.839035
O O14 0.963399 0.054904 0.751438
O O15 0.000000 0.000000 0.000000
O O16 0.139150 0.061591 0.589819
O O17 0.351436 0.055672 0.598998
O O18 0.500000 0.000000 0.500000
#
# Coordination Sequence:
#
# PCOD8036862 Si02
#       8
#     2   2   2   2   2   2   2   2
#     4  12  25  45  71 106 144 180 231 302 362 415
#     4  12  23  43  69 100 138 184 231 289 356 421
#     4  12  24  44  74 102 136 181 244 295 344 421
#     4  12  25  47  68 101 144 192 227 290 360 417
#     4  12  24  41  68 105 135 177 237 290 350 421
#     4  12  25  49  71 101 144 191 242 285 348 433
#     4  12  27  43  69 102 147 184 229 292 360 422
#     4  12  25  44  76 106 134 188 247 293 347 427
#
# _framework density 22.073885000000001
#
# number of rings (size 3 to 8) (size 9 to 14) (size 15 to 20)
#    0.000    0.000    7.500    3.000    1.750    1.500 
#    0.000    0.000    0.000    3.750    0.000    0.000 
#    0.000    0.000    0.000    0.000    0.000    0.000 
#
# Total GULP energy -198268.424114 kJ/mol
# GULP energy per Si atom -12391.776507 kJ/mol
# Density = 2.202364 g / cm^3
# Si number density = 22.073885 Si / 1000 Ang^3
#
#
#
# Elastic Constant Matrix: (Units=GPa)
#
#
# Indices 1 2 3 4 5 6 
#
# 1 115.8497 33.5151 58.5765 1.9635 5.3375 -9.8215
# 2 33.5151 80.7582 28.4787 -4.3777 -5.2742 -13.7859
# 3 58.5765 28.4787 115.3051 -5.0026 -24.0151 -4.8622
# 4 1.9635 -4.3777 -5.0026 36.2218 1.4463 -3.6278
# 5 5.3375 -5.2742 -24.0151 1.4463 51.8115 -4.5965
# 6 -9.8215 -13.7859 -4.8622 -3.6278 -4.5965 30.2825
#
#
#
# Elastic Compliance Matrix: (Units=1/GPa)
#
#
# Indices 1 2 3 4 5 6 
#
# 1 0.013530 -0.003407 -0.007106 -0.001857 -0.004918 0.000727
# 2 -0.003407 0.015616 -0.001378 0.002446 0.001797 0.006349
# 3 -0.007106 -0.001378 0.014236 0.001966 0.007196 0.000681
# 4 -0.001857 0.002446 0.001966 0.028679 0.000942 0.004405
# 5 -0.004918 0.001797 0.007196 0.000942 0.023662 0.004083
# 6 0.000727 0.006349 0.000681 0.004405 0.004083 0.037405
#
#
# Mechanical properties :
#
#
# Convention : Reuss Voigt Hill
#
# Bulk Modulus (GPa) = 51.02169 61.45039 56.23604
# Shear Modulus (GPa) = 30.59143 36.41933 33.50538
#
# Velocity S-wave (km/s) = 3.72676 4.06628 3.90022
# Velocity P-wave (km/s) = 6.45620 7.06719 6.76859
#
# Compressibility (1/GPa) = 0.01959951
#
# Stress axis : x y z
#
# Youngs Moduli (GPa) = 73.90772 64.03600 70.24493
#
# Poissons Ratio (x) = 0.21816 0.49919
# Poissons Ratio (y) = 0.25180 0.09681
# Poissons Ratio (z) = 0.52522 0.08825
#
# Static dielectric constant tensor:
#      x y z
#    x 4.707680 -0.123850 -0.198380 
#    y -0.123850 4.277980 -0.147620 
#    z -0.198380 -0.147620 3.793910 
# 
# 
# High freq. dielectric constant tensor:
#      x y z
#    x 1.869960 -0.007760 -0.010400 
#    y -0.007760 1.876940 -0.011730 
#    z -0.010400 -0.011730 1.870300 
# 
# From -- ./inp_files/278742.got.cif
#   From: 2010.06.25/outbox.cif.g09.slc.cpg/sg2_140_cif.got.tgz:278742.got - 2010.06.27 13:26:56.
