data_PCOD8036271
_publ_section_title
;
Structure prediction by ZEFSAII (Michael W. Deem and Ramdas Pophale) SiO2 
 PCOD8036271
Probable space group: P -1
;
_chemical_formula_sum "Si O2"
_cell_formula_units_Z 14
_cell_length_a 17.510846
_cell_length_b 9.066439
_cell_length_c 24.036875
_cell_angle_alpha 31.120507
_cell_angle_beta 161.179087
_cell_angle_gamma 150.539293
_cell_volume 593.101260
_symmetry_space_group_name_H-M "P -1"
_symmetry_group_IT_number 2
_symmetry_cell_setting 'triclinic'
loop_
_space_group_symop_operation_xyz
x,y,z
-x,-y,-z
loop_
_atom_site_type_symbol
_atom_site_label
_atom_site_fract_x
_atom_site_fract_y
_atom_site_fract_z
Si Si1 0.233213 0.722341 0.895666
Si Si2 0.374371 0.141844 0.179383
Si Si3 0.760590 0.536136 0.700151
Si Si4 0.834475 0.910178 0.741274
Si Si5 0.417129 0.699134 0.614160
Si Si6 0.765396 0.976871 0.309108
Si Si7 0.420476 0.179514 0.078111
O O1 0.011826 0.763639 0.767995
O O2 0.160977 0.745934 0.773783
O O3 0.232770 0.381023 0.015222
O O4 0.500000 0.000000 0.000000
O O5 0.541494 0.136203 0.350473
O O6 0.530339 0.240547 0.197264
O O7 0.197309 0.787494 0.162999
O O8 0.500000 0.500000 0.500000
O O9 0.753852 0.653078 0.720519
O O10 0.669174 0.791137 0.720913
O O11 0.795731 0.214161 0.593197
O O12 0.120466 0.001609 0.928546
O O13 0.323672 0.344294 0.680482
O O14 0.538132 0.965673 0.196311
O O15 0.000000 0.000000 0.500000
O O16 0.500000 0.500000 0.000000
#
# Coordination Sequence:
#
# PCOD8036271 Si02
#       7
#     2   2   2   2   2   2   2
#     4  12  27  49  75 110 152 192 252 310 372 442
#     4  12  27  47  76 109 148 200 247 310 377 447
#     4  12  28  49  76 113 150 197 253 308 374 451
#     4  11  27  48  75 108 152 197 250 308 370 454
#     4  11  26  47  74 108 148 198 249 303 378 443
#     4  12  27  47  74 106 149 197 243 308 380 440
#     4  12  27  47  74 110 149 191 251 311 372 443
#
# _framework density 23.604738999999999
#
# number of rings (size 3 to 8) (size 9 to 14) (size 15 to 20)
#    0.000    0.286    4.286    3.000    8.000    1.143 
#    0.000    2.857    0.000    0.000    0.000    0.000 
#    0.000    0.000    0.000    0.000    0.000    0.000 
#
# Total GULP energy -173581.502958 kJ/mol
# GULP energy per Si atom -12398.678783 kJ/mol
# Density = 2.355101 g / cm^3
# Si number density = 23.604739 Si / 1000 Ang^3
#
#
#
# Elastic Constant Matrix: (Units=GPa)
#
#
# Indices 1 2 3 4 5 6 
#
# 1 152.7288 37.4864 43.4019 11.3699 -16.9245 -4.6162
# 2 37.4864 101.7663 42.7346 -6.3773 5.4492 -7.4415
# 3 43.4019 42.7346 115.5802 3.8606 -0.5738 10.8813
# 4 11.3699 -6.3773 3.8606 34.8240 0.3113 2.0469
# 5 -16.9245 5.4492 -0.5738 0.3113 46.6983 -0.6171
# 6 -4.6162 -7.4415 10.8813 2.0469 -0.6171 40.2276
#
#
#
# Elastic Compliance Matrix: (Units=1/GPa)
#
#
# Indices 1 2 3 4 5 6 
#
# 1 0.008427 -0.002420 -0.002278 -0.003051 0.003347 0.001342
# 2 -0.002420 0.013132 -0.004370 0.003518 -0.002445 0.003117
# 3 -0.002278 -0.004370 0.011548 -0.001091 -0.000221 -0.004141
# 4 -0.003051 0.003518 -0.001091 0.030551 -0.001746 -0.000985
# 5 0.003347 -0.002445 -0.000221 -0.001746 0.022927 0.000432
# 6 0.001342 0.003117 -0.004141 -0.000985 0.000432 0.026766
#
#
# Mechanical properties :
#
#
# Convention : Reuss Voigt Hill
#
# Bulk Modulus (GPa) = 66.78808 68.59123 67.68966
# Shear Modulus (GPa) = 36.63601 40.78015 38.70808
#
# Velocity S-wave (km/s) = 3.94390 4.16098 4.05389
# Velocity P-wave (km/s) = 7.00677 7.22540 7.11692
#
# Compressibility (1/GPa) = 0.01497273
#
# Stress axis : x y z
#
# Youngs Moduli (GPa) = 118.66111 76.14824 86.59351
#
# Poissons Ratio (x) = 0.18429 0.19722
# Poissons Ratio (y) = 0.28718 0.37840
# Poissons Ratio (z) = 0.27026 0.33276
#
# Static dielectric constant tensor:
#      x y z
#    x 4.193710 -0.052010 -0.145400 
#    y -0.052010 5.205900 -0.199210 
#    z -0.145400 -0.199210 4.356970 
# 
# 
# High freq. dielectric constant tensor:
#      x y z
#    x 1.952700 -0.006090 -0.011930 
#    y -0.006090 1.936000 -0.016820 
#    z -0.011930 -0.016820 1.939180 
# 
# From -- ./inp_files/219075.got.cif
#   From: 2010.06.25/outbox.cif.g09.slc.cpg/sg2_110_cif.got.tgz:219075.got - 2010.06.27 13:26:56.
