data_PCOD8036750
_publ_section_title
;
Structure prediction by ZEFSAII (Michael W. Deem and Ramdas Pophale) SiO2 
 PCOD8036750
Probable space group: P -1
;
_chemical_formula_sum "Si O2"
_cell_formula_units_Z 16
_cell_length_a 13.699078
_cell_length_b 14.883205
_cell_length_c 11.483093
_cell_angle_alpha 67.310460
_cell_angle_beta 146.767960
_cell_angle_gamma 135.215738
_cell_volume 761.515683
_symmetry_space_group_name_H-M "P -1"
_symmetry_group_IT_number 2
_symmetry_cell_setting 'triclinic'
loop_
_space_group_symop_operation_xyz
x,y,z
-x,-y,-z
loop_
_atom_site_type_symbol
_atom_site_label
_atom_site_fract_x
_atom_site_fract_y
_atom_site_fract_z
Si Si1 0.575734 0.418978 0.364374
Si Si2 0.327467 0.631966 0.266613
Si Si3 0.070611 0.917624 0.610132
Si Si4 0.522935 0.402267 0.805901
Si Si5 0.350336 0.034558 0.594880
Si Si6 0.144096 0.100608 0.980064
Si Si7 0.878871 0.404433 0.309723
Si Si8 0.414103 0.063702 0.100798
O O1 0.571425 0.376512 0.511329
O O2 0.427940 0.462188 0.198811
O O3 0.395808 0.276779 0.171424
O O4 0.886331 0.548218 0.558523
O O5 0.449036 0.620322 0.287843
O O6 0.441059 0.788992 0.300352
O O7 0.000000 0.500000 0.000000
O O8 0.789869 0.742977 0.390680
O O9 0.292642 0.990874 0.694884
O O10 0.000000 0.000000 0.500000
O O11 0.197962 0.939079 0.849181
O O12 0.738945 0.434239 0.084820
O O13 0.483522 0.990322 0.703856
O O14 0.067887 0.930549 0.296224
O O15 0.256906 0.056129 0.046182
O O16 0.000000 0.000000 0.000000
O O17 0.658568 0.228462 0.204535
O O18 0.000000 0.500000 0.500000
#
# Coordination Sequence:
#
# PCOD8036750 Si02
#       8
#     2   2   2   2   2   2   2   2
#     4  12  28  45  71 100 138 186 227 278 342 405
#     4  12  25  47  70 101 140 177 231 284 335 408
#     4  12  22  45  74 101 135 174 227 288 341 391
#     4  12  26  46  74  99 138 182 226 285 344 399
#     4  12  26  46  74 101 137 181 226 286 342 399
#     4  12  26  48  67 101 142 181 233 275 329 417
#     4  12  25  46  68 102 143 175 227 281 335 412
#     4  12  26  45  75 102 136 180 226 285 346 399
#
# _framework density 21.010729999999999
#
# number of rings (size 3 to 8) (size 9 to 14) (size 15 to 20)
#    0.000    0.000    7.500    1.500    3.500    2.000 
#    0.000    0.000    0.000    0.000    0.000    0.000 
#    0.000    0.000    0.000    0.000    0.000    0.000 
#
# Total GULP energy -198502.367893 kJ/mol
# GULP energy per Si atom -12406.397993 kJ/mol
# Density = 2.096291 g / cm^3
# Si number density = 21.010730 Si / 1000 Ang^3
#
#
#
# Elastic Constant Matrix: (Units=GPa)
#
#
# Indices 1 2 3 4 5 6 
#
# 1 -413.9493 -307.4066 380.6872 -369.3313 -204.1130 295.5054
# 2 -307.4066 -163.9060 272.6596 -258.5594 -128.9298 200.6776
# 3 380.6872 272.6596 -58.6420 198.2521 124.9477 -190.3422
# 4 -369.3313 -258.5594 198.2521 -186.5283 -135.5143 203.3146
# 5 -204.1130 -128.9298 124.9477 -135.5143 -39.1775 111.4435
# 6 295.5054 200.6776 -190.3422 203.3146 111.4435 -125.8909
#
#
#
# Elastic Compliance Matrix: (Units=1/GPa)
#
#
# Indices 1 2 3 4 5 6 
#
# 1 0.010583 -0.009719 0.000117 -0.003641 0.000541 0.003771
# 2 -0.009719 0.018564 -0.001820 -0.000449 -0.006810 0.002777
# 3 0.000117 -0.001820 0.007287 0.005558 0.002558 -0.002403
# 4 -0.003641 -0.000449 0.005558 0.015428 -0.003579 0.004083
# 5 0.000541 -0.006810 0.002558 -0.003579 0.026418 0.004152
# 6 0.003771 0.002777 -0.002403 0.004083 0.004152 0.019239
#
#
# Mechanical properties :
#
#
# Convention : Reuss Voigt Hill
#
# Bulk Modulus (GPa) = 73.58375 6.15368 39.86872
# Shear Modulus (GPa) = 40.03434 -135.81517 -47.89041
#
# Velocity S-wave (km/s) = 4.36985 -8.04868 -4.77941
# Velocity P-wave (km/s) = 7.78195 9.13454 3.38237
#
# Compressibility (1/GPa) = 0.01358996
#
# Stress axis : x y z
#
# Youngs Moduli (GPa) = 94.49131 53.86859 137.22549
#
# Poissons Ratio (x) = 0.52354 -0.01606
# Poissons Ratio (y) = 0.91835 0.24977
# Poissons Ratio (z) = -0.01106 0.09805
#
# Static dielectric constant tensor:
#      x y z
#    x 3.158710 0.331070 0.454760 
#    y 0.331070 3.921260 -0.145870 
#    z 0.454760 -0.145870 3.758530 
# 
# 
# High freq. dielectric constant tensor:
#      x y z
#    x 1.836410 -0.000220 0.001840 
#    y -0.000220 1.830000 0.000620 
#    z 0.001840 0.000620 1.839390 
# 
# From -- ./inp_files/428946.got.cif
#   From: 2010.06.25/outbox.cif.g09.slc.cpg/sg2_215_cif.got.tgz:428946.got - 2010.06.27 13:26:56.
