data_PCOD8036987
_publ_section_title
;
Structure prediction by ZEFSAII (Michael W. Deem and Ramdas Pophale) SiO2 
 PCOD8036987
Probable space group: P -1
;
_chemical_formula_sum "Si O2"
_cell_formula_units_Z 16
_cell_length_a 9.412899
_cell_length_b 13.056829
_cell_length_c 11.356429
_cell_angle_alpha 34.022058
_cell_angle_beta 87.074321
_cell_angle_gamma 72.975595
_cell_volume 697.169458
_symmetry_space_group_name_H-M "P -1"
_symmetry_group_IT_number 2
_symmetry_cell_setting 'triclinic'
loop_
_space_group_symop_operation_xyz
x,y,z
-x,-y,-z
loop_
_atom_site_type_symbol
_atom_site_label
_atom_site_fract_x
_atom_site_fract_y
_atom_site_fract_z
Si Si1 0.182367 0.909148 0.544218
Si Si2 0.333099 0.015363 0.031777
Si Si3 0.664444 0.253238 0.062367
Si Si4 0.786267 0.316080 0.627898
Si Si5 0.306815 0.507660 0.774478
Si Si6 0.174360 0.215595 0.073141
Si Si7 0.151420 0.556050 0.244478
Si Si8 0.865036 0.837749 0.312977
O O1 0.294545 0.817569 0.738164
O O2 0.236225 0.736880 0.606427
O O3 0.202517 0.097034 0.307686
O O4 0.000000 0.000000 0.500000
O O5 0.314826 0.083574 0.102705
O O6 0.314277 0.806654 0.220658
O O7 0.197049 0.181114 0.796420
O O8 0.500000 0.000000 0.000000
O O9 0.750966 0.058683 0.159617
O O10 0.476231 0.351268 0.966732
O O11 0.711891 0.433960 0.852566
O O12 0.684143 0.489876 0.371149
O O13 0.814997 0.416315 0.647765
O O14 0.958118 0.179610 0.689052
O O15 0.182502 0.425761 0.900531
O O16 0.009482 0.259694 0.973892
O O17 0.142430 0.341114 0.436262
#
# Coordination Sequence:
#
# PCOD8036987 Si02
#       8
#     2   2   2   2   2   2   2   2
#     4  12  27  50  79 103 140 195 250 301 358 428
#     4  12  25  42  73 111 151 188 236 298 372 436
#     4  12  28  47  71 108 146 195 243 306 361 422
#     4  12  23  46  74 105 151 196 236 300 363 441
#     4  12  28  47  73 108 148 184 242 304 373 424
#     4  12  25  47  75 109 145 189 244 301 357 438
#     4  12  25  43  76 109 147 192 247 292 361 443
#     4  12  24  45  72 105 150 194 242 292 364 438
#
# _framework density 22.949945
#
# number of rings (size 3 to 8) (size 9 to 14) (size 15 to 20)
#    0.000    0.000    6.250    4.125    1.750    3.500 
#    0.000    0.000    0.000    0.000    0.000    0.000 
#    0.000    0.000    0.000    0.000    0.000    0.000 
#
# Total GULP energy -198439.345932 kJ/mol
# GULP energy per Si atom -12402.459121 kJ/mol
# Density = 2.289771 g / cm^3
# Si number density = 22.949945 Si / 1000 Ang^3
#
#
#
# Elastic Constant Matrix: (Units=GPa)
#
#
# Indices 1 2 3 4 5 6 
#
# 1 127.9800 26.9659 61.0896 9.4692 1.3706 3.7680
# 2 26.9659 51.7272 31.7463 15.2108 2.5751 -4.0901
# 3 61.0896 31.7463 166.0963 29.5249 -8.2036 8.3250
# 4 9.4692 15.2108 29.5249 43.9385 9.6769 2.5569
# 5 1.3706 2.5751 -8.2036 9.6769 56.0738 1.6066
# 6 3.7680 -4.0901 8.3250 2.5569 1.6066 25.3613
#
#
#
# Elastic Compliance Matrix: (Units=1/GPa)
#
#
# Indices 1 2 3 4 5 6 
#
# 1 0.010085 -0.003775 -0.003245 0.001553 -0.000783 -0.001149
# 2 -0.003775 0.025329 -0.002648 -0.006420 -0.000528 0.006196
# 3 -0.003245 -0.002648 0.008792 -0.004667 0.002365 -0.002510
# 4 0.001553 -0.006420 -0.004667 0.029103 -0.005382 -0.002327
# 5 -0.000783 -0.000528 0.002365 -0.005382 0.019192 -0.001418
# 6 -0.001149 0.006196 -0.002510 -0.002327 -0.001418 0.041749
#
#
# Mechanical properties :
#
#
# Convention : Reuss Voigt Hill
#
# Bulk Modulus (GPa) = 40.20747 65.04521 52.62634
# Shear Modulus (GPa) = 30.88753 40.14152 35.51452
#
# Velocity S-wave (km/s) = 3.67258 4.18675 3.93807
# Velocity P-wave (km/s) = 5.96167 7.19552 6.60746
#
# Compressibility (1/GPa) = 0.02487100
#
# Stress axis : x y z
#
# Youngs Moduli (GPa) = 99.15396 39.48003 113.73361
#
# Poissons Ratio (x) = 0.14902 0.36907
# Poissons Ratio (y) = 0.37426 0.30121
# Poissons Ratio (z) = 0.32176 0.10456
#
# Static dielectric constant tensor:
#      x y z
#    x 4.239090 0.131900 -0.051970 
#    y 0.131900 3.975570 0.230370 
#    z -0.051970 0.230370 4.425740 
# 
# 
# High freq. dielectric constant tensor:
#      x y z
#    x 1.915090 0.006180 -0.004140 
#    y 0.006180 1.887060 0.008570 
#    z -0.004140 0.008570 1.926020 
# 
# From -- ./inp_files/382307.got.cif
#   From: 2010.06.25/outbox.cif.g09.slc.cpg/sg2_192_cif.got.tgz:382307.got - 2010.06.27 13:26:56.
