data_PCOD8036618
_publ_section_title
;
Structure prediction by ZEFSAII (Michael W. Deem and Ramdas Pophale) SiO2 
 PCOD8036618
Probable space group: P -1
;
_chemical_formula_sum "Si O2"
_cell_formula_units_Z 14
_cell_length_a 19.107124
_cell_length_b 9.090809
_cell_length_c 11.502343
_cell_angle_alpha 131.673760
_cell_angle_beta 25.852422
_cell_angle_gamma 138.609158
_cell_volume 575.676102
_symmetry_space_group_name_H-M "P -1"
_symmetry_group_IT_number 2
_symmetry_cell_setting 'triclinic'
loop_
_space_group_symop_operation_xyz
x,y,z
-x,-y,-z
loop_
_atom_site_type_symbol
_atom_site_label
_atom_site_fract_x
_atom_site_fract_y
_atom_site_fract_z
Si Si1 0.248544 0.798011 0.017653
Si Si2 0.324982 0.265497 0.154114
Si Si3 0.295214 0.821591 0.221480
Si Si4 0.914416 0.678583 0.283028
Si Si5 0.593437 0.260973 0.460158
Si Si6 0.023695 0.971494 0.814453
Si Si7 0.717069 0.624574 0.956771
O O1 0.205377 0.722253 0.176390
O O2 0.068261 0.719695 0.168728
O O3 0.373848 0.064899 0.973252
O O4 0.377051 0.718247 0.713532
O O5 0.220078 0.240549 0.416281
O O6 0.198120 0.236024 0.215285
O O7 0.500000 0.500000 0.000000
O O8 0.193334 0.928851 0.505928
O O9 0.299650 0.615577 0.171397
O O10 0.500000 0.000000 0.000000
O O11 0.797934 0.411130 0.288935
O O12 0.978961 0.822992 0.143767
O O13 0.500000 0.000000 0.500000
O O14 0.477115 0.383737 0.733374
O O15 0.846285 0.743193 0.932433
O O16 0.000000 0.000000 0.000000
#
# Coordination Sequence:
#
# PCOD8036618 Si02
#       7
#     2   2   2   2   2   2   2
#     4  12  25  45  77 107 151 200 253 310 372 454
#     4  12  21  45  76 105 143 194 252 309 366 453
#     4  12  28  51  76 110 151 206 251 304 389 452
#     4  12  24  48  77 110 148 196 256 314 379 448
#     4  12  25  46  74 113 149 193 252 317 380 445
#     4  12  28  50  77 113 152 197 252 318 379 449
#     4  12  26  48  72 111 154 195 251 309 379 456
#
# _framework density 24.319229
#
# number of rings (size 3 to 8) (size 9 to 14) (size 15 to 20)
#    0.000    0.000    5.714    3.857    4.000    0.571 
#    2.571    0.000    0.000    0.000    0.000    0.000 
#    0.000    0.000    0.000    0.000    0.000    0.000 
#
# Total GULP energy -173476.075961 kJ/mol
# GULP energy per Si atom -12391.148283 kJ/mol
# Density = 2.426388 g / cm^3
# Si number density = 24.319229 Si / 1000 Ang^3
#
#
#
# Elastic Constant Matrix: (Units=GPa)
#
#
# Indices 1 2 3 4 5 6 
#
# 1 99.1683 16.1244 46.4983 2.4938 20.3836 8.1238
# 2 16.1244 106.9717 20.1055 1.4293 -6.0607 7.0067
# 3 46.4983 20.1055 110.2181 11.3149 26.2962 0.2828
# 4 2.4938 1.4293 11.3149 39.1311 7.6209 -6.1478
# 5 20.3836 -6.0607 26.2962 7.6209 49.4557 -2.5539
# 6 8.1238 7.0067 0.2828 -6.1478 -2.5539 45.8538
#
#
#
# Elastic Compliance Matrix: (Units=1/GPa)
#
#
# Indices 1 2 3 4 5 6 
#
# 1 0.013330 -0.001188 -0.004678 0.000859 -0.003400 -0.002225
# 2 -0.001188 0.010141 -0.001962 -0.000463 0.002783 -0.001234
# 3 -0.004678 -0.001962 0.012768 -0.002329 -0.004718 0.000475
# 4 0.000859 -0.000463 -0.002329 0.027354 -0.003211 0.003421
# 5 -0.003400 0.002783 -0.004718 -0.003211 0.025026 0.001169
# 6 -0.002225 -0.001234 0.000475 0.003421 0.001169 0.022912
#
#
# Mechanical properties :
#
#
# Convention : Reuss Voigt Hill
#
# Bulk Modulus (GPa) = 48.58646 53.53494 51.06070
# Shear Modulus (GPa) = 37.30004 42.46345 39.88174
#
# Velocity S-wave (km/s) = 3.92058 4.18315 4.05399
# Velocity P-wave (km/s) = 6.36527 6.73742 6.55399
#
# Compressibility (1/GPa) = 0.02058187
#
# Stress axis : x y z
#
# Youngs Moduli (GPa) = 75.01804 98.61117 78.32176
#
# Poissons Ratio (x) = 0.11719 0.36641
# Poissons Ratio (y) = 0.08915 0.15365
# Poissons Ratio (z) = 0.35096 0.19346
#
# Static dielectric constant tensor:
#      x y z
#    x 4.941480 0.035260 0.253120 
#    y 0.035260 4.998790 0.266910 
#    z 0.253120 0.266910 4.745950 
# 
# 
# High freq. dielectric constant tensor:
#      x y z
#    x 1.966810 0.018110 0.012230 
#    y 0.018110 1.977640 0.005450 
#    z 0.012230 0.005450 1.974950 
# 
# From -- ./inp_files/470118.got.cif
#   From: 2010.06.25/outbox.cif.g09.slc.cpg/sg2_236_cif.got.tgz:470118.got - 2010.06.27 13:26:56.
