data_PCOD8036653
_publ_section_title
;
Structure prediction by ZEFSAII (Michael W. Deem and Ramdas Pophale) SiO2 
 PCOD8036653
Probable space group: P -1
;
_chemical_formula_sum "Si O2"
_cell_formula_units_Z 16
_cell_length_a 26.198344
_cell_length_b 25.443536
_cell_length_c 11.750509
_cell_angle_alpha 29.536594
_cell_angle_beta 150.892300
_cell_angle_gamma 169.214244
_cell_volume 707.047208
_symmetry_space_group_name_H-M "P -1"
_symmetry_group_IT_number 2
_symmetry_cell_setting 'triclinic'
loop_
_space_group_symop_operation_xyz
x,y,z
-x,-y,-z
loop_
_atom_site_type_symbol
_atom_site_label
_atom_site_fract_x
_atom_site_fract_y
_atom_site_fract_z
Si Si1 0.325240 0.411188 0.251952
Si Si2 0.632288 0.940388 0.604100
Si Si3 0.786660 0.998952 0.022482
Si Si4 0.524181 0.996853 0.688423
Si Si5 0.931131 0.593047 0.017109
Si Si6 0.890436 0.673289 0.346174
Si Si7 0.220842 0.210520 0.193590
Si Si8 0.221113 0.382258 0.520906
O O1 0.500000 0.500000 0.500000
O O2 0.347004 0.392688 0.201280
O O3 0.018573 0.124852 0.248593
O O4 0.474787 0.667933 0.069923
O O5 0.341048 0.607085 0.647328
O O6 0.590086 0.019195 0.420675
O O7 0.814157 0.100095 0.542496
O O8 0.812090 0.050119 0.842864
O O9 0.876308 0.180877 0.931800
O O10 0.500000 0.000000 0.500000
O O11 0.344581 0.722024 0.879871
O O12 0.839991 0.277459 0.824002
O O13 0.837174 0.595913 0.740869
O O14 0.857336 0.622665 0.511521
O O15 0.875665 0.789077 0.084699
O O16 0.457204 0.352147 0.340769
O O17 0.960244 0.895373 0.320476
#
# Coordination Sequence:
#
# PCOD8036653 Si02
#       8
#     2   2   2   2   2   2   2   2
#     4  12  23  37  60  97 137 176 214 266 334 399
#     4  12  24  44  69  99 127 172 226 280 330 388
#     4  12  22  40  64  93 137 167 213 275 336 387
#     4  12  26  45  74 101 132 172 222 276 343 406
#     4  12  26  45  69 102 137 172 221 278 339 402
#     4  12  25  45  69  98 137 179 229 273 319 394
#     4  12  22  42  67  98 135 180 232 263 322 398
#     4  12  26  45  67  99 137 181 223 275 328 389
#
# _framework density 22.629324
#
# number of rings (size 3 to 8) (size 9 to 14) (size 15 to 20)
#    0.000    0.000    3.750    7.500    1.750    0.000 
#    0.000    3.750    0.000    0.000    0.000    0.000 
#    0.000    0.000    0.000    0.000    0.000    0.000 
#
# Total GULP energy -198369.002871 kJ/mol
# GULP energy per Si atom -12398.062679 kJ/mol
# Density = 2.257782 g / cm^3
# Si number density = 22.629324 Si / 1000 Ang^3
#
#
#
# Elastic Constant Matrix: (Units=GPa)
#
#
# Indices 1 2 3 4 5 6 
#
# 1 79.5294 19.6400 23.0193 -11.7946 14.9263 1.0788
# 2 19.6400 76.5506 26.7740 -8.0928 -5.0073 15.6630
# 3 23.0193 26.7740 84.5027 -11.5135 -1.3551 0.1245
# 4 -11.7946 -8.0928 -11.5135 38.4113 8.0509 11.0511
# 5 14.9263 -5.0073 -1.3551 8.0509 27.6372 6.5102
# 6 1.0788 15.6630 0.1245 11.0511 6.5102 34.8543
#
#
#
# Elastic Compliance Matrix: (Units=1/GPa)
#
#
# Indices 1 2 3 4 5 6 
#
# 1 0.017600 -0.004068 -0.002922 0.005773 -0.012491 0.001796
# 2 -0.004068 0.018467 -0.004220 0.002908 0.006932 -0.010375
# 3 -0.002922 -0.004220 0.014250 0.002010 0.000649 0.001177
# 4 0.005773 0.002908 0.002010 0.034117 -0.009970 -0.010448
# 5 -0.012491 0.006932 0.000649 -0.009970 0.049184 -0.008757
# 6 0.001796 -0.010375 0.001177 -0.010448 -0.008757 0.038242
#
#
# Mechanical properties :
#
#
# Convention : Reuss Voigt Hill
#
# Bulk Modulus (GPa) = 35.84697 42.16106 39.00401
# Shear Modulus (GPa) = 24.56057 31.59052 28.07555
#
# Velocity S-wave (km/s) = 3.29803 3.74036 3.52614
# Velocity P-wave (km/s) = 5.51162 6.10945 5.81822
#
# Compressibility (1/GPa) = 0.02789636
#
# Stress axis : x y z
#
# Youngs Moduli (GPa) = 56.81709 54.15177 70.17749
#
# Poissons Ratio (x) = 0.22029 0.20506
# Poissons Ratio (y) = 0.23113 0.29616
# Poissons Ratio (z) = 0.16602 0.22853
#
# Static dielectric constant tensor:
#      x y z
#    x 4.089210 0.134650 0.039870 
#    y 0.134650 4.478550 -0.164850 
#    z 0.039870 -0.164850 4.255190 
# 
# 
# High freq. dielectric constant tensor:
#      x y z
#    x 1.898830 0.003820 0.007570 
#    y 0.003820 1.913290 0.004760 
#    z 0.007570 0.004760 1.880990 
# 
# From -- ./inp_files/75834.got.cif
#   From: 2010.06.25/outbox.cif.g09.slc.cpg/sg2_38_cif.got.tgz:75834.got - 2010.06.27 13:26:56.
