data_PCOD8036379
_publ_section_title
;
Structure prediction by ZEFSAII (Michael W. Deem and Ramdas Pophale) SiO2 
 PCOD8036379
Probable space group: P -1
;
_chemical_formula_sum "Si O2"
_cell_formula_units_Z 16
_cell_length_a 14.836883
_cell_length_b 11.686937
_cell_length_c 8.907620
_cell_angle_alpha 80.985589
_cell_angle_beta 148.104625
_cell_angle_gamma 110.924196
_cell_volume 727.908398
_symmetry_space_group_name_H-M "P -1"
_symmetry_group_IT_number 2
_symmetry_cell_setting 'triclinic'
loop_
_space_group_symop_operation_xyz
x,y,z
-x,-y,-z
loop_
_atom_site_type_symbol
_atom_site_label
_atom_site_fract_x
_atom_site_fract_y
_atom_site_fract_z
Si Si1 0.818362 0.366670 0.753755
Si Si2 0.793997 0.352521 0.374143
Si Si3 0.525314 0.105115 0.894435
Si Si4 0.597698 0.730335 0.765214
Si Si5 0.808905 0.872975 0.734117
Si Si6 0.997214 0.212589 0.203142
Si Si7 0.350890 0.003133 0.169253
Si Si8 0.144319 0.370301 0.677343
O O1 0.793221 0.322774 0.554636
O O2 0.625120 0.368182 0.546311
O O3 0.855297 0.267285 0.928671
O O4 0.000000 0.500000 0.000000
O O5 0.777450 0.485115 0.301665
O O6 0.976881 0.346692 0.561211
O O7 0.611736 0.245968 0.058517
O O8 0.325393 0.073982 0.545409
O O9 0.661788 0.089732 0.966821
O O10 0.500000 0.000000 0.000000
O O11 0.706110 0.789956 0.751706
O O12 0.601093 0.851108 0.841720
O O13 0.693527 0.651737 0.001667
O O14 0.840631 0.772063 0.689976
O O15 0.000000 0.000000 0.000000
O O16 0.085730 0.276371 0.472355
O O17 0.864097 0.059803 0.060512
O O18 0.500000 0.000000 0.500000
#
# Coordination Sequence:
#
# PCOD8036379 Si02
#       8
#     2   2   2   2   2   2   2   2
#     4  12  26  48  77 103 144 199 243 298 371 442
#     4  11  26  49  74 105 152 192 251 304 373 436
#     4  12  27  43  74 108 146 197 243 306 376 436
#     4  12  27  46  77 110 148 191 250 304 370 439
#     4  12  27  46  70 111 152 190 245 306 369 444
#     4  12  24  45  73 105 148 193 243 302 370 438
#     4  12  22  45  73 104 148 188 245 300 367 439
#     4  11  27  48  76 108 146 194 250 309 361 445
#
# _framework density 21.980789000000001
#
# number of rings (size 3 to 8) (size 9 to 14) (size 15 to 20)
#    0.000    0.250    6.250    1.500    7.000    2.000 
#    0.000    1.875    0.000    0.000    0.000    0.000 
#    0.000    0.000    0.000    0.000    0.000    0.000 
#
# Total GULP energy -198384.093651 kJ/mol
# GULP energy per Si atom -12399.005853 kJ/mol
# Density = 2.193076 g / cm^3
# Si number density = 21.980789 Si / 1000 Ang^3
#
#
#
# Elastic Constant Matrix: (Units=GPa)
#
#
# Indices 1 2 3 4 5 6 
#
# 1 131.7525 11.8610 50.9021 5.6374 4.7342 3.5936
# 2 11.8610 77.2637 46.0087 3.5752 13.9989 3.7665
# 3 50.9021 46.0087 123.5947 -9.6621 13.9796 8.8526
# 4 5.6374 3.5752 -9.6621 52.8136 1.5514 1.4647
# 5 4.7342 13.9989 13.9796 1.5514 36.0487 -0.6170
# 6 3.5936 3.7665 8.8526 1.4647 -0.6170 35.3757
#
#
#
# Elastic Compliance Matrix: (Units=1/GPa)
#
#
# Indices 1 2 3 4 5 6 
#
# 1 0.009276 0.001306 -0.004474 -0.001903 0.000094 0.000119
# 2 0.001306 0.017707 -0.006813 -0.002450 -0.004305 -0.000287
# 3 -0.004474 -0.006813 0.013136 0.003466 -0.002049 -0.002287
# 4 -0.001903 -0.002450 0.003466 0.020003 -0.001025 -0.001259
# 5 0.000094 -0.004305 -0.002049 -0.001025 0.030265 0.001532
# 6 0.000119 -0.000287 -0.002287 -0.001259 0.001532 0.028938
#
#
# Mechanical properties :
#
#
# Convention : Reuss Voigt Hill
#
# Bulk Modulus (GPa) = 49.61462 61.12828 55.37145
# Shear Modulus (GPa) = 34.24528 39.77020 37.00774
#
# Velocity S-wave (km/s) = 3.95139 4.25822 4.10767
# Velocity P-wave (km/s) = 6.59081 7.21435 6.90962
#
# Compressibility (1/GPa) = 0.02015535
#
# Stress axis : x y z
#
# Youngs Moduli (GPa) = 107.80702 56.47597 76.12472
#
# Poissons Ratio (x) = -0.07373 0.34059
# Poissons Ratio (y) = -0.14075 0.51865
# Poissons Ratio (z) = 0.48234 0.38478
#
# Static dielectric constant tensor:
#      x y z
#    x 4.201970 -0.308210 -0.438520 
#    y -0.308210 3.935170 -0.562290 
#    z -0.438520 -0.562290 2.746900 
# 
# 
# High freq. dielectric constant tensor:
#      x y z
#    x 1.883670 0.002670 0.002560 
#    y 0.002670 1.867670 0.003090 
#    z 0.002560 0.003090 1.869250 
# 
# From -- ./inp_files/217924.got.cif
#   From: 2010.06.25/outbox.cif.g09.slc.cpg/sg2_109_cif.got.tgz:217924.got - 2010.06.27 13:26:56.
