data_PCOD8036599
_publ_section_title
;
Structure prediction by ZEFSAII (Michael W. Deem and Ramdas Pophale) SiO2 
 PCOD8036599
Probable space group: P -1
;
_chemical_formula_sum "Si O2"
_cell_formula_units_Z 16
_cell_length_a 24.877626
_cell_length_b 8.344347
_cell_length_c 10.839803
_cell_angle_alpha 43.403548
_cell_angle_beta 35.864097
_cell_angle_gamma 32.032258
_cell_volume 693.556482
_symmetry_space_group_name_H-M "P -1"
_symmetry_group_IT_number 2
_symmetry_cell_setting 'triclinic'
loop_
_space_group_symop_operation_xyz
x,y,z
-x,-y,-z
loop_
_atom_site_type_symbol
_atom_site_label
_atom_site_fract_x
_atom_site_fract_y
_atom_site_fract_z
Si Si1 0.219411 0.264585 0.255704
Si Si2 0.674798 0.188317 0.059240
Si Si3 0.001752 0.711152 0.972188
Si Si4 0.102525 0.850530 0.289996
Si Si5 0.786112 0.596609 0.068562
Si Si6 0.399084 0.849834 0.515259
Si Si7 0.211619 0.934468 0.648000
Si Si8 0.495705 0.885046 0.942030
O O1 0.177515 0.494628 0.320263
O O2 0.199931 0.033445 0.470995
O O3 0.148528 0.431915 0.165808
O O4 0.356850 0.076315 0.063120
O O5 0.655549 0.115727 0.270441
O O6 0.680075 0.955871 0.089449
O O7 0.803188 0.108342 0.864806
O O8 0.567997 0.523833 0.018637
O O9 0.130240 0.537061 0.891718
O O10 0.962974 0.993401 0.804939
O O11 0.000000 0.500000 0.000000
O O12 0.915028 0.829141 0.183392
O O13 0.000000 0.000000 0.500000
O O14 0.737674 0.411896 0.246180
O O15 0.500000 0.500000 0.500000
O O16 0.301374 0.968695 0.525153
O O17 0.445792 0.039869 0.311726
O O18 0.500000 0.000000 0.000000
#
# Coordination Sequence:
#
# PCOD8036599 Si02
#       8
#     2   2   2   2   2   2   2   2
#     4  12  26  47  73 108 149 188 243 297 366 422
#     4  12  25  46  70 108 142 186 244 294 358 426
#     4  12  24  47  70 102 138 190 252 289 344 434
#     4  12  24  44  76 109 141 188 247 300 349 426
#     4  12  28  46  68 104 156 189 232 300 365 432
#     4  12  21  42  79 102 136 188 245 300 350 418
#     4  12  24  43  70 102 146 189 233 293 366 427
#     4  12  23  44  78 108 135 188 249 300 348 427
#
# _framework density 23.069497999999999
#
# number of rings (size 3 to 8) (size 9 to 14) (size 15 to 20)
#    0.000    0.000    7.500    1.875    0.000    4.000 
#    0.000    4.375    0.000    0.000    0.000    0.000 
#    0.000    0.000    0.000    0.000    0.000    0.000 
#
# Total GULP energy -198352.538609 kJ/mol
# GULP energy per Si atom -12397.033663 kJ/mol
# Density = 2.301699 g / cm^3
# Si number density = 23.069498 Si / 1000 Ang^3
#
#
#
# Elastic Constant Matrix: (Units=GPa)
#
#
# Indices 1 2 3 4 5 6 
#
# 1 75.9918 33.2422 36.6067 -1.8217 16.6498 5.2718
# 2 33.2422 148.1052 55.8268 -10.5038 -0.3274 15.6663
# 3 36.6067 55.8268 156.9436 -6.6214 22.2379 2.9182
# 4 -1.8217 -10.5038 -6.6214 44.0514 -10.3947 2.3214
# 5 16.6498 -0.3274 22.2379 -10.3947 23.5844 -4.3338
# 6 5.2718 15.6663 2.9182 2.3214 -4.3338 42.6586
#
#
#
# Elastic Compliance Matrix: (Units=1/GPa)
#
#
# Indices 1 2 3 4 5 6 
#
# 1 0.018465 -0.003799 -0.001084 -0.003497 -0.013983 -0.002043
# 2 -0.003799 0.009303 -0.003221 0.003323 0.006907 -0.002206
# 3 -0.001084 -0.003221 0.008887 -0.001433 -0.008301 -0.000057
# 4 -0.003497 0.003323 -0.001433 0.026842 0.015592 -0.000567
# 5 -0.013983 0.006907 -0.008301 0.015592 0.068139 0.005833
# 6 -0.002043 -0.002206 -0.000057 -0.000567 0.005833 0.025132
#
#
# Mechanical properties :
#
#
# Convention : Reuss Voigt Hill
#
# Bulk Modulus (GPa) = 48.90400 70.26578 59.58489
# Shear Modulus (GPa) = 27.81027 39.08321 33.44674
#
# Velocity S-wave (km/s) = 3.47580 4.12047 3.81179
# Velocity P-wave (km/s) = 6.11169 7.29124 6.72737
#
# Compressibility (1/GPa) = 0.02044823
#
# Stress axis : x y z
#
# Youngs Moduli (GPa) = 54.15755 107.49481 112.52511
#
# Poissons Ratio (x) = 0.40833 0.12196
# Poissons Ratio (y) = 0.20573 0.36239
# Poissons Ratio (z) = 0.05870 0.34619
#
# Static dielectric constant tensor:
#      x y z
#    x 4.256530 0.030950 0.157000 
#    y 0.030950 4.430230 -0.192620 
#    z 0.157000 -0.192620 4.339380 
# 
# 
# High freq. dielectric constant tensor:
#      x y z
#    x 1.904550 -0.007370 0.017390 
#    y -0.007370 1.929610 -0.009440 
#    z 0.017390 -0.009440 1.913150 
# 
# From -- ./inp_files/476369.got.cif
#   From: 2010.06.25/outbox.cif.g09.slc.cpg/sg2_239_cif.got.tgz:476369.got - 2010.06.27 13:26:56.
