data_PCOD8036730
_publ_section_title
;
Structure prediction by ZEFSAII (Michael W. Deem and Ramdas Pophale) SiO2 
 PCOD8036730
Probable space group: P -1
;
_chemical_formula_sum "Si O2"
_cell_formula_units_Z 16
_cell_length_a 9.663853
_cell_length_b 11.257964
_cell_length_c 13.976044
_cell_angle_alpha 146.526739
_cell_angle_beta 92.386510
_cell_angle_gamma 69.555084
_cell_volume 687.980591
_symmetry_space_group_name_H-M "P -1"
_symmetry_group_IT_number 2
_symmetry_cell_setting 'triclinic'
loop_
_space_group_symop_operation_xyz
x,y,z
-x,-y,-z
loop_
_atom_site_type_symbol
_atom_site_label
_atom_site_fract_x
_atom_site_fract_y
_atom_site_fract_z
Si Si1 0.269208 0.503231 0.223466
Si Si2 0.188351 0.419477 0.438895
Si Si3 0.243675 0.588682 0.868567
Si Si4 0.873425 0.819548 0.002330
Si Si5 0.254962 0.794943 0.587124
Si Si6 0.628874 0.575983 0.038625
Si Si7 0.354186 0.907246 0.989193
Si Si8 0.444416 0.195076 0.454589
O O1 0.196481 0.770159 0.462224
O O2 0.442863 0.270836 0.124245
O O3 0.136884 0.427616 0.173566
O O4 0.287509 0.552443 0.146869
O O5 0.210040 0.646776 0.561037
O O6 0.272633 0.315019 0.473472
O O7 0.000000 0.500000 0.500000
O O8 0.287525 0.199138 0.213554
O O9 0.236392 0.549629 0.955642
O O10 0.292207 0.792273 0.988849
O O11 0.387168 0.309529 0.637113
O O12 0.059934 0.714685 0.902336
O O13 0.845995 0.911997 0.175040
O O14 0.729067 0.066697 0.099710
O O15 0.449599 0.700092 0.517940
O O16 0.547220 0.883829 0.243991
O O17 0.500000 0.500000 0.000000
#
# Coordination Sequence:
#
# PCOD8036730 Si02
#       8
#     2   2   2   2   2   2   2   2
#     4  12  25  44  71 102 140 188 240 283 354 420
#     4  12  24  39  69 110 150 182 229 296 366 420
#     4  12  26  45  72 103 145 187 240 295 357 414
#     4  12  26  45  70 107 149 177 230 308 363 414
#     4  12  25  44  72 106 143 189 237 288 355 431
#     4  12  24  49  74  99 142 192 247 292 340 429
#     4  12  22  44  70 103 143 188 228 293 356 427
#     4  12  24  44  72 105 137 191 244 288 349 430
#
# _framework density 23.256471000000001
#
# number of rings (size 3 to 8) (size 9 to 14) (size 15 to 20)
#    0.000    0.000    6.250    3.750    1.750    0.500 
#    0.000    0.625    0.000    0.000    0.000    0.000 
#    0.000    0.000    0.000    0.000    0.000    0.000 
#
# Total GULP energy -198366.454682 kJ/mol
# GULP energy per Si atom -12397.903418 kJ/mol
# Density = 2.320354 g / cm^3
# Si number density = 23.256471 Si / 1000 Ang^3
#
#
#
# Elastic Constant Matrix: (Units=GPa)
#
#
# Indices 1 2 3 4 5 6 
#
# 1 124.3191 26.9153 28.9007 2.1823 10.7337 -1.0188
# 2 26.9153 107.4140 23.8483 -18.7142 4.3543 5.3882
# 3 28.9007 23.8483 105.4089 -28.5437 18.4760 1.8409
# 4 2.1823 -18.7142 -28.5437 31.0822 5.9435 -0.0376
# 5 10.7337 4.3543 18.4760 5.9435 32.5348 -6.0040
# 6 -1.0188 5.3882 1.8409 -0.0376 -6.0040 23.4954
#
#
#
# Elastic Compliance Matrix: (Units=1/GPa)
#
#
# Indices 1 2 3 4 5 6 
#
# 1 0.009551 -0.002683 -0.003739 -0.005846 0.000673 0.001485
# 2 -0.002683 0.011624 0.001298 0.009097 -0.003777 -0.003835
# 3 -0.003739 0.001298 0.018380 0.020624 -0.014158 -0.005485
# 4 -0.005846 0.009097 0.020624 0.061597 -0.024102 -0.010016
# 5 0.000673 -0.003777 -0.014158 -0.024102 0.045994 0.013720
# 6 0.001485 -0.003835 -0.005485 -0.010016 0.013720 0.047425
#
#
# Mechanical properties :
#
#
# Convention : Reuss Voigt Hill
#
# Bulk Modulus (GPa) = 34.12080 55.16342 44.64211
# Shear Modulus (GPa) = 23.30043 34.58766 28.94404
#
# Velocity S-wave (km/s) = 3.16870 3.86064 3.53166
# Velocity P-wave (km/s) = 5.30009 6.60635 5.98894
#
# Compressibility (1/GPa) = 0.02930764
#
# Stress axis : x y z
#
# Youngs Moduli (GPa) = 104.70583 86.02616 54.40589
#
# Poissons Ratio (x) = 0.23085 0.20340
# Poissons Ratio (y) = 0.28098 -0.07063
# Poissons Ratio (z) = 0.39145 -0.11168
#
# Static dielectric constant tensor:
#      x y z
#    x 4.214060 0.049350 0.254100 
#    y 0.049350 4.241440 -0.345000 
#    z 0.254100 -0.345000 4.360870 
# 
# 
# High freq. dielectric constant tensor:
#      x y z
#    x 1.931090 0.012210 0.020320 
#    y 0.012210 1.901850 -0.026450 
#    z 0.020320 -0.026450 1.926580 
# 
# From -- ./inp_files/306931.got.cif
#   From: 2010.06.25/outbox.cif.g09.slc.cpg/sg2_154_cif.got.tgz:306931.got - 2010.06.27 13:26:56.
