data_PCOD8036699
_publ_section_title
;
Structure prediction by ZEFSAII (Michael W. Deem and Ramdas Pophale) SiO2 
 PCOD8036699
Probable space group: P -1
;
_chemical_formula_sum "Si O2"
_cell_formula_units_Z 16
_cell_length_a 8.846849
_cell_length_b 27.923070
_cell_length_c 27.443075
_cell_angle_alpha 10.647963
_cell_angle_beta 139.835200
_cell_angle_gamma 138.682452
_cell_volume 807.937041
_symmetry_space_group_name_H-M "P -1"
_symmetry_group_IT_number 2
_symmetry_cell_setting 'triclinic'
loop_
_space_group_symop_operation_xyz
x,y,z
-x,-y,-z
loop_
_atom_site_type_symbol
_atom_site_label
_atom_site_fract_x
_atom_site_fract_y
_atom_site_fract_z
Si Si1 0.479287 0.999831 0.852787
Si Si2 0.785639 0.499913 0.409445
Si Si3 0.752265 0.000122 0.538708
Si Si4 0.741946 0.505440 0.182581
Si Si5 0.775256 0.500100 0.978517
Si Si6 0.031128 0.994519 0.311702
Si Si7 0.714340 0.999817 0.088523
Si Si8 0.972593 0.500140 0.346495
O O1 0.395932 0.000066 0.886514
O O2 0.632428 0.249296 0.631076
O O3 0.632584 0.750525 0.129933
O O4 0.248401 0.998797 0.764345
O O5 0.856355 0.499848 0.370748
O O6 0.000000 0.500000 0.500000
O O7 0.932814 0.999817 0.627533
O O8 0.500000 0.000000 0.500000
O O9 0.788885 0.749757 0.765697
O O10 0.788497 0.250332 0.264978
O O11 0.463146 0.499024 0.112431
O O12 0.865313 0.262594 0.430223
O O13 0.782047 0.499738 0.256395
O O14 0.852280 0.763062 0.929166
O O15 0.000000 0.500000 0.000000
O O16 0.869053 0.749845 0.368760
O O17 0.869566 0.249377 0.869283
O O18 0.500000 0.000000 0.000000
#
# Coordination Sequence:
#
# PCOD8036699 Si02
#       8
#     2   2   2   2   2   2   2   2
#     4  12  24  43  66  99 128 171 223 273 324 392
#     4  12  26  45  66  97 139 174 212 276 339 400
#     4  12  23  44  70  99 130 189 226 268 335 398
#     4  12  22  43  66  97 136 174 216 288 335 387
#     4  12  26  43  68 103 140 175 226 276 333 403
#     4  12  24  41  72  97 134 170 231 284 321 390
#     4  12  23  42  68  97 126 170 227 270 316 404
#     4  12  24  42  66  96 131 179 214 266 352 391
#
# _framework density 19.803523999999999
#
# number of rings (size 3 to 8) (size 9 to 14) (size 15 to 20)
#    0.000    0.000    5.000    6.000    0.000    2.000 
#    0.000    0.000    0.000    0.000    0.000    0.000 
#    0.000    0.000    0.000    0.000    0.000    0.000 
#
# Total GULP energy -198449.009957 kJ/mol
# GULP energy per Si atom -12403.063122 kJ/mol
# Density = 1.975845 g / cm^3
# Si number density = 19.803524 Si / 1000 Ang^3
#
#
#
# Elastic Constant Matrix: (Units=GPa)
#
#
# Indices 1 2 3 4 5 6 
#
# 1 192.5823 90.7415 93.0976 1.6820 -1.8189 -10.8215
# 2 90.7415 220.9132 70.7667 19.9453 -0.9931 -8.6818
# 3 93.0976 70.7667 180.5192 -4.2165 0.8839 0.1429
# 4 1.6820 19.9453 -4.2165 40.1870 -0.3644 -0.8088
# 5 -1.8189 -0.9931 0.8839 -0.3644 40.8963 3.2787
# 6 -10.8215 -8.6818 0.1429 -0.8088 3.2787 48.6865
#
#
#
# Elastic Compliance Matrix: (Units=1/GPa)
#
#
# Indices 1 2 3 4 5 6 
#
# 1 0.007831 -0.002187 -0.003173 0.000454 0.000260 0.001350
# 2 -0.002187 0.006163 -0.001361 -0.003099 0.000009 0.000565
# 3 -0.003173 -0.001361 0.007749 0.001600 -0.000253 -0.000927
# 4 0.000454 -0.003099 0.001600 0.026571 0.000149 -0.000025
# 5 0.000260 0.000009 -0.000253 0.000149 0.024598 -0.001594
# 6 0.001350 0.000565 -0.000927 -0.000025 -0.001594 0.021050
#
#
# Mechanical properties :
#
#
# Convention : Reuss Voigt Hill
#
# Bulk Modulus (GPa) = 120.46892 122.58070 121.52481
# Shear Modulus (GPa) = 45.38338 48.58120 46.98229
#
# Velocity S-wave (km/s) = 4.79235 4.95831 4.87603
# Velocity P-wave (km/s) = 9.57007 9.73718 9.65398
#
# Compressibility (1/GPa) = 0.00830090
#
# Stress axis : x y z
#
# Youngs Moduli (GPa) = 127.69055 162.25908 129.05044
#
# Poissons Ratio (x) = 0.35488 0.40950
# Poissons Ratio (y) = 0.27927 0.17563
# Poissons Ratio (z) = 0.40518 0.22082
#
# Static dielectric constant tensor:
#      x y z
#    x 3.648150 -0.018120 0.016480 
#    y -0.018120 4.107610 0.007770 
#    z 0.016480 0.007770 4.155650 
# 
# 
# High freq. dielectric constant tensor:
#      x y z
#    x 1.781310 -0.004120 -0.000850 
#    y -0.004120 1.797950 -0.000880 
#    z -0.000850 -0.000880 1.802240 
# 
# From -- ./inp_files/343215.got.cif
#   From: 2010.06.25/outbox.cif.g09.slc.cpg/sg2_172_cif.got.tgz:343215.got - 2010.06.27 13:26:56.
