data_PCOD8036465
_publ_section_title
;
Structure prediction by ZEFSAII (Michael W. Deem and Ramdas Pophale) SiO2 
 PCOD8036465
Probable space group: P -1
;
_chemical_formula_sum "Si O2"
_cell_formula_units_Z 12
_cell_length_a 10.821556
_cell_length_b 11.382993
_cell_length_c 11.967020
_cell_angle_alpha 23.647903
_cell_angle_beta 131.513251
_cell_angle_gamma 129.151846
_cell_volume 441.315675
_symmetry_space_group_name_H-M "P -1"
_symmetry_group_IT_number 2
_symmetry_cell_setting 'triclinic'
loop_
_space_group_symop_operation_xyz
x,y,z
-x,-y,-z
loop_
_atom_site_type_symbol
_atom_site_label
_atom_site_fract_x
_atom_site_fract_y
_atom_site_fract_z
Si Si1 0.793124 0.490680 0.114649
Si Si2 0.382642 0.478283 0.614876
Si Si3 0.100282 0.205760 0.466760
Si Si4 0.590144 0.921035 0.510497
Si Si5 0.309128 0.740001 0.111931
Si Si6 0.123730 0.279052 0.804127
O O1 0.768292 0.605027 0.125707
O O2 0.978000 0.393754 0.300943
O O3 0.657848 0.226503 0.227964
O O4 0.755572 0.755341 0.779629
O O5 0.464355 0.737410 0.514944
O O6 0.299619 0.656831 0.310509
O O7 0.505063 0.244379 0.841304
O O8 0.254249 0.258468 0.798909
O O9 0.215370 0.445786 0.255359
O O10 0.000000 0.000000 0.500000
O O11 0.215277 0.028315 0.773705
O O12 0.500000 0.000000 0.500000
O O13 0.000000 0.500000 0.500000
O O14 0.000000 0.000000 0.000000
#
# Coordination Sequence:
#
# PCOD8036465 Si02
#       6
#     2   2   2   2   2   2
#     4  12  26  47  73 113 148 197 260 313 388 454
#     4  11  27  49  78 113 162 199 267 320 388 471
#     4  12  25  49  77 111 157 202 263 314 383 472
#     4  12  25  46  75 112 151 202 254 320 384 454
#     4  11  27  48  77 115 152 212 251 321 391 456
#     4  12  28  47  75 111 154 205 252 325 391 455
#
# _framework density 27.191420000000001
#
# number of rings (size 3 to 8) (size 9 to 14) (size 15 to 20)
#    0.000    0.333    1.667    6.000    0.000    9.333 
#    0.000    0.000    0.000    0.000    0.000    0.000 
#    0.000    0.000    0.000    0.000    0.000    0.000 
#
# Total GULP energy -148806.345785 kJ/mol
# GULP energy per Si atom -12400.528815 kJ/mol
# Density = 2.712953 g / cm^3
# Si number density = 27.191420 Si / 1000 Ang^3
#
#
#
# Elastic Constant Matrix: (Units=GPa)
#
#
# Indices 1 2 3 4 5 6 
#
# 1 174.4466 38.8139 60.1879 2.0908 -8.7639 11.4214
# 2 38.8139 95.2996 9.6974 -1.2134 5.7346 4.5382
# 3 60.1879 9.6974 148.1720 -12.4050 14.1245 12.7392
# 4 2.0908 -1.2134 -12.4050 38.5540 7.3462 -1.5219
# 5 -8.7639 5.7346 14.1245 7.3462 43.9253 -2.5369
# 6 11.4214 4.5382 12.7392 -1.5219 -2.5369 41.7748
#
#
#
# Elastic Compliance Matrix: (Units=1/GPa)
#
#
# Indices 1 2 3 4 5 6 
#
# 1 0.007842 -0.003048 -0.003451 -0.002309 0.003422 -0.000637
# 2 -0.003048 0.011863 0.000903 0.001313 -0.002716 -0.000848
# 3 -0.003451 0.000903 0.009019 0.003890 -0.004474 -0.002035
# 4 -0.002309 0.001313 0.003890 0.028625 -0.006674 -0.000060
# 5 0.003422 -0.002716 -0.004474 -0.006674 0.026479 0.002089
# 6 -0.000637 -0.000848 -0.002035 -0.000060 0.002089 0.024949
#
#
# Mechanical properties :
#
#
# Convention : Reuss Voigt Hill
#
# Bulk Modulus (GPa) = 57.03302 70.59073 63.81188
# Shear Modulus (GPa) = 39.74171 45.46542 42.60357
#
# Velocity S-wave (km/s) = 3.82717 4.09351 3.96258
# Velocity P-wave (km/s) = 6.36788 6.95409 6.66743
#
# Compressibility (1/GPa) = 0.01753370
#
# Stress axis : x y z
#
# Youngs Moduli (GPa) = 127.51133 84.29437 110.88142
#
# Poissons Ratio (x) = 0.25692 0.38263
# Poissons Ratio (y) = 0.38864 -0.10017
# Poissons Ratio (z) = 0.44002 -0.07615
#
# Static dielectric constant tensor:
#      x y z
#    x 5.222110 0.360430 0.122920 
#    y 0.360430 5.200400 -0.206160 
#    z 0.122920 -0.206160 5.087200 
# 
# 
# High freq. dielectric constant tensor:
#      x y z
#    x 2.101040 0.004580 0.004100 
#    y 0.004580 2.123400 -0.009800 
#    z 0.004100 -0.009800 2.107300 
# 
# From -- ./inp_files/424791.got.cif
#   From: 2010.06.25/outbox.cif.g09.slc.cpg/sg2_213_cif.got.tgz:424791.got - 2010.06.27 13:26:56.
