data_PCOD8036568
_publ_section_title
;
Structure prediction by ZEFSAII (Michael W. Deem and Ramdas Pophale) SiO2 
 PCOD8036568
Probable space group: P -1
;
_chemical_formula_sum "Si O2"
_cell_formula_units_Z 12
_cell_length_a 22.895004
_cell_length_b 20.470848
_cell_length_c 12.162146
_cell_angle_alpha 151.872268
_cell_angle_beta 152.211961
_cell_angle_gamma 12.017705
_cell_volume 545.152361
_symmetry_space_group_name_H-M "P -1"
_symmetry_group_IT_number 2
_symmetry_cell_setting 'triclinic'
loop_
_space_group_symop_operation_xyz
x,y,z
-x,-y,-z
loop_
_atom_site_type_symbol
_atom_site_label
_atom_site_fract_x
_atom_site_fract_y
_atom_site_fract_z
Si Si1 0.932866 0.751916 0.450272
Si Si2 0.656641 0.041760 0.203751
Si Si3 0.348039 0.640937 0.340262
Si Si4 0.771104 0.047885 0.015583
Si Si5 0.003066 0.612173 0.928529
Si Si6 0.477690 0.687573 0.238065
O O1 0.215433 0.549549 0.578544
O O2 0.011253 0.538810 0.336902
O O3 0.761410 0.860060 0.219274
O O4 0.742490 0.047395 0.641364
O O5 0.711049 0.146344 0.484122
O O6 0.328626 0.340801 0.071158
O O7 0.848205 0.809591 0.075245
O O8 0.500000 0.500000 0.500000
O O9 0.547500 0.365612 0.177970
O O10 0.052896 0.855083 0.176770
O O11 0.632086 0.144222 0.811493
O O12 0.842118 0.839718 0.894158
O O13 0.500000 0.500000 0.000000
#
# Coordination Sequence:
#
# PCOD8036568 Si02
#       6
#     2   2   2   2   2   2
#     4  12  26  44  66  93 127 175 209 252 320 377
#     4  12  23  41  66  95 132 164 211 264 312 373
#     4  12  21  39  65  97 129 159 209 260 320 366
#     4  12  24  41  65  98 128 165 212 262 312 371
#     4  12  24  41  65  97 130 163 210 264 317 374
#     4  12  26  47  67  90 128 168 216 260 306 380
#
# _framework density 22.012194000000001
#
# number of rings (size 3 to 8) (size 9 to 14) (size 15 to 20)
#    0.000    0.000    3.333    8.000    0.000    1.333 
#    0.000    0.000    0.000    0.000    0.000    0.000 
#    0.000    0.000    0.000    0.000    0.000    0.000 
#
# Total GULP energy -148879.248337 kJ/mol
# GULP energy per Si atom -12406.604028 kJ/mol
# Density = 2.196209 g / cm^3
# Si number density = 22.012194 Si / 1000 Ang^3
#
#
#
# Elastic Constant Matrix: (Units=GPa)
#
#
# Indices 1 2 3 4 5 6 
#
# 1 101.4385 42.5567 36.9885 16.6107 -11.5976 5.5181
# 2 42.5567 112.1693 43.0695 21.8063 -13.9275 -13.3914
# 3 36.9885 43.0695 69.3937 9.6901 9.3053 4.7491
# 4 16.6107 21.8063 9.6901 33.0341 13.8760 -4.8563
# 5 -11.5976 -13.9275 9.3053 13.8760 58.9679 2.1862
# 6 5.5181 -13.3914 4.7491 -4.8563 2.1862 55.3003
#
#
#
# Elastic Compliance Matrix: (Units=1/GPa)
#
#
# Indices 1 2 3 4 5 6 
#
# 1 0.014712 -0.001163 -0.006700 -0.007256 0.005459 -0.002027
# 2 -0.001163 0.016167 -0.009258 -0.009872 0.007238 0.003673
# 3 -0.006700 -0.009258 0.024295 0.005520 -0.008532 -0.002838
# 4 -0.007256 -0.009872 0.005520 0.045681 -0.015471 0.002482
# 5 0.005459 0.007238 -0.008532 -0.015471 0.024743 -0.000396
# 6 -0.002027 0.003673 -0.002838 0.002482 -0.000396 0.019652
#
#
# Mechanical properties :
#
#
# Convention : Reuss Voigt Hill
#
# Bulk Modulus (GPa) = 47.77197 58.69231 53.23214
# Shear Modulus (GPa) = 26.81398 40.15292 33.48345
#
# Velocity S-wave (km/s) = 3.49398 4.27561 3.90440
# Velocity P-wave (km/s) = 6.16659 7.14814 6.67543
#
# Compressibility (1/GPa) = 0.02093278
#
# Stress axis : x y z
#
# Youngs Moduli (GPa) = 67.97386 61.85299 41.16021
#
# Poissons Ratio (x) = 0.07191 0.27578
# Poissons Ratio (y) = 0.07903 0.38106
# Poissons Ratio (z) = 0.45543 0.57264
#
# Static dielectric constant tensor:
#      x y z
#    x 4.256460 0.198000 0.035160 
#    y 0.198000 4.243380 -0.010240 
#    z 0.035160 -0.010240 4.368720 
# 
# 
# High freq. dielectric constant tensor:
#      x y z
#    x 1.885900 -0.000460 0.001230 
#    y -0.000460 1.889530 0.005020 
#    z 0.001230 0.005020 1.862180 
# 
# From -- ./inp_files/26262.got.cif
#   From: 2010.06.25/outbox.cif.g09.slc.cpg/sg2_14_cif.got.tgz:26262.got - 2010.06.27 13:26:56.
