data_PCOD8036419
_publ_section_title
;
Structure prediction by ZEFSAII (Michael W. Deem and Ramdas Pophale) SiO2 
 PCOD8036419
Probable space group: P -1
;
_chemical_formula_sum "Si O2"
_cell_formula_units_Z 14
_cell_length_a 6.541422
_cell_length_b 9.096674
_cell_length_c 26.253546
_cell_angle_alpha 30.246766
_cell_angle_beta 114.348194
_cell_angle_gamma 126.666224
_cell_volume 610.126636
_symmetry_space_group_name_H-M "P -1"
_symmetry_group_IT_number 2
_symmetry_cell_setting 'triclinic'
loop_
_space_group_symop_operation_xyz
x,y,z
-x,-y,-z
loop_
_atom_site_type_symbol
_atom_site_label
_atom_site_fract_x
_atom_site_fract_y
_atom_site_fract_z
Si Si1 0.698630 0.810186 0.169204
Si Si2 0.227705 0.316728 0.216064
Si Si3 0.561578 0.215537 0.107485
Si Si4 0.831699 0.124078 0.746134
Si Si5 0.779310 0.712700 0.525878
Si Si6 0.936284 0.204036 0.972701
Si Si7 0.828004 0.676266 0.427459
O O1 0.467396 0.421018 0.248584
O O2 0.871863 0.753740 0.244608
O O3 0.594125 0.038195 0.114625
O O4 0.861702 0.001543 0.078283
O O5 0.264944 0.695946 0.100849
O O6 0.290640 0.225034 0.194595
O O7 0.957965 0.998718 0.305762
O O8 0.823834 0.406528 0.110709
O O9 0.330482 0.924295 0.205044
O O10 0.500000 0.500000 0.000000
O O11 0.822605 0.396631 0.627533
O O12 0.828634 0.831667 0.436493
O O13 0.473214 0.589092 0.543976
O O14 0.000000 0.000000 0.500000
O O15 0.000000 0.000000 0.000000
O O16 0.000000 0.500000 0.500000
#
# Coordination Sequence:
#
# PCOD8036419 Si02
#       7
#     2   2   2   2   2   2   2
#     4  12  27  44  71 107 141 191 239 292 361 428
#     4  12  26  46  73 101 148 188 239 295 364 427
#     4  12  23  43  68  99 145 183 237 296 344 424
#     4  12  26  46  70 106 141 189 239 293 362 430
#     4  11  28  46  78 107 141 188 244 298 364 432
#     4  12  24  45  71 104 145 191 237 292 360 424
#     4  11  26  51  72 108 146 186 241 306 359 428
#
# _framework density 22.946057
#
# number of rings (size 3 to 8) (size 9 to 14) (size 15 to 20)
#    0.000    0.286    4.286    4.286    4.000    0.571 
#    0.000    0.000    0.000    0.000    0.000    0.000 
#    0.000    0.000    0.000    0.000    0.000    0.000 
#
# Total GULP energy -173587.596042 kJ/mol
# GULP energy per Si atom -12399.114003 kJ/mol
# Density = 2.289383 g / cm^3
# Si number density = 22.946057 Si / 1000 Ang^3
#
#
#
# Elastic Constant Matrix: (Units=GPa)
#
#
# Indices 1 2 3 4 5 6 
#
# 1 117.7166 61.1872 32.7512 -3.9413 5.4977 -9.4347
# 2 61.1872 167.6955 13.5191 -13.1076 0.1619 4.1542
# 3 32.7512 13.5191 85.5122 8.5578 4.2372 -4.0389
# 4 -3.9413 -13.1076 8.5578 32.1328 1.4982 -5.0991
# 5 5.4977 0.1619 4.2372 1.4982 38.7142 2.3268
# 6 -9.4347 4.1542 -4.0389 -5.0991 2.3268 50.7516
#
#
#
# Elastic Compliance Matrix: (Units=1/GPa)
#
#
# Indices 1 2 3 4 5 6 
#
# 1 0.011971 -0.004009 -0.003896 0.001326 -0.001455 0.002443
# 2 -0.004009 0.007643 0.000006 0.002418 0.000512 -0.001151
# 3 -0.003896 0.000006 0.013631 -0.004072 -0.000780 -0.000013
# 4 0.001326 0.002418 -0.004072 0.033919 -0.001257 0.003190
# 5 -0.001455 0.000512 -0.000780 -0.001257 0.026271 -0.001705
# 6 0.002443 -0.001151 -0.000013 0.003190 -0.001705 0.020650
#
#
# Mechanical properties :
#
#
# Convention : Reuss Voigt Hill
#
# Bulk Modulus (GPa) = 57.32342 65.09325 61.20834
# Shear Modulus (GPa) = 36.84591 41.88416 39.36504
#
# Velocity S-wave (km/s) = 4.01154 4.27702 4.14641
# Velocity P-wave (km/s) = 6.81855 7.26775 7.04673
#
# Compressibility (1/GPa) = 0.01744488
#
# Stress axis : x y z
#
# Youngs Moduli (GPa) = 83.53398 130.84526 73.36129
#
# Poissons Ratio (x) = 0.52460 0.28584
# Poissons Ratio (y) = 0.33491 -0.00041
# Poissons Ratio (z) = 0.32548 -0.00073
#
# Static dielectric constant tensor:
#      x y z
#    x 4.887190 0.658980 0.194260 
#    y 0.658980 4.732070 0.333900 
#    z 0.194260 0.333900 4.216100 
# 
# 
# High freq. dielectric constant tensor:
#      x y z
#    x 1.916550 0.006980 0.003140 
#    y 0.006980 1.923840 0.011560 
#    z 0.003140 0.011560 1.899770 
# 
# From -- ./inp_files/46489.got.cif
#   From: 2010.06.25/outbox.cif.g09.slc.cpg/sg2_24_cif.got.tgz:46489.got - 2010.06.27 13:26:56.
