data_PCOD8036061
_publ_section_title
;
Structure prediction by ZEFSAII (Michael W. Deem and Ramdas Pophale) SiO2 
 PCOD8036061
Probable space group: P -1
;
_chemical_formula_sum "Si O2"
_cell_formula_units_Z 16
_cell_length_a 18.669981
_cell_length_b 11.733873
_cell_length_c 6.803163
_cell_angle_alpha 56.147681
_cell_angle_beta 138.786142
_cell_angle_gamma 132.280992
_cell_volume 722.531384
_symmetry_space_group_name_H-M "P -1"
_symmetry_group_IT_number 2
_symmetry_cell_setting 'triclinic'
loop_
_space_group_symop_operation_xyz
x,y,z
-x,-y,-z
loop_
_atom_site_type_symbol
_atom_site_label
_atom_site_fract_x
_atom_site_fract_y
_atom_site_fract_z
Si Si1 0.253886 0.931373 0.377241
Si Si2 0.905626 0.322429 0.427881
Si Si3 0.388287 0.401354 0.716507
Si Si4 0.557342 0.779749 0.292927
Si Si5 0.999851 0.907984 0.284962
Si Si6 0.435660 0.852819 0.637692
Si Si7 0.669426 0.345163 0.754291
Si Si8 0.187340 0.110861 0.786772
O O1 0.134440 0.789174 0.358116
O O2 0.348616 0.864891 0.610860
O O3 0.314541 0.086588 0.487486
O O4 0.219142 0.975499 0.053859
O O5 0.970020 0.238190 0.517619
O O6 0.000000 0.500000 0.500000
O O7 0.786387 0.323632 0.081843
O O8 0.429745 0.367831 0.618943
O O9 0.304115 0.478954 0.392982
O O10 0.309029 0.255078 0.827663
O O11 0.500000 0.500000 0.000000
O O12 0.446633 0.739301 0.256867
O O13 0.540078 0.841414 0.987980
O O14 0.868988 0.839990 0.190086
O O15 0.096658 0.047545 0.479591
O O16 0.000000 0.000000 0.000000
O O17 0.362581 0.711185 0.480289
O O18 0.500000 0.000000 0.500000
#
# Coordination Sequence:
#
# PCOD8036061 Si02
#       8
#     2   2   2   2   2   2   2   2
#     4  12  23  45  73 106 141 187 237 297 362 430
#     4  12  28  45  73 107 143 191 241 299 367 416
#     4  12  26  46  70 110 149 189 235 292 372 438
#     4  12  24  44  72 103 145 191 240 288 356 444
#     4  11  25  51  77 102 136 193 255 301 351 424
#     4  12  22  41  70 101 144 181 238 289 354 431
#     4  12  26  46  69 105 151 192 232 303 365 427
#     4  11  26  46  79 103 138 190 249 299 351 429
#
# _framework density 22.144368
#
# number of rings (size 3 to 8) (size 9 to 14) (size 15 to 20)
#    0.000    0.250    5.000    4.500    1.750    2.000 
#    0.000    1.875    0.000    0.000    0.000    0.000 
#    0.000    0.000    0.000    0.000    0.000    0.000 
#
# Total GULP energy -198239.906487 kJ/mol
# GULP energy per Si atom -12389.994155 kJ/mol
# Density = 2.209397 g / cm^3
# Si number density = 22.144368 Si / 1000 Ang^3
#
#
#
# Elastic Constant Matrix: (Units=GPa)
#
#
# Indices 1 2 3 4 5 6 
#
# 1 108.2142 51.0648 23.1839 5.7535 2.0354 -11.5191
# 2 51.0648 105.3489 33.0346 -5.5430 -4.2163 4.0129
# 3 23.1839 33.0346 129.6178 -12.6779 -2.4425 -1.8354
# 4 5.7535 -5.5430 -12.6779 39.7154 -8.2327 0.7260
# 5 2.0354 -4.2163 -2.4425 -8.2327 38.0780 -5.6365
# 6 -11.5191 4.0129 -1.8354 0.7260 -5.6365 47.8780
#
#
#
# Elastic Compliance Matrix: (Units=1/GPa)
#
#
# Indices 1 2 3 4 5 6 
#
# 1 0.013076 -0.006402 -0.001037 -0.003540 -0.001722 0.003494
# 2 -0.006402 0.013550 -0.002055 0.002602 0.001893 -0.002571
# 3 -0.001037 -0.002055 0.008729 0.002863 0.001057 0.000338
# 4 -0.003540 0.002602 0.002863 0.028370 0.006706 -0.000601
# 5 -0.001722 0.001893 0.001057 0.006706 0.028484 0.002719
# 6 0.003494 -0.002571 0.000338 -0.000601 0.002719 0.022285
#
#
# Mechanical properties :
#
#
# Convention : Reuss Voigt Hill
#
# Bulk Modulus (GPa) = 61.08867 61.97194 61.53030
# Shear Modulus (GPa) = 35.98790 40.86078 38.42434
#
# Velocity S-wave (km/s) = 4.03569 4.30024 4.17006
# Velocity P-wave (km/s) = 7.02582 7.25963 7.14368
#
# Compressibility (1/GPa) = 0.01636965
#
# Stress axis : x y z
#
# Youngs Moduli (GPa) = 76.47419 73.80002 114.56397
#
# Poissons Ratio (x) = 0.47244 0.11875
# Poissons Ratio (y) = 0.48956 0.23539
# Poissons Ratio (z) = 0.07927 0.15163
#
# Static dielectric constant tensor:
#      x y z
#    x 4.061310 -0.075480 0.111380 
#    y -0.075480 3.880840 -0.148220 
#    z 0.111380 -0.148220 4.132270 
# 
# 
# High freq. dielectric constant tensor:
#      x y z
#    x 1.888890 -0.009790 0.001900 
#    y -0.009790 1.864430 -0.011220 
#    z 0.001900 -0.011220 1.887740 
# 
# From -- ./inp_files/109604.got.cif
#   From: 2010.06.25/outbox.cif.g09.slc.cpg/sg2_55_cif.got.tgz:109604.got - 2010.06.27 13:26:56.
