data_PCOD8036105
_publ_section_title
;
Structure prediction by ZEFSAII (Michael W. Deem and Ramdas Pophale) SiO2 
 PCOD8036105
Probable space group: P -1
;
_chemical_formula_sum "Si O2"
_cell_formula_units_Z 12
_cell_length_a 11.619268
_cell_length_b 6.524041
_cell_length_c 13.461744
_cell_angle_alpha 42.863261
_cell_angle_beta 123.390615
_cell_angle_gamma 129.491462
_cell_volume 528.769651
_symmetry_space_group_name_H-M "P -1"
_symmetry_group_IT_number 2
_symmetry_cell_setting 'triclinic'
loop_
_space_group_symop_operation_xyz
x,y,z
-x,-y,-z
loop_
_atom_site_type_symbol
_atom_site_label
_atom_site_fract_x
_atom_site_fract_y
_atom_site_fract_z
Si Si1 0.066037 0.366986 0.281250
Si Si2 0.084818 0.382433 0.500493
Si Si3 0.630898 0.646364 0.086114
Si Si4 0.858684 0.664583 0.030573
Si Si5 0.317576 0.614725 0.148297
Si Si6 0.426099 0.626181 0.637038
O O1 0.091320 0.551699 0.335315
O O2 0.213229 0.529645 0.225715
O O3 0.922611 0.383235 0.151168
O O4 0.030475 0.995767 0.421434
O O5 0.256664 0.435804 0.583617
O O6 0.000000 0.500000 0.500000
O O7 0.773706 0.637899 0.102373
O O8 0.591806 0.385768 0.249049
O O9 0.500000 0.500000 0.000000
O O10 0.645317 0.008414 0.999635
O O11 0.761065 0.629934 0.895839
O O12 0.000000 0.000000 0.000000
O O13 0.467091 0.564709 0.270732
O O14 0.500000 0.000000 0.500000
#
# Coordination Sequence:
#
# PCOD8036105 Si02
#       6
#     2   2   2   2   2   2
#     4  11  26  44  74 107 140 194 245 307 364 439
#     4  11  26  48  72 103 149 191 247 297 375 440
#     4  12  27  48  76 109 149 194 250 303 372 440
#     4  12  26  45  78 106 145 190 249 305 368 431
#     4  12  27  48  73 112 148 190 254 307 370 440
#     4  12  28  47  75 105 154 195 239 309 368 442
#
# _framework density 22.694192000000001
#
# number of rings (size 3 to 8) (size 9 to 14) (size 15 to 20)
#    0.000    0.333    3.333    4.000   11.667    2.000 
#    0.000    0.000    0.000    0.000    0.000    0.000 
#    0.000    0.000    0.000    0.000    0.000    0.000 
#
# Total GULP energy -148694.866343 kJ/mol
# GULP energy per Si atom -12391.238862 kJ/mol
# Density = 2.264254 g / cm^3
# Si number density = 22.694192 Si / 1000 Ang^3
#
#
#
# Elastic Constant Matrix: (Units=GPa)
#
#
# Indices 1 2 3 4 5 6 
#
# 1 196.5054 27.0528 65.4648 5.7511 -5.0736 -2.6518
# 2 27.0528 96.7115 38.2121 5.8357 -12.0762 3.8480
# 3 65.4648 38.2121 129.9874 6.4268 -21.5421 4.0120
# 4 5.7511 5.8357 6.4268 38.7436 6.7811 1.7850
# 5 -5.0736 -12.0762 -21.5421 6.7811 50.8857 5.8203
# 6 -2.6518 3.8480 4.0120 1.7850 5.8203 37.5324
#
#
#
# Elastic Compliance Matrix: (Units=1/GPa)
#
#
# Indices 1 2 3 4 5 6 
#
# 1 0.006211 -0.000653 -0.003113 -0.000188 -0.000942 0.000994
# 2 -0.000653 0.011999 -0.002761 -0.001539 0.001958 -0.001212
# 3 -0.003113 -0.002761 0.010868 -0.001554 0.004031 -0.001650
# 4 -0.000188 -0.001539 -0.001554 0.027151 -0.004630 -0.000263
# 5 -0.000942 0.001958 0.004031 -0.004630 0.022805 -0.004015
# 6 0.000994 -0.001212 -0.001650 -0.000263 -0.004015 0.027649
#
#
# Mechanical properties :
#
#
# Convention : Reuss Voigt Hill
#
# Bulk Modulus (GPa) = 62.40589 76.07374 69.23982
# Shear Modulus (GPa) = 39.97477 44.93063 42.45270
#
# Velocity S-wave (km/s) = 4.20152 4.45435 4.32978
# Velocity P-wave (km/s) = 7.14810 7.74913 7.45468
#
# Compressibility (1/GPa) = 0.01602413
#
# Stress axis : x y z
#
# Youngs Moduli (GPa) = 161.01478 83.34067 92.00964
#
# Poissons Ratio (x) = 0.05442 0.28646
# Poissons Ratio (y) = 0.10514 0.25400
# Poissons Ratio (z) = 0.50130 0.23006
#
# Static dielectric constant tensor:
#      x y z
#    x 4.447650 -0.135990 -0.123700 
#    y -0.135990 4.349750 0.401180 
#    z -0.123700 0.401180 4.535070 
# 
# 
# High freq. dielectric constant tensor:
#      x y z
#    x 1.923230 0.006640 -0.005670 
#    y 0.006640 1.891530 0.003690 
#    z -0.005670 0.003690 1.907030 
# 
# From -- ./inp_files/26924.got.cif
#   From: 2010.06.25/outbox.cif.g09.slc.cpg/sg2_14_cif.got.tgz:26924.got - 2010.06.27 13:26:56.
