data_PCOD8036148
_publ_section_title
;
Structure prediction by ZEFSAII (Michael W. Deem and Ramdas Pophale) SiO2 
 PCOD8036148
Probable space group: P -1
;
_chemical_formula_sum "Si O2"
_cell_formula_units_Z 14
_cell_length_a 7.806946
_cell_length_b 15.063411
_cell_length_c 12.035718
_cell_angle_alpha 30.119601
_cell_angle_beta 127.416406
_cell_angle_gamma 116.055114
_cell_volume 550.719257
_symmetry_space_group_name_H-M "P -1"
_symmetry_group_IT_number 2
_symmetry_cell_setting 'triclinic'
loop_
_space_group_symop_operation_xyz
x,y,z
-x,-y,-z
loop_
_atom_site_type_symbol
_atom_site_label
_atom_site_fract_x
_atom_site_fract_y
_atom_site_fract_z
Si Si1 0.950565 0.209862 0.288790
Si Si2 0.979768 0.617575 0.099447
Si Si3 0.609815 0.285645 0.536019
Si Si4 0.096723 0.915863 0.968814
Si Si5 0.604910 0.029951 0.629879
Si Si6 0.768155 0.762196 0.422562
Si Si7 0.448550 0.330213 0.992312
O O1 0.131258 0.224698 0.431870
O O2 0.710335 0.286516 0.169593
O O3 0.000000 0.000000 0.500000
O O4 0.981123 0.341106 0.057993
O O5 0.714371 0.654943 0.979906
O O6 0.084630 0.409451 0.397925
O O7 0.114349 0.738549 0.091615
O O8 0.500960 0.209851 0.465625
O O9 0.472462 0.276089 0.605176
O O10 0.627734 0.492002 0.303679
O O11 0.849144 0.157487 0.803140
O O12 0.259207 0.049255 0.858170
O O13 0.858695 0.041720 0.710037
O O14 0.500000 0.000000 0.500000
O O15 0.588909 0.850880 0.890482
#
# Coordination Sequence:
#
# PCOD8036148 Si02
#       7
#     2   2   2   2   2   2   2
#     4  12  24  47  72 107 151 189 246 317 367 433
#     4  11  26  45  72 107 145 191 247 303 372 437
#     4  12  27  46  73 107 148 197 244 299 374 439
#     4  11  26  47  72 105 147 197 246 302 363 445
#     4  11  26  46  75 107 144 193 247 305 366 436
#     4  12  25  44  72 106 148 192 248 305 366 440
#     4  11  27  45  73 108 144 193 243 305 371 438
#
# _framework density 25.421302000000001
#
# number of rings (size 3 to 8) (size 9 to 14) (size 15 to 20)
#    0.000    0.571    2.857    3.857    6.000    5.143 
#    0.000    0.000    0.000    0.000    0.000    0.000 
#    0.000    0.000    0.000    0.000    0.000    0.000 
#
# Total GULP energy -173437.829369 kJ/mol
# GULP energy per Si atom -12388.416384 kJ/mol
# Density = 2.536344 g / cm^3
# Si number density = 25.421302 Si / 1000 Ang^3
#
#
#
# Elastic Constant Matrix: (Units=GPa)
#
#
# Indices 1 2 3 4 5 6 
#
# 1 108.4678 15.4699 28.9187 -12.5858 3.6749 13.8198
# 2 15.4699 75.3648 48.2649 -17.1928 -11.2435 -9.1115
# 3 28.9187 48.2649 152.8282 -25.2286 -18.0089 4.7919
# 4 -12.5858 -17.1928 -25.2286 50.0679 6.3057 0.2933
# 5 3.6749 -11.2435 -18.0089 6.3057 47.0509 -8.8333
# 6 13.8198 -9.1115 4.7919 0.2933 -8.8333 29.4540
#
#
#
# Elastic Compliance Matrix: (Units=1/GPa)
#
#
# Indices 1 2 3 4 5 6 
#
# 1 0.011082 -0.002407 -0.001229 0.001812 -0.003429 -0.006791
# 2 -0.002407 0.019351 -0.004956 0.002955 0.004240 0.009164
# 3 -0.001229 -0.004956 0.008981 0.002315 0.001675 -0.001938
# 4 0.001812 0.002955 0.002315 0.022845 -0.001814 -0.001084
# 5 -0.003429 0.004240 0.001675 -0.001814 0.025346 0.010267
# 6 -0.006791 0.009164 -0.001938 -0.001084 0.010267 0.043377
#
#
# Mechanical properties :
#
#
# Convention : Reuss Voigt Hill
#
# Bulk Modulus (GPa) = 44.98204 57.99642 51.48923
# Shear Modulus (GPa) = 32.13858 41.58172 36.86015
#
# Velocity S-wave (km/s) = 3.55947 4.04877 3.81198
# Velocity P-wave (km/s) = 5.88440 6.68733 6.29867
#
# Compressibility (1/GPa) = 0.02223110
#
# Stress axis : x y z
#
# Youngs Moduli (GPa) = 90.23816 51.67632 111.34264
#
# Poissons Ratio (x) = 0.12438 0.13682
# Poissons Ratio (y) = 0.21720 0.55179
# Poissons Ratio (z) = 0.11089 0.25610
#
# Static dielectric constant tensor:
#      x y z
#    x 4.782210 0.043700 0.102850 
#    y 0.043700 5.133540 -0.393600 
#    z 0.102850 -0.393600 4.874030 
# 
# 
# High freq. dielectric constant tensor:
#      x y z
#    x 2.016570 0.012920 0.007080 
#    y 0.012920 2.004360 -0.022970 
#    z 0.007080 -0.022970 2.029350 
# 
# From -- ./inp_files/398312.got.cif
#   From: 2010.06.25/outbox.cif.g09.slc.cpg/sg2_200_cif.got.tgz:398312.got - 2010.06.27 13:26:56.
