data_PCOD8036994
_publ_section_title
;
Structure prediction by ZEFSAII (Michael W. Deem and Ramdas Pophale) SiO2 
 PCOD8036994
Probable space group: P -1
;
_chemical_formula_sum "Si O2"
_cell_formula_units_Z 16
_cell_length_a 10.945490
_cell_length_b 15.736047
_cell_length_c 18.242169
_cell_angle_alpha 157.356671
_cell_angle_beta 42.635866
_cell_angle_gamma 144.416737
_cell_volume 702.318356
_symmetry_space_group_name_H-M "P -1"
_symmetry_group_IT_number 2
_symmetry_cell_setting 'triclinic'
loop_
_space_group_symop_operation_xyz
x,y,z
-x,-y,-z
loop_
_atom_site_type_symbol
_atom_site_label
_atom_site_fract_x
_atom_site_fract_y
_atom_site_fract_z
Si Si1 0.558529 0.583809 0.959430
Si Si2 0.903197 0.867702 0.706021
Si Si3 0.663609 0.110460 0.950821
Si Si4 0.021907 0.887719 0.976272
Si Si5 0.759306 0.886354 0.363151
Si Si6 0.638003 0.270937 0.336213
Si Si7 0.391825 0.953331 0.318622
Si Si8 0.943635 0.649183 0.199855
O O1 0.524918 0.817033 0.142192
O O2 0.500000 0.500000 0.000000
O O3 0.415836 0.385550 0.804275
O O4 0.794331 0.641559 0.894721
O O5 0.927461 0.910275 0.817510
O O6 0.727376 0.574897 0.529322
O O7 0.859418 0.084417 0.867311
O O8 0.110708 0.933915 0.620341
O O9 0.566580 0.924619 0.775848
O O10 0.743978 0.414283 0.145192
O O11 0.500000 0.000000 0.000000
O O12 0.187166 0.795913 0.819100
O O13 0.000000 0.000000 0.000000
O O14 0.628594 0.000849 0.550177
O O15 0.888739 0.841853 0.335633
O O16 0.547276 0.215474 0.414680
O O17 0.149179 0.808876 0.285243
O O18 0.000000 0.500000 0.000000
#
# Coordination Sequence:
#
# PCOD8036994 Si02
#       8
#     2   2   2   2   2   2   2   2
#     4  12  26  48  73  99 140 189 245 290 342 414
#     4  12  27  46  73 110 141 182 237 293 354 424
#     4  12  25  44  76 106 143 187 230 288 363 419
#     4  12  28  50  71 101 142 191 239 290 350 414
#     4  12  27  46  75 107 141 185 237 293 353 418
#     4  12  27  46  72 107 144 185 232 293 358 420
#     4  12  27  46  74 106 141 187 235 290 358 419
#     4  12  23  46  76 101 144 186 233 289 352 422
#
# _framework density 22.781690999999999
#
# number of rings (size 3 to 8) (size 9 to 14) (size 15 to 20)
#    0.000    0.000    7.500    0.750    7.000    2.000 
#    0.000    0.000    0.000    0.000    0.000    0.000 
#    0.000    0.000    0.000    0.000    0.000    0.000 
#
# Total GULP energy -198241.036941 kJ/mol
# GULP energy per Si atom -12390.064809 kJ/mol
# Density = 2.272984 g / cm^3
# Si number density = 22.781691 Si / 1000 Ang^3
#
#
#
# Elastic Constant Matrix: (Units=GPa)
#
#
# Indices 1 2 3 4 5 6 
#
# 1 85.1506 18.3579 19.6452 2.2624 20.9065 -0.6819
# 2 18.3579 155.9966 32.4439 -6.1661 0.5612 -19.9486
# 3 19.6452 32.4439 107.0958 13.9919 46.2482 7.5513
# 4 2.2624 -6.1661 13.9919 52.7808 21.5853 13.0935
# 5 20.9065 0.5612 46.2482 21.5853 118.4040 33.1220
# 6 -0.6819 -19.9486 7.5513 13.0935 33.1220 49.6530
#
#
#
# Elastic Compliance Matrix: (Units=1/GPa)
#
#
# Indices 1 2 3 4 5 6 
#
# 1 0.012796 -0.001070 -0.001195 0.000211 -0.002201 0.001340
# 2 -0.001070 0.007465 -0.002424 0.000754 0.000099 0.003088
# 3 -0.001195 -0.002424 0.012414 -0.001846 -0.004451 0.000578
# 4 0.000211 0.000754 -0.001846 0.021300 -0.002208 -0.003558
# 5 -0.002201 0.000099 -0.004451 -0.002208 0.013056 -0.007441
# 6 0.001340 0.003088 0.000578 -0.003558 -0.007441 0.027213
#
#
# Mechanical properties :
#
#
# Convention : Reuss Voigt Hill
#
# Bulk Modulus (GPa) = 42.92415 54.34856 48.63635
# Shear Modulus (GPa) = 44.88882 62.68730 53.78806
#
# Velocity S-wave (km/s) = 4.44372 5.25131 4.86431
# Velocity P-wave (km/s) = 6.72394 7.78950 7.27625
#
# Compressibility (1/GPa) = 0.02329691
#
# Stress axis : x y z
#
# Youngs Moduli (GPa) = 78.15147 133.96163 80.55609
#
# Poissons Ratio (x) = 0.14330 0.09624
# Poissons Ratio (y) = 0.08360 0.19529
# Poissons Ratio (z) = 0.09337 0.32475
#
# Static dielectric constant tensor:
#      x y z
#    x 4.757350 0.056150 -0.244550 
#    y 0.056150 4.587980 -0.469360 
#    z -0.244550 -0.469360 4.180740 
# 
# 
# High freq. dielectric constant tensor:
#      x y z
#    x 1.898100 -0.006470 0.009120 
#    y -0.006470 1.924700 -0.005050 
#    z 0.009120 -0.005050 1.896170 
# 
# From -- ./inp_files/596044.got.cif
#   From: 2010.06.25/outbox.cif.g09.slc.cpg/sg2_299_cif.got.tgz:596044.got - 2010.06.27 13:26:56.
