data_PCOD8036929
_publ_section_title
;
Structure prediction by ZEFSAII (Michael W. Deem and Ramdas Pophale) SiO2 
 PCOD8036929
Probable space group: P -1
;
_chemical_formula_sum "Si O2"
_cell_formula_units_Z 16
_cell_length_a 9.478684
_cell_length_b 25.947161
_cell_length_c 25.076345
_cell_angle_alpha 10.997780
_cell_angle_beta 140.330761
_cell_angle_gamma 142.566321
_cell_volume 712.640861
_symmetry_space_group_name_H-M "P -1"
_symmetry_group_IT_number 2
_symmetry_cell_setting 'triclinic'
loop_
_space_group_symop_operation_xyz
x,y,z
-x,-y,-z
loop_
_atom_site_type_symbol
_atom_site_label
_atom_site_fract_x
_atom_site_fract_y
_atom_site_fract_z
Si Si1 0.501743 0.125926 0.632420
Si Si2 0.947836 0.158856 0.032345
Si Si3 0.224689 0.392404 0.526207
Si Si4 0.051908 0.753412 0.297943
Si Si5 0.037988 0.791257 0.895757
Si Si6 0.857564 0.193422 0.284729
Si Si7 0.769423 0.177908 0.396839
Si Si8 0.556902 0.702060 0.002230
O O1 0.679339 0.223944 0.633302
O O2 0.457983 0.385523 0.321712
O O3 0.252005 0.909576 0.797201
O O4 0.636380 0.938950 0.830326
O O5 0.864299 0.222062 0.002773
O O6 0.228170 0.288236 0.982685
O O7 0.858767 0.832762 0.317928
O O8 0.850163 0.331617 0.786470
O O9 0.500000 0.500000 0.500000
O O10 0.111520 0.280263 0.663785
O O11 0.000000 0.500000 0.500000
O O12 0.000000 0.000000 0.000000
O O13 0.904460 0.020324 0.633100
O O14 0.848583 0.502743 0.111130
O O15 0.848160 0.153804 0.384689
O O16 0.609871 0.165297 0.215379
O O17 0.000000 0.000000 0.500000
O O18 0.000000 0.500000 0.000000
O O19 0.500000 0.000000 0.500000
#
# Coordination Sequence:
#
# PCOD8036929 Si02
#       8
#     2   2   2   2   2   2   2   2
#     4  12  25  45  70 102 142 178 238 289 348 419
#     4  12  25  48  69 105 138 190 239 278 353 416
#     4  12  27  47  72 104 145 185 235 289 343 423
#     4  12  26  45  73 105 142 185 230 286 357 413
#     4  12  27  44  71 101 139 185 229 292 348 411
#     4  12  25  42  71 103 134 179 232 287 352 412
#     4  12  26  48  67 102 141 181 233 288 353 419
#     4  12  23  45  70  97 138 184 229 294 343 421
#
# _framework density 22.451702999999998
#
# number of rings (size 3 to 8) (size 9 to 14) (size 15 to 20)
#    0.000    0.000    2.500    8.250    3.500    2.000 
#    0.000    0.000    0.000    0.000    0.000    0.000 
#    0.000    0.000    0.000    0.000    0.000    0.000 
#
# Total GULP energy -198286.252352 kJ/mol
# GULP energy per Si atom -12392.890772 kJ/mol
# Density = 2.240060 g / cm^3
# Si number density = 22.451703 Si / 1000 Ang^3
#
#
#
# Elastic Constant Matrix: (Units=GPa)
#
#
# Indices 1 2 3 4 5 6 
#
# 1 109.4749 40.1218 35.3204 -9.5148 2.5517 -7.0207
# 2 40.1218 116.4639 32.9689 -5.6404 -0.8451 13.6182
# 3 35.3204 32.9689 135.7833 -0.1038 5.1661 0.6317
# 4 -9.5148 -5.6404 -0.1038 54.8412 -1.4836 5.7359
# 5 2.5517 -0.8451 5.1661 -1.4836 34.4252 -0.9501
# 6 -7.0207 13.6182 0.6317 5.7359 -0.9501 46.0857
#
#
#
# Elastic Compliance Matrix: (Units=1/GPa)
#
#
# Indices 1 2 3 4 5 6 
#
# 1 0.011423 -0.003593 -0.002091 0.001317 -0.000491 0.002657
# 2 -0.003593 0.010799 -0.001696 0.000902 0.000720 -0.003813
# 3 -0.002091 -0.001696 0.008364 -0.000565 -0.001163 0.000114
# 4 0.001317 0.000902 -0.000565 0.018825 0.000755 -0.002386
# 5 -0.000491 0.000720 -0.001163 0.000755 0.029316 0.000239
# 6 0.002657 -0.003813 0.000114 -0.002386 0.000239 0.023530
#
#
# Mechanical properties :
#
#
# Convention : Reuss Voigt Hill
#
# Bulk Modulus (GPa) = 63.19813 64.28271 63.74042
# Shear Modulus (GPa) = 40.88522 43.95783 42.42152
#
# Velocity S-wave (km/s) = 4.27198 4.42960 4.35150
# Velocity P-wave (km/s) = 7.24863 7.40645 7.32797
#
# Compressibility (1/GPa) = 0.01582325
#
# Stress axis : x y z
#
# Youngs Moduli (GPa) = 87.54628 92.59914 119.56182
#
# Poissons Ratio (x) = 0.33275 0.25006
# Poissons Ratio (y) = 0.31459 0.20282
# Poissons Ratio (z) = 0.18310 0.15708
#
# Static dielectric constant tensor:
#      x y z
#    x 4.065130 0.001980 -0.006730 
#    y 0.001980 4.148450 0.008040 
#    z -0.006730 0.008040 4.190330 
# 
# 
# High freq. dielectric constant tensor:
#      x y z
#    x 1.892030 -0.002730 0.000950 
#    y -0.002730 1.900500 0.003060 
#    z 0.000950 0.003060 1.904370 
# 
# From -- ./inp_files/617680.got.cif
#   From: 2010.06.25/outbox.cif.g09.slc.cpg/sg2_309_cif.got.tgz:617680.got - 2010.06.27 13:26:56.
