data_PCOD8036502
_publ_section_title
;
Structure prediction by ZEFSAII (Michael W. Deem and Ramdas Pophale) SiO2 
 PCOD8036502
Probable space group: P -1
;
_chemical_formula_sum "Si O2"
_cell_formula_units_Z 10
_cell_length_a 15.393058
_cell_length_b 14.622528
_cell_length_c 5.834342
_cell_angle_alpha 113.515535
_cell_angle_beta 111.416534
_cell_angle_gamma 19.195999
_cell_volume 395.633532
_symmetry_space_group_name_H-M "P -1"
_symmetry_group_IT_number 2
_symmetry_cell_setting 'triclinic'
loop_
_space_group_symop_operation_xyz
x,y,z
-x,-y,-z
loop_
_atom_site_type_symbol
_atom_site_label
_atom_site_fract_x
_atom_site_fract_y
_atom_site_fract_z
Si Si1 0.752733 0.961423 0.069057
Si Si2 0.266852 0.733148 0.333881
Si Si3 0.499995 0.659438 0.159427
Si Si4 0.247311 0.466840 0.359256
Si Si5 0.255514 0.244484 0.338957
O O1 0.000037 0.748087 0.248114
O O2 0.500040 0.250377 0.250444
O O3 0.749293 0.846247 0.919101
O O4 0.722339 0.049340 0.887265
O O5 0.500000 0.500000 0.500000
O O6 0.305185 0.790777 0.266396
O O7 0.305185 0.598850 0.074470
O O8 0.000000 0.000000 0.500000
O O9 0.722319 0.506014 0.343899
O O10 0.250718 0.344816 0.271963
O O11 0.000000 0.500000 0.500000
O O12 0.500000 0.000000 0.500000
#
# Coordination Sequence:
#
# PCOD8036502 Si02
#       5
#     2   2   2   2   2
#     4  12  27  47  77 114 157 207 259 309 381 455
#     4  11  28  55  81 112 155 199 256 327 405 462
#     4  11  28  51  82 116 156 201 262 329 382 470
#     4  12  27  47  77 114 157 207 259 309 381 455
#     4  12  24  48  74 109 163 208 247 314 375 443
#
# _framework density 25.275918000000001
#
# number of rings (size 3 to 8) (size 9 to 14) (size 15 to 20)
#    0.000    0.400    2.000    4.800    0.000   12.800 
#    0.000    3.000    0.000    0.000    0.000    0.000 
#    0.000    0.000    0.000    0.000    0.000    0.000 
#
# Total GULP energy -123971.824210 kJ/mol
# GULP energy per Si atom -12397.182421 kJ/mol
# Density = 2.521839 g / cm^3
# Si number density = 25.275918 Si / 1000 Ang^3
#
#
#
# Elastic Constant Matrix: (Units=GPa)
#
#
# Indices 1 2 3 4 5 6 
#
# 1 167.0606 59.6653 59.5488 -13.9378 -11.1380 19.3543
# 2 59.6653 213.0163 90.4108 -31.6688 -7.7400 -19.4505
# 3 59.5488 90.4108 178.7347 -19.7725 20.6138 6.5187
# 4 -13.9378 -31.6688 -19.7725 65.3109 3.5589 -11.8385
# 5 -11.1380 -7.7400 20.6138 3.5589 55.7906 5.7994
# 6 19.3543 -19.4505 6.5187 -11.8385 5.7994 40.6028
#
#
#
# Elastic Compliance Matrix: (Units=1/GPa)
#
#
# Indices 1 2 3 4 5 6 
#
# 1 0.008055 -0.001942 -0.001915 -0.000869 0.002631 -0.005091
# 2 -0.001942 0.007677 -0.003200 0.003362 0.001027 0.005950
# 3 -0.001915 -0.003200 0.008402 0.000565 -0.003836 -0.001256
# 4 -0.000869 0.003362 0.000565 0.018401 -0.001876 0.007567
# 5 0.002631 0.001027 -0.003836 -0.001876 0.020505 -0.003622
# 6 -0.005091 0.005950 -0.001256 0.007567 -0.003622 0.032832
#
#
# Mechanical properties :
#
#
# Convention : Reuss Voigt Hill
#
# Bulk Modulus (GPa) = 99.79604 108.67347 104.23476
# Shear Modulus (GPa) = 44.12051 55.61999 49.87025
#
# Velocity S-wave (km/s) = 4.18252 4.69605 4.44670
# Velocity P-wave (km/s) = 7.93051 8.51423 8.22755
#
# Compressibility (1/GPa) = 0.01002044
#
# Stress axis : x y z
#
# Youngs Moduli (GPa) = 124.15014 130.26043 119.01394
#
# Poissons Ratio (x) = 0.25292 0.22795
# Poissons Ratio (y) = 0.24105 0.38083
# Poissons Ratio (z) = 0.23778 0.41682
#
# Static dielectric constant tensor:
#      x y z
#    x 4.837350 0.131750 0.054460 
#    y 0.131750 4.456300 -0.016930 
#    z 0.054460 -0.016930 4.779280 
# 
# 
# High freq. dielectric constant tensor:
#      x y z
#    x 2.027650 0.004630 0.001100 
#    y 0.004630 2.017650 -0.003110 
#    z 0.001100 -0.003110 2.028900 
# 
# From -- ./inp_files/3546.got.cif
#   From: 2010.06.25/outbox.cif.g09.slc.cpg/sg2_2_cif.got.tgz:3546.got - 2010.06.27 13:26:56.
