data_PCOD8036616
_publ_section_title
;
Structure prediction by ZEFSAII (Michael W. Deem and Ramdas Pophale) SiO2 
 PCOD8036616
Probable space group: P -1
;
_chemical_formula_sum "Si O2"
_cell_formula_units_Z 16
_cell_length_a 11.920576
_cell_length_b 14.254535
_cell_length_c 11.656242
_cell_angle_alpha 79.024726
_cell_angle_beta 122.194573
_cell_angle_gamma 148.836373
_cell_volume 689.735711
_symmetry_space_group_name_H-M "P -1"
_symmetry_group_IT_number 2
_symmetry_cell_setting 'triclinic'
loop_
_space_group_symop_operation_xyz
x,y,z
-x,-y,-z
loop_
_atom_site_type_symbol
_atom_site_label
_atom_site_fract_x
_atom_site_fract_y
_atom_site_fract_z
Si Si1 0.326246 0.199011 0.841230
Si Si2 0.122885 0.752002 0.656713
Si Si3 0.136070 0.262062 0.319723
Si Si4 0.693289 0.604119 0.870929
Si Si5 0.467535 0.064625 0.554912
Si Si6 0.402346 0.613827 0.713603
Si Si7 0.834322 0.424854 0.201290
Si Si8 0.053137 0.909588 0.195384
O O1 0.478503 0.369289 0.789914
O O2 0.221163 0.196519 0.891501
O O3 0.595615 0.300737 0.001184
O O4 0.028055 0.945989 0.685680
O O5 0.278740 0.755993 0.785059
O O6 0.063071 0.783174 0.722938
O O7 0.784875 0.500897 0.480409
O O8 0.339560 0.945037 0.635027
O O9 0.500000 0.500000 0.500000
O O10 0.104596 0.248725 0.168108
O O11 0.466334 0.544749 0.788517
O O12 0.914931 0.737443 0.074208
O O13 0.802209 0.335142 0.699013
O O14 0.500000 0.000000 0.500000
O O15 0.220800 0.976994 0.383549
O O16 0.182694 0.513753 0.715615
O O17 0.718533 0.881101 0.811404
#
# Coordination Sequence:
#
# PCOD8036616 Si02
#       8
#     2   2   2   2   2   2   2   2
#     4  12  27  46  75 111 146 193 242 306 361 429
#     4  12  26  48  73 103 149 199 243 293 362 438
#     4  12  28  51  73 105 145 199 248 294 360 440
#     4  12  25  45  75 111 149 186 242 304 365 428
#     4  12  25  43  73 111 147 188 237 299 367 428
#     4  12  21  45  72 113 147 185 236 309 366 424
#     4  12  26  46  73 111 150 185 241 303 372 425
#     4  12  23  44  76 112 150 183 243 308 365 423
#
# _framework density 23.197289000000001
#
# number of rings (size 3 to 8) (size 9 to 14) (size 15 to 20)
#    0.000    0.000    6.250    4.125    0.000    3.000 
#    0.000    1.250    0.000    0.000    0.000    0.000 
#    0.000    0.000    0.000    0.000    0.000    0.000 
#
# Total GULP energy -198463.557885 kJ/mol
# GULP energy per Si atom -12403.972368 kJ/mol
# Density = 2.314449 g / cm^3
# Si number density = 23.197289 Si / 1000 Ang^3
#
#
#
# Elastic Constant Matrix: (Units=GPa)
#
#
# Indices 1 2 3 4 5 6 
#
# 1 132.5894 47.9399 35.9719 -13.9634 3.4294 -1.9088
# 2 47.9399 147.5641 44.7195 5.5318 15.8963 -18.1096
# 3 35.9719 44.7195 85.2586 7.1904 15.5655 -7.9084
# 4 -13.9634 5.5318 7.1904 32.3079 -7.4520 1.7253
# 5 3.4294 15.8963 15.5655 -7.4520 33.8223 -0.7317
# 6 -1.9088 -18.1096 -7.9084 1.7253 -0.7317 42.0604
#
#
#
# Elastic Compliance Matrix: (Units=1/GPa)
#
#
# Indices 1 2 3 4 5 6 
#
# 1 0.010377 -0.002971 -0.004265 0.006915 0.003791 -0.001828
# 2 -0.002971 0.009432 -0.002401 -0.003407 -0.003700 0.003550
# 3 -0.004265 -0.002401 0.017009 -0.007128 -0.007791 0.002127
# 4 0.006915 -0.003407 -0.007128 0.039258 0.012747 -0.003882
# 5 0.003791 -0.003700 -0.007791 0.012747 0.037255 -0.002761
# 6 -0.001828 0.003550 0.002127 -0.003882 -0.002761 0.025732
#
#
# Mechanical properties :
#
#
# Convention : Reuss Voigt Hill
#
# Bulk Modulus (GPa) = 57.00039 69.18607 63.09323
# Shear Modulus (GPa) = 30.45344 37.42350 33.93847
#
# Velocity S-wave (km/s) = 3.62719 4.02091 3.82911
# Velocity P-wave (km/s) = 6.49364 7.17264 6.84157
#
# Compressibility (1/GPa) = 0.01754374
#
# Stress axis : x y z
#
# Youngs Moduli (GPa) = 96.36593 106.02669 58.79259
#
# Poissons Ratio (x) = 0.31497 0.25074
# Poissons Ratio (y) = 0.28627 0.14119
# Poissons Ratio (z) = 0.41099 0.25461
#
# Static dielectric constant tensor:
#      x y z
#    x 4.100430 -0.044290 0.134860 
#    y -0.044290 4.369900 0.054520 
#    z 0.134860 0.054520 4.146840 
# 
# 
# High freq. dielectric constant tensor:
#      x y z
#    x 1.906400 -0.006640 0.011920 
#    y -0.006640 1.934190 0.009310 
#    z 0.011920 0.009310 1.909870 
# 
# From -- ./inp_files/433962.got.cif
#   From: 2010.06.25/outbox.cif.g09.slc.cpg/sg2_217_cif.got.tgz:433962.got - 2010.06.27 13:26:56.
