data_PCOD8036064
_publ_section_title
;
Structure prediction by ZEFSAII (Michael W. Deem and Ramdas Pophale) SiO2 
 PCOD8036064
Probable space group: P -1
;
_chemical_formula_sum "Si O2"
_cell_formula_units_Z 12
_cell_length_a 11.958553
_cell_length_b 11.554962
_cell_length_c 8.748383
_cell_angle_alpha 52.338803
_cell_angle_beta 39.317872
_cell_angle_gamma 36.395431
_cell_volume 454.263331
_symmetry_space_group_name_H-M "P -1"
_symmetry_group_IT_number 2
_symmetry_cell_setting 'triclinic'
loop_
_space_group_symop_operation_xyz
x,y,z
-x,-y,-z
loop_
_atom_site_type_symbol
_atom_site_label
_atom_site_fract_x
_atom_site_fract_y
_atom_site_fract_z
Si Si1 0.787998 0.005381 0.188618
Si Si2 0.392997 0.910338 0.359666
Si Si3 0.970127 0.434311 0.745261
Si Si4 0.458457 0.648697 0.045216
Si Si5 0.140879 0.281418 0.135147
Si Si6 0.736836 0.305531 0.475433
O O1 0.617587 0.091518 0.445221
O O2 0.630626 0.152651 0.097911
O O3 0.874104 0.796651 0.224381
O O4 0.000000 0.000000 0.000000
O O5 0.231737 0.871405 0.487724
O O6 0.280014 0.122388 0.250476
O O7 0.666545 0.748380 0.153961
O O8 0.697472 0.544274 0.967218
O O9 0.024174 0.507316 0.776030
O O10 0.000000 0.500000 0.500000
O O11 0.500000 0.500000 0.000000
O O12 0.270581 0.698353 0.328881
O O13 0.968343 0.275533 0.218116
O O14 0.500000 0.500000 0.500000
#
# Coordination Sequence:
#
# PCOD8036064 Si02
#       6
#     2   2   2   2   2   2
#     4  12  26  49  86 118 160 218 267 334 412 481
#     4  11  25  51  78 120 156 211 274 325 412 480
#     4  12  25  51  78 121 164 208 272 334 401 484
#     4  12  25  50  78 118 161 207 274 330 398 489
#     4  11  25  51  80 113 164 209 268 340 395 486
#     4  12  27  51  80 113 158 215 270 332 407 486
#
# _framework density 26.416397
#
# number of rings (size 3 to 8) (size 9 to 14) (size 15 to 20)
#    0.000    0.333    5.000    3.500    0.000    1.333 
#    6.000    0.000    0.000    0.000    0.000    0.000 
#    0.000    0.000    0.000    0.000    0.000    0.000 
#
# Total GULP energy -148887.569298 kJ/mol
# GULP energy per Si atom -12407.297441 kJ/mol
# Density = 2.635627 g / cm^3
# Si number density = 26.416397 Si / 1000 Ang^3
#
#
#
# Elastic Constant Matrix: (Units=GPa)
#
#
# Indices 1 2 3 4 5 6 
#
# 1 116.2902 50.6430 54.8720 8.7286 -10.4152 13.2846
# 2 50.6430 176.6053 51.2437 -12.3821 24.2407 19.6648
# 3 54.8720 51.2437 143.5565 8.3693 2.9963 14.1026
# 4 8.7286 -12.3821 8.3693 34.9856 2.5191 6.7953
# 5 -10.4152 24.2407 2.9963 2.5191 45.0560 -5.6470
# 6 13.2846 19.6648 14.1026 6.7953 -5.6470 52.8589
#
#
#
# Elastic Compliance Matrix: (Units=1/GPa)
#
#
# Indices 1 2 3 4 5 6 
#
# 1 0.012547 -0.003654 -0.003388 -0.004036 0.005342 0.000199
# 2 -0.003654 0.008773 -0.001603 0.005482 -0.006176 -0.003282
# 3 -0.003388 -0.001603 0.009021 -0.001687 -0.000526 -0.000798
# 4 -0.004036 0.005482 -0.001687 0.033469 -0.006338 -0.005555
# 5 0.005342 -0.006176 -0.000526 -0.006338 0.027752 0.004875
# 6 0.000199 -0.003282 -0.000798 -0.005555 0.004875 0.021537
#
#
# Mechanical properties :
#
#
# Convention : Reuss Voigt Hill
#
# Bulk Modulus (GPa) = 76.61603 83.32991 79.97297
# Shear Modulus (GPa) = 37.10874 45.22634 41.16754
#
# Velocity S-wave (km/s) = 3.75208 4.14219 3.95195
# Velocity P-wave (km/s) = 6.91643 7.38175 7.15287
#
# Compressibility (1/GPa) = 0.01305210
#
# Stress axis : x y z
#
# Youngs Moduli (GPa) = 79.69807 113.98973 110.85488
#
# Poissons Ratio (x) = 0.41647 0.37553
# Poissons Ratio (y) = 0.29118 0.17773
# Poissons Ratio (z) = 0.26998 0.18276
#
# Static dielectric constant tensor:
#      x y z
#    x 0.571430 -2.792640 0.862510 
#    y -2.792640 3.118940 0.485530 
#    z 0.862510 0.485530 4.854740 
# 
# 
# High freq. dielectric constant tensor:
#      x y z
#    x 2.062270 -0.000760 0.002520 
#    y -0.000760 2.075550 -0.006490 
#    z 0.002520 -0.006490 2.074160 
# 
# From -- ./inp_files/261880.got.cif
#   From: 2010.06.25/outbox.cif.g09.slc.cpg/sg2_131_cif.got.tgz:261880.got - 2010.06.27 13:26:56.
