data_PCOD8036112
_publ_section_title
;
Structure prediction by ZEFSAII (Michael W. Deem and Ramdas Pophale) SiO2 
 PCOD8036112
Probable space group: P -1
;
_chemical_formula_sum "Si O2"
_cell_formula_units_Z 16
_cell_length_a 4.962062
_cell_length_b 18.220562
_cell_length_c 15.615406
_cell_angle_alpha 30.405190
_cell_angle_beta 72.998059
_cell_angle_gamma 83.566448
_cell_volume 654.036398
_symmetry_space_group_name_H-M "P -1"
_symmetry_group_IT_number 2
_symmetry_cell_setting 'triclinic'
loop_
_space_group_symop_operation_xyz
x,y,z
-x,-y,-z
loop_
_atom_site_type_symbol
_atom_site_label
_atom_site_fract_x
_atom_site_fract_y
_atom_site_fract_z
Si Si1 0.757088 0.564597 0.056312
Si Si2 0.538859 0.007877 0.588591
Si Si3 0.714882 0.296895 0.006517
Si Si4 0.770638 0.195135 0.917219
Si Si5 0.451035 0.846030 0.313827
Si Si6 0.193985 0.187321 0.531949
Si Si7 0.574610 0.680076 0.309454
Si Si8 0.981144 0.693753 0.727300
O O1 0.772582 0.392717 0.224379
O O2 0.444698 0.570123 0.118049
O O3 0.019140 0.663032 0.991865
O O4 0.782122 0.629710 0.891791
O O5 0.263652 0.045520 0.621965
O O6 0.848722 0.129092 0.458636
O O7 0.500000 0.000000 0.500000
O O8 0.541377 0.847187 0.788790
O O9 0.830807 0.265020 0.935900
O O10 0.534569 0.264551 0.824269
O O11 0.076928 0.246998 0.785686
O O12 0.666116 0.013488 0.109120
O O13 0.580203 0.760909 0.462030
O O14 0.412999 0.740417 0.340625
O O15 0.137947 0.864784 0.350014
O O16 0.228174 0.320596 0.322792
O O17 0.500000 0.500000 0.500000
#
# Coordination Sequence:
#
# PCOD8036112 Si02
#       8
#     2   2   2   2   2   2   2   2
#     4  11  28  44  67 100 148 194 243 289 362 420
#     4  12  25  45  74 104 148 189 245 298 348 408
#     4  12  26  45  72 107 140 188 243 301 352 420
#     4  12  25  48  76 105 143 183 240 294 355 438
#     4  12  26  47  78 104 145 181 244 296 358 436
#     4  12  25  44  73 110 140 187 246 297 358 414
#     4  12  28  50  74 109 144 187 232 294 373 435
#     4  11  26  45  68 100 146 196 242 293 356 431
#
# _framework density 24.463469
#
# number of rings (size 3 to 8) (size 9 to 14) (size 15 to 20)
#    0.000    0.250    3.750    4.125    5.250    5.000 
#    0.000    0.000    0.000    0.000    0.000    0.000 
#    0.000    0.000    0.000    0.000    0.000    0.000 
#
# Total GULP energy -198475.729619 kJ/mol
# GULP energy per Si atom -12404.733101 kJ/mol
# Density = 2.440779 g / cm^3
# Si number density = 24.463469 Si / 1000 Ang^3
#
#
#
# Elastic Constant Matrix: (Units=GPa)
#
#
# Indices 1 2 3 4 5 6 
#
# 1 100.6863 9.5399 10.4207 7.2024 17.9612 0.7005
# 2 9.5399 112.4076 25.4688 5.5887 15.2555 11.9159
# 3 10.4207 25.4688 60.7579 4.2309 19.2913 21.4559
# 4 7.2024 5.5887 4.2309 33.9037 4.2155 3.7274
# 5 17.9612 15.2555 19.2913 4.2155 34.1834 0.3990
# 6 0.7005 11.9159 21.4559 3.7274 0.3990 32.8344
#
#
#
# Elastic Compliance Matrix: (Units=1/GPa)
#
#
# Indices 1 2 3 4 5 6 
#
# 1 0.011050 -0.000109 0.000014 -0.001645 -0.005563 0.000049
# 2 -0.000109 0.010119 -0.002606 -0.000759 -0.002873 -0.001846
# 3 0.000014 -0.002606 0.028347 0.000640 -0.014717 -0.017472
# 4 -0.001645 -0.000759 0.000640 0.030640 -0.002895 -0.003551
# 5 -0.005563 -0.002873 -0.014717 -0.002895 0.041998 0.010596
# 6 0.000049 -0.001846 -0.017472 -0.003551 0.010596 0.042816
#
#
# Mechanical properties :
#
#
# Convention : Reuss Voigt Hill
#
# Bulk Modulus (GPa) = 22.66869 40.52340 31.59605
# Shear Modulus (GPa) = 27.01551 35.41244 31.21397
#
# Velocity S-wave (km/s) = 3.32674 3.80881 3.57591
# Velocity P-wave (km/s) = 4.90334 5.99530 5.47660
#
# Compressibility (1/GPa) = 0.04411370
#
# Stress axis : x y z
#
# Youngs Moduli (GPa) = 90.49379 98.82120 35.27706
#
# Poissons Ratio (x) = 0.01082 -0.00050
# Poissons Ratio (y) = 0.00991 0.09194
# Poissons Ratio (z) = -0.00129 0.25756
#
# Static dielectric constant tensor:
#      x y z
#    x 5.073850 1.679170 0.261450 
#    y 1.679170 9.028150 0.272580 
#    z 0.261450 0.272580 4.479010 
# 
# 
# High freq. dielectric constant tensor:
#      x y z
#    x 1.984970 -0.000350 0.008710 
#    y -0.000350 1.985140 0.000830 
#    z 0.008710 0.000830 1.975390 
# 
# From -- ./inp_files/485121.got.cif
#   From: 2010.06.25/outbox.cif.g09.slc.cpg/sg2_243_cif.got.tgz:485121.got - 2010.06.27 13:26:56.
