data_PCOD8036959
_publ_section_title
;
Structure prediction by ZEFSAII (Michael W. Deem and Ramdas Pophale) SiO2 
 PCOD8036959
Probable space group: P -1
;
_chemical_formula_sum "Si O2"
_cell_formula_units_Z 12
_cell_length_a 5.080016
_cell_length_b 11.675331
_cell_length_c 9.495902
_cell_angle_alpha 97.152480
_cell_angle_beta 55.702441
_cell_angle_gamma 102.300904
_cell_volume 454.591747
_symmetry_space_group_name_H-M "P -1"
_symmetry_group_IT_number 2
_symmetry_cell_setting 'triclinic'
loop_
_space_group_symop_operation_xyz
x,y,z
-x,-y,-z
loop_
_atom_site_type_symbol
_atom_site_label
_atom_site_fract_x
_atom_site_fract_y
_atom_site_fract_z
Si Si1 0.834601 0.208690 0.725896
Si Si2 0.050827 0.368820 0.923753
Si Si3 0.705554 0.948532 0.306176
Si Si4 0.194542 0.264833 0.352137
Si Si5 0.380115 0.507002 0.381346
Si Si6 0.183525 0.813904 0.806419
O O1 0.500542 0.147263 0.747819
O O2 0.794359 0.305428 0.873595
O O3 0.007750 0.106637 0.721537
O O4 0.057537 0.278388 0.550114
O O5 0.414538 0.383491 0.748226
O O6 0.000000 0.500000 0.000000
O O7 0.048439 0.274659 0.035291
O O8 0.500000 0.000000 0.500000
O O9 0.878262 0.053192 0.166289
O O10 0.430578 0.388242 0.264913
O O11 0.437215 0.171508 0.263285
O O12 0.890391 0.238637 0.335980
O O13 0.500000 0.500000 0.500000
O O14 0.000000 0.500000 0.500000
#
# Coordination Sequence:
#
# PCOD8036959 Si02
#       6
#     2   2   2   2   2   2
#     4  12  26  46  81 114 151 207 264 312 384 474
#     4  12  30  54  75 120 165 208 255 331 397 460
#     4  12  24  47  81 115 151 201 266 322 381 463
#     4  12  23  45  76 113 146 204 261 314 379 465
#     4  12  27  47  79 109 147 206 268 315 380 471
#     4  12  27  46  79 114 158 199 254 326 397 453
#
# _framework density 26.397314000000001
#
# number of rings (size 3 to 8) (size 9 to 14) (size 15 to 20)
#    0.000    0.000    6.667    2.500    2.333    4.667 
#    0.000    0.000    0.000    0.000    0.000    0.000 
#    0.000    0.000    0.000    0.000    0.000    0.000 
#
# Total GULP energy -148696.998612 kJ/mol
# GULP energy per Si atom -12391.416551 kJ/mol
# Density = 2.633723 g / cm^3
# Si number density = 26.397314 Si / 1000 Ang^3
#
#
#
# Elastic Constant Matrix: (Units=GPa)
#
#
# Indices 1 2 3 4 5 6 
#
# 1 117.6440 19.7101 32.8094 -6.9256 17.6770 11.5254
# 2 19.7101 161.8999 66.0957 -21.8460 19.0612 19.7986
# 3 32.8094 66.0957 115.5350 -12.7811 22.0608 -3.3050
# 4 -6.9256 -21.8460 -12.7811 60.5932 4.8685 13.4069
# 5 17.6770 19.0612 22.0608 4.8685 31.9874 3.4334
# 6 11.5254 19.7986 -3.3050 13.4069 3.4334 35.3254
#
#
#
# Elastic Compliance Matrix: (Units=1/GPa)
#
#
# Indices 1 2 3 4 5 6 
#
# 1 0.010331 0.001303 -0.002680 0.002525 -0.004498 -0.004872
# 2 0.001303 0.010178 -0.005339 0.004730 -0.002949 -0.008138
# 3 -0.002680 -0.005339 0.013629 -0.000198 -0.005323 0.005734
# 4 0.002525 0.004730 -0.000198 0.021386 -0.006150 -0.011012
# 5 -0.004498 -0.002949 -0.005323 -0.006150 0.039998 0.001069
# 6 -0.004872 -0.008138 0.005734 -0.011012 0.001069 0.039071
#
#
# Mechanical properties :
#
#
# Convention : Reuss Voigt Hill
#
# Bulk Modulus (GPa) = 48.29631 70.25661 59.27646
# Shear Modulus (GPa) = 32.27275 44.01212 38.14244
#
# Velocity S-wave (km/s) = 3.50033 4.08768 3.80536
# Velocity P-wave (km/s) = 5.88830 6.99655 6.46621
#
# Compressibility (1/GPa) = 0.02070552
#
# Stress axis : x y z
#
# Youngs Moduli (GPa) = 96.79276 98.24739 73.37045
#
# Poissons Ratio (x) = -0.12797 0.19665
# Poissons Ratio (y) = -0.12608 0.39174
# Poissons Ratio (z) = 0.25942 0.52456
#
# Static dielectric constant tensor:
#      x y z
#    x 5.073100 0.005580 0.056360 
#    y 0.005580 5.450110 -0.235460 
#    z 0.056360 -0.235460 4.890940 
# 
# 
# High freq. dielectric constant tensor:
#      x y z
#    x 2.061210 0.004850 0.012450 
#    y 0.004850 2.086250 -0.012290 
#    z 0.012450 -0.012290 2.051760 
# 
# From -- ./inp_files/131709.got.cif
#   From: 2010.06.25/outbox.cif.g09.slc.cpg/sg2_66_cif.got.tgz:131709.got - 2010.06.27 13:26:56.
