data_PCOD8036603
_publ_section_title
;
Structure prediction by ZEFSAII (Michael W. Deem and Ramdas Pophale) SiO2 
 PCOD8036603
Probable space group: P -1
;
_chemical_formula_sum "Si O2"
_cell_formula_units_Z 16
_cell_length_a 8.973721
_cell_length_b 14.699672
_cell_length_c 10.308282
_cell_angle_alpha 113.289646
_cell_angle_beta 42.588878
_cell_angle_gamma 93.109403
_cell_volume 781.460856
_symmetry_space_group_name_H-M "P -1"
_symmetry_group_IT_number 2
_symmetry_cell_setting 'triclinic'
loop_
_space_group_symop_operation_xyz
x,y,z
-x,-y,-z
loop_
_atom_site_type_symbol
_atom_site_label
_atom_site_fract_x
_atom_site_fract_y
_atom_site_fract_z
Si Si1 0.357939 0.801955 0.056995
Si Si2 0.526653 0.395912 0.297653
Si Si3 0.792784 0.844721 0.886302
Si Si4 0.936219 0.799456 0.480357
Si Si5 0.601582 0.092636 0.172179
Si Si6 0.321470 0.419007 0.791977
Si Si7 0.957222 0.576794 0.268438
Si Si8 0.738727 0.250939 0.325567
O O1 0.412697 0.681120 0.908769
O O2 0.580351 0.801746 0.999260
O O3 0.318176 0.882024 0.006316
O O4 0.121876 0.842089 0.318285
O O5 0.606649 0.493104 0.279663
O O6 0.241046 0.441855 0.526584
O O7 0.668641 0.329389 0.292064
O O8 0.915690 0.834302 0.662044
O O9 0.990664 0.774421 0.821830
O O10 0.690936 0.967107 0.065732
O O11 0.683184 0.853769 0.602527
O O12 0.024019 0.670775 0.340576
O O13 0.710421 0.140486 0.244460
O O14 0.139411 0.390641 0.798711
O O15 0.559283 0.311182 0.593940
O O16 0.195566 0.467012 0.037729
#
# Coordination Sequence:
#
# PCOD8036603 Si02
#       8
#     2   2   2   2   2   2   2   2
#     4  10  20  36  61  85 110 147 191 228 277 332
#     4  10  18  36  62  85 107 143 193 232 269 328
#     4  11  23  38  56  80 123 150 177 233 292 329
#     4  11  19  37  61  83 114 145 190 235 271 333
#     4  10  21  39  61  82 105 152 198 234 267 323
#     4  10  19  33  60  88 108 143 189 231 276 321
#     4  10  17  31  58  86 108 139 185 234 270 320
#     4  10  20  38  57  86 114 147 185 230 285 333
#
# _framework density 20.474474000000001
#
# number of rings (size 3 to 8) (size 9 to 14) (size 15 to 20)
#    0.000    1.750    6.250    3.375    0.000    2.000 
#    0.000    8.750    0.000    5.250    0.000    0.000 
#    0.000    0.000    0.000    0.000    0.000    0.000 
#
# Total GULP energy -198360.332632 kJ/mol
# GULP energy per Si atom -12397.520790 kJ/mol
# Density = 2.042787 g / cm^3
# Si number density = 20.474474 Si / 1000 Ang^3
#
#
#
# Elastic Constant Matrix: (Units=GPa)
#
#
# Indices 1 2 3 4 5 6 
#
# 1 70.6747 28.1359 30.0565 7.6593 -18.2177 16.5254
# 2 28.1359 53.9391 37.6488 2.0460 -2.3134 16.0977
# 3 30.0565 37.6488 105.4856 -15.3890 2.7432 10.6595
# 4 7.6593 2.0460 -15.3890 43.9452 14.2397 7.4041
# 5 -18.2177 -2.3134 2.7432 14.2397 23.4652 -0.6075
# 6 16.5254 16.0977 10.6595 7.4041 -0.6075 14.6703
#
#
#
# Elastic Compliance Matrix: (Units=1/GPa)
#
#
# Indices 1 2 3 4 5 6 
#
# 1 0.038849 -0.003554 -0.012424 -0.022347 0.044366 -0.017718
# 2 -0.003554 0.034720 -0.008446 0.000632 0.000536 -0.028255
# 3 -0.012424 -0.008446 0.019032 0.016578 -0.022760 0.000125
# 4 -0.022347 0.000632 0.016578 0.051576 -0.050931 -0.015705
# 5 0.044366 0.000536 -0.022760 -0.050931 0.110584 -0.003742
# 6 -0.017718 -0.028255 0.000125 -0.015705 -0.003742 0.126808
#
#
# Mechanical properties :
#
#
# Convention : Reuss Voigt Hill
#
# Bulk Modulus (GPa) = 22.85584 46.86466 34.86025
# Shear Modulus (GPa) = 11.23590 25.36668 18.30129
#
# Velocity S-wave (km/s) = 2.34514 3.52368 2.99299
# Velocity P-wave (km/s) = 4.30351 6.28443 5.38583
#
# Compressibility (1/GPa) = 0.04375249
#
# Stress axis : x y z
#
# Youngs Moduli (GPa) = 25.74057 28.80217 52.54266
#
# Poissons Ratio (x) = 0.10237 0.65281
# Poissons Ratio (y) = 0.09149 0.44375
# Poissons Ratio (z) = 0.31981 0.24325
#
# Static dielectric constant tensor:
#      x y z
#    x 3.473090 0.401280 0.075050 
#    y 0.401280 3.416440 0.122420 
#    z 0.075050 0.122420 4.177210 
# 
# 
# High freq. dielectric constant tensor:
#      x y z
#    x 1.772630 0.040990 0.005380 
#    y 0.040990 1.774720 0.008730 
#    z 0.005380 0.008730 1.822400 
# 
# From -- ./inp_files/312853.got.cif
#   From: 2010.06.25/outbox.cif.g09.slc.cpg/sg2_157_cif.got.tgz:312853.got - 2010.06.27 13:26:56.
