data_PCOD8036838
_publ_section_title
;
Structure prediction by ZEFSAII (Michael W. Deem and Ramdas Pophale) SiO2 
 PCOD8036838
Probable space group: P -1
;
_chemical_formula_sum "Si O2"
_cell_formula_units_Z 16
_cell_length_a 9.064382
_cell_length_b 14.344945
_cell_length_c 9.079314
_cell_angle_alpha 113.209747
_cell_angle_beta 132.755637
_cell_angle_gamma 93.614842
_cell_volume 694.536103
_symmetry_space_group_name_H-M "P -1"
_symmetry_group_IT_number 2
_symmetry_cell_setting 'triclinic'
loop_
_space_group_symop_operation_xyz
x,y,z
-x,-y,-z
loop_
_atom_site_type_symbol
_atom_site_label
_atom_site_fract_x
_atom_site_fract_y
_atom_site_fract_z
Si Si1 0.570906 0.131554 0.171957
Si Si2 0.502682 0.810853 0.509382
Si Si3 0.864814 0.881106 0.249499
Si Si4 0.322080 0.357671 0.522654
Si Si5 0.919719 0.704389 0.380747
Si Si6 0.838131 0.552791 0.975750
Si Si7 0.941907 0.281723 0.011710
Si Si8 0.126925 0.957119 0.171578
O O1 0.570742 0.157230 0.363799
O O2 0.824104 0.216408 0.332350
O O3 0.401493 0.161700 0.986823
O O4 0.500000 0.000000 0.000000
O O5 0.669938 0.755281 0.610448
O O6 0.622747 0.930079 0.570412
O O7 0.290121 0.718568 0.204247
O O8 0.864640 0.779482 0.277433
O O9 0.995110 0.908338 0.201957
O O10 0.000000 0.000000 0.500000
O O11 0.272278 0.341137 0.651465
O O12 0.108474 0.367017 0.307432
O O13 0.565940 0.468346 0.721912
O O14 0.900133 0.592350 0.212086
O O15 0.892281 0.667639 0.987726
O O16 0.000000 0.500000 0.000000
O O17 0.855613 0.153553 0.940248
O O18 0.000000 0.000000 0.000000
#
# Coordination Sequence:
#
# PCOD8036838 Si02
#       8
#     2   2   2   2   2   2   2   2
#     4  12  25  43  69 105 153 195 236 300 364 443
#     4  12  25  46  74 108 149 193 248 298 367 446
#     4  12  24  43  69 104 152 195 232 291 374 433
#     4  12  27  48  78 106 146 192 251 310 358 439
#     4  12  27  49  72 112 148 191 249 303 370 439
#     4  12  25  54  80 104 146 195 254 308 367 431
#     4  12  25  46  76 105 144 197 238 304 376 425
#     4  12  23  42  72 106 145 189 240 296 358 444
#
# _framework density 23.036957999999998
#
# number of rings (size 3 to 8) (size 9 to 14) (size 15 to 20)
#    0.000    0.000    7.500    1.875    1.750    2.000 
#    2.250    0.625    0.000    0.000    0.000    0.000 
#    0.000    0.000    0.000    0.000    0.000    0.000 
#
# Total GULP energy -198213.658558 kJ/mol
# GULP energy per Si atom -12388.353660 kJ/mol
# Density = 2.298453 g / cm^3
# Si number density = 23.036958 Si / 1000 Ang^3
#
#
#
# Elastic Constant Matrix: (Units=GPa)
#
#
# Indices 1 2 3 4 5 6 
#
# 1 96.8195 27.5057 39.3263 -0.6813 0.4654 9.5322
# 2 27.5057 76.4490 34.3488 -2.9182 10.7051 21.8787
# 3 39.3263 34.3488 155.4691 -5.3560 22.9156 0.5911
# 4 -0.6813 -2.9182 -5.3560 44.5576 1.0957 2.0834
# 5 0.4654 10.7051 22.9156 1.0957 47.1422 7.6148
# 6 9.5322 21.8787 0.5911 2.0834 7.6148 34.0036
#
#
#
# Elastic Compliance Matrix: (Units=1/GPa)
#
#
# Indices 1 2 3 4 5 6 
#
# 1 0.012517 -0.002971 -0.002847 -0.000306 0.002271 -0.002038
# 2 -0.002971 0.018982 -0.003214 0.001358 -0.000942 -0.011197
# 3 -0.002847 -0.003214 0.008454 0.000693 -0.003943 0.003560
# 4 -0.000306 0.001358 0.000693 0.022725 -0.000847 -0.002003
# 5 0.002271 -0.000942 -0.003943 -0.000847 0.024201 -0.005330
# 6 -0.002038 -0.011197 0.003560 -0.002003 -0.005330 0.038439
#
#
# Mechanical properties :
#
#
# Convention : Reuss Voigt Hill
#
# Bulk Modulus (GPa) = 45.68722 59.01101 52.34912
# Shear Modulus (GPa) = 33.18357 40.31112 36.74735
#
# Velocity S-wave (km/s) = 3.79944 4.18765 3.99826
# Velocity P-wave (km/s) = 6.25483 7.00381 6.63989
#
# Compressibility (1/GPa) = 0.02188796
#
# Stress axis : x y z
#
# Youngs Moduli (GPa) = 79.89445 52.68237 118.28749
#
# Poissons Ratio (x) = 0.15649 0.33681
# Poissons Ratio (y) = 0.23733 0.38020
# Poissons Ratio (z) = 0.22749 0.16933
#
# Static dielectric constant tensor:
#      x y z
#    x 4.335660 0.505440 0.453030 
#    y 0.505440 5.451170 0.939190 
#    z 0.453030 0.939190 5.010170 
# 
# 
# High freq. dielectric constant tensor:
#      x y z
#    x 1.898460 0.010080 0.013440 
#    y 0.010080 1.909830 0.005190 
#    z 0.013440 0.005190 1.933040 
# 
# From -- ./inp_files/208560.got.cif
#   From: 2010.06.25/outbox.cif.g09.slc.cpg/sg2_105_cif.got.tgz:208560.got - 2010.06.27 13:26:56.
