data_PCOD8036350
_publ_section_title
;
Structure prediction by ZEFSAII (Michael W. Deem and Ramdas Pophale) SiO2 
 PCOD8036350
Probable space group: P -1
;
_chemical_formula_sum "Si O2"
_cell_formula_units_Z 16
_cell_length_a 20.845789
_cell_length_b 18.756327
_cell_length_c 8.869054
_cell_angle_alpha 142.150030
_cell_angle_beta 142.200767
_cell_angle_gamma 18.103363
_cell_volume 646.727866
_symmetry_space_group_name_H-M "P -1"
_symmetry_group_IT_number 2
_symmetry_cell_setting 'triclinic'
loop_
_space_group_symop_operation_xyz
x,y,z
-x,-y,-z
loop_
_atom_site_type_symbol
_atom_site_label
_atom_site_fract_x
_atom_site_fract_y
_atom_site_fract_z
Si Si1 0.232908 0.055344 0.517021
Si Si2 0.269631 0.762851 0.044281
Si Si3 0.167650 0.284288 0.331777
Si Si4 0.404617 0.465564 0.295454
Si Si5 0.093585 0.851491 0.573621
Si Si6 0.469070 0.162740 0.537503
Si Si7 0.818690 0.365658 0.135507
Si Si8 0.797856 0.934794 0.197196
O O1 0.214312 0.125526 0.768500
O O2 0.016837 0.261654 0.360327
O O3 0.415074 0.956302 0.608613
O O4 0.295624 0.861081 0.335589
O O5 0.149868 0.891379 0.873885
O O6 0.147525 0.786974 0.964050
O O7 0.500000 0.500000 0.000000
O O8 0.259033 0.288466 0.386397
O O9 0.000000 0.500000 0.500000
O O10 0.360870 0.039555 0.364573
O O11 0.079462 0.264370 0.030138
O O12 0.500000 0.500000 0.500000
O O13 0.299229 0.577739 0.451739
O O14 0.568817 0.199885 0.154714
O O15 0.216431 0.624032 0.089646
O O16 0.930590 0.920194 0.458364
O O17 0.000000 0.000000 0.500000
O O18 0.398445 0.364623 0.761514
#
# Coordination Sequence:
#
# PCOD8036350 Si02
#       8
#     2   2   2   2   2   2   2   2
#     4  12  26  44  73 109 154 199 239 299 371 451
#     4  12  24  43  67 106 160 200 236 288 363 451
#     4  11  27  53  79 107 140 190 257 324 376 437
#     4  12  25  41  68 106 150 196 242 295 356 445
#     4  12  26  41  67 110 153 199 243 290 357 443
#     4  11  26  48  77 107 138 194 251 305 383 436
#     4  12  24  44  69 107 150 197 241 299 370 438
#     4  12  27  47  71 110 145 194 250 301 373 443
#
# _framework density 24.739926000000001
#
# number of rings (size 3 to 8) (size 9 to 14) (size 15 to 20)
#    0.000    0.250    5.000    4.125    5.250    0.500 
#    0.000    2.500    0.000    0.000    0.000    0.000 
#    0.000    0.000    0.000    0.000    0.000    0.000 
#
# Total GULP energy -198300.906887 kJ/mol
# GULP energy per Si atom -12393.806680 kJ/mol
# Density = 2.468362 g / cm^3
# Si number density = 24.739926 Si / 1000 Ang^3
#
#
#
# Elastic Constant Matrix: (Units=GPa)
#
#
# Indices 1 2 3 4 5 6 
#
# 1 147.9884 25.6816 33.5615 -4.5964 -11.1526 -14.0062
# 2 25.6816 97.6961 30.2154 4.4670 -5.8951 -3.3493
# 3 33.5615 30.2154 95.8164 4.2749 -24.1993 2.3975
# 4 -4.5964 4.4670 4.2749 37.1826 -3.1795 -3.7892
# 5 -11.1526 -5.8951 -24.1993 -3.1795 37.4800 2.6212
# 6 -14.0062 -3.3493 2.3975 -3.7892 2.6212 39.6613
#
#
#
# Elastic Compliance Matrix: (Units=1/GPa)
#
#
# Indices 1 2 3 4 5 6 
#
# 1 0.007894 -0.001287 -0.002370 0.001752 0.000558 0.002953
# 2 -0.001287 0.011654 -0.003417 -0.001174 -0.000904 0.000684
# 3 -0.002370 -0.003417 0.014541 -0.001121 0.008237 -0.002656
# 4 0.001752 -0.001174 -0.001121 0.027850 0.001757 0.003132
# 5 0.000558 -0.000904 0.008237 0.001757 0.032336 -0.002346
# 6 0.002953 0.000684 -0.002656 0.003132 -0.002346 0.026929
#
#
# Mechanical properties :
#
#
# Convention : Reuss Voigt Hill
#
# Bulk Modulus (GPa) = 50.15077 57.82421 53.98749
# Shear Modulus (GPa) = 35.21145 39.66760 37.43952
#
# Velocity S-wave (km/s) = 3.77671 4.00857 3.89437
# Velocity P-wave (km/s) = 6.27162 6.69690 6.48775
#
# Compressibility (1/GPa) = 0.01993987
#
# Stress axis : x y z
#
# Youngs Moduli (GPa) = 126.67624 85.81029 68.77083
#
# Poissons Ratio (x) = 0.11046 0.16300
# Poissons Ratio (y) = 0.16307 0.23499
# Poissons Ratio (z) = 0.30024 0.29322
#
# Static dielectric constant tensor:
#      x y z
#    x 3.313980 -1.034200 0.463970 
#    y -1.034200 4.309420 0.505760 
#    z 0.463970 0.505760 4.172270 
# 
# 
# High freq. dielectric constant tensor:
#      x y z
#    x 1.989000 -0.009090 -0.018200 
#    y -0.009090 1.999540 0.008920 
#    z -0.018200 0.008920 1.965850 
# 
# From -- ./inp_files/348964.got.cif
#   From: 2010.06.25/outbox.cif.g09.slc.cpg/sg2_175_cif.got.tgz:348964.got - 2010.06.27 13:26:56.
