data_PCOD8036385
_publ_section_title
;
Structure prediction by ZEFSAII (Michael W. Deem and Ramdas Pophale) SiO2 
 PCOD8036385
Probable space group: P -1
;
_chemical_formula_sum "Si O2"
_cell_formula_units_Z 14
_cell_length_a 8.611184
_cell_length_b 9.724081
_cell_length_c 8.858811
_cell_angle_alpha 104.229056
_cell_angle_beta 64.378151
_cell_angle_gamma 70.311054
_cell_volume 558.795142
_symmetry_space_group_name_H-M "P -1"
_symmetry_group_IT_number 2
_symmetry_cell_setting 'triclinic'
loop_
_space_group_symop_operation_xyz
x,y,z
-x,-y,-z
loop_
_atom_site_type_symbol
_atom_site_label
_atom_site_fract_x
_atom_site_fract_y
_atom_site_fract_z
Si Si1 0.871252 0.941287 0.444108
Si Si2 0.102608 0.309561 0.429857
Si Si3 0.485103 0.754966 0.845036
Si Si4 0.536895 0.817574 0.176346
Si Si5 0.161559 0.054840 0.892998
Si Si6 0.164598 0.711816 0.698155
Si Si7 0.466449 0.439109 0.691595
O O1 0.948259 0.750627 0.408054
O O2 0.894722 0.954628 0.260030
O O3 0.639627 0.041092 0.614456
O O4 0.000000 0.000000 0.500000
O O5 0.337373 0.229881 0.297767
O O6 0.000000 0.500000 0.500000
O O7 0.026885 0.247568 0.307115
O O8 0.521462 0.570400 0.772977
O O9 0.299924 0.870314 0.847965
O O10 0.454048 0.821604 0.045668
O O11 0.729993 0.838523 0.104579
O O12 0.601489 0.639326 0.171009
O O13 0.945044 0.142235 0.092035
O O14 0.277948 0.531776 0.681822
O O15 0.338083 0.708296 0.516789
#
# Coordination Sequence:
#
# PCOD8036385 Si02
#       7
#     2   2   2   2   2   2   2
#     4  12  30  47  74 115 154 194 255 318 375 440
#     4  12  25  47  78 107 155 198 249 307 380 448
#     4  12  26  49  79 111 149 203 249 307 375 450
#     4  12  26  50  76 111 153 198 252 312 370 446
#     4  12  28  50  81 105 154 204 254 302 379 456
#     4  11  26  49  75 111 149 201 247 307 381 446
#     4  11  28  46  80 111 158 191 251 314 378 437
#
# _framework density 25.053905
#
# number of rings (size 3 to 8) (size 9 to 14) (size 15 to 20)
#    0.000    0.286    4.286    3.000   10.000    2.286 
#    0.000    0.000    0.000    0.000    0.000    0.000 
#    0.000    0.000    0.000    0.000    0.000    0.000 
#
# Total GULP energy -173578.160512 kJ/mol
# GULP energy per Si atom -12398.440037 kJ/mol
# Density = 2.499688 g / cm^3
# Si number density = 25.053905 Si / 1000 Ang^3
#
#
#
# Elastic Constant Matrix: (Units=GPa)
#
#
# Indices 1 2 3 4 5 6 
#
# 1 161.2732 56.5532 58.8032 -12.3425 -2.9928 -11.3448
# 2 56.5532 149.5050 59.1226 -15.7736 -1.7110 8.4302
# 3 58.8032 59.1226 163.2383 -4.0938 4.3999 -6.1850
# 4 -12.3425 -15.7736 -4.0938 41.4198 -9.6131 4.4896
# 5 -2.9928 -1.7110 4.3999 -9.6131 48.9887 -2.9223
# 6 -11.3448 8.4302 -6.1850 4.4896 -2.9223 34.0922
#
#
#
# Elastic Compliance Matrix: (Units=1/GPa)
#
#
# Indices 1 2 3 4 5 6 
#
# 1 0.008023 -0.002275 -0.001956 0.001260 0.001000 0.002797
# 2 -0.002275 0.009123 -0.002572 0.003142 0.000799 -0.003825
# 3 -0.001956 -0.002572 0.007816 -0.001195 -0.001058 0.001470
# 4 0.001260 0.003142 -0.001195 0.027256 0.005422 -0.003699
# 5 0.001000 0.000799 -0.001058 0.005422 0.021726 0.001092
# 6 0.002797 -0.003825 0.001470 -0.003699 0.001092 0.032056
#
#
# Mechanical properties :
#
#
# Convention : Reuss Voigt Hill
#
# Bulk Modulus (GPa) = 88.05355 91.44160 89.74758
# Shear Modulus (GPa) = 40.52112 44.86932 42.69522
#
# Velocity S-wave (km/s) = 4.02600 4.23651 4.13259
# Velocity P-wave (km/s) = 7.53880 7.77868 7.65968
#
# Compressibility (1/GPa) = 0.01135673
#
# Stress axis : x y z
#
# Youngs Moduli (GPa) = 124.63780 109.61493 127.93598
#
# Poissons Ratio (x) = 0.24936 0.25020
# Poissons Ratio (y) = 0.28354 0.32909
# Poissons Ratio (z) = 0.24375 0.28197
#
# Static dielectric constant tensor:
#      x y z
#    x 4.303340 0.011780 0.164340 
#    y 0.011780 4.817750 -0.153530 
#    z 0.164340 -0.153530 4.496070 
# 
# 
# High freq. dielectric constant tensor:
#      x y z
#    x 2.030490 0.003380 -0.000800 
#    y 0.003380 2.017310 -0.005780 
#    z -0.000800 -0.005780 1.992870 
# 
# From -- ./inp_files/189133.got.cif
#   From: 2010.06.25/outbox.cif.g09.slc.cpg/sg2_95_cif.got.tgz:189133.got - 2010.06.27 13:26:56.
