data_PCOD8036043
_publ_section_title
;
Structure prediction by ZEFSAII (Michael W. Deem and Ramdas Pophale) SiO2 
 PCOD8036043
Probable space group: P -1
;
_chemical_formula_sum "Si O2"
_cell_formula_units_Z 10
_cell_length_a 8.856679
_cell_length_b 11.894473
_cell_length_c 5.702467
_cell_angle_alpha 93.529430
_cell_angle_beta 97.577694
_cell_angle_gamma 43.459454
_cell_volume 409.083487
_symmetry_space_group_name_H-M "P -1"
_symmetry_group_IT_number 2
_symmetry_cell_setting 'triclinic'
loop_
_space_group_symop_operation_xyz
x,y,z
-x,-y,-z
loop_
_atom_site_type_symbol
_atom_site_label
_atom_site_fract_x
_atom_site_fract_y
_atom_site_fract_z
Si Si1 0.765017 0.599880 0.703081
Si Si2 0.027818 0.104793 0.134027
Si Si3 0.867198 0.731803 0.087384
Si Si4 0.498014 0.116307 0.649470
Si Si5 0.560235 0.407369 0.247732
O O1 0.657996 0.699729 0.453629
O O2 0.568228 0.642536 0.808855
O O3 0.964423 0.401852 0.689661
O O4 0.880871 0.645093 0.852726
O O5 0.823641 0.244068 0.280871
O O6 0.252396 0.974252 0.310859
O O7 0.058913 0.182124 0.949561
O O8 0.000000 0.000000 0.000000
O O9 0.610002 0.860804 0.122935
O O10 0.500000 0.000000 0.500000
O O11 0.500000 0.500000 0.500000
O O12 0.500000 0.500000 0.000000
#
# Coordination Sequence:
#
# PCOD8036043 Si02
#       5
#     2   2   2   2   2
#     4  11  26  47  80 104 155 205 266 317 400 482
#     4  12  28  50  79 116 164 205 266 340 409 469
#     4  11  25  50  75 110 153 205 266 320 403 486
#     4  12  27  44  75 114 150 200 261 332 398 473
#     4  12  30  53  80 117 164 215 271 331 408 492
#
# _framework density 24.444887999999999
#
# number of rings (size 3 to 8) (size 9 to 14) (size 15 to 20)
#    0.000    0.400    4.000    2.400   11.200    0.800 
#    0.000    0.000    0.000    0.000    0.000    0.000 
#    0.000    0.000    0.000    0.000    0.000    0.000 
#
# Total GULP energy -123884.933390 kJ/mol
# GULP energy per Si atom -12388.493339 kJ/mol
# Density = 2.438925 g / cm^3
# Si number density = 24.444888 Si / 1000 Ang^3
#
#
#
# Elastic Constant Matrix: (Units=GPa)
#
#
# Indices 1 2 3 4 5 6 
#
# 1 193.5450 75.0244 46.1368 3.8999 5.3175 -4.0301
# 2 75.0244 140.8803 66.8849 -19.0914 -2.3818 -13.8361
# 3 46.1368 66.8849 103.3352 -2.9394 0.4539 0.4223
# 4 3.8999 -19.0914 -2.9394 44.2446 -5.5709 -3.6550
# 5 5.3175 -2.3818 0.4539 -5.5709 43.9729 1.6692
# 6 -4.0301 -13.8361 0.4223 -3.6550 1.6692 64.3258
#
#
#
# Elastic Compliance Matrix: (Units=1/GPa)
#
#
# Indices 1 2 3 4 5 6 
#
# 1 0.006852 -0.003707 -0.000722 -0.002456 -0.001315 -0.000469
# 2 -0.003707 0.013546 -0.006957 0.006202 0.001925 0.003030
# 3 -0.000722 -0.006957 0.014450 -0.002205 -0.000652 -0.001745
# 4 -0.002456 0.006202 -0.002205 0.026046 0.003858 0.002575
# 5 -0.001315 0.001925 -0.000652 0.003858 0.023502 -0.000055
# 6 -0.000469 0.003030 -0.001745 0.002575 -0.000055 0.016327
#
#
# Mechanical properties :
#
#
# Convention : Reuss Voigt Hill
#
# Bulk Modulus (GPa) = 82.81241 90.42808 86.62024
# Shear Modulus (GPa) = 39.20945 47.15629 43.18287
#
# Velocity S-wave (km/s) = 4.00933 4.39690 4.20758
# Velocity P-wave (km/s) = 7.44203 7.92779 7.68875
#
# Compressibility (1/GPa) = 0.01207549
#
# Stress axis : x y z
#
# Youngs Moduli (GPa) = 145.94896 73.82262 69.20527
#
# Poissons Ratio (x) = 0.27368 0.04995
# Poissons Ratio (y) = 0.54107 0.48146
# Poissons Ratio (z) = 0.10534 0.51358
#
# Static dielectric constant tensor:
#      x y z
#    x 4.299170 -0.644470 -1.909210 
#    y -0.644470 4.445260 -1.781620 
#    z -1.909210 -1.781620 -2.049390 
# 
# 
# High freq. dielectric constant tensor:
#      x y z
#    x 1.999740 -0.005960 -0.002530 
#    y -0.005960 1.992270 -0.012580 
#    z -0.002530 -0.012580 1.946370 
# 
# From -- ./inp_files/16160.got.cif
#   From: 2010.06.25/outbox.cif.g09.slc.cpg/sg2_9_cif.got.tgz:16160.got - 2010.06.27 13:26:56.
