data_PCOD8036871
_publ_section_title
;
Structure prediction by ZEFSAII (Michael W. Deem and Ramdas Pophale) SiO2 
 PCOD8036871
Probable space group: P -1
;
_chemical_formula_sum "Si O2"
_cell_formula_units_Z 14
_cell_length_a 8.328227
_cell_length_b 18.530015
_cell_length_c 9.891744
_cell_angle_alpha 56.659889
_cell_angle_beta 149.749447
_cell_angle_gamma 113.599813
_cell_volume 632.342233
_symmetry_space_group_name_H-M "P -1"
_symmetry_group_IT_number 2
_symmetry_cell_setting 'triclinic'
loop_
_space_group_symop_operation_xyz
x,y,z
-x,-y,-z
loop_
_atom_site_type_symbol
_atom_site_label
_atom_site_fract_x
_atom_site_fract_y
_atom_site_fract_z
Si Si1 0.352091 0.945993 0.338464
Si Si2 0.285068 0.052521 0.678401
Si Si3 0.502877 0.250592 0.252911
Si Si4 0.592632 0.315005 0.957094
Si Si5 0.287257 0.243566 0.547608
Si Si6 0.247164 0.686018 0.374214
Si Si7 0.617997 0.502141 0.732541
O O1 0.543177 0.937863 0.346931
O O2 0.372480 0.850200 0.515280
O O3 0.500000 0.000000 0.500000
O O4 0.000000 0.000000 0.000000
O O5 0.186409 0.148004 0.575975
O O6 0.000000 0.000000 0.500000
O O7 0.500000 0.000000 0.000000
O O8 0.576633 0.263052 0.137545
O O9 0.714900 0.303293 0.448096
O O10 0.125574 0.288696 0.967079
O O11 0.967324 0.305143 0.194087
O O12 0.380110 0.276122 0.729618
O O13 0.500292 0.419616 0.806120
O O14 0.576054 0.245848 0.649733
O O15 0.415706 0.587493 0.567050
O O16 0.500000 0.500000 0.500000
O O17 0.000000 0.500000 0.000000
#
# Coordination Sequence:
#
# PCOD8036871 Si02
#       7
#     2   2   2   2   2   2   2
#     4  12  28  48  70 100 143 185 229 295 361 418
#     4  12  28  46  71 106 136 179 240 293 347 419
#     4  12  28  46  70 104 144 188 236 287 366 420
#     4  12  26  45  73 108 141 188 238 292 346 424
#     4  12  25  46  74 100 142 190 235 288 353 419
#     4  12  24  46  74 100 144 193 230 291 352 424
#     4  12  23  43  72 110 143 182 242 291 348 408
#
# _framework density 22.139911000000001
#
# number of rings (size 3 to 8) (size 9 to 14) (size 15 to 20)
#    0.000    0.000    4.286    5.143    8.000    1.143 
#    0.000    0.000    0.000    0.000    0.000    0.000 
#    0.000    0.000    0.000    0.000    0.000    0.000 
#
# Total GULP energy -173552.610717 kJ/mol
# GULP energy per Si atom -12396.615051 kJ/mol
# Density = 2.208952 g / cm^3
# Si number density = 22.139911 Si / 1000 Ang^3
#
#
#
# Elastic Constant Matrix: (Units=GPa)
#
#
# Indices 1 2 3 4 5 6 
#
# 1 69.6455 38.7540 19.4584 -9.1237 -6.2300 6.8087
# 2 38.7540 185.2335 74.4634 -2.8195 -8.2207 -8.4181
# 3 19.4584 74.4634 147.1628 0.1771 9.1516 -1.9487
# 4 -9.1237 -2.8195 0.1771 48.3272 -4.6749 -6.2031
# 5 -6.2300 -8.2207 9.1516 -4.6749 44.6181 -2.2887
# 6 6.8087 -8.4181 -1.9487 -6.2031 -2.2887 37.3970
#
#
#
# Elastic Compliance Matrix: (Units=1/GPa)
#
#
# Indices 1 2 3 4 5 6 
#
# 1 0.017314 -0.003322 -0.000786 0.002852 0.002094 -0.003340
# 2 -0.003322 0.007711 -0.003546 0.000311 0.001836 0.002320
# 3 -0.000786 -0.003546 0.008855 -0.000708 -0.002678 -0.000475
# 4 0.002852 0.000311 -0.000708 0.021979 0.003075 0.003348
# 5 0.002094 0.001836 -0.002678 0.003075 0.024011 0.001872
# 6 -0.003340 0.002320 -0.000475 0.003348 0.001872 0.028515
#
#
# Mechanical properties :
#
#
# Convention : Reuss Voigt Hill
#
# Bulk Modulus (GPa) = 53.84843 74.15482 64.00163
# Shear Modulus (GPa) = 38.49629 44.02620 41.26124
#
# Velocity S-wave (km/s) = 4.17438 4.46415 4.32170
# Velocity P-wave (km/s) = 6.89990 7.75487 7.33984
#
# Compressibility (1/GPa) = 0.01857064
#
# Stress axis : x y z
#
# Youngs Moduli (GPa) = 57.75706 129.68957 112.93528
#
# Poissons Ratio (x) = 0.43078 0.08882
# Poissons Ratio (y) = 0.19185 0.40049
# Poissons Ratio (z) = 0.04543 0.45990
#
# Static dielectric constant tensor:
#      x y z
#    x 3.922080 0.003600 -0.020930 
#    y 0.003600 4.191950 -0.001220 
#    z -0.020930 -0.001220 4.321540 
# 
# 
# High freq. dielectric constant tensor:
#      x y z
#    x 1.868050 -0.005540 -0.003490 
#    y -0.005540 1.893720 0.002380 
#    z -0.003490 0.002380 1.898440 
# 
# From -- ./inp_files/217199.got.cif
#   From: 2010.06.25/outbox.cif.g09.slc.cpg/sg2_109_cif.got.tgz:217199.got - 2010.06.27 13:26:56.
