data_PCOD8036567
_publ_section_title
;
Structure prediction by ZEFSAII (Michael W. Deem and Ramdas Pophale) SiO2 
 PCOD8036567
Probable space group: P -1
;
_chemical_formula_sum "Si O2"
_cell_formula_units_Z 16
_cell_length_a 15.599995
_cell_length_b 15.675162
_cell_length_c 9.602166
_cell_angle_alpha 121.816307
_cell_angle_beta 37.851834
_cell_angle_gamma 141.986455
_cell_volume 858.883643
_symmetry_space_group_name_H-M "P -1"
_symmetry_group_IT_number 2
_symmetry_cell_setting 'triclinic'
loop_
_space_group_symop_operation_xyz
x,y,z
-x,-y,-z
loop_
_atom_site_type_symbol
_atom_site_label
_atom_site_fract_x
_atom_site_fract_y
_atom_site_fract_z
Si Si1 0.198021 0.646652 0.588434
Si Si2 0.827277 0.959108 0.777938
Si Si3 0.112205 0.672818 0.291858
Si Si4 0.664568 0.076859 0.969059
Si Si5 0.925448 0.658365 0.797990
Si Si6 0.933253 0.061981 0.052889
Si Si7 0.391677 0.667981 0.085450
Si Si8 0.483841 0.069903 0.457588
O O1 0.335920 0.683828 0.318004
O O2 0.347789 0.757748 0.611385
O O3 0.064639 0.487586 0.674882
O O4 0.063468 0.672103 0.742147
O O5 0.632768 0.786324 0.875212
O O6 0.000000 0.000000 0.500000
O O7 0.770095 0.027345 0.823382
O O8 0.905486 0.024437 0.890879
O O9 0.299904 0.699173 0.117960
O O10 0.028074 0.699112 0.548817
O O11 0.161192 0.760212 0.165651
O O12 0.522943 0.027987 0.235807
O O13 0.500000 0.000000 0.000000
O O14 0.705824 0.493616 0.943022
O O15 0.912941 0.767320 0.962797
O O16 0.728449 0.987938 0.322930
O O17 0.000000 0.000000 0.000000
O O18 0.500000 0.000000 0.500000
#
# Coordination Sequence:
#
# PCOD8036567 Si02
#       8
#     2   2   2   2   2   2   2   2
#     4   9  16  34  62  93 120 156 202 259 306 361
#     4  12  26  42  60  91 132 164 204 258 313 363
#     4   9  19  32  61  99 124 150 201 257 316 361
#     4  12  23  37  63  93 124 159 205 257 312 361
#     4   9  18  36  65  88 123 160 207 252 304 368
#     4  12  26  41  61  92 123 166 215 253 302 367
#     4   9  17  38  62  91 121 164 200 250 310 370
#     4  12  21  39  65  88 121 163 212 258 302 362
#
# _framework density 18.628831999999999
#
# number of rings (size 3 to 8) (size 9 to 14) (size 15 to 20)
#    0.000    1.500    5.000    2.250    3.500    0.500 
#    0.000    2.500    0.000    0.000    0.000    0.000 
#    0.000    0.000    0.000    0.000    0.000    0.000 
#
# Total GULP energy -198216.791434 kJ/mol
# GULP energy per Si atom -12388.549465 kJ/mol
# Density = 1.858643 g / cm^3
# Si number density = 18.628832 Si / 1000 Ang^3
#
#
#
# Elastic Constant Matrix: (Units=GPa)
#
#
# Indices 1 2 3 4 5 6 
#
# 1 101.0891 53.7214 49.7177 1.3518 -1.8070 -12.4379
# 2 53.7214 138.2419 57.6836 -2.7195 -4.3361 -0.4373
# 3 49.7177 57.6836 119.9887 -4.5818 -5.4191 -7.4443
# 4 1.3518 -2.7195 -4.5818 31.6753 -0.4436 1.1584
# 5 -1.8070 -4.3361 -5.4191 -0.4436 28.9249 -2.0843
# 6 -12.4379 -0.4373 -7.4443 1.1584 -2.0843 29.6370
#
#
#
# Elastic Compliance Matrix: (Units=1/GPa)
#
#
# Indices 1 2 3 4 5 6 
#
# 1 0.014614 -0.004100 -0.003833 -0.001720 -0.000073 0.005172
# 2 -0.004100 0.010234 -0.003322 0.000668 0.000493 -0.002395
# 3 -0.003833 -0.003322 0.011733 0.001549 0.001581 0.001340
# 4 -0.001720 0.000668 0.001549 0.031990 0.000663 -0.001527
# 5 -0.000073 0.000493 0.001581 0.000663 0.035151 0.002820
# 6 0.005172 -0.002395 0.001340 -0.001527 0.002820 0.036471
#
#
# Mechanical properties :
#
#
# Convention : Reuss Voigt Hill
#
# Bulk Modulus (GPa) = 71.06152 75.72946 73.39549
# Shear Modulus (GPa) = 29.86982 31.26058 30.56520
#
# Velocity S-wave (km/s) = 4.00862 4.10088 4.05501
# Velocity P-wave (km/s) = 7.72361 7.94751 7.83636
#
# Compressibility (1/GPa) = 0.01407231
#
# Stress axis : x y z
#
# Youngs Moduli (GPa) = 68.42806 97.71311 85.23020
#
# Poissons Ratio (x) = 0.40058 0.32665
# Poissons Ratio (y) = 0.28053 0.28314
# Poissons Ratio (z) = 0.26226 0.32461
#
# Static dielectric constant tensor:
#      x y z
#    x 2.232910 0.741690 -0.513280 
#    y 0.741690 3.612750 0.159060 
#    z -0.513280 0.159060 2.936460 
# 
# 
# High freq. dielectric constant tensor:
#      x y z
#    x 1.706600 0.006820 0.007180 
#    y 0.006820 1.743780 -0.009270 
#    z 0.007180 -0.009270 1.707860 
# 
# From -- ./inp_files/256502.got.cif
#   From: 2010.06.25/outbox.cif.g09.slc.cpg/sg2_129_cif.got.tgz:256502.got - 2010.06.27 13:26:56.
