data_PCOD8036904
_publ_section_title
;
Structure prediction by ZEFSAII (Michael W. Deem and Ramdas Pophale) SiO2 
 PCOD8036904
Probable space group: P -1
;
_chemical_formula_sum "Si O2"
_cell_formula_units_Z 16
_cell_length_a 15.243610
_cell_length_b 12.716118
_cell_length_c 18.735098
_cell_angle_alpha 28.924623
_cell_angle_beta 28.068095
_cell_angle_gamma 47.660447
_cell_volume 744.509155
_symmetry_space_group_name_H-M "P -1"
_symmetry_group_IT_number 2
_symmetry_cell_setting 'triclinic'
loop_
_space_group_symop_operation_xyz
x,y,z
-x,-y,-z
loop_
_atom_site_type_symbol
_atom_site_label
_atom_site_fract_x
_atom_site_fract_y
_atom_site_fract_z
Si Si1 0.012205 0.621386 0.844871
Si Si2 0.870878 0.972388 0.681330
Si Si3 0.745661 0.156265 0.232623
Si Si4 0.560638 0.306556 0.907506
Si Si5 0.849461 0.121345 0.021996
Si Si6 0.264170 0.209934 0.435873
Si Si7 0.552198 0.010018 0.685190
Si Si8 0.053615 0.628566 0.503474
O O1 0.256512 0.736742 0.579240
O O2 0.953696 0.847115 0.756803
O O3 0.000000 0.500000 0.000000
O O4 0.843101 0.430192 0.027984
O O5 0.892737 0.224837 0.547590
O O6 0.632735 0.808474 0.936993
O O7 0.000000 0.000000 0.500000
O O8 0.500000 0.000000 0.500000
O O9 0.837324 0.012380 0.303208
O O10 0.819971 0.204636 0.070755
O O11 0.569639 0.561908 0.775079
O O12 0.751667 0.324545 0.712793
O O13 0.541219 0.141608 0.087301
O O14 0.947423 0.347181 0.764926
O O15 0.627562 0.939749 0.254808
O O16 0.000000 0.000000 0.000000
O O17 0.095718 0.296850 0.479840
O O18 0.374219 0.141999 0.331886
#
# Coordination Sequence:
#
# PCOD8036904 Si02
#       8
#     2   2   2   2   2   2   2   2
#     4  12  23  44  71 107 142 181 235 298 353 416
#     4  12  24  44  72 103 139 185 241 292 350 426
#     4  12  24  44  74 106 143 185 238 294 359 426
#     4  12  26  42  72 105 144 185 240 293 361 416
#     4  12  28  47  69 105 147 186 239 297 370 427
#     4  12  23  45  74 106 132 190 244 293 347 426
#     4  12  25  45  72 105 141 186 246 294 357 425
#     4  12  26  46  70 104 146 187 236 298 358 429
#
# _framework density 21.490669
#
# number of rings (size 3 to 8) (size 9 to 14) (size 15 to 20)
#    0.000    0.000    6.250    3.375    3.500    1.000 
#    0.000    1.875    0.000    0.000    0.000    0.000 
#    0.000    0.000    0.000    0.000    0.000    0.000 
#
# Total GULP energy -198344.773548 kJ/mol
# GULP energy per Si atom -12396.548347 kJ/mol
# Density = 2.144176 g / cm^3
# Si number density = 21.490669 Si / 1000 Ang^3
#
#
#
# Elastic Constant Matrix: (Units=GPa)
#
#
# Indices 1 2 3 4 5 6 
#
# 1 109.8644 37.1762 47.9871 9.5737 -3.4383 -16.3030
# 2 37.1762 75.7854 55.9411 7.5615 -10.8103 -8.0180
# 3 47.9871 55.9411 134.0950 7.7749 -11.1521 -2.2171
# 4 9.5737 7.5615 7.7749 39.9666 5.7568 -1.9788
# 5 -3.4383 -10.8103 -11.1521 5.7568 59.4022 -0.7003
# 6 -16.3030 -8.0180 -2.2171 -1.9788 -0.7003 47.3667
#
#
#
# Elastic Compliance Matrix: (Units=1/GPa)
#
#
# Indices 1 2 3 4 5 6 
#
# 1 0.012098 -0.003405 -0.002787 -0.001507 -0.000257 0.003390
# 2 -0.003405 0.020906 -0.007147 -0.002009 0.002484 0.001985
# 3 -0.002787 -0.007147 0.011492 -0.000400 0.000715 -0.001637
# 4 -0.001507 -0.002009 -0.000400 0.026291 -0.003074 0.000176
# 5 -0.000257 0.002484 0.000715 -0.003074 0.017710 0.000499
# 6 0.003390 0.001985 -0.001637 0.000176 0.000499 0.022553
#
#
# Mechanical properties :
#
#
# Convention : Reuss Voigt Hill
#
# Bulk Modulus (GPa) = 56.12351 66.88372 61.50362
# Shear Modulus (GPa) = 34.80293 41.25646 38.02969
#
# Velocity S-wave (km/s) = 4.02860 4.38624 4.21121
# Velocity P-wave (km/s) = 6.91458 7.53935 7.23372
#
# Compressibility (1/GPa) = 0.01781785
#
# Stress axis : x y z
#
# Youngs Moduli (GPa) = 82.65860 47.83361 87.01874
#
# Poissons Ratio (x) = 0.16288 0.24250
# Poissons Ratio (y) = 0.28146 0.62192
# Poissons Ratio (z) = 0.23035 0.34187
#
# Static dielectric constant tensor:
#      x y z
#    x 4.384800 0.029610 -0.217050 
#    y 0.029610 3.891050 -0.221980 
#    z -0.217050 -0.221980 4.256150 
# 
# 
# High freq. dielectric constant tensor:
#      x y z
#    x 1.873380 -0.000240 -0.004250 
#    y -0.000240 1.823960 -0.002620 
#    z -0.004250 -0.002620 1.857790 
# 
# From -- ./inp_files/206317.got.cif
#   From: 2010.06.25/outbox.cif.g09.slc.cpg/sg2_104_cif.got.tgz:206317.got - 2010.06.27 13:26:56.
