data_PCOD8036783
_publ_section_title
;
Structure prediction by ZEFSAII (Michael W. Deem and Ramdas Pophale) SiO2 
 PCOD8036783
Probable space group: P -1
;
_chemical_formula_sum "Si O2"
_cell_formula_units_Z 16
_cell_length_a 27.636722
_cell_length_b 27.145916
_cell_length_c 9.417677
_cell_angle_alpha 36.035557
_cell_angle_beta 37.411715
_cell_angle_gamma 10.815250
_cell_volume 779.930722
_symmetry_space_group_name_H-M "P -1"
_symmetry_group_IT_number 2
_symmetry_cell_setting 'triclinic'
loop_
_space_group_symop_operation_xyz
x,y,z
-x,-y,-z
loop_
_atom_site_type_symbol
_atom_site_label
_atom_site_fract_x
_atom_site_fract_y
_atom_site_fract_z
Si Si1 0.999979 0.400084 0.751211
Si Si2 0.999998 0.991658 0.691779
Si Si3 0.500003 0.548972 0.732350
Si Si4 0.499980 0.877538 0.974227
Si Si5 0.499974 0.955411 0.249591
Si Si6 0.500011 0.290680 0.471505
Si Si7 0.999984 0.186905 0.768520
Si Si8 0.000044 0.646646 0.452460
O O1 0.753350 0.611445 0.912815
O O2 0.999959 0.350863 0.720785
O O3 0.000000 0.500000 0.500000
O O4 0.246590 0.118202 0.912833
O O5 0.251017 0.779290 0.678832
O O6 0.748997 0.281316 0.678824
O O7 0.000000 0.000000 0.500000
O O8 0.999982 0.893641 0.946235
O O9 0.499985 0.648588 0.533022
O O10 0.500000 0.500000 0.000000
O O11 0.499991 0.974129 0.795138
O O12 0.499997 0.807952 0.259488
O O13 0.249842 0.149570 0.384100
O O14 0.750070 0.649330 0.384123
O O15 0.500000 0.000000 0.000000
O O16 0.249558 0.561493 0.333702
O O17 0.750467 0.060570 0.333727
O O18 0.999946 0.260306 0.710234
#
# Coordination Sequence:
#
# PCOD8036783 Si02
#       8
#     2   2   2   2   2   2   2   2
#     4  12  23  44  65  89 130 180 219 268 331 404
#     4  12  26  45  75 107 147 183 230 289 353 427
#     4  12  23  47  76 103 137 197 232 277 358 425
#     4  12  24  41  65  95 127 168 226 277 321 395
#     4  12  23  40  61  90 125 168 214 266 325 395
#     4  12  26  43  72 101 134 172 235 287 329 402
#     4  12  24  45  65 101 138 174 223 289 341 400
#     4  12  25  39  65  90 128 177 212 264 344 393
#
# _framework density 20.514641999999998
#
# number of rings (size 3 to 8) (size 9 to 14) (size 15 to 20)
#    0.000    0.000    5.000    6.000    0.000    2.000 
#    0.000    0.000    0.000    0.000    0.000    0.000 
#    0.000    0.000    0.000    0.000    0.000    0.000 
#
# Total GULP energy -198408.970244 kJ/mol
# GULP energy per Si atom -12400.560640 kJ/mol
# Density = 2.046795 g / cm^3
# Si number density = 20.514642 Si / 1000 Ang^3
#
#
#
# Elastic Constant Matrix: (Units=GPa)
#
#
# Indices 1 2 3 4 5 6 
#
# 1 168.2608 69.9045 48.2333 0.4453 -6.2593 4.0211
# 2 69.9045 201.6344 59.8154 5.2853 8.8017 -8.7532
# 3 48.2333 59.8154 121.9961 0.4054 -0.9748 -1.5629
# 4 0.4453 5.2853 0.4054 36.2229 2.3440 -1.0708
# 5 -6.2593 8.8017 -0.9748 2.3440 48.6465 -2.8076
# 6 4.0211 -8.7532 -1.5629 -1.0708 -2.8076 37.9002
#
#
#
# Elastic Compliance Matrix: (Units=1/GPa)
#
#
# Indices 1 2 3 4 5 6 
#
# 1 0.007450 -0.002128 -0.001909 0.000124 0.001226 -0.001266
# 2 -0.002128 0.006542 -0.002355 -0.000768 -0.001380 0.001516
# 3 -0.001909 -0.002355 0.010110 0.000233 0.000378 0.000110
# 4 0.000124 -0.000768 0.000233 0.027805 -0.001150 0.000519
# 5 0.001226 -0.001380 0.000378 -0.001150 0.021090 0.001097
# 6 -0.001266 0.001516 0.000110 0.000519 0.001097 0.026970
#
#
# Mechanical properties :
#
#
# Convention : Reuss Voigt Hill
#
# Bulk Modulus (GPa) = 88.35816 94.19975 91.27896
# Shear Modulus (GPa) = 42.90935 45.48313 44.19624
#
# Velocity S-wave (km/s) = 4.57841 4.71372 4.64656
# Velocity P-wave (km/s) = 8.43288 8.69733 8.56613
#
# Compressibility (1/GPa) = 0.01131757
#
# Stress axis : x y z
#
# Youngs Moduli (GPa) = 134.22582 152.85312 98.91071
#
# Poissons Ratio (x) = 0.32533 0.18880
# Poissons Ratio (y) = 0.28568 0.23296
# Poissons Ratio (z) = 0.25621 0.36001
#
# Static dielectric constant tensor:
#      x y z
#    x 3.974730 -0.013780 0.027380 
#    y -0.013780 4.062400 0.023210 
#    z 0.027380 0.023210 3.726600 
# 
# 
# High freq. dielectric constant tensor:
#      x y z
#    x 1.819690 -0.001430 -0.001450 
#    y -0.001430 1.830650 0.001400 
#    z -0.001450 0.001400 1.803230 
# 
# From -- ./inp_files/50911.got.cif
#   From: 2010.06.25/outbox.cif.g09.slc.cpg/sg2_26_cif.got.tgz:50911.got - 2010.06.27 13:26:56.
