data_PCOD8036797
_publ_section_title
;
Structure prediction by ZEFSAII (Michael W. Deem and Ramdas Pophale) SiO2 
 PCOD8036797
Probable space group: P -1
;
_chemical_formula_sum "Si O2"
_cell_formula_units_Z 16
_cell_length_a 9.092354
_cell_length_b 14.055464
_cell_length_c 11.168571
_cell_angle_alpha 149.721141
_cell_angle_beta 65.154792
_cell_angle_gamma 113.919452
_cell_volume 650.219258
_symmetry_space_group_name_H-M "P -1"
_symmetry_group_IT_number 2
_symmetry_cell_setting 'triclinic'
loop_
_space_group_symop_operation_xyz
x,y,z
-x,-y,-z
loop_
_atom_site_type_symbol
_atom_site_label
_atom_site_fract_x
_atom_site_fract_y
_atom_site_fract_z
Si Si1 0.994044 0.548875 0.415076
Si Si2 0.853359 0.814195 0.112686
Si Si3 0.533481 0.721757 0.237648
Si Si4 0.163545 0.942312 0.820639
Si Si5 0.494280 0.108126 0.315884
Si Si6 0.269593 0.381923 0.601344
Si Si7 0.014789 0.850826 0.434453
Si Si8 0.662600 0.239437 0.880681
O O1 0.814196 0.582466 0.460412
O O2 0.000000 0.500000 0.500000
O O3 0.116557 0.735691 0.550156
O O4 0.048781 0.370090 0.129048
O O5 0.727153 0.781555 0.229677
O O6 0.771013 0.873457 0.081338
O O7 0.965059 0.012671 0.307978
O O8 0.465465 0.786134 0.456327
O O9 0.459063 0.812972 0.245080
O O10 0.500000 0.500000 0.000000
O O11 0.324019 0.926831 0.833434
O O12 0.000000 0.000000 0.000000
O O13 0.408319 0.234371 0.384321
O O14 0.369597 0.924276 0.186196
O O15 0.136334 0.301505 0.656588
O O16 0.361350 0.569184 0.831628
O O17 0.162948 0.736525 0.217311
O O18 0.000000 0.000000 0.500000
#
# Coordination Sequence:
#
# PCOD8036797 Si02
#       8
#     2   2   2   2   2   2   2   2
#     4  12  28  49  78 102 139 200 265 315 366 435
#     4  12  24  45  75 106 147 197 251 298 366 451
#     4  12  23  41  71 112 154 195 234 296 371 461
#     4  12  26  51  80 102 138 196 263 312 364 441
#     4  12  25  47  73 111 153 192 242 306 376 449
#     4  12  27  44  71 109 154 194 245 311 375 437
#     4  12  23  41  67 107 155 195 231 289 374 459
#     4  12  24  41  68 111 160 192 237 290 373 457
#
# _framework density 24.607082999999999
#
# number of rings (size 3 to 8) (size 9 to 14) (size 15 to 20)
#    0.000    0.000    7.500    3.000    1.750    0.000 
#    0.000    1.250    0.000    0.000    0.000    0.000 
#    0.000    0.000    0.000    0.000    0.000    0.000 
#
# Total GULP energy -198251.465523 kJ/mol
# GULP energy per Si atom -12390.716595 kJ/mol
# Density = 2.455108 g / cm^3
# Si number density = 24.607083 Si / 1000 Ang^3
#
#
#
# Elastic Constant Matrix: (Units=GPa)
#
#
# Indices 1 2 3 4 5 6 
#
# 1 143.2907 37.3290 27.9966 -0.1380 -27.2788 -15.7722
# 2 37.3290 85.6585 29.0575 9.6323 -8.0742 -11.4411
# 3 27.9966 29.0575 77.6125 23.4618 -13.7271 3.3907
# 4 -0.1380 9.6323 23.4618 40.9764 2.4323 -1.7204
# 5 -27.2788 -8.0742 -13.7271 2.4323 45.6073 1.6641
# 6 -15.7722 -11.4411 3.3907 -1.7204 1.6641 51.3085
#
#
#
# Elastic Compliance Matrix: (Units=1/GPa)
#
#
# Indices 1 2 3 4 5 6 
#
# 1 0.009167 -0.002762 -0.002171 0.001771 0.004163 0.002270
# 2 -0.002762 0.014822 -0.004521 -0.000763 -0.000448 0.002744
# 3 -0.002171 -0.004521 0.019474 -0.010504 0.004449 -0.003459
# 4 0.001771 -0.000763 -0.010504 0.030933 -0.003968 0.002234
# 5 0.004163 -0.000448 0.004449 -0.003968 0.025891 -0.000087
# 6 0.002270 0.002744 -0.003459 0.002234 -0.000087 0.021106
#
#
# Mechanical properties :
#
#
# Convention : Reuss Voigt Hill
#
# Bulk Modulus (GPa) = 40.72741 55.03642 47.88192
# Shear Modulus (GPa) = 33.67366 41.72369 37.69867
#
# Velocity S-wave (km/s) = 3.70327 4.12223 3.91836
# Velocity P-wave (km/s) = 5.90531 6.71354 6.32236
#
# Compressibility (1/GPa) = 0.02455349
#
# Stress axis : x y z
#
# Youngs Moduli (GPa) = 109.09218 67.46897 51.35175
#
# Poissons Ratio (x) = 0.18634 0.11148
# Poissons Ratio (y) = 0.30130 0.23218
# Poissons Ratio (z) = 0.23682 0.30505
#
# Static dielectric constant tensor:
#      x y z
#    x 1.855940 -0.441560 -1.029190 
#    y -0.441560 4.173420 0.363960 
#    z -1.029190 0.363960 4.056090 
# 
# 
# High freq. dielectric constant tensor:
#      x y z
#    x 1.984770 -0.006620 -0.006030 
#    y -0.006620 1.970780 0.030300 
#    z -0.006030 0.030300 1.978660 
# 
# From -- ./inp_files/399961.got.cif
#   From: 2010.06.25/outbox.cif.g09.slc.cpg/sg2_200_cif.got.tgz:399961.got - 2010.06.27 13:26:56.
