data_PCOD8036541
_publ_section_title
;
Structure prediction by ZEFSAII (Michael W. Deem and Ramdas Pophale) SiO2 
 PCOD8036541
Probable space group: P -1
;
_chemical_formula_sum "Si O2"
_cell_formula_units_Z 14
_cell_length_a 8.217262
_cell_length_b 14.455020
_cell_length_c 11.453945
_cell_angle_alpha 150.739876
_cell_angle_beta 75.349359
_cell_angle_gamma 92.090249
_cell_volume 592.557339
_symmetry_space_group_name_H-M "P -1"
_symmetry_group_IT_number 2
_symmetry_cell_setting 'triclinic'
loop_
_space_group_symop_operation_xyz
x,y,z
-x,-y,-z
loop_
_atom_site_type_symbol
_atom_site_label
_atom_site_fract_x
_atom_site_fract_y
_atom_site_fract_z
Si Si1 0.735106 0.571272 0.674686
Si Si2 0.903719 0.174015 0.083634
Si Si3 0.287150 0.120563 0.179241
Si Si4 0.344557 0.644449 0.892700
Si Si5 0.194512 0.017249 0.489620
Si Si6 0.726366 0.933575 0.207155
Si Si7 0.328945 0.246633 0.555383
O O1 0.886259 0.342199 0.373740
O O2 0.765162 0.692760 0.693153
O O3 0.538897 0.554281 0.693606
O O4 0.756102 0.691508 0.919999
O O5 0.805573 0.284883 0.103972
O O6 0.112407 0.038443 0.864174
O O7 0.820531 0.023087 0.989796
O O8 0.235925 0.198967 0.405907
O O9 0.500000 0.000000 0.000000
O O10 0.335779 0.832166 0.183874
O O11 0.318649 0.477518 0.800108
O O12 0.267856 0.004398 0.592340
O O13 0.202462 0.225229 0.661428
O O14 0.000000 0.000000 0.500000
O O15 0.538134 0.086305 0.353334
#
# Coordination Sequence:
#
# PCOD8036541 Si02
#       7
#     2   2   2   2   2   2   2
#     4  12  25  43  71 104 140 181 230 281 341 412
#     4  12  24  44  69 104 140 182 230 280 342 409
#     4  12  20  42  70  96 138 185 224 270 343 410
#     4  12  24  45  74 102 133 188 230 277 342 411
#     4  12  25  51  73  96 141 181 234 282 339 413
#     4  12  26  47  67 102 144 180 223 293 342 398
#     4  12  25  44  73 105 134 182 231 282 343 404
#
# _framework density 23.626404000000001
#
# number of rings (size 3 to 8) (size 9 to 14) (size 15 to 20)
#    0.000    0.000    8.571    2.143    0.000    1.714 
#    2.571    0.000    0.000    0.000    0.000    0.000 
#    0.000    0.000    0.000    0.000    0.000    0.000 
#
# Total GULP energy -173581.736749 kJ/mol
# GULP energy per Si atom -12398.695482 kJ/mol
# Density = 2.357263 g / cm^3
# Si number density = 23.626404 Si / 1000 Ang^3
#
#
#
# Elastic Constant Matrix: (Units=GPa)
#
#
# Indices 1 2 3 4 5 6 
#
# 1 93.6717 46.6701 9.1223 -1.3693 4.0034 25.6574
# 2 46.6701 143.4022 39.4712 15.6280 6.1166 24.6512
# 3 9.1223 39.4712 85.3831 -5.7221 18.9630 -7.8054
# 4 -1.3693 15.6280 -5.7221 41.0450 3.1818 14.4904
# 5 4.0034 6.1166 18.9630 3.1818 41.1138 -11.0264
# 6 25.6574 24.6512 -7.8054 14.4904 -11.0264 43.9259
#
#
#
# Elastic Compliance Matrix: (Units=1/GPa)
#
#
# Indices 1 2 3 4 5 6 
#
# 1 0.015557 -0.004034 0.000662 0.005916 -0.004288 -0.009733
# 2 -0.004034 0.010634 -0.005175 -0.003867 0.000669 -0.003088
# 3 0.000662 -0.005175 0.015907 0.003805 -0.006250 0.002520
# 4 0.005916 -0.003867 0.003805 0.031757 -0.007705 -0.013020
# 5 -0.004288 0.000669 -0.006250 -0.007705 0.031173 0.011386
# 6 -0.009733 -0.003088 0.002520 -0.013020 0.011386 0.037785
#
#
# Mechanical properties :
#
#
# Convention : Reuss Voigt Hill
#
# Bulk Modulus (GPa) = 39.99381 56.99825 48.49603
# Shear Modulus (GPa) = 29.71909 40.36317 35.04113
#
# Velocity S-wave (km/s) = 3.55050 4.13775 3.85533
# Velocity P-wave (km/s) = 5.81141 6.85603 6.35522
#
# Compressibility (1/GPa) = 0.02500387
#
# Stress axis : x y z
#
# Youngs Moduli (GPa) = 64.28138 94.03575 62.86546
#
# Poissons Ratio (x) = 0.37930 -0.04159
# Poissons Ratio (y) = 0.25928 0.32533
# Poissons Ratio (z) = -0.04253 0.48664
#
# Static dielectric constant tensor:
#      x y z
#    x -10.949210 39.713050 10.107200 
#    y 39.713050 -97.464750 -25.509760 
#    z 10.107200 -25.509760 -1.887790 
# 
# 
# High freq. dielectric constant tensor:
#      x y z
#    x 1.950430 0.014620 0.010040 
#    y 0.014620 1.940770 -0.004150 
#    z 0.010040 -0.004150 1.931810 
# 
# From -- ./inp_files/307053.got.cif
#   From: 2010.06.25/outbox.cif.g09.slc.cpg/sg2_154_cif.got.tgz:307053.got - 2010.06.27 13:26:56.
