data_PCOD8036844
_publ_section_title
;
Structure prediction by ZEFSAII (Michael W. Deem and Ramdas Pophale) SiO2 
 PCOD8036844
Probable space group: P -1
;
_chemical_formula_sum "Si O2"
_cell_formula_units_Z 16
_cell_length_a 13.399332
_cell_length_b 11.308815
_cell_length_c 6.951769
_cell_angle_alpha 90.492812
_cell_angle_beta 115.783952
_cell_angle_gamma 125.852181
_cell_volume 717.010134
_symmetry_space_group_name_H-M "P -1"
_symmetry_group_IT_number 2
_symmetry_cell_setting 'triclinic'
loop_
_space_group_symop_operation_xyz
x,y,z
-x,-y,-z
loop_
_atom_site_type_symbol
_atom_site_label
_atom_site_fract_x
_atom_site_fract_y
_atom_site_fract_z
Si Si1 0.634238 0.108443 0.257744
Si Si2 0.272240 0.021732 0.377390
Si Si3 0.363369 0.475940 0.807586
Si Si4 0.245585 0.534594 0.057062
Si Si5 0.555386 0.282883 0.423160
Si Si6 0.090567 0.632775 0.735015
Si Si7 0.013392 0.242028 0.086960
Si Si8 0.121161 0.130687 0.457360
O O1 0.625474 0.226537 0.359840
O O2 0.780612 0.204210 0.255752
O O3 0.638270 0.007422 0.416144
O O4 0.500000 0.000000 0.000000
O O5 0.381292 0.143941 0.303957
O O6 0.218154 0.090453 0.464869
O O7 0.137615 0.863093 0.158235
O O8 0.413706 0.571861 0.653679
O O9 0.225694 0.295419 0.655065
O O10 0.500000 0.500000 0.000000
O O11 0.318429 0.545790 0.919908
O O12 0.374787 0.662141 0.307856
O O13 0.146594 0.359562 0.054879
O O14 0.147864 0.582083 0.941957
O O15 0.985534 0.653714 0.751210
O O16 0.000000 0.500000 0.500000
O O17 0.039841 0.134600 0.208631
O O18 0.000000 0.000000 0.500000
#
# Coordination Sequence:
#
# PCOD8036844 Si02
#       8
#     2   2   2   2   2   2   2   2
#     4  12  25  46  72 106 144 185 237 293 357 420
#     4  12  27  44  72 103 145 191 234 292 354 422
#     4  12  28  46  76 105 142 189 236 298 354 420
#     4  12  24  47  72 104 142 182 237 296 355 418
#     4  12  26  48  73 107 141 184 242 291 358 420
#     4  12  23  42  73 104 142 184 235 295 357 415
#     4  12  25  45  69 105 142 186 240 289 352 427
#     4  12  27  48  71 104 147 187 238 290 355 424
#
# _framework density 22.314886000000001
#
# number of rings (size 3 to 8) (size 9 to 14) (size 15 to 20)
#    0.000    0.000    2.500    7.875    5.250    1.000 
#    0.000    0.000    0.000    0.000    0.000    0.000 
#    0.000    0.000    0.000    0.000    0.000    0.000 
#
# Total GULP energy -198574.456270 kJ/mol
# GULP energy per Si atom -12410.903517 kJ/mol
# Density = 2.226410 g / cm^3
# Si number density = 22.314886 Si / 1000 Ang^3
#
#
#
# Elastic Constant Matrix: (Units=GPa)
#
#
# Indices 1 2 3 4 5 6 
#
# 1 85.1500 23.2783 17.0419 -7.9080 1.4601 -4.9357
# 2 23.2783 125.3279 35.0469 -12.7563 7.4737 8.7210
# 3 17.0419 35.0469 126.4137 12.5736 9.6733 -6.6885
# 4 -7.9080 -12.7563 12.5736 47.7854 -2.2285 -1.6641
# 5 1.4601 7.4737 9.6733 -2.2285 39.8724 0.2022
# 6 -4.9357 8.7210 -6.6885 -1.6641 0.2022 44.0968
#
#
#
# Elastic Compliance Matrix: (Units=1/GPa)
#
#
# Indices 1 2 3 4 5 6 
#
# 1 0.012821 -0.001941 -0.001327 0.002027 0.000321 0.001693
# 2 -0.001941 0.009620 -0.002748 0.002844 -0.000894 -0.002425
# 3 -0.001327 -0.002748 0.009434 -0.003466 -0.001927 0.001704
# 4 0.002027 0.002844 -0.003466 0.023004 0.001519 0.000000
# 5 0.000321 -0.000894 -0.001927 0.001519 0.025789 -0.000141
# 6 0.001693 -0.002425 0.001704 0.000000 -0.000141 0.023606
#
#
# Mechanical properties :
#
#
# Convention : Reuss Voigt Hill
#
# Bulk Modulus (GPa) = 50.39679 54.18063 52.28871
# Shear Modulus (GPa) = 40.67726 43.78588 42.23157
#
# Velocity S-wave (km/s) = 4.27415 4.43446 4.35504
# Velocity P-wave (km/s) = 6.85501 7.10999 6.98367
#
# Compressibility (1/GPa) = 0.01984254
#
# Stress axis : x y z
#
# Youngs Moduli (GPa) = 77.99709 103.95511 106.00370
#
# Poissons Ratio (x) = 0.20177 0.14065
# Poissons Ratio (y) = 0.15139 0.29130
# Poissons Ratio (z) = 0.10349 0.28567
#
# Static dielectric constant tensor:
#      x y z
#    x 5.103480 0.192170 -0.180400 
#    y 0.192170 4.199790 -0.089570 
#    z -0.180400 -0.089570 4.203290 
# 
# 
# High freq. dielectric constant tensor:
#      x y z
#    x 1.887880 0.004170 0.001180 
#    y 0.004170 1.896050 -0.000930 
#    z 0.001180 -0.000930 1.893770 
# 
# From -- ./inp_files/94923.got.cif
#   From: 2010.06.25/outbox.cif.g09.slc.cpg/sg2_48_cif.got.tgz:94923.got - 2010.06.27 13:26:56.
