data_PCOD8036946
_publ_section_title
;
Structure prediction by ZEFSAII (Michael W. Deem and Ramdas Pophale) SiO2 
 PCOD8036946
Probable space group: P -1
;
_chemical_formula_sum "Si O2"
_cell_formula_units_Z 16
_cell_length_a 16.312385
_cell_length_b 9.867939
_cell_length_c 8.677376
_cell_angle_alpha 74.506504
_cell_angle_beta 65.351024
_cell_angle_gamma 35.079028
_cell_volume 722.205504
_symmetry_space_group_name_H-M "P -1"
_symmetry_group_IT_number 2
_symmetry_cell_setting 'triclinic'
loop_
_space_group_symop_operation_xyz
x,y,z
-x,-y,-z
loop_
_atom_site_type_symbol
_atom_site_label
_atom_site_fract_x
_atom_site_fract_y
_atom_site_fract_z
Si Si1 0.270264 0.933624 0.725983
Si Si2 0.650977 0.853305 0.337211
Si Si3 0.077695 0.998769 0.064831
Si Si4 0.565180 0.919893 0.808059
Si Si5 0.053092 0.687314 0.633998
Si Si6 0.539029 0.452847 0.802856
Si Si7 0.248089 0.588478 0.274849
Si Si8 0.748783 0.969557 0.636451
O O1 0.394450 0.655031 0.743128
O O2 0.333983 0.999122 0.718270
O O3 0.224950 0.993760 0.563219
O O4 0.130447 0.069220 0.906179
O O5 0.805473 0.593353 0.360386
O O6 0.500000 0.000000 0.500000
O O7 0.602165 0.858107 0.207966
O O8 0.975084 0.185436 0.229445
O O9 0.209214 0.735189 0.114142
O O10 0.000000 0.000000 0.000000
O O11 0.652907 0.666973 0.779045
O O12 0.688137 0.887563 0.683906
O O13 0.500000 0.000000 0.000000
O O14 0.096999 0.733804 0.443556
O O15 0.906670 0.778891 0.667856
O O16 0.652131 0.440210 0.680866
O O17 0.619060 0.207897 0.766106
O O18 0.500000 0.500000 0.000000
#
# Coordination Sequence:
#
# PCOD8036946 Si02
#       8
#     2   2   2   2   2   2   2   2
#     4  12  25  46  74 107 149 189 248 297 368 440
#     4  12  25  52  74 106 144 194 245 304 369 443
#     4  12  29  45  71 111 145 195 245 302 366 439
#     4  12  28  47  78 109 145 191 251 298 368 438
#     4  12  27  48  75 104 151 193 246 303 375 429
#     4  12  23  45  74 104 147 189 243 299 363 432
#     4  12  24  48  75  99 152 191 239 302 361 439
#     4  12  27  46  74 112 145 195 242 306 369 434
#
# _framework density 22.154357999999998
#
# number of rings (size 3 to 8) (size 9 to 14) (size 15 to 20)
#    0.000    0.000    6.250    2.250    5.250    3.500 
#    0.000    0.000    0.000    0.000    0.000    0.000 
#    0.000    0.000    0.000    0.000    0.000    0.000 
#
# Total GULP energy -198311.786049 kJ/mol
# GULP energy per Si atom -12394.486628 kJ/mol
# Density = 2.210393 g / cm^3
# Si number density = 22.154358 Si / 1000 Ang^3
#
#
#
# Elastic Constant Matrix: (Units=GPa)
#
#
# Indices 1 2 3 4 5 6 
#
# 1 126.4004 40.9564 38.3093 1.7901 2.9744 -4.6944
# 2 40.9564 121.1184 30.0738 -7.2690 7.2754 -11.1965
# 3 38.3093 30.0738 135.1462 -13.6347 7.4039 -7.3649
# 4 1.7901 -7.2690 -13.6347 24.6267 -0.1913 -0.2250
# 5 2.9744 7.2754 7.4039 -0.1913 43.2248 -7.8831
# 6 -4.6944 -11.1965 -7.3649 -0.2250 -7.8831 38.7712
#
#
#
# Elastic Compliance Matrix: (Units=1/GPa)
#
#
# Indices 1 2 3 4 5 6 
#
# 1 0.009589 -0.002841 -0.002390 -0.002858 0.000199 -0.000090
# 2 -0.002841 0.009865 -0.000961 0.002599 -0.000896 0.002155
# 3 -0.002390 -0.000961 0.008882 0.004809 -0.001002 0.000945
# 4 -0.002858 0.002599 0.004809 0.044252 -0.000604 0.001452
# 5 0.000199 -0.000896 -0.001002 -0.000604 0.024262 0.004505
# 6 -0.000090 0.002155 0.000945 0.001452 0.004505 0.027508
#
#
# Mechanical properties :
#
#
# Convention : Reuss Voigt Hill
#
# Bulk Modulus (GPa) = 62.68939 66.81601 64.75270
# Shear Modulus (GPa) = 35.19673 39.54626 37.37149
#
# Velocity S-wave (km/s) = 3.99018 4.22955 4.11161
# Velocity P-wave (km/s) = 7.04179 7.35370 7.19943
#
# Compressibility (1/GPa) = 0.01595166
#
# Stress axis : x y z
#
# Youngs Moduli (GPa) = 104.28988 101.37211 112.58402
#
# Poissons Ratio (x) = 0.28797 0.26908
# Poissons Ratio (y) = 0.29626 0.10822
# Poissons Ratio (z) = 0.24926 0.09744
#
# Static dielectric constant tensor:
#      x y z
#    x 4.174420 -0.286800 -0.095840 
#    y -0.286800 3.723630 -0.296410 
#    z -0.095840 -0.296410 4.254610 
# 
# 
# High freq. dielectric constant tensor:
#      x y z
#    x 1.887140 -0.002780 -0.000400 
#    y -0.002780 1.872210 -0.005440 
#    z -0.000400 -0.005440 1.887690 
# 
# From -- ./inp_files/298198.got.cif
#   From: 2010.06.25/outbox.cif.g09.slc.cpg/sg2_150_cif.got.tgz:298198.got - 2010.06.27 13:26:56.
