data_PCOD8036024
_publ_section_title
;
Structure prediction by ZEFSAII (Michael W. Deem and Ramdas Pophale) SiO2 
 PCOD8036024
Probable space group: P -1
;
_chemical_formula_sum "Si O2"
_cell_formula_units_Z 14
_cell_length_a 8.372822
_cell_length_b 25.158951
_cell_length_c 5.246129
_cell_angle_alpha 115.353823
_cell_angle_beta 62.452929
_cell_angle_gamma 144.760940
_cell_volume 562.586842
_symmetry_space_group_name_H-M "P -1"
_symmetry_group_IT_number 2
_symmetry_cell_setting 'triclinic'
loop_
_space_group_symop_operation_xyz
x,y,z
-x,-y,-z
loop_
_atom_site_type_symbol
_atom_site_label
_atom_site_fract_x
_atom_site_fract_y
_atom_site_fract_z
Si Si1 0.863626 0.261751 0.870027
Si Si2 0.250361 0.199457 0.774999
Si Si3 0.781692 0.472198 0.300322
Si Si4 0.334029 0.976951 0.325135
Si Si5 0.779491 0.357260 0.368310
Si Si6 0.807511 0.690148 0.772336
Si Si7 0.730021 0.918220 0.200449
O O1 0.556241 0.153794 0.907601
O O2 0.978223 0.274028 0.533147
O O3 0.834851 0.325589 0.032630
O O4 0.068879 0.293222 0.008340
O O5 0.529270 0.268113 0.540032
O O6 0.232281 0.135867 0.818688
O O7 0.970551 0.132222 0.666459
O O8 0.255340 0.255789 0.080831
O O9 0.695888 0.400835 0.423829
O O10 0.492236 0.419485 0.267983
O O11 0.929759 0.564810 0.520382
O O12 0.000000 0.500000 0.000000
O O13 0.500000 0.000000 0.500000
O O14 0.294600 0.037705 0.474647
O O15 0.500000 0.000000 0.000000
O O16 0.000000 0.000000 0.000000
#
# Coordination Sequence:
#
# PCOD8036024 Si02
#       7
#     2   2   2   2   2   2   2
#     4  12  28  48  74 114 154 193 250 313 382 436
#     4  12  25  50  78 106 148 205 254 300 373 452
#     4  11  25  49  78 108 148 195 256 298 374 456
#     4  12  27  48  75 111 154 194 248 318 377 437
#     4  11  26  48  77 108 148 198 251 306 366 457
#     4  12  27  48  76 111 153 196 243 318 378 441
#     4  12  27  50  77 111 150 202 257 305 365 452
#
# _framework density 24.885047
#
# number of rings (size 3 to 8) (size 9 to 14) (size 15 to 20)
#    0.000    0.286    1.429    6.429    4.000    5.714 
#    0.000    0.000    0.000    0.000    0.000    0.000 
#    0.000    0.000    0.000    0.000    0.000    0.000 
#
# Total GULP energy -173682.498790 kJ/mol
# GULP energy per Si atom -12405.892771 kJ/mol
# Density = 2.482841 g / cm^3
# Si number density = 24.885047 Si / 1000 Ang^3
#
#
#
# Elastic Constant Matrix: (Units=GPa)
#
#
# Indices 1 2 3 4 5 6 
#
# 1 68.7815 33.4755 22.1801 -16.1822 5.7210 18.6623
# 2 33.4755 158.6898 29.9763 3.0630 6.0066 34.7486
# 3 22.1801 29.9763 143.0131 9.7918 -18.6747 -0.5247
# 4 -16.1822 3.0630 9.7918 41.1790 -1.9883 8.9493
# 5 5.7210 6.0066 -18.6747 -1.9883 47.8560 10.5131
# 6 18.6623 34.7486 -0.5247 8.9493 10.5131 53.0809
#
#
#
# Elastic Compliance Matrix: (Units=1/GPa)
#
#
# Indices 1 2 3 4 5 6 
#
# 1 0.021836 -0.002319 -0.003921 0.011294 -0.001673 -0.007771
# 2 -0.002319 0.008015 -0.001360 -0.000256 -0.000317 -0.004339
# 3 -0.003921 -0.001360 0.008590 -0.003831 0.003318 0.002343
# 4 0.011294 -0.000256 -0.003831 0.031699 0.000546 -0.009293
# 5 -0.001673 -0.000317 0.003318 0.000546 0.023305 -0.003879
# 6 -0.007771 -0.004339 0.002343 -0.009293 -0.003879 0.026770
#
#
# Mechanical properties :
#
#
# Convention : Reuss Voigt Hill
#
# Bulk Modulus (GPa) = 43.02679 60.19425 51.61052
# Shear Modulus (GPa) = 34.92566 47.41333 41.16950
#
# Velocity S-wave (km/s) = 3.75037 4.36970 4.07183
# Velocity P-wave (km/s) = 6.00678 7.04986 6.54912
#
# Compressibility (1/GPa) = 0.02324133
#
# Stress axis : x y z
#
# Youngs Moduli (GPa) = 45.79493 124.77054 116.41921
#
# Poissons Ratio (x) = 0.28932 0.45647
# Poissons Ratio (y) = 0.10619 0.15834
# Poissons Ratio (z) = 0.17956 0.16969
#
# Static dielectric constant tensor:
#      x y z
#    x 4.792570 0.221240 -0.083650 
#    y 0.221240 5.118420 0.423190 
#    z -0.083650 0.423190 4.661180 
# 
# 
# High freq. dielectric constant tensor:
#      x y z
#    x 1.990180 0.015760 -0.004770 
#    y 0.015760 2.013510 0.017210 
#    z -0.004770 0.017210 2.001030 
# 
# From -- ./inp_files/56522.got.cif
#   From: 2010.06.25/outbox.cif.g09.slc.cpg/sg2_29_cif.got.tgz:56522.got - 2010.06.27 13:26:56.
