data_PCOD8036195
_publ_section_title
;
Structure prediction by ZEFSAII (Michael W. Deem and Ramdas Pophale) SiO2 
 PCOD8036195
Probable space group: P -1
;
_chemical_formula_sum "Si O2"
_cell_formula_units_Z 14
_cell_length_a 11.599955
_cell_length_b 14.233762
_cell_length_c 5.164673
_cell_angle_alpha 99.766266
_cell_angle_beta 74.030392
_cell_angle_gamma 136.983751
_cell_volume 558.649389
_symmetry_space_group_name_H-M "P -1"
_symmetry_group_IT_number 2
_symmetry_cell_setting 'triclinic'
loop_
_space_group_symop_operation_xyz
x,y,z
-x,-y,-z
loop_
_atom_site_type_symbol
_atom_site_label
_atom_site_fract_x
_atom_site_fract_y
_atom_site_fract_z
Si Si1 0.781670 0.634654 0.542609
Si Si2 0.913213 0.849103 0.927399
Si Si3 0.587359 0.839770 0.551234
Si Si4 0.756531 0.016728 0.008225
Si Si5 0.734369 0.213579 0.142212
Si Si6 0.430796 0.373818 0.723188
Si Si7 0.944791 0.366877 0.579926
O O1 0.910524 0.795313 0.623190
O O2 0.617676 0.517110 0.788868
O O3 0.673287 0.599679 0.339291
O O4 0.890618 0.601329 0.421204
O O5 0.032262 0.849361 0.036937
O O6 0.708163 0.742959 0.040200
O O7 0.000000 0.000000 0.000000
O O8 0.421195 0.808104 0.694877
O O9 0.530649 0.696771 0.513006
O O10 0.680740 0.927218 0.273423
O O11 0.720753 0.927323 0.746849
O O12 0.672293 0.071864 0.032053
O O13 0.847189 0.260247 0.352929
O O14 0.830194 0.316078 0.885086
O O15 0.000000 0.500000 0.500000
#
# Coordination Sequence:
#
# PCOD8036195 Si02
#       7
#     2   2   2   2   2   2   2
#     4  11  26  48  72 106 149 197 252 308 375 448
#     4  12  24  44  73 105 148 191 247 304 369 446
#     4  12  26  46  72 114 151 196 248 306 377 451
#     4  12  25  44  75 108 154 196 249 308 379 444
#     4  12  25  47  74 107 150 194 252 314 373 440
#     4  11  26  46  72 106 150 198 246 311 373 449
#     4  12  26  48  76 106 145 200 253 311 371 447
#
# _framework density 25.060438999999999
#
# number of rings (size 3 to 8) (size 9 to 14) (size 15 to 20)
#    0.000    0.286    2.857    6.000    2.000    1.143 
#    2.571    0.000    0.000    0.000    0.000    0.000 
#    0.000    0.000    0.000    0.000    0.000    0.000 
#
# Total GULP energy -173441.457935 kJ/mol
# GULP energy per Si atom -12388.675567 kJ/mol
# Density = 2.500340 g / cm^3
# Si number density = 25.060439 Si / 1000 Ang^3
#
#
#
# Elastic Constant Matrix: (Units=GPa)
#
#
# Indices 1 2 3 4 5 6 
#
# 1 111.7478 32.8739 24.3697 17.9266 -17.3602 -10.1806
# 2 32.8739 128.2300 23.6664 13.4145 -5.5326 -1.0822
# 3 24.3697 23.6664 90.0079 -7.5785 11.4938 2.6473
# 4 17.9266 13.4145 -7.5785 30.3745 3.9773 2.0900
# 5 -17.3602 -5.5326 11.4938 3.9773 37.6847 4.8184
# 6 -10.1806 -1.0822 2.6473 2.0900 4.8184 43.4080
#
#
#
# Elastic Compliance Matrix: (Units=1/GPa)
#
#
# Indices 1 2 3 4 5 6 
#
# 1 0.013716 -0.001025 -0.005496 -0.010343 0.008542 0.003076
# 2 -0.001025 0.009129 -0.002774 -0.004411 0.002163 0.000129
# 3 -0.005496 -0.002774 0.015248 0.009493 -0.008359 -0.001817
# 4 -0.010343 -0.004411 0.009493 0.045260 -0.012586 -0.003897
# 5 0.008542 0.002163 -0.008359 -0.012586 0.034754 -0.000685
# 6 0.003076 0.000129 -0.001817 -0.003897 -0.000685 0.024136
#
#
# Mechanical properties :
#
#
# Convention : Reuss Voigt Hill
#
# Bulk Modulus (GPa) = 51.27845 54.64510 52.96178
# Shear Modulus (GPa) = 29.88022 38.89848 34.38935
#
# Velocity S-wave (km/s) = 3.45675 3.94405 3.70842
# Velocity P-wave (km/s) = 6.03643 6.52636 6.28617
#
# Compressibility (1/GPa) = 0.01950137
#
# Stress axis : x y z
#
# Youngs Moduli (GPa) = 72.90997 109.53849 65.58283
#
# Poissons Ratio (x) = 0.11230 0.36045
# Poissons Ratio (y) = 0.07475 0.18194
# Poissons Ratio (z) = 0.40072 0.30389
#
# Static dielectric constant tensor:
#      x y z
#    x 5.051100 0.460290 -0.313310 
#    y 0.460290 5.539700 -0.112100 
#    z -0.313310 -0.112100 4.783650 
# 
# 
# High freq. dielectric constant tensor:
#      x y z
#    x 2.016040 0.000780 -0.017030 
#    y 0.000780 2.011760 0.006970 
#    z -0.017030 0.006970 1.996130 
# 
# From -- ./inp_files/78106.got.cif
#   From: 2010.06.25/outbox.cif.g09.slc.cpg/sg2_40_cif.got.tgz:78106.got - 2010.06.27 13:26:56.
