data_PCOD8036588
_publ_section_title
;
Structure prediction by ZEFSAII (Michael W. Deem and Ramdas Pophale) SiO2 
 PCOD8036588
Probable space group: P -1
;
_chemical_formula_sum "Si O2"
_cell_formula_units_Z 14
_cell_length_a 31.911835
_cell_length_b 26.227770
_cell_length_c 5.086862
_cell_angle_alpha 107.120398
_cell_angle_beta 108.863724
_cell_angle_gamma 9.741363
_cell_volume 673.814226
_symmetry_space_group_name_H-M "P -1"
_symmetry_group_IT_number 2
_symmetry_cell_setting 'triclinic'
loop_
_space_group_symop_operation_xyz
x,y,z
-x,-y,-z
loop_
_atom_site_type_symbol
_atom_site_label
_atom_site_fract_x
_atom_site_fract_y
_atom_site_fract_z
Si Si1 0.365080 0.684526 0.256574
Si Si2 0.862903 0.219126 0.052489
Si Si3 0.861555 0.770749 0.844224
Si Si4 0.491449 0.123734 0.706035
Si Si5 0.514684 0.628357 0.467920
Si Si6 0.339272 0.137990 0.848443
Si Si7 0.074007 0.235531 0.533565
O O1 0.500000 0.500000 0.500000
O O2 0.390534 0.717609 0.357389
O O3 0.500000 0.500000 0.000000
O O4 0.068915 0.021797 0.170836
O O5 0.685561 0.435024 0.269329
O O6 0.691495 0.428711 0.769940
O O7 0.000000 0.000000 0.000000
O O8 0.898531 0.749399 0.595191
O O9 0.047923 0.499275 0.849481
O O10 0.581641 0.077828 0.774559
O O11 0.911633 0.757966 0.134759
O O12 0.190636 0.480544 0.608135
O O13 0.621278 0.930116 0.468226
O O14 0.571809 0.011621 0.991482
O O15 0.291522 0.935113 0.474079
O O16 0.500000 0.000000 0.000000
#
# Coordination Sequence:
#
# PCOD8036588 Si02
#       7
#     2   2   2   2   2   2   2
#     4  12  23  41  70 100 126 164 210 268 327 380
#     4  12  23  43  72  97 130 165 212 274 329 378
#     4  12  25  43  68  96 132 175 224 270 329 382
#     4  12  24  43  67  96 133 172 222 276 325 381
#     4  12  26  43  65 100 132 171 218 265 326 396
#     4  12  21  41  71  98 127 172 223 283 326 367
#     4  12  26  44  63  92 138 178 214 263 326 406
#
# _framework density 20.777242000000001
#
# number of rings (size 3 to 8) (size 9 to 14) (size 15 to 20)
#    0.000    0.000    5.714    5.143    0.000    2.286 
#    0.000    0.000    0.000    0.000    0.000    0.000 
#    0.000    0.000    0.000    0.000    0.000    0.000 
#
# Total GULP energy -173706.654907 kJ/mol
# GULP energy per Si atom -12407.618208 kJ/mol
# Density = 2.072995 g / cm^3
# Si number density = 20.777242 Si / 1000 Ang^3
#
#
#
# Elastic Constant Matrix: (Units=GPa)
#
#
# Indices 1 2 3 4 5 6 
#
# 1 92.6374 57.2520 38.4710 -14.7534 5.0511 -36.5869
# 2 57.2520 163.1878 55.4912 2.6239 8.4598 -10.7078
# 3 38.4710 55.4912 111.4170 -5.7201 -20.7504 0.1110
# 4 -14.7534 2.6239 -5.7201 35.7053 -13.3485 9.6575
# 5 5.0511 8.4598 -20.7504 -13.3485 25.7543 2.9840
# 6 -36.5869 -10.7078 0.1110 9.6575 2.9840 39.6363
#
#
#
# Elastic Compliance Matrix: (Units=1/GPa)
#
#
# Indices 1 2 3 4 5 6 
#
# 1 0.030798 -0.002673 -0.014033 -0.006499 -0.023440 0.031094
# 2 -0.002673 0.010904 -0.007784 -0.009796 -0.014871 0.004006
# 3 -0.014033 -0.007784 0.026038 0.019796 0.039202 -0.022903
# 4 -0.006499 -0.009796 0.019796 0.055942 0.052482 -0.026282
# 5 -0.023440 -0.014871 0.039202 0.052482 0.112545 -0.047024
# 6 0.031094 0.004006 -0.022903 -0.026282 -0.047024 0.065021
#
#
# Mechanical properties :
#
#
# Convention : Reuss Voigt Hill
#
# Bulk Modulus (GPa) = 53.30741 74.40785 63.85763
# Shear Modulus (GPa) = 14.02595 34.62104 24.32349
#
# Velocity S-wave (km/s) = 2.60102 4.08646 3.42523
# Velocity P-wave (km/s) = 5.89345 7.62597 6.81499
#
# Compressibility (1/GPa) = 0.01875912
#
# Stress axis : x y z
#
# Youngs Moduli (GPa) = 32.46958 91.70901 38.40603
#
# Poissons Ratio (x) = 0.24517 0.53894
# Poissons Ratio (y) = 0.08680 0.29896
# Poissons Ratio (z) = 0.45564 0.71387
#
# Static dielectric constant tensor:
#      x y z
#    x 3.555020 0.133000 -0.190570 
#    y 0.133000 3.659430 -0.005610 
#    z -0.190570 -0.005610 3.970080 
# 
# 
# High freq. dielectric constant tensor:
#      x y z
#    x 1.821480 -0.017950 -0.004710 
#    y -0.017950 1.819120 -0.005470 
#    z -0.004710 -0.005470 1.834480 
# 
# From -- ./inp_files/128826.got.cif
#   From: 2010.06.25/outbox.cif.g09.slc.cpg/sg2_65_cif.got.tgz:128826.got - 2010.06.27 13:26:56.
