data_PCOD8036265
_publ_section_title
;
Structure prediction by ZEFSAII (Michael W. Deem and Ramdas Pophale) SiO2 
 PCOD8036265
Probable space group: P -1
;
_chemical_formula_sum "Si O2"
_cell_formula_units_Z 16
_cell_length_a 9.271476
_cell_length_b 19.031838
_cell_length_c 12.452225
_cell_angle_alpha 27.985386
_cell_angle_beta 136.332152
_cell_angle_gamma 124.849420
_cell_volume 696.362144
_symmetry_space_group_name_H-M "P -1"
_symmetry_group_IT_number 2
_symmetry_cell_setting 'triclinic'
loop_
_space_group_symop_operation_xyz
x,y,z
-x,-y,-z
loop_
_atom_site_type_symbol
_atom_site_label
_atom_site_fract_x
_atom_site_fract_y
_atom_site_fract_z
Si Si1 0.773668 0.952218 0.325076
Si Si2 0.910168 0.553309 0.595295
Si Si3 0.161283 0.753852 0.918728
Si Si4 0.953606 0.852320 0.327359
Si Si5 0.555363 0.133309 0.415081
Si Si6 0.376064 0.896810 0.281440
Si Si7 0.534964 0.632919 0.122946
Si Si8 0.651701 0.438124 0.266406
O O1 0.854598 0.928166 0.281198
O O2 0.540856 0.908871 0.258341
O O3 0.929435 0.835547 0.643744
O O4 0.751408 0.129331 0.112435
O O5 0.932429 0.676150 0.535039
O O6 0.720863 0.632111 0.308621
O O7 0.126979 0.505591 0.708460
O O8 0.848177 0.402835 0.814521
O O9 0.312001 0.707292 0.958219
O O10 0.197211 0.863324 0.444481
O O11 0.823518 0.959615 0.020042
O O12 0.474841 0.107006 0.526660
O O13 0.500000 0.000000 0.500000
O O14 0.428235 0.280883 0.085347
O O15 0.282165 0.744612 0.444703
O O16 0.546859 0.472219 0.284170
O O17 0.500000 0.500000 0.000000
#
# Coordination Sequence:
#
# PCOD8036265 Si02
#       8
#     2   2   2   2   2   2   2   2
#     4  11  26  47  73 108 140 192 240 297 356 426
#     4  12  27  47  75 108 144 190 240 299 354 435
#     4  11  26  48  74 103 145 188 246 291 359 425
#     4  12  26  47  74 110 143 186 245 293 363 423
#     4  12  25  44  74 100 143 191 233 294 360 425
#     4  12  26  45  73 105 150 182 242 299 351 429
#     4  12  26  47  70 106 145 191 242 293 362 426
#     4  12  26  48  71 108 143 188 243 295 366 423
#
# _framework density 22.97655
#
# number of rings (size 3 to 8) (size 9 to 14) (size 15 to 20)
#    0.000    0.250    3.750    4.500    7.000    0.500 
#    0.000    0.000    0.000    0.000    0.000    0.000 
#    0.000    0.000    0.000    0.000    0.000    0.000 
#
# Total GULP energy -198285.678860 kJ/mol
# GULP energy per Si atom -12392.854929 kJ/mol
# Density = 2.292425 g / cm^3
# Si number density = 22.976550 Si / 1000 Ang^3
#
#
#
# Elastic Constant Matrix: (Units=GPa)
#
#
# Indices 1 2 3 4 5 6 
#
# 1 91.3179 35.1334 24.7835 -13.7053 9.4765 -12.0304
# 2 35.1334 115.4250 33.8730 -8.4869 0.5847 -13.1474
# 3 24.7835 33.8730 128.6197 -3.9603 -3.9362 9.8744
# 4 -13.7053 -8.4869 -3.9603 31.4873 -0.4943 8.2780
# 5 9.4765 0.5847 -3.9362 -0.4943 35.2160 -1.0649
# 6 -12.0304 -13.1474 9.8744 8.2780 -1.0649 47.0765
#
#
#
# Elastic Compliance Matrix: (Units=1/GPa)
#
#
# Indices 1 2 3 4 5 6 
#
# 1 0.014046 -0.003068 -0.002059 0.004360 -0.003828 0.002311
# 2 -0.003068 0.010629 -0.002376 0.000556 0.000470 0.002596
# 3 -0.002059 -0.002376 0.009099 0.000459 0.001522 -0.003144
# 4 0.004360 0.000556 0.000459 0.035174 -0.000790 -0.005030
# 5 -0.003828 0.000470 0.001522 -0.000790 0.029567 -0.000359
# 6 0.002311 0.002596 -0.003144 -0.005030 -0.000359 0.024093
#
#
# Mechanical properties :
#
#
# Convention : Reuss Voigt Hill
#
# Bulk Modulus (GPa) = 53.27945 58.10469 55.69207
# Shear Modulus (GPa) = 34.75369 38.86082 36.80726
#
# Velocity S-wave (km/s) = 3.89340 4.11703 4.00678
# Velocity P-wave (km/s) = 6.59169 6.92413 6.75995
#
# Compressibility (1/GPa) = 0.01876896
#
# Stress axis : x y z
#
# Youngs Moduli (GPa) = 71.19481 94.08403 109.89777
#
# Poissons Ratio (x) = 0.28864 0.22626
# Poissons Ratio (y) = 0.21842 0.26110
# Poissons Ratio (z) = 0.14658 0.22353
#
# Static dielectric constant tensor:
#      x y z
#    x 4.386470 -0.425960 0.145950 
#    y -0.425960 4.343070 0.053100 
#    z 0.145950 0.053100 4.233080 
# 
# 
# High freq. dielectric constant tensor:
#      x y z
#    x 1.913410 -0.010630 0.005970 
#    y -0.010630 1.915380 -0.000450 
#    z 0.005970 -0.000450 1.924110 
# 
# From -- ./inp_files/402720.got.cif
#   From: 2010.06.25/outbox.cif.g09.slc.cpg/sg2_202_cif.got.tgz:402720.got - 2010.06.27 13:26:56.
