data_PCOD8036927
_publ_section_title
;
Structure prediction by ZEFSAII (Michael W. Deem and Ramdas Pophale) SiO2 
 PCOD8036927
Probable space group: P -1
;
_chemical_formula_sum "Si O2"
_cell_formula_units_Z 16
_cell_length_a 25.354153
_cell_length_b 8.526981
_cell_length_c 25.354076
_cell_angle_alpha 136.868073
_cell_angle_beta 11.665725
_cell_angle_gamma 136.867977
_cell_volume 753.238713
_symmetry_space_group_name_H-M "P -1"
_symmetry_group_IT_number 2
_symmetry_cell_setting 'triclinic'
loop_
_space_group_symop_operation_xyz
x,y,z
-x,-y,-z
loop_
_atom_site_type_symbol
_atom_site_label
_atom_site_fract_x
_atom_site_fract_y
_atom_site_fract_z
Si Si1 0.228571 0.838045 0.228566
Si Si2 0.138506 0.398123 0.138525
Si Si3 0.740882 0.363954 0.740881
Si Si4 0.610726 0.440072 0.610744
Si Si5 0.650911 0.923289 0.650964
Si Si6 0.469805 0.727473 0.469929
Si Si7 0.030655 0.492345 0.030521
Si Si8 0.881097 0.044179 0.881051
O O1 0.181826 0.664081 0.181816
O O2 0.231668 0.666176 0.231659
O O3 0.000000 0.000000 0.500000
O O4 0.500000 0.000000 0.000000
O O5 0.864962 0.344342 0.362765
O O6 0.139233 0.213473 0.139294
O O7 0.362744 0.344336 0.864982
O O8 0.000000 0.500000 0.500000
O O9 0.696502 0.129427 0.696473
O O10 0.500000 0.500000 0.000000
O O11 0.645691 0.714627 0.645734
O O12 0.572079 0.375580 0.572125
O O13 0.882503 0.920855 0.382338
O O14 0.382242 0.920889 0.882625
O O15 0.225018 0.643235 0.725950
O O16 0.500000 0.000000 0.500000
O O17 0.725665 0.643116 0.225310
O O18 0.072281 0.759709 0.072240
O O19 0.000000 0.500000 0.000000
#
# Coordination Sequence:
#
# PCOD8036927 Si02
#       8
#     2   2   2   2   2   2   2   2
#     4  12  25  45  65  98 137 178 230 285 344 401
#     4  12  26  42  69  99 137 182 226 284 336 400
#     4  12  25  42  68  98 132 177 231 282 343 400
#     4  12  25  45  68 100 134 181 230 267 340 399
#     4  12  23  45  69  94 136 182 223 285 335 403
#     4  12  27  48  73 105 141 178 224 277 330 409
#     4  12  26  48  74 105 140 181 218 277 341 403
#     4  12  25  45  68 101 139 175 230 275 339 407
#
# _framework density 21.241606999999998
#
# number of rings (size 3 to 8) (size 9 to 14) (size 15 to 20)
#    0.000    0.000    2.500    8.250    3.500    0.000 
#    0.000    0.000    0.000    0.000    0.000    0.000 
#    0.000    0.000    0.000    0.000    0.000    0.000 
#
# Total GULP energy -198464.929554 kJ/mol
# GULP energy per Si atom -12404.058097 kJ/mol
# Density = 2.119326 g / cm^3
# Si number density = 21.241607 Si / 1000 Ang^3
#
#
#
# Elastic Constant Matrix: (Units=GPa)
#
#
# Indices 1 2 3 4 5 6 
#
# 1 105.0449 7.3762 43.0798 -3.5970 -6.0738 -1.5828
# 2 7.3762 107.5505 25.3964 2.0595 -1.2115 -1.7608
# 3 43.0798 25.3964 186.6967 -12.6714 -3.8640 -16.6943
# 4 -3.5970 2.0595 -12.6714 32.2818 -1.8094 3.4917
# 5 -6.0738 -1.2115 -3.8640 -1.8094 63.8472 0.0139
# 6 -1.5828 -1.7608 -16.6943 3.4917 0.0139 48.8747
#
#
#
# Elastic Compliance Matrix: (Units=1/GPa)
#
#
# Indices 1 2 3 4 5 6 
#
# 1 0.010579 -0.000158 -0.002425 0.000342 0.000866 -0.000516
# 2 -0.000158 0.009652 -0.001357 -0.001159 0.000053 -0.000038
# 3 -0.002425 -0.001357 0.006421 0.002141 0.000192 0.001913
# 4 0.000342 -0.001159 0.002141 0.032161 0.001052 -0.001598
# 5 0.000866 0.000053 0.000192 0.001052 0.015787 0.000016
# 6 -0.000516 -0.000038 0.001913 -0.001598 0.000016 0.021210
#
#
# Mechanical properties :
#
#
# Convention : Reuss Voigt Hill
#
# Bulk Modulus (GPa) = 53.27381 61.22187 57.24784
# Shear Modulus (GPa) = 45.47634 50.56338 48.01986
#
# Velocity S-wave (km/s) = 4.63201 4.88422 4.75979
# Velocity P-wave (km/s) = 7.33088 7.79049 7.56418
#
# Compressibility (1/GPa) = 0.01877095
#
# Stress axis : x y z
#
# Youngs Moduli (GPa) = 94.52482 103.61080 155.74612
#
# Poissons Ratio (x) = 0.01640 0.37763
# Poissons Ratio (y) = 0.01496 0.21141
# Poissons Ratio (z) = 0.22919 0.14064
#
# Static dielectric constant tensor:
#      x y z
#    x 4.179230 -0.390080 -0.043950 
#    y -0.390080 5.401250 0.089060 
#    z -0.043950 0.089060 4.222350 
# 
# 
# High freq. dielectric constant tensor:
#      x y z
#    x 1.850480 -0.001020 -0.000710 
#    y -0.001020 1.851560 -0.000690 
#    z -0.000710 -0.000690 1.857140 
# 
# From -- ./inp_files/617709.got.cif
#   From: 2010.06.25/outbox.cif.g09.slc.cpg/sg2_309_cif.got.tgz:617709.got - 2010.06.27 13:26:56.
