data_PCOD8036204
_publ_section_title
;
Structure prediction by ZEFSAII (Michael W. Deem and Ramdas Pophale) SiO2 
 PCOD8036204
Probable space group: P -1
;
_chemical_formula_sum "Si O2"
_cell_formula_units_Z 16
_cell_length_a 9.907221
_cell_length_b 6.820864
_cell_length_c 16.508486
_cell_angle_alpha 77.705832
_cell_angle_beta 91.287898
_cell_angle_gamma 136.902227
_cell_volume 729.801049
_symmetry_space_group_name_H-M "P -1"
_symmetry_group_IT_number 2
_symmetry_cell_setting 'triclinic'
loop_
_space_group_symop_operation_xyz
x,y,z
-x,-y,-z
loop_
_atom_site_type_symbol
_atom_site_label
_atom_site_fract_x
_atom_site_fract_y
_atom_site_fract_z
Si Si1 0.311304 0.890306 0.280617
Si Si2 0.116614 0.527239 0.927519
Si Si3 0.358751 0.440852 0.725429
Si Si4 0.634895 0.483512 0.960299
Si Si5 0.534435 0.847012 0.170362
Si Si6 0.721109 0.726010 0.446735
Si Si7 0.941737 0.096341 0.826512
Si Si8 0.053470 0.380399 0.451977
O O1 0.382811 0.835100 0.211284
O O2 0.154064 0.884710 0.249909
O O3 0.204130 0.622927 0.364287
O O4 0.498394 0.206130 0.299704
O O5 0.951457 0.242782 0.893738
O O6 0.237210 0.819908 0.848212
O O7 0.273759 0.538995 0.962674
O O8 0.000000 0.500000 0.000000
O O9 0.481198 0.387739 0.767881
O O10 0.292869 0.320509 0.644667
O O11 0.161735 0.261591 0.791755
O O12 0.505600 0.203141 0.922429
O O13 0.804984 0.757938 0.878422
O O14 0.500000 0.500000 0.000000
O O15 0.500000 0.500000 0.500000
O O16 0.834074 0.663190 0.491595
O O17 0.848570 0.068098 0.436748
O O18 0.000000 0.500000 0.500000
#
# Coordination Sequence:
#
# PCOD8036204 Si02
#       8
#     2   2   2   2   2   2   2   2
#     4  12  26  46  69 102 141 179 226 282 335 405
#     4  12  24  42  66 100 132 178 236 282 342 410
#     4  12  26  46  69 102 141 179 226 282 335 405
#     4  12  24  44  68  96 138 178 228 292 344 402
#     4  12  25  44  69 101 137 181 231 283 345 402
#     4  11  26  46  73 106 140 179 224 274 335 403
#     4  12  25  44  69 101 137 181 231 283 345 402
#     4  11  26  46  73 106 140 179 224 274 335 403
#
# _framework density 21.923781999999999
#
# number of rings (size 3 to 8) (size 9 to 14) (size 15 to 20)
#    0.000    0.250    2.500    6.750    3.500    6.000 
#    0.000    0.000    0.000    0.000    0.000    0.000 
#    0.000    0.000    0.000    0.000    0.000    0.000 
#
# Total GULP energy -198515.161716 kJ/mol
# GULP energy per Si atom -12407.197607 kJ/mol
# Density = 2.187388 g / cm^3
# Si number density = 21.923782 Si / 1000 Ang^3
#
#
#
# Elastic Constant Matrix: (Units=GPa)
#
#
# Indices 1 2 3 4 5 6 
#
# 1 90.8527 48.3380 20.0837 3.2936 -14.3302 0.4692
# 2 48.3380 117.5670 43.6659 5.4284 -3.3202 -2.7235
# 3 20.0837 43.6659 102.7987 7.0974 -5.7360 -0.9113
# 4 3.2936 5.4284 7.0974 51.9761 -0.1697 -3.1862
# 5 -14.3302 -3.3202 -5.7360 -0.1697 38.3372 2.9808
# 6 0.4692 -2.7235 -0.9113 -3.1862 2.9808 32.6223
#
#
#
# Elastic Compliance Matrix: (Units=1/GPa)
#
#
# Indices 1 2 3 4 5 6 
#
# 1 0.015073 -0.006033 -0.000077 -0.000373 0.005194 -0.001234
# 2 -0.006033 0.012542 -0.004224 -0.000286 -0.001893 0.001161
# 3 -0.000077 -0.004224 0.011692 -0.001162 0.001370 -0.000264
# 4 -0.000373 -0.000286 -0.001162 0.019567 -0.000399 0.001897
# 5 0.005194 -0.001893 0.001370 -0.000399 0.028284 -0.002818
# 6 -0.001234 0.001161 -0.000264 0.001897 -0.002818 0.031204
#
#
# Mechanical properties :
#
#
# Convention : Reuss Voigt Hill
#
# Bulk Modulus (GPa) = 53.65760 59.48815 56.57288
# Shear Modulus (GPa) = 34.42487 37.86253 36.14370
#
# Velocity S-wave (km/s) = 3.96688 4.16024 4.06471
# Velocity P-wave (km/s) = 6.74606 7.09011 6.92022
#
# Compressibility (1/GPa) = 0.01863669
#
# Stress axis : x y z
#
# Youngs Moduli (GPa) = 66.34321 79.73214 85.53162
#
# Poissons Ratio (x) = 0.48104 0.00662
# Poissons Ratio (y) = 0.40027 0.36131
# Poissons Ratio (z) = 0.00514 0.33682
#
# Static dielectric constant tensor:
#      x y z
#    x 3.649470 -0.135000 -0.258160 
#    y -0.135000 4.170110 0.045880 
#    z -0.258160 0.045880 3.909640 
# 
# 
# High freq. dielectric constant tensor:
#      x y z
#    x 1.870860 -0.001030 -0.004140 
#    y -0.001030 1.883970 0.000670 
#    z -0.004140 0.000670 1.871660 
# 
# From -- ./inp_files/47290.got.cif
#   From: 2010.06.25/outbox.cif.g09.slc.cpg/sg2_24_cif.got.tgz:47290.got - 2010.06.27 13:26:56.
