data_PCOD8036080
_publ_section_title
;
Structure prediction by ZEFSAII (Michael W. Deem and Ramdas Pophale) SiO2 
 PCOD8036080
Probable space group: P -1
;
_chemical_formula_sum "Si O2"
_cell_formula_units_Z 14
_cell_length_a 5.199416
_cell_length_b 8.564356
_cell_length_c 20.446882
_cell_angle_alpha 133.505134
_cell_angle_beta 83.384270
_cell_angle_gamma 79.134436
_cell_volume 608.988967
_symmetry_space_group_name_H-M "P -1"
_symmetry_group_IT_number 2
_symmetry_cell_setting 'triclinic'
loop_
_space_group_symop_operation_xyz
x,y,z
-x,-y,-z
loop_
_atom_site_type_symbol
_atom_site_label
_atom_site_fract_x
_atom_site_fract_y
_atom_site_fract_z
Si Si1 0.518868 0.698256 0.750239
Si Si2 0.844142 0.847502 0.166793
Si Si3 0.219261 0.032730 0.652098
Si Si4 0.841409 0.596028 0.351625
Si Si5 0.677396 0.145706 0.057552
Si Si6 0.259430 0.604120 0.988238
Si Si7 0.147955 0.253842 0.460715
O O1 0.389294 0.522209 0.671419
O O2 0.396287 0.742507 0.838206
O O3 0.850859 0.598089 0.715238
O O4 0.438735 0.935759 0.779271
O O5 0.863495 0.585766 0.083860
O O6 0.928896 0.870354 0.245876
O O7 0.055662 0.842318 0.099272
O O8 0.540532 0.874166 0.613308
O O9 0.047645 0.891345 0.585306
O O10 0.210416 0.236999 0.661578
O O11 0.813884 0.734908 0.459542
O O12 0.600577 0.352680 0.068653
O O13 0.500000 0.000000 0.000000
O O14 0.000000 0.000000 0.000000
O O15 0.500000 0.500000 0.000000
O O16 0.000000 0.500000 0.500000
#
# Coordination Sequence:
#
# PCOD8036080 Si02
#       7
#     2   2   2   2   2   2   2
#     4  12  25  44  70  99 140 181 234 277 342 409
#     4  11  26  44  66 104 135 188 228 290 342 412
#     4  12  26  45  73 101 142 176 230 280 347 409
#     4  12  26  45  71 103 137 181 230 283 343 409
#     4  12  25  45  67  99 136 183 232 282 343 400
#     4  11  26  43  70  96 143 181 237 284 348 406
#     4  12  25  47  73 104 137 179 224 286 345 410
#
# _framework density 22.988924000000001
#
# number of rings (size 3 to 8) (size 9 to 14) (size 15 to 20)
#    0.000    0.286    1.429    7.286    8.000    0.000 
#    0.000    0.000    0.000    0.000    0.000    0.000 
#    0.000    0.000    0.000    0.000    0.000    0.000 
#
# Total GULP energy -173530.275894 kJ/mol
# GULP energy per Si atom -12395.019707 kJ/mol
# Density = 2.293660 g / cm^3
# Si number density = 22.988924 Si / 1000 Ang^3
#
#
#
# Elastic Constant Matrix: (Units=GPa)
#
#
# Indices 1 2 3 4 5 6 
#
# 1 102.9815 2.4790 18.2934 12.6312 3.1182 -11.5759
# 2 2.4790 132.8087 40.0679 -9.3329 6.8951 -3.8518
# 3 18.2934 40.0679 111.4827 -12.8862 6.6273 -2.1608
# 4 12.6312 -9.3329 -12.8862 47.5269 -3.2308 -4.0027
# 5 3.1182 6.8951 6.6273 -3.2308 32.1139 0.6426
# 6 -11.5759 -3.8518 -2.1608 -4.0027 0.6426 35.6858
#
#
#
# Elastic Compliance Matrix: (Units=1/GPa)
#
#
# Indices 1 2 3 4 5 6 
#
# 1 0.010860 0.000369 -0.002162 -0.003213 -0.001073 0.003091
# 2 0.000369 0.008560 -0.002956 0.000781 -0.001205 0.000974
# 3 -0.002162 -0.002956 0.010780 0.002840 -0.001094 -0.000030
# 4 -0.003213 0.000781 0.002840 0.023093 0.001846 0.001771
# 5 -0.001073 -0.001205 -0.001094 0.001846 0.031932 -0.000912
# 6 0.003091 0.000974 -0.000030 0.001771 -0.000912 0.029343
#
#
# Mechanical properties :
#
#
# Convention : Reuss Voigt Hill
#
# Bulk Modulus (GPa) = 48.30687 52.10593 50.20640
# Shear Modulus (GPa) = 38.17752 42.16084 40.16918
#
# Velocity S-wave (km/s) = 4.07958 4.28713 4.18464
# Velocity P-wave (km/s) = 6.57642 6.87174 6.72570
#
# Compressibility (1/GPa) = 0.02070099
#
# Stress axis : x y z
#
# Youngs Moduli (GPa) = 92.08422 116.81709 92.76317
#
# Poissons Ratio (x) = -0.04313 0.20059
# Poissons Ratio (y) = -0.03400 0.27425
# Poissons Ratio (z) = 0.19912 0.34537
#
# Static dielectric constant tensor:
#      x y z
#    x 4.427450 0.176940 -0.333270 
#    y 0.176940 4.575330 -0.464600 
#    z -0.333270 -0.464600 4.398130 
# 
# 
# High freq. dielectric constant tensor:
#      x y z
#    x 1.912530 -0.003160 -0.001540 
#    y -0.003160 1.930160 -0.009810 
#    z -0.001540 -0.009810 1.923900 
# 
# From -- ./inp_files/37180.got.cif
#   From: 2010.06.25/outbox.cif.g09.slc.cpg/sg2_19_cif.got.tgz:37180.got - 2010.06.27 13:26:56.
