data_PCOD8036299
_publ_section_title
;
Structure prediction by ZEFSAII (Michael W. Deem and Ramdas Pophale) SiO2 
 PCOD8036299
Probable space group: P -1
;
_chemical_formula_sum "Si O2"
_cell_formula_units_Z 16
_cell_length_a 5.281659
_cell_length_b 8.859320
_cell_length_c 13.845207
_cell_angle_alpha 113.968558
_cell_angle_beta 98.936617
_cell_angle_gamma 100.044207
_cell_volume 564.186487
_symmetry_space_group_name_H-M "P -1"
_symmetry_group_IT_number 2
_symmetry_cell_setting 'triclinic'
loop_
_space_group_symop_operation_xyz
x,y,z
-x,-y,-z
loop_
_atom_site_type_symbol
_atom_site_label
_atom_site_fract_x
_atom_site_fract_y
_atom_site_fract_z
Si Si1 0.228531 0.115065 0.807004
Si Si2 0.024410 0.133851 0.129509
Si Si3 0.217675 0.765647 0.035678
Si Si4 0.387293 0.684829 0.753678
Si Si5 0.724198 0.364969 0.477092
Si Si6 0.770924 0.011912 0.420964
Si Si7 0.453573 0.634023 0.331184
Si Si8 0.935889 0.578449 0.158227
O O1 0.503230 0.125534 0.879676
O O2 0.162907 0.969056 0.683772
O O3 0.240365 0.289160 0.791531
O O4 0.003037 0.044203 0.857071
O O5 0.859861 0.245311 0.209559
O O6 0.333249 0.222298 0.157450
O O7 0.897960 0.105683 0.006301
O O8 0.033018 0.669001 0.084632
O O9 0.244498 0.614021 0.922138
O O10 0.436188 0.704760 0.646917
O O11 0.341477 0.478566 0.725279
O O12 0.572494 0.434965 0.574309
O O13 0.000000 0.500000 0.500000
O O14 0.733501 0.195169 0.494310
O O15 0.535223 0.839466 0.378441
O O16 0.000000 0.000000 0.500000
O O17 0.172667 0.570881 0.242632
#
# Coordination Sequence:
#
# PCOD8036299 Si02
#       8
#     2   2   2   2   2   2   2   2
#     4  12  27  46  78 110 159 203 266 326 403 472
#     4  12  29  48  82 111 163 209 264 334 392 476
#     4  11  26  50  73 116 147 214 258 331 396 478
#     4  12  28  51  79 116 157 212 269 323 403 474
#     4  12  27  50  79 115 162 213 270 328 403 479
#     4  12  27  46  75 116 160 205 270 327 405 474
#     4  12  26  48  79 114 157 212 262 333 401 477
#     4  11  26  47  77 113 154 200 265 324 405 474
#
# _framework density 28.359418999999999
#
# number of rings (size 3 to 8) (size 9 to 14) (size 15 to 20)
#    0.000    0.250    3.750    3.750    8.750    0.500 
#    0.000    0.000    0.000    0.000    0.000    0.000 
#    0.000    0.000    0.000    0.000    0.000    0.000 
#
# Total GULP energy -198254.037235 kJ/mol
# GULP energy per Si atom -12390.877327 kJ/mol
# Density = 2.829487 g / cm^3
# Si number density = 28.359419 Si / 1000 Ang^3
#
#
#
# Elastic Constant Matrix: (Units=GPa)
#
#
# Indices 1 2 3 4 5 6 
#
# 1 68.3475 2.2841 11.0321 17.5783 8.8230 -3.3228
# 2 2.2841 124.1940 10.6143 4.2464 -15.3517 17.6481
# 3 11.0321 10.6143 141.2747 -10.4011 18.6303 5.7932
# 4 17.5783 4.2464 -10.4011 44.2738 1.1515 -0.0829
# 5 8.8230 -15.3517 18.6303 1.1515 41.4767 6.8069
# 6 -3.3228 17.6481 5.7932 -0.0829 6.8069 38.9375
#
#
#
# Elastic Compliance Matrix: (Units=1/GPa)
#
#
# Indices 1 2 3 4 5 6 
#
# 1 0.017286 -0.000768 -0.001450 -0.007033 -0.003549 0.002644
# 2 -0.000768 0.009563 -0.001199 -0.001036 0.005110 -0.005117
# 3 -0.001450 -0.001199 0.007980 0.002664 -0.003777 -0.000102
# 4 -0.007033 -0.001036 0.002664 0.026123 -0.000753 -0.000339
# 5 -0.003549 0.005110 -0.003777 -0.000753 0.029662 -0.007244
# 6 0.002644 -0.005117 -0.000102 -0.000339 -0.007244 0.029508
#
#
# Mechanical properties :
#
#
# Convention : Reuss Voigt Hill
#
# Bulk Modulus (GPa) = 35.72092 42.40857 39.06474
# Shear Modulus (GPa) = 36.68686 45.59664 41.14175
#
# Velocity S-wave (km/s) = 3.60062 4.01410 3.81297
# Velocity P-wave (km/s) = 5.46892 6.03908 5.76106
#
# Compressibility (1/GPa) = 0.02799480
#
# Stress axis : x y z
#
# Youngs Moduli (GPa) = 57.84881 104.57335 125.31180
#
# Poissons Ratio (x) = 0.08030 0.18176
# Poissons Ratio (y) = 0.04442 0.15023
# Poissons Ratio (z) = 0.08391 0.12536
#
# Static dielectric constant tensor:
#      x y z
#    x 2.269760 -0.818500 6.274710 
#    y -0.818500 5.553930 0.781330 
#    z 6.274710 0.781330 -13.120370 
# 
# 
# High freq. dielectric constant tensor:
#      x y z
#    x 2.129980 -0.017720 -0.034920 
#    y -0.017720 2.204410 -0.011840 
#    z -0.034920 -0.011840 2.191380 
# 
# From -- ./inp_files/480781.got.cif
#   From: 2010.06.25/outbox.cif.g09.slc.cpg/sg2_241_cif.got.tgz:480781.got - 2010.06.27 13:26:56.
