data_PCOD8036762
_publ_section_title
;
Structure prediction by ZEFSAII (Michael W. Deem and Ramdas Pophale) SiO2 
 PCOD8036762
Probable space group: P -1
;
_chemical_formula_sum "Si O2"
_cell_formula_units_Z 16
_cell_length_a 8.568674
_cell_length_b 8.990557
_cell_length_c 18.812963
_cell_angle_alpha 118.438301
_cell_angle_beta 142.459158
_cell_angle_gamma 79.944522
_cell_volume 718.643574
_symmetry_space_group_name_H-M "P -1"
_symmetry_group_IT_number 2
_symmetry_cell_setting 'triclinic'
loop_
_space_group_symop_operation_xyz
x,y,z
-x,-y,-z
loop_
_atom_site_type_symbol
_atom_site_label
_atom_site_fract_x
_atom_site_fract_y
_atom_site_fract_z
Si Si1 0.419682 0.132664 0.852685
Si Si2 0.872426 0.472714 0.369604
Si Si3 0.329109 0.153252 0.113299
Si Si4 0.798581 0.656806 0.647627
Si Si5 0.026958 0.342486 0.133857
Si Si6 0.197427 0.643277 0.159429
Si Si7 0.057195 0.061709 0.843820
Si Si8 0.801669 0.809021 0.355099
O O1 0.289329 0.100659 0.876301
O O2 0.212006 0.170340 0.730564
O O3 0.496976 0.959776 0.817104
O O4 0.707618 0.307739 0.995514
O O5 0.543094 0.361317 0.226095
O O6 0.928441 0.661195 0.390756
O O7 0.000000 0.500000 0.500000
O O8 0.017772 0.357573 0.354595
O O9 0.098990 0.171391 0.089448
O O10 0.197843 0.060365 0.970404
O O11 0.500000 0.500000 0.500000
O O12 0.934259 0.630250 0.762980
O O13 0.808542 0.864170 0.696396
O O14 0.223885 0.531297 0.212237
O O15 0.495222 0.758911 0.262535
O O16 0.064994 0.783941 0.168371
O O17 0.000000 0.500000 0.000000
O O18 0.000000 0.000000 0.500000
#
# Coordination Sequence:
#
# PCOD8036762 Si02
#       8
#     2   2   2   2   2   2   2   2
#     4  12  25  43  71 108 143 185 242 299 363 423
#     4  12  26  50  74  99 148 191 239 301 363 436
#     4  12  22  46  74 105 141 191 239 299 358 429
#     4  12  29  47  72 108 142 193 246 297 363 433
#     4  12  25  44  75 105 145 189 243 298 360 433
#     4  12  25  48  71 108 147 189 240 300 363 433
#     4  12  26  45  73 109 148 185 244 303 356 434
#     4  12  28  46  73 106 142 192 243 295 371 434
#
# _framework density 22.264167
#
# number of rings (size 3 to 8) (size 9 to 14) (size 15 to 20)
#    0.000    0.000    6.250    3.000    5.250    0.500 
#    0.000    1.250    0.000    0.000    0.000    0.000 
#    0.000    0.000    0.000    0.000    0.000    0.000 
#
# Total GULP energy -198461.425016 kJ/mol
# GULP energy per Si atom -12403.839064 kJ/mol
# Density = 2.221349 g / cm^3
# Si number density = 22.264167 Si / 1000 Ang^3
#
#
#
# Elastic Constant Matrix: (Units=GPa)
#
#
# Indices 1 2 3 4 5 6 
#
# 1 118.2626 24.1038 53.9110 -0.7889 -12.7861 4.9080
# 2 24.1038 130.8337 39.7082 4.8553 -18.9002 -4.4718
# 3 53.9110 39.7082 145.6457 13.1669 -8.3277 4.4951
# 4 -0.7889 4.8553 13.1669 40.7597 11.0367 -3.3306
# 5 -12.7861 -18.9002 -8.3277 11.0367 42.3561 -1.5285
# 6 4.9080 -4.4718 4.4951 -3.3306 -1.5285 39.1012
#
#
#
# Elastic Compliance Matrix: (Units=1/GPa)
#
#
# Indices 1 2 3 4 5 6 
#
# 1 0.010497 -0.000604 -0.003664 0.000872 0.001922 -0.000816
# 2 -0.000604 0.008995 -0.001923 -0.001398 0.003867 0.001358
# 3 -0.003664 -0.001923 0.009084 -0.003016 0.000570 -0.001039
# 4 0.000872 -0.001398 -0.003016 0.028086 -0.008194 0.002149
# 5 0.001922 0.003867 0.000570 -0.008194 0.028182 0.000539
# 6 -0.000816 0.001358 -0.001039 0.002149 0.000539 0.026156
#
#
# Mechanical properties :
#
#
# Convention : Reuss Voigt Hill
#
# Bulk Modulus (GPa) = 61.75806 70.02089 65.88947
# Shear Modulus (GPa) = 38.82573 42.91134 40.86853
#
# Velocity S-wave (km/s) = 4.18049 4.39495 4.28906
# Velocity P-wave (km/s) = 7.14850 7.56785 7.36116
#
# Compressibility (1/GPa) = 0.01619222
#
# Stress axis : x y z
#
# Youngs Moduli (GPa) = 95.26670 111.17103 110.08431
#
# Poissons Ratio (x) = 0.06718 0.40339
# Poissons Ratio (y) = 0.05757 0.21171
# Poissons Ratio (z) = 0.34910 0.21380
#
# Static dielectric constant tensor:
#      x y z
#    x 4.115500 0.193020 0.241260 
#    y 0.193020 4.070690 0.194910 
#    z 0.241260 0.194910 4.107170 
# 
# 
# High freq. dielectric constant tensor:
#      x y z
#    x 1.888190 0.012360 0.001360 
#    y 0.012360 1.889710 0.012620 
#    z 0.001360 0.012620 1.875040 
# 
# From -- ./inp_files/402640.got.cif
#   From: 2010.06.25/outbox.cif.g09.slc.cpg/sg2_202_cif.got.tgz:402640.got - 2010.06.27 13:26:56.
