data_PCOD8036038
_publ_section_title
;
Structure prediction by ZEFSAII (Michael W. Deem and Ramdas Pophale) SiO2 
 PCOD8036038
Probable space group: P -1
;
_chemical_formula_sum "Si O2"
_cell_formula_units_Z 10
_cell_length_a 5.512475
_cell_length_b 14.450360
_cell_length_c 17.869040
_cell_angle_alpha 21.055302
_cell_angle_beta 51.125290
_cell_angle_gamma 49.729878
_cell_volume 388.641083
_symmetry_space_group_name_H-M "P -1"
_symmetry_group_IT_number 2
_symmetry_cell_setting 'triclinic'
loop_
_space_group_symop_operation_xyz
x,y,z
-x,-y,-z
loop_
_atom_site_type_symbol
_atom_site_label
_atom_site_fract_x
_atom_site_fract_y
_atom_site_fract_z
Si Si1 0.232346 0.103708 0.205369
Si Si2 0.193196 0.378389 0.154866
Si Si3 0.914251 0.079774 0.040263
Si Si4 0.680140 0.401297 0.617759
Si Si5 0.045906 0.618662 0.643455
O O1 0.228378 0.143417 0.266095
O O2 0.589681 0.990291 0.192849
O O3 0.018689 0.883493 0.397214
O O4 0.105916 0.381501 0.981826
O O5 0.120743 0.269518 0.331318
O O6 0.500000 0.500000 0.000000
O O7 0.198711 0.920215 0.160035
O O8 0.867461 0.396133 0.816427
O O9 0.000000 0.000000 0.000000
O O10 0.500000 0.500000 0.500000
O O11 0.426809 0.489221 0.668266
O O12 0.000000 0.500000 0.500000
#
# Coordination Sequence:
#
# PCOD8036038 Si02
#       5
#     2   2   2   2   2
#     4  11  26  49  76 107 153 198 261 322 390 471
#     4  11  25  50  73 111 148 197 263 322 386 469
#     4  12  26  50  77 117 157 206 265 323 396 481
#     4  12  27  48  78 117 159 207 261 328 400 479
#     4  12  26  46  81 106 152 207 253 324 395 463
#
# _framework density 25.730682000000002
#
# number of rings (size 3 to 8) (size 9 to 14) (size 15 to 20)
#    0.000    0.400    4.000    3.600    2.800    0.800 
#    7.200    0.000    0.000    0.000    0.000    0.000 
#    0.000    0.000    0.000    0.000    0.000    0.000 
#
# Total GULP energy -123914.514724 kJ/mol
# GULP energy per Si atom -12391.451472 kJ/mol
# Density = 2.567212 g / cm^3
# Si number density = 25.730682 Si / 1000 Ang^3
#
#
#
# Elastic Constant Matrix: (Units=GPa)
#
#
# Indices 1 2 3 4 5 6 
#
# 1 101.0803 24.9905 32.7773 12.9566 2.4835 -3.9988
# 2 24.9905 143.5086 36.8764 26.0081 12.1617 -9.5683
# 3 32.7773 36.8764 138.8528 12.2383 -16.8460 11.7802
# 4 12.9566 26.0081 12.2383 45.5706 -5.4833 -12.8413
# 5 2.4835 12.1617 -16.8460 -5.4833 43.8826 1.6169
# 6 -3.9988 -9.5683 11.7802 -12.8413 1.6169 35.4214
#
#
#
# Elastic Compliance Matrix: (Units=1/GPa)
#
#
# Indices 1 2 3 4 5 6 
#
# 1 0.011261 -0.000699 -0.002627 -0.001930 -0.001742 0.001336
# 2 -0.000699 0.008949 -0.002478 -0.004210 -0.003985 0.001818
# 3 -0.002627 -0.002478 0.009541 -0.001204 0.004524 -0.004782
# 4 -0.001930 -0.004210 -0.001204 0.028269 0.004010 0.009110
# 5 -0.001742 -0.003985 0.004524 0.004010 0.026322 -0.002525
# 6 0.001336 0.001818 -0.004782 0.009110 -0.002525 0.033882
#
#
# Mechanical properties :
#
#
# Convention : Reuss Voigt Hill
#
# Bulk Modulus (GPa) = 55.12273 63.63669 59.37971
# Shear Modulus (GPa) = 36.79736 44.22808 40.51272
#
# Velocity S-wave (km/s) = 3.78576 4.15044 3.97229
# Velocity P-wave (km/s) = 6.37015 6.91041 6.64577
#
# Compressibility (1/GPa) = 0.01814134
#
# Stress axis : x y z
#
# Youngs Moduli (GPa) = 88.80204 111.74813 104.81244
#
# Poissons Ratio (x) = 0.07815 0.27535
# Poissons Ratio (y) = 0.06211 0.25974
# Poissons Ratio (z) = 0.23329 0.27693
#
# Static dielectric constant tensor:
#      x y z
#    x 4.461850 -0.172880 0.158030 
#    y -0.172880 5.255880 -0.475600 
#    z 0.158030 -0.475600 5.922700 
# 
# 
# High freq. dielectric constant tensor:
#      x y z
#    x 1.994260 -0.009900 -0.014710 
#    y -0.009900 2.056500 0.001450 
#    z -0.014710 0.001450 2.049040 
# 
# From -- ./inp_files/2231.got.cif
#   From: 2010.06.25/outbox.cif.g09.slc.cpg/sg2_2_cif.got.tgz:2231.got - 2010.06.27 13:26:56.
