data_PCOD8036627
_publ_section_title
;
Structure prediction by ZEFSAII (Michael W. Deem and Ramdas Pophale) SiO2 
 PCOD8036627
Probable space group: P -1
;
_chemical_formula_sum "Si O2"
_cell_formula_units_Z 16
_cell_length_a 9.726474
_cell_length_b 12.282229
_cell_length_c 8.966535
_cell_angle_alpha 56.559279
_cell_angle_beta 54.460531
_cell_angle_gamma 68.959114
_cell_volume 726.149994
_symmetry_space_group_name_H-M "P -1"
_symmetry_group_IT_number 2
_symmetry_cell_setting 'triclinic'
loop_
_space_group_symop_operation_xyz
x,y,z
-x,-y,-z
loop_
_atom_site_type_symbol
_atom_site_label
_atom_site_fract_x
_atom_site_fract_y
_atom_site_fract_z
Si Si1 0.304253 0.236315 0.169937
Si Si2 0.879426 0.587770 0.407896
Si Si3 0.684465 0.980306 0.468165
Si Si4 0.876612 0.881126 0.152666
Si Si5 0.581068 0.869920 0.121042
Si Si6 0.965580 0.407294 0.226179
Si Si7 0.689312 0.240627 0.398678
Si Si8 0.459318 0.379440 0.215790
O O1 0.285964 0.084530 0.337465
O O2 0.441003 0.268250 0.186689
O O3 0.140771 0.334806 0.225719
O O4 0.370509 0.238410 0.956079
O O5 0.953767 0.729965 0.213024
O O6 0.866794 0.502353 0.332332
O O7 0.699189 0.601595 0.589230
O O8 0.000000 0.500000 0.500000
O O9 0.781298 0.883695 0.366840
O O10 0.500000 0.000000 0.500000
O O11 0.759704 0.121472 0.338676
O O12 0.751150 0.906610 0.072531
O O13 0.000000 0.000000 0.000000
O O14 0.455040 0.806152 0.363647
O O15 0.500000 0.000000 0.000000
O O16 0.844774 0.292025 0.351518
O O17 0.000000 0.500000 0.000000
O O18 0.616821 0.350892 0.247750
O O19 0.500000 0.500000 0.000000
#
# Coordination Sequence:
#
# PCOD8036627 Si02
#       8
#     2   2   2   2   2   2   2   2
#     4  12  24  47  69 103 151 185 243 299 361 438
#     4  12  25  51  72 104 152 191 251 301 363 443
#     4  12  21  47  73 102 144 185 238 300 362 434
#     4  12  27  46  75 106 146 193 239 302 369 437
#     4  12  25  46  71 112 146 188 241 302 367 436
#     4  12  29  47  70 105 149 196 240 300 364 430
#     4  12  27  47  74 106 147 191 241 304 366 431
#     4  12  26  47  75 103 138 200 247 298 365 435
#
# _framework density 22.034016000000001
#
# number of rings (size 3 to 8) (size 9 to 14) (size 15 to 20)
#    0.000    0.000    7.500    1.500    5.250    3.000 
#    0.000    0.000    0.000    0.000    0.000    0.000 
#    0.000    0.000    0.000    0.000    0.000    0.000 
#
# Total GULP energy -198281.066909 kJ/mol
# GULP energy per Si atom -12392.566682 kJ/mol
# Density = 2.198387 g / cm^3
# Si number density = 22.034016 Si / 1000 Ang^3
#
#
#
# Elastic Constant Matrix: (Units=GPa)
#
#
# Indices 1 2 3 4 5 6 
#
# 1 96.4127 36.6776 32.4403 -12.9338 14.1955 7.4730
# 2 36.6776 135.9422 34.2652 -4.6878 9.1134 12.7798
# 3 32.4403 34.2652 92.0705 -14.7523 19.9250 2.1639
# 4 -12.9338 -4.6878 -14.7523 51.6029 2.2247 16.2693
# 5 14.1955 9.1134 19.9250 2.2247 35.6880 -7.4834
# 6 7.4730 12.7798 2.1639 16.2693 -7.4834 44.1043
#
#
#
# Elastic Compliance Matrix: (Units=1/GPa)
#
#
# Indices 1 2 3 4 5 6 
#
# 1 0.013468 -0.002289 -0.002187 0.003917 -0.004578 -0.003733
# 2 -0.002289 0.008802 -0.002236 0.000328 -0.000586 -0.002273
# 3 -0.002187 -0.002236 0.014979 0.004747 -0.007803 -0.002792
# 4 0.003917 0.000328 0.004747 0.025883 -0.008415 -0.011968
# 5 -0.004578 -0.000586 -0.007803 -0.008415 0.037123 0.010731
# 6 -0.003733 -0.002273 -0.002792 -0.011968 0.010731 0.030337
#
#
# Mechanical properties :
#
#
# Convention : Reuss Voigt Hill
#
# Bulk Modulus (GPa) = 41.97637 59.02127 50.49882
# Shear Modulus (GPa) = 32.90372 41.01519 36.95945
#
# Velocity S-wave (km/s) = 3.86854 4.31913 4.10003
# Velocity P-wave (km/s) = 6.24869 7.19151 6.73661
#
# Compressibility (1/GPa) = 0.02382293
#
# Stress axis : x y z
#
# Youngs Moduli (GPa) = 74.25126 113.61418 66.75965
#
# Poissons Ratio (x) = 0.26012 0.14601
# Poissons Ratio (y) = 0.17000 0.14929
# Poissons Ratio (z) = 0.16240 0.25407
#
# Static dielectric constant tensor:
#      x y z
#    x 3.898290 0.533110 0.183170 
#    y 0.533110 2.186440 0.741790 
#    z 0.183170 0.741790 3.202750 
# 
# 
# High freq. dielectric constant tensor:
#      x y z
#    x 1.865000 0.003110 0.023790 
#    y 0.003110 1.890960 -0.002090 
#    z 0.023790 -0.002090 1.873600 
# 
# From -- ./inp_files/184818.got.cif
#   From: 2010.06.25/outbox.cif.g09.slc.cpg/sg2_93_cif.got.tgz:184818.got - 2010.06.27 13:26:56.
