data_PCOD8036136
_publ_section_title
;
Structure prediction by ZEFSAII (Michael W. Deem and Ramdas Pophale) SiO2 
 PCOD8036136
Probable space group: P -1
;
_chemical_formula_sum "Si O2"
_cell_formula_units_Z 14
_cell_length_a 19.560688
_cell_length_b 14.030027
_cell_length_c 8.189462
_cell_angle_alpha 54.332380
_cell_angle_beta 33.842750
_cell_angle_gamma 32.316292
_cell_volume 613.511588
_symmetry_space_group_name_H-M "P -1"
_symmetry_group_IT_number 2
_symmetry_cell_setting 'triclinic'
loop_
_space_group_symop_operation_xyz
x,y,z
-x,-y,-z
loop_
_atom_site_type_symbol
_atom_site_label
_atom_site_fract_x
_atom_site_fract_y
_atom_site_fract_z
Si Si1 0.697405 0.884276 0.829023
Si Si2 0.809715 0.209741 0.749311
Si Si3 0.482395 0.735595 0.190160
Si Si4 0.881418 0.420587 0.880208
Si Si5 0.179513 0.390680 0.877109
Si Si6 0.419689 0.394220 0.234257
Si Si7 0.809826 0.218887 0.115100
O O1 0.908555 0.702712 0.497950
O O2 0.677438 0.038197 0.751871
O O3 0.720639 0.797206 0.041377
O O4 0.500000 0.000000 0.000000
O O5 0.747910 0.378278 0.612004
O O6 0.625772 0.258476 0.058996
O O7 0.839413 0.223709 0.862293
O O8 0.000000 0.000000 0.500000
O O9 0.391767 0.701833 0.518821
O O10 0.688130 0.633094 0.966015
O O11 0.539679 0.628580 0.016074
O O12 0.899903 0.450885 0.997606
O O13 0.824705 0.327033 0.080473
O O14 0.353116 0.315313 0.495950
O O15 0.000000 0.500000 0.000000
O O16 0.000000 0.000000 0.000000
#
# Coordination Sequence:
#
# PCOD8036136 Si02
#       7
#     2   2   2   2   2   2   2
#     4  12  28  50  76 106 146 201 261 303 361 451
#     4  11  26  45  71 109 152 186 239 307 374 438
#     4  12  25  48  78 108 148 197 249 309 374 450
#     4  12  26  49  77 103 151 195 254 305 370 449
#     4  12  29  49  76 108 151 202 248 311 375 433
#     4  11  27  46  71 106 149 192 240 305 374 429
#     4  12  25  45  78 111 144 198 248 302 378 449
#
# _framework density 22.819455000000001
#
# number of rings (size 3 to 8) (size 9 to 14) (size 15 to 20)
#    0.000    0.286    4.286    3.429    8.000    0.571 
#    0.000    0.000    0.000    0.000    0.000    0.000 
#    0.000    0.000    0.000    0.000    0.000    0.000 
#
# Total GULP energy -173588.760023 kJ/mol
# GULP energy per Si atom -12399.197144 kJ/mol
# Density = 2.276752 g / cm^3
# Si number density = 22.819455 Si / 1000 Ang^3
#
#
#
# Elastic Constant Matrix: (Units=GPa)
#
#
# Indices 1 2 3 4 5 6 
#
# 1 138.0627 48.0699 24.7464 4.2562 -9.0271 -3.0672
# 2 48.0699 149.8146 54.7326 4.1789 -1.1376 -3.3555
# 3 24.7464 54.7326 114.1056 -3.0582 -9.4279 -2.6448
# 4 4.2562 4.1789 -3.0582 41.2646 0.7963 -0.9663
# 5 -9.0271 -1.1376 -9.4279 0.7963 39.7112 10.0686
# 6 -3.0672 -3.3555 -2.6448 -0.9663 10.0686 38.5932
#
#
#
# Elastic Compliance Matrix: (Units=1/GPa)
#
#
# Indices 1 2 3 4 5 6 
#
# 1 0.008321 -0.002455 -0.000504 -0.000682 0.001729 -0.000055
# 2 -0.002455 0.008902 -0.003859 -0.000893 -0.001366 0.000648
# 3 -0.000504 -0.003859 0.010950 0.001203 0.002407 -0.000223
# 4 -0.000682 -0.000893 0.001203 0.024511 -0.000567 0.000712
# 5 0.001729 -0.001366 0.002407 -0.000567 0.027923 -0.007115
# 6 -0.000055 0.000648 -0.000223 0.000712 -0.007115 0.027822
#
#
# Mechanical properties :
#
#
# Convention : Reuss Voigt Hill
#
# Bulk Modulus (GPa) = 68.78962 73.00899 70.89930
# Shear Modulus (GPa) = 39.39801 42.20939 40.80370
#
# Velocity S-wave (km/s) = 4.15964 4.30549 4.23319
# Velocity P-wave (km/s) = 7.29936 7.53525 7.41824
#
# Compressibility (1/GPa) = 0.01453708
#
# Stress axis : x y z
#
# Youngs Moduli (GPa) = 120.17823 112.34013 91.32361
#
# Poissons Ratio (x) = 0.27579 0.04600
# Poissons Ratio (y) = 0.29503 0.35243
# Poissons Ratio (z) = 0.06053 0.43353
#
# Static dielectric constant tensor:
#      x y z
#    x 4.110950 -0.020380 -0.084050 
#    y -0.020380 4.764950 -0.279250 
#    z -0.084050 -0.279250 4.460950 
# 
# 
# High freq. dielectric constant tensor:
#      x y z
#    x 1.907880 0.002820 -0.010390 
#    y 0.002820 1.916870 0.003390 
#    z -0.010390 0.003390 1.905470 
# 
# From -- ./inp_files/347486.got.cif
#   From: 2010.06.25/outbox.cif.g09.slc.cpg/sg2_174_cif.got.tgz:347486.got - 2010.06.27 13:26:56.
