data_PCOD8036405
_publ_section_title
;
Structure prediction by ZEFSAII (Michael W. Deem and Ramdas Pophale) SiO2 
 PCOD8036405
Probable space group: P -1
;
_chemical_formula_sum "Si O2"
_cell_formula_units_Z 12
_cell_length_a 5.454911
_cell_length_b 11.599871
_cell_length_c 13.350806
_cell_angle_alpha 41.052393
_cell_angle_beta 105.320596
_cell_angle_gamma 83.068616
_cell_volume 461.823770
_symmetry_space_group_name_H-M "P -1"
_symmetry_group_IT_number 2
_symmetry_cell_setting 'triclinic'
loop_
_space_group_symop_operation_xyz
x,y,z
-x,-y,-z
loop_
_atom_site_type_symbol
_atom_site_label
_atom_site_fract_x
_atom_site_fract_y
_atom_site_fract_z
Si Si1 0.501554 0.352071 0.884904
Si Si2 0.988838 0.062494 0.742857
Si Si3 0.692138 0.610255 0.951505
Si Si4 0.067763 0.352839 0.695340
Si Si5 0.393703 0.340080 0.406233
Si Si6 0.784998 0.963723 0.431205
O O1 0.278085 0.371072 0.937577
O O2 0.388985 0.289241 0.815418
O O3 0.481180 0.570429 0.723672
O O4 0.841039 0.181045 0.060314
O O5 0.066393 0.154643 0.786502
O O6 0.637646 0.170081 0.619724
O O7 0.098521 0.107525 0.621557
O O8 0.500000 0.500000 0.000000
O O9 0.525558 0.830110 0.738256
O O10 0.000000 0.500000 0.000000
O O11 0.000000 0.500000 0.500000
O O12 0.824267 0.465086 0.680362
O O13 0.251431 0.223201 0.409107
O O14 0.000000 0.000000 0.500000
#
# Coordination Sequence:
#
# PCOD8036405 Si02
#       6
#     2   2   2   2   2   2
#     4  11  28  48  80 118 157 207 266 329 401 477
#     4  11  26  50  73 117 155 210 263 323 404 480
#     4  11  30  53  81 115 162 212 274 332 407 486
#     4  12  24  47  79 113 163 204 262 328 399 481
#     4  12  26  48  79 113 160 204 272 324 407 470
#     4  11  28  50  78 111 161 210 267 337 406 478
#
# _framework density 25.983941000000002
#
# number of rings (size 3 to 8) (size 9 to 14) (size 15 to 20)
#    0.000    0.667    3.333    1.000   11.667    2.667 
#    0.000    1.667    0.000    0.000    0.000    0.000 
#    0.000    0.000    0.000    0.000    0.000    0.000 
#
# Total GULP energy -148790.977614 kJ/mol
# GULP energy per Si atom -12399.248134 kJ/mol
# Density = 2.592480 g / cm^3
# Si number density = 25.983941 Si / 1000 Ang^3
#
#
#
# Elastic Constant Matrix: (Units=GPa)
#
#
# Indices 1 2 3 4 5 6 
#
# 1 135.9409 67.5374 53.6604 -1.8123 0.5589 17.8023
# 2 67.5374 147.4289 56.3681 -8.1994 -0.1812 13.6317
# 3 53.6604 56.3681 148.3805 -2.8925 5.8123 2.8901
# 4 -1.8123 -8.1994 -2.8925 39.5831 1.4444 2.8019
# 5 0.5589 -0.1812 5.8123 1.4444 38.7338 -5.5369
# 6 17.8023 13.6317 2.8901 2.8019 -5.5369 48.1892
#
#
#
# Elastic Compliance Matrix: (Units=1/GPa)
#
#
# Indices 1 2 3 4 5 6 
#
# 1 0.010444 -0.003658 -0.002332 -0.000252 -0.000193 -0.002691
# 2 -0.003658 0.009534 -0.002247 0.001728 0.000186 -0.001290
# 3 -0.002332 -0.002247 0.008464 0.000027 -0.001125 0.000859
# 4 -0.000252 0.001728 0.000027 0.025801 -0.001246 -0.002040
# 5 -0.000193 0.000186 -0.001125 -0.001246 0.026494 0.003203
# 6 -0.002691 -0.001290 0.000859 -0.002040 0.003203 0.022546
#
#
# Mechanical properties :
#
#
# Convention : Reuss Voigt Hill
#
# Bulk Modulus (GPa) = 83.56500 87.43134 85.49817
# Shear Modulus (GPa) = 40.40493 42.24683 41.32588
#
# Velocity S-wave (km/s) = 3.94762 4.03660 3.99236
# Velocity P-wave (km/s) = 7.28068 7.44626 7.36394
#
# Compressibility (1/GPa) = 0.01196673
#
# Stress axis : x y z
#
# Youngs Moduli (GPa) = 95.74856 104.89320 118.14160
#
# Poissons Ratio (x) = 0.38372 0.27553
# Poissons Ratio (y) = 0.35026 0.26549
# Poissons Ratio (z) = 0.22331 0.23572
#
# Static dielectric constant tensor:
#      x y z
#    x 5.001480 0.275460 -0.007940 
#    y 0.275460 6.027230 0.142770 
#    z -0.007940 0.142770 5.107200 
# 
# 
# High freq. dielectric constant tensor:
#      x y z
#    x 2.029190 0.002940 0.009150 
#    y 0.002940 2.052770 -0.000510 
#    z 0.009150 -0.000510 2.055300 
# 
# From -- ./inp_files/25704.got.cif
#   From: 2010.06.25/outbox.cif.g09.slc.cpg/sg2_13_cif.got.tgz:25704.got - 2010.06.27 13:26:56.
