data_PCOD8036266
_publ_section_title
;
Structure prediction by ZEFSAII (Michael W. Deem and Ramdas Pophale) SiO2 
 PCOD8036266
Probable space group: P -1
;
_chemical_formula_sum "Si O2"
_cell_formula_units_Z 14
_cell_length_a 11.355628
_cell_length_b 20.038758
_cell_length_c 8.973761
_cell_angle_alpha 138.712605
_cell_angle_beta 115.437453
_cell_angle_gamma 33.529990
_cell_volume 626.379669
_symmetry_space_group_name_H-M "P -1"
_symmetry_group_IT_number 2
_symmetry_cell_setting 'triclinic'
loop_
_space_group_symop_operation_xyz
x,y,z
-x,-y,-z
loop_
_atom_site_type_symbol
_atom_site_label
_atom_site_fract_x
_atom_site_fract_y
_atom_site_fract_z
Si Si1 0.622352 0.201677 0.780129
Si Si2 0.510275 0.931892 0.542090
Si Si3 0.923055 0.121688 0.299370
Si Si4 0.973914 0.610992 0.465644
Si Si5 0.503852 0.386017 0.742084
Si Si6 0.312557 0.544444 0.397553
Si Si7 0.951500 0.660608 0.873923
O O1 0.474115 0.195837 0.704054
O O2 0.656044 0.209830 0.639878
O O3 0.454235 0.399911 0.094914
O O4 0.891549 0.013881 0.689571
O O5 0.757791 0.792214 0.539188
O O6 0.500000 0.000000 0.500000
O O7 0.256398 0.123914 0.817456
O O8 0.642318 0.286641 0.489728
O O9 0.926032 0.234308 0.427211
O O10 0.000000 0.000000 0.000000
O O11 0.048946 0.442981 0.203166
O O12 0.216873 0.521610 0.420454
O O13 0.874481 0.688797 0.709782
O O14 0.220010 0.536497 0.819647
O O15 0.500000 0.500000 0.000000
O O16 0.500000 0.500000 0.500000
#
# Coordination Sequence:
#
# PCOD8036266 Si02
#       7
#     2   2   2   2   2   2   2
#     4  12  26  44  73 107 145 189 245 299 372 424
#     4  12  26  46  73 109 145 189 246 302 363 438
#     4  12  26  45  71 108 145 192 242 298 367 438
#     4  11  26  47  74 100 147 196 240 298 368 441
#     4  12  25  47  75 104 150 191 240 309 366 427
#     4  12  25  47  73 109 144 188 240 305 368 437
#     4  11  26  49  72 106 145 195 247 294 369 439
#
# _framework density 22.350660999999999
#
# number of rings (size 3 to 8) (size 9 to 14) (size 15 to 20)
#    0.000    0.286    4.286    4.286    2.000    2.286 
#    2.571    0.000    0.000    0.000    0.000    0.000 
#    0.000    0.000    0.000    0.000    0.000    0.000 
#
# Total GULP energy -173640.809407 kJ/mol
# GULP energy per Si atom -12402.914958 kJ/mol
# Density = 2.229979 g / cm^3
# Si number density = 22.350661 Si / 1000 Ang^3
#
#
#
# Elastic Constant Matrix: (Units=GPa)
#
#
# Indices 1 2 3 4 5 6 
#
# 1 145.8689 40.1603 42.1731 -5.2695 12.0071 -2.7505
# 2 40.1603 135.3469 21.5376 1.9256 9.2725 3.6505
# 3 42.1731 21.5376 123.4080 -2.6260 8.7505 -6.4274
# 4 -5.2695 1.9256 -2.6260 30.7870 2.6985 1.6177
# 5 12.0071 9.2725 8.7505 2.6985 38.8550 0.4866
# 6 -2.7505 3.6505 -6.4274 1.6177 0.4866 44.8702
#
#
#
# Elastic Compliance Matrix: (Units=1/GPa)
#
#
# Indices 1 2 3 4 5 6 
#
# 1 0.008271 -0.002001 -0.002312 0.001473 -0.001664 0.000304
# 2 -0.002001 0.008209 -0.000731 -0.000776 -0.001111 -0.000855
# 3 -0.002312 -0.000731 0.009182 0.000476 -0.001227 0.001229
# 4 0.001473 -0.000776 0.000476 0.033106 -0.002665 -0.000943
# 5 -0.001664 -0.001111 -0.001227 -0.002665 0.026982 -0.000384
# 6 0.000304 -0.000855 0.001229 -0.000943 -0.000384 0.022589
#
#
# Mechanical properties :
#
#
# Convention : Reuss Voigt Hill
#
# Bulk Modulus (GPa) = 64.21368 68.04063 66.12716
# Shear Modulus (GPa) = 40.44705 42.95263 41.69984
#
# Velocity S-wave (km/s) = 4.25862 4.38855 4.32407
# Velocity P-wave (km/s) = 7.27830 7.49583 7.38787
#
# Compressibility (1/GPa) = 0.01557301
#
# Stress axis : x y z
#
# Youngs Moduli (GPa) = 120.90678 121.82002 108.90800
#
# Poissons Ratio (x) = 0.24381 0.25180
# Poissons Ratio (y) = 0.24198 0.07961
# Poissons Ratio (z) = 0.27954 0.08904
#
# Static dielectric constant tensor:
#      x y z
#    x 4.252260 0.221490 0.215040 
#    y 0.221490 4.172050 0.060290 
#    z 0.215040 0.060290 4.146910 
# 
# 
# High freq. dielectric constant tensor:
#      x y z
#    x 1.891800 0.012510 0.007030 
#    y 0.012510 1.895290 -0.001020 
#    z 0.007030 -0.001020 1.883990 
# 
# From -- ./inp_files/283404.got.cif
#   From: 2010.06.25/outbox.cif.g09.slc.cpg/sg2_142_cif.got.tgz:283404.got - 2010.06.27 13:26:56.
