data_PCOD8036192
_publ_section_title
;
Structure prediction by ZEFSAII (Michael W. Deem and Ramdas Pophale) SiO2 
 PCOD8036192
Probable space group: P -1
;
_chemical_formula_sum "Si O2"
_cell_formula_units_Z 16
_cell_length_a 16.754204
_cell_length_b 12.170093
_cell_length_c 5.043715
_cell_angle_alpha 105.948178
_cell_angle_beta 91.277245
_cell_angle_gamma 41.861080
_cell_volume 632.666176
_symmetry_space_group_name_H-M "P -1"
_symmetry_group_IT_number 2
_symmetry_cell_setting 'triclinic'
loop_
_space_group_symop_operation_xyz
x,y,z
-x,-y,-z
loop_
_atom_site_type_symbol
_atom_site_label
_atom_site_fract_x
_atom_site_fract_y
_atom_site_fract_z
Si Si1 0.026033 0.299315 0.683179
Si Si2 0.187157 0.545506 0.577034
Si Si3 0.202655 0.904187 0.545022
Si Si4 0.525096 0.354361 0.763859
Si Si5 0.858353 0.167408 0.017922
Si Si6 0.559203 0.993921 0.248568
Si Si7 0.820306 0.656480 0.237535
Si Si8 0.434885 0.345490 0.270340
O O1 0.119412 0.297274 0.588187
O O2 0.952408 0.319871 0.453104
O O3 0.101858 0.115779 0.712943
O O4 0.927456 0.465108 0.979583
O O5 0.181457 0.655287 0.861667
O O6 0.237159 0.369207 0.574034
O O7 0.291468 0.461925 0.308315
O O8 0.330136 0.821760 0.406824
O O9 0.221218 0.821023 0.772515
O O10 0.161350 0.853788 0.295969
O O11 0.443386 0.443077 0.542662
O O12 0.500000 0.500000 0.000000
O O13 0.484037 0.305818 0.949397
O O14 0.000000 0.000000 0.000000
O O15 0.709756 0.817342 0.140904
O O16 0.500000 0.000000 0.500000
O O17 0.524416 0.164541 0.331781
O O18 0.500000 0.000000 0.000000
#
# Coordination Sequence:
#
# PCOD8036192 Si02
#       8
#     2   2   2   2   2   2   2   2
#     4  11  26  46  72 105 149 196 244 298 376 438
#     4  12  25  44  74 105 150 184 251 303 368 443
#     4  12  26  49  74 107 151 192 245 306 367 445
#     4  12  26  49  73 108 147 191 246 299 372 438
#     4  12  25  44  75 111 145 192 241 301 367 434
#     4  12  25  48  74 107 145 186 249 306 365 433
#     4  11  26  47  72 107 147 197 242 306 368 447
#     4  12  26  45  76 106 141 194 241 307 367 428
#
# _framework density 25.289797
#
# number of rings (size 3 to 8) (size 9 to 14) (size 15 to 20)
#    0.000    0.250    2.500    6.375    3.500    0.000 
#    2.250    0.000    0.000    0.000    0.000    0.000 
#    0.000    0.000    0.000    0.000    0.000    0.000 
#
# Total GULP energy -198387.072737 kJ/mol
# GULP energy per Si atom -12399.192046 kJ/mol
# Density = 2.523224 g / cm^3
# Si number density = 25.289797 Si / 1000 Ang^3
#
#
#
# Elastic Constant Matrix: (Units=GPa)
#
#
# Indices 1 2 3 4 5 6 
#
# 1 136.2383 36.1504 27.8434 13.5140 -3.4808 -11.1865
# 2 36.1504 105.1838 3.6802 23.1917 -3.6736 -7.9241
# 3 27.8434 3.6802 87.1537 1.2143 -5.8166 -5.7679
# 4 13.5140 23.1917 1.2143 35.6690 3.3585 1.0823
# 5 -3.4808 -3.6736 -5.8166 3.3585 41.7678 3.0582
# 6 -11.1865 -7.9241 -5.7679 1.0823 3.0582 49.7067
#
#
#
# Elastic Compliance Matrix: (Units=1/GPa)
#
#
# Indices 1 2 3 4 5 6 
#
# 1 0.008801 -0.002451 -0.002584 -0.001712 0.000199 0.001315
# 2 -0.002451 0.012059 0.000566 -0.007109 0.001397 0.001505
# 3 -0.002584 0.000566 0.012432 0.000021 0.001501 0.000858
# 4 -0.001712 -0.007109 0.000021 0.033680 -0.003323 -0.002045
# 5 0.000199 0.001397 0.001501 -0.003323 0.024631 -0.001001
# 6 0.001315 0.001505 0.000858 -0.002045 -0.001001 0.020860
#
#
# Mechanical properties :
#
#
# Convention : Reuss Voigt Hill
#
# Bulk Modulus (GPa) = 41.06078 51.54708 46.30393
# Shear Modulus (GPa) = 38.60368 42.82215 40.71292
#
# Velocity S-wave (km/s) = 3.91122 4.11939 4.01665
# Velocity P-wave (km/s) = 6.05543 6.56145 6.31351
#
# Compressibility (1/GPa) = 0.02435414
#
# Stress axis : x y z
#
# Youngs Moduli (GPa) = 113.61735 82.92327 80.43509
#
# Poissons Ratio (x) = 0.20325 0.20786
# Poissons Ratio (y) = 0.27849 -0.04550
# Poissons Ratio (z) = 0.29360 -0.04691
#
# Static dielectric constant tensor:
#      x y z
#    x 3.400520 -1.253210 -0.282140 
#    y -1.253210 3.658410 -0.018570 
#    z -0.282140 -0.018570 5.799950 
# 
# 
# High freq. dielectric constant tensor:
#      x y z
#    x 2.030970 -0.000800 0.002760 
#    y -0.000800 2.017600 0.012720 
#    z 0.002760 0.012720 2.001970 
# 
# From -- ./inp_files/95317.got.cif
#   From: 2010.06.25/outbox.cif.g09.slc.cpg/sg2_48_cif.got.tgz:95317.got - 2010.06.27 13:26:56.
