data_PCOD8036207
_publ_section_title
;
Structure prediction by ZEFSAII (Michael W. Deem and Ramdas Pophale) SiO2 
 PCOD8036207
Probable space group: P -1
;
_chemical_formula_sum "Si O2"
_cell_formula_units_Z 16
_cell_length_a 9.048640
_cell_length_b 17.733336
_cell_length_c 11.721314
_cell_angle_alpha 137.933013
_cell_angle_beta 127.700934
_cell_angle_gamma 84.475737
_cell_volume 735.830419
_symmetry_space_group_name_H-M "P -1"
_symmetry_group_IT_number 2
_symmetry_cell_setting 'triclinic'
loop_
_space_group_symop_operation_xyz
x,y,z
-x,-y,-z
loop_
_atom_site_type_symbol
_atom_site_label
_atom_site_fract_x
_atom_site_fract_y
_atom_site_fract_z
Si Si1 0.517768 0.639160 0.664960
Si Si2 0.517171 0.060002 0.195615
Si Si3 0.706414 0.399831 0.240680
Si Si4 0.884976 0.394116 0.714094
Si Si5 0.891910 0.084795 0.792936
Si Si6 0.546311 0.094694 0.783551
Si Si7 0.004215 0.072417 0.196701
Si Si8 0.237927 0.414322 0.722227
O O1 0.500000 0.500000 0.500000
O O2 0.430803 0.645662 0.754480
O O3 0.333178 0.616378 0.455734
O O4 0.812609 0.785076 0.947854
O O5 0.774092 0.233158 0.531907
O O6 0.484448 0.948825 0.147932
O O7 0.500000 0.000000 0.000000
O O8 0.293707 0.057188 0.074174
O O9 0.678048 0.497381 0.258590
O O10 0.000000 0.500000 0.500000
O O11 0.585055 0.241887 0.946266
O O12 0.080290 0.436810 0.753797
O O13 0.000000 0.500000 0.000000
O O14 0.795292 0.129930 0.896692
O O15 0.717323 0.045071 0.558250
O O16 0.845203 0.936777 0.645723
O O17 0.097312 0.239835 0.429790
O O18 0.000000 0.000000 0.000000
O O19 0.500000 0.500000 0.000000
#
# Coordination Sequence:
#
# PCOD8036207 Si02
#       8
#     2   2   2   2   2   2   2   2
#     4  12  28  47  73 105 144 194 242 297 367 437
#     4  12  24  47  74 101 144 188 248 295 361 435
#     4  12  25  47  76 102 148 193 240 299 372 432
#     4  12  29  48  74 109 150 194 242 310 366 437
#     4  11  26  46  73 107 145 184 247 299 360 436
#     4  11  26  46  73 107 143 191 240 304 362 433
#     4  12  25  45  75 106 139 194 243 296 363 437
#     4  12  29  47  72 109 149 190 243 301 368 438
#
# _framework density 21.744138
#
# number of rings (size 3 to 8) (size 9 to 14) (size 15 to 20)
#    0.000    0.250    5.000    3.000    7.000    1.500 
#    0.000    0.000    0.000    0.000    0.000    0.000 
#    0.000    0.000    0.000    0.000    0.000    0.000 
#
# Total GULP energy -198223.653489 kJ/mol
# GULP energy per Si atom -12388.978343 kJ/mol
# Density = 2.169465 g / cm^3
# Si number density = 21.744138 Si / 1000 Ang^3
#
#
#
# Elastic Constant Matrix: (Units=GPa)
#
#
# Indices 1 2 3 4 5 6 
#
# 1 135.3616 60.1682 64.3551 -3.1273 3.5357 10.6228
# 2 60.1682 144.8808 55.1756 -1.7006 -3.0486 4.4349
# 3 64.3551 55.1756 135.9313 0.5657 -0.5561 6.8455
# 4 -3.1273 -1.7006 0.5657 43.8979 -9.9873 -3.4157
# 5 3.5357 -3.0486 -0.5561 -9.9873 45.5241 -2.5609
# 6 10.6228 4.4349 6.8455 -3.4157 -2.5609 36.8356
#
#
#
# Elastic Compliance Matrix: (Units=1/GPa)
#
#
# Indices 1 2 3 4 5 6 
#
# 1 0.010692 -0.002966 -0.003759 0.000276 -0.001131 -0.002081
# 2 -0.002966 0.009012 -0.002267 0.000397 0.000910 0.000291
# 3 -0.003759 -0.002267 0.010087 -0.000501 0.000122 -0.000555
# 4 0.000276 0.000397 -0.000501 0.024268 0.005469 0.002596
# 5 -0.001131 0.000910 0.000122 0.005469 0.023448 0.002331
# 6 -0.002081 0.000291 -0.000555 0.002596 0.002331 0.028219
#
#
# Mechanical properties :
#
#
# Convention : Reuss Voigt Hill
#
# Bulk Modulus (GPa) = 84.68717 86.17461 85.43089
# Shear Modulus (GPa) = 39.17113 41.01650 40.09381
#
# Velocity S-wave (km/s) = 4.24896 4.34790 4.29871
# Velocity P-wave (km/s) = 7.94376 8.05747 8.00081
#
# Compressibility (1/GPa) = 0.01180816
#
# Stress axis : x y z
#
# Youngs Moduli (GPa) = 93.52416 110.96424 99.13680
#
# Poissons Ratio (x) = 0.32908 0.37269
# Poissons Ratio (y) = 0.27736 0.22470
# Poissons Ratio (z) = 0.35159 0.25151
#
# Static dielectric constant tensor:
#      x y z
#    x 4.167030 -0.320290 0.082690 
#    y -0.320290 3.789660 -0.003340 
#    z 0.082690 -0.003340 4.018310 
# 
# 
# High freq. dielectric constant tensor:
#      x y z
#    x 1.873140 -0.003950 0.002560 
#    y -0.003950 1.871030 -0.001300 
#    z 0.002560 -0.001300 1.860930 
# 
# From -- ./inp_files/403416.got.cif
#   From: 2010.06.25/outbox.cif.g09.slc.cpg/sg2_202_cif.got.tgz:403416.got - 2010.06.27 13:26:56.
