data_PCOD8036758
_publ_section_title
;
Structure prediction by ZEFSAII (Michael W. Deem and Ramdas Pophale) SiO2 
 PCOD8036758
Probable space group: P -1
;
_chemical_formula_sum "Si O2"
_cell_formula_units_Z 14
_cell_length_a 26.961563
_cell_length_b 14.603313
_cell_length_c 14.357324
_cell_angle_alpha 160.304657
_cell_angle_beta 160.112740
_cell_angle_gamma 22.105518
_cell_volume 604.899524
_symmetry_space_group_name_H-M "P -1"
_symmetry_group_IT_number 2
_symmetry_cell_setting 'triclinic'
loop_
_space_group_symop_operation_xyz
x,y,z
-x,-y,-z
loop_
_atom_site_type_symbol
_atom_site_label
_atom_site_fract_x
_atom_site_fract_y
_atom_site_fract_z
Si Si1 0.749545 0.019091 0.696827
Si Si2 0.927578 0.061220 0.748185
Si Si3 0.221128 0.486569 0.454049
Si Si4 0.071401 0.383190 0.820278
Si Si5 0.393763 0.830314 0.613283
Si Si6 0.643078 0.559429 0.153830
Si Si7 0.299015 0.969792 0.960361
O O1 0.651134 0.102135 0.508561
O O2 0.756389 0.708870 0.451476
O O3 0.663864 0.259536 0.852421
O O4 0.932148 0.981123 0.970494
O O5 0.769581 0.069311 0.525070
O O6 0.993787 0.781135 0.529648
O O7 0.888346 0.354545 0.900986
O O8 0.326956 0.500903 0.741917
O O9 0.304054 0.183363 0.257350
O O10 0.051237 0.501398 0.201640
O O11 0.203578 0.762920 0.622470
O O12 0.227655 0.153071 0.918086
O O13 0.500000 0.500000 0.500000
O O14 0.500000 0.000000 0.000000
O O15 0.468237 0.774422 0.037618
#
# Coordination Sequence:
#
# PCOD8036758 Si02
#       7
#     2   2   2   2   2   2   2
#     4  12  25  49  73 104 143 188 233 282 351 432
#     4  12  25  49  73 104 143 188 233 282 351 432
#     4  12  22  46  64 103 142 189 242 288 348 410
#     4  12  25  43  73 102 142 188 240 286 350 415
#     4  12  29  48  77 112 142 175 227 298 357 423
#     4  12  25  43  73 102 142 188 240 286 350 415
#     4  12  26  40  68 103 146 185 236 302 346 398
#
# _framework density 23.144338999999999
#
# number of rings (size 3 to 8) (size 9 to 14) (size 15 to 20)
#    0.000    0.000    2.857    7.286    6.000    0.000 
#    0.000    4.286    0.000    0.000    0.000    0.000 
#    0.000    0.000    0.000    0.000    0.000    0.000 
#
# Total GULP energy -173696.167298 kJ/mol
# GULP energy per Si atom -12406.869093 kJ/mol
# Density = 2.309166 g / cm^3
# Si number density = 23.144339 Si / 1000 Ang^3
#
#
#
# Elastic Constant Matrix: (Units=GPa)
#
#
# Indices 1 2 3 4 5 6 
#
# 1 50.5802 7.5318 18.8175 -0.5468 -0.5223 4.7851
# 2 7.5318 104.2918 18.0529 -4.8701 1.6443 4.4968
# 3 18.8175 18.0529 94.2539 3.2291 5.7981 2.8665
# 4 -0.5468 -4.8701 3.2291 52.9142 2.8502 7.8958
# 5 -0.5223 1.6443 5.7981 2.8502 31.6812 -1.4691
# 6 4.7851 4.4968 2.8665 7.8958 -1.4691 28.8650
#
#
#
# Elastic Compliance Matrix: (Units=1/GPa)
#
#
# Indices 1 2 3 4 5 6 
#
# 1 0.021763 -0.000678 -0.004202 0.000857 0.000934 -0.003272
# 2 -0.000678 0.010081 -0.001765 0.001298 -0.000405 -0.001659
# 3 -0.004202 -0.001765 0.011946 -0.000807 -0.002096 -0.000101
# 4 0.000857 0.001298 -0.000807 0.020056 -0.001981 -0.005851
# 5 0.000934 -0.000405 -0.002096 -0.001981 0.032269 0.002301
# 6 -0.003272 -0.001659 -0.000101 -0.005851 0.002301 0.037172
#
#
# Mechanical properties :
#
#
# Convention : Reuss Voigt Hill
#
# Bulk Modulus (GPa) = 32.78589 37.54781 35.16685
# Shear Modulus (GPa) = 31.89876 36.34035 34.11955
#
# Velocity S-wave (km/s) = 3.71651 3.96682 3.84371
# Velocity P-wave (km/s) = 5.71080 6.10242 5.90985
#
# Compressibility (1/GPa) = 0.03050093
#
# Stress axis : x y z
#
# Youngs Moduli (GPa) = 45.94869 99.19242 83.70792
#
# Poissons Ratio (x) = 0.06725 0.35178
# Poissons Ratio (y) = 0.03115 0.14772
# Poissons Ratio (z) = 0.19310 0.17504
#
# Static dielectric constant tensor:
#      x y z
#    x 4.140700 0.071550 -0.023270 
#    y 0.071550 4.289790 0.046250 
#    z -0.023270 0.046250 4.288500 
# 
# 
# High freq. dielectric constant tensor:
#      x y z
#    x 1.910270 0.003050 -0.001410 
#    y 0.003050 1.938610 0.001110 
#    z -0.001410 0.001110 1.928690 
# 
# From -- ./inp_files/293736.got.cif
#   From: 2010.06.25/outbox.cif.g09.slc.cpg/sg2_147_cif.got.tgz:293736.got - 2010.06.27 13:26:56.
