data_PCOD8036899
_publ_section_title
;
Structure prediction by ZEFSAII (Michael W. Deem and Ramdas Pophale) SiO2 
 PCOD8036899
Probable space group: P -1
;
_chemical_formula_sum "Si O2"
_cell_formula_units_Z 14
_cell_length_a 9.469306
_cell_length_b 22.361624
_cell_length_c 9.260890
_cell_angle_alpha 46.628263
_cell_angle_beta 43.132891
_cell_angle_gamma 27.735990
_cell_volume 618.811465
_symmetry_space_group_name_H-M "P -1"
_symmetry_group_IT_number 2
_symmetry_cell_setting 'triclinic'
loop_
_space_group_symop_operation_xyz
x,y,z
-x,-y,-z
loop_
_atom_site_type_symbol
_atom_site_label
_atom_site_fract_x
_atom_site_fract_y
_atom_site_fract_z
Si Si1 0.086571 0.046925 0.958991
Si Si2 0.880728 0.376372 0.943839
Si Si3 0.892070 0.682328 0.452559
Si Si4 0.812055 0.039000 0.433982
Si Si5 0.197227 0.708818 0.378941
Si Si6 0.078616 0.470941 0.820263
Si Si7 0.157598 0.159308 0.291644
O O1 0.904759 0.183506 0.819412
O O2 0.469544 0.939938 0.854735
O O3 0.948180 0.067608 0.182749
O O4 0.000000 0.000000 0.000000
O O5 0.053606 0.337383 0.726375
O O6 0.015435 0.399733 0.922408
O O7 0.500000 0.500000 0.000000
O O8 0.957441 0.261919 0.139054
O O9 0.574068 0.834396 0.469376
O O10 0.189566 0.633357 0.400452
O O11 0.854029 0.601885 0.676985
O O12 0.907455 0.917808 0.514541
O O13 0.000000 0.000000 0.500000
O O14 0.549596 0.616720 0.336434
O O15 0.947709 0.768236 0.597810
O O16 0.000000 0.500000 0.000000
#
# Coordination Sequence:
#
# PCOD8036899 Si02
#       7
#     2   2   2   2   2   2   2
#     4  12  23  44  70 104 142 185 235 285 351 416
#     4  12  28  47  73 102 144 187 236 298 351 420
#     4  12  26  46  72 106 143 185 238 294 355 417
#     4  12  28  43  72 106 147 188 232 293 355 423
#     4  12  24  45  74 105 143 185 237 295 350 421
#     4  12  26  48  74 104 141 187 241 291 354 423
#     4  12  26  47  71 107 145 185 240 289 353 421
#
# _framework density 22.624016000000001
#
# number of rings (size 3 to 8) (size 9 to 14) (size 15 to 20)
#    0.000    0.000    2.857    7.286    6.000    1.143 
#    0.000    0.000    0.000    0.000    0.000    0.000 
#    0.000    0.000    0.000    0.000    0.000    0.000 
#
# Total GULP energy -173673.143263 kJ/mol
# GULP energy per Si atom -12405.224519 kJ/mol
# Density = 2.257252 g / cm^3
# Si number density = 22.624016 Si / 1000 Ang^3
#
#
#
# Elastic Constant Matrix: (Units=GPa)
#
#
# Indices 1 2 3 4 5 6 
#
# 1 110.4682 26.2017 26.3345 14.2057 7.5853 -0.3716
# 2 26.2017 91.8304 40.0473 -13.2504 1.0182 2.7346
# 3 26.3345 40.0473 159.4893 -7.9753 28.3326 12.1942
# 4 14.2057 -13.2504 -7.9753 43.9329 -0.7395 9.9575
# 5 7.5853 1.0182 28.3326 -0.7395 45.2354 8.7538
# 6 -0.3716 2.7346 12.1942 9.9575 8.7538 33.9042
#
#
#
# Elastic Compliance Matrix: (Units=1/GPa)
#
#
# Indices 1 2 3 4 5 6 
#
# 1 0.010983 -0.003501 -0.001125 -0.005488 -0.001701 0.002859
# 2 -0.003501 0.014000 -0.002960 0.005402 0.002675 -0.002380
# 3 -0.001125 -0.002960 0.008213 0.001330 -0.004488 -0.001959
# 4 -0.005488 0.005402 0.001330 0.028719 0.002374 -0.010022
# 5 -0.001701 0.002675 -0.004488 0.002374 0.026367 -0.006125
# 6 0.002859 -0.002380 -0.001959 -0.010022 -0.006125 0.034948
#
#
# Mechanical properties :
#
#
# Convention : Reuss Voigt Hill
#
# Bulk Modulus (GPa) = 55.48630 60.77278 58.12954
# Shear Modulus (GPa) = 34.62344 42.56147 38.59245
#
# Velocity S-wave (km/s) = 3.91626 4.34205 4.13464
# Velocity P-wave (km/s) = 6.71030 7.21514 6.96729
#
# Compressibility (1/GPa) = 0.01802247
#
# Stress axis : x y z
#
# Youngs Moduli (GPa) = 91.04769 71.42672 121.76231
#
# Poissons Ratio (x) = 0.25009 0.13700
# Poissons Ratio (y) = 0.31879 0.36047
# Poissons Ratio (z) = 0.10244 0.21146
#
# Static dielectric constant tensor:
#      x y z
#    x 4.108090 0.003660 0.108790 
#    y 0.003660 4.264860 -0.116630 
#    z 0.108790 -0.116630 4.119970 
# 
# 
# High freq. dielectric constant tensor:
#      x y z
#    x 1.898690 -0.001270 0.004780 
#    y -0.001270 1.903800 -0.007360 
#    z 0.004780 -0.007360 1.913190 
# 
# From -- ./inp_files/27916.got.cif
#   From: 2010.06.25/outbox.cif.g09.slc.cpg/sg2_14_cif.got.tgz:27916.got - 2010.06.27 13:26:56.
