data_PCOD8036641
_publ_section_title
;
Structure prediction by ZEFSAII (Michael W. Deem and Ramdas Pophale) SiO2 
 PCOD8036641
Probable space group: P -1
;
_chemical_formula_sum "Si O2"
_cell_formula_units_Z 16
_cell_length_a 20.395240
_cell_length_b 10.005857
_cell_length_c 9.145503
_cell_angle_alpha 75.226475
_cell_angle_beta 149.679872
_cell_angle_gamma 114.419686
_cell_volume 836.566980
_symmetry_space_group_name_H-M "P -1"
_symmetry_group_IT_number 2
_symmetry_cell_setting 'triclinic'
loop_
_space_group_symop_operation_xyz
x,y,z
-x,-y,-z
loop_
_atom_site_type_symbol
_atom_site_label
_atom_site_fract_x
_atom_site_fract_y
_atom_site_fract_z
Si Si1 0.219680 0.228943 0.701908
Si Si2 0.740623 0.821833 0.883537
Si Si3 0.562861 0.374329 0.641630
Si Si4 0.755765 0.591150 0.765522
Si Si5 0.041404 0.629257 0.162546
Si Si6 0.705328 0.419682 0.199467
Si Si7 0.045087 0.926737 0.967029
Si Si8 0.570641 0.662613 0.154364
O O1 0.245131 0.404329 0.715315
O O2 0.350226 0.222550 0.857023
O O3 0.078261 0.133151 0.371641
O O4 0.208073 0.149362 0.857886
O O5 0.571538 0.785240 0.570993
O O6 0.774553 0.682979 0.927347
O O7 0.818007 0.960667 0.886552
O O8 0.500000 0.500000 0.500000
O O9 0.649850 0.416348 0.643414
O O10 0.674741 0.387077 0.979211
O O11 0.692192 0.669137 0.501797
O O12 0.905442 0.593653 0.010710
O O13 0.171330 0.633407 0.508619
O O14 0.088535 0.792835 0.137605
O O15 0.000000 0.500000 0.000000
O O16 0.559057 0.309877 0.028994
O O17 0.000000 0.000000 0.000000
O O18 0.500000 0.500000 0.000000
#
# Coordination Sequence:
#
# PCOD8036641 Si02
#       8
#     2   2   2   2   2   2   2   2
#     4  11  20  37  64  95 121 165 217 262 307 372
#     4  11  21  38  65  92 125 162 220 259 310 369
#     4  10  18  35  64  93 123 164 211 266 306 371
#     4  11  19  38  63  89 125 165 210 257 306 374
#     4  12  24  40  62  95 132 167 208 263 319 371
#     4  11  20  35  62  99 125 157 213 268 316 360
#     4  12  24  42  64  91 131 173 211 255 313 390
#     4  10  17  31  58  89 120 157 212 255 296 369
#
# _framework density 19.125785
#
# number of rings (size 3 to 8) (size 9 to 14) (size 15 to 20)
#    0.000    1.000    8.750    1.875    0.000    0.500 
#    0.000    0.625    0.000    1.500    0.000    0.000 
#    0.000    0.000    0.000    0.000    0.000    0.000 
#
# Total GULP energy -198253.465773 kJ/mol
# GULP energy per Si atom -12390.841611 kJ/mol
# Density = 1.908225 g / cm^3
# Si number density = 19.125785 Si / 1000 Ang^3
#
#
#
# Elastic Constant Matrix: (Units=GPa)
#
#
# Indices 1 2 3 4 5 6 
#
# 1 117.3347 46.4806 55.6520 -5.9398 7.6933 34.5631
# 2 46.4806 95.8683 40.3567 2.3899 6.2743 26.8724
# 3 55.6520 40.3567 152.4882 -6.6419 1.1261 7.3854
# 4 -5.9398 2.3899 -6.6419 26.5544 1.0800 4.4237
# 5 7.6933 6.2743 1.1261 1.0800 43.0161 7.9418
# 6 34.5631 26.8724 7.3854 4.4237 7.9418 38.1722
#
#
#
# Elastic Compliance Matrix: (Units=1/GPa)
#
#
# Indices 1 2 3 4 5 6 
#
# 1 0.015110 -0.002427 -0.004109 0.004521 -0.000202 -0.011659
# 2 -0.002427 0.014943 -0.002756 -0.001304 -0.000240 -0.007588
# 3 -0.004109 -0.002756 0.008635 0.000839 0.000178 0.003856
# 4 0.004521 -0.001304 0.000839 0.040333 -0.000181 -0.007975
# 5 -0.000202 -0.000240 0.000178 -0.000181 0.024185 -0.004694
# 6 -0.011659 -0.007588 0.003856 -0.007975 -0.004694 0.043250
#
#
# Mechanical properties :
#
#
# Convention : Reuss Voigt Hill
#
# Bulk Modulus (GPa) = 49.74409 72.29663 61.02036
# Shear Modulus (GPa) = 29.11341 36.42867 32.77104
#
# Velocity S-wave (km/s) = 3.90578 4.36901 4.14387
# Velocity P-wave (km/s) = 6.81216 7.95824 7.40740
#
# Compressibility (1/GPa) = 0.02010289
#
# Stress axis : x y z
#
# Youngs Moduli (GPa) = 66.18325 66.91987 115.80180
#
# Poissons Ratio (x) = 0.16244 0.47581
# Poissons Ratio (y) = 0.16065 0.31920
# Poissons Ratio (z) = 0.27194 0.18446
#
# Static dielectric constant tensor:
#      x y z
#    x 4.104000 0.475910 0.229530 
#    y 0.475910 3.535770 0.323790 
#    z 0.229530 0.323790 3.731980 
# 
# 
# High freq. dielectric constant tensor:
#      x y z
#    x 1.752820 0.036370 -0.007150 
#    y 0.036370 1.703820 0.023340 
#    z -0.007150 0.023340 1.752870 
# 
# From -- ./inp_files/344585.got.cif
#   From: 2010.06.25/outbox.cif.g09.slc.cpg/sg2_173_cif.got.tgz:344585.got - 2010.06.27 13:26:56.
