data_PCOD8036176
_publ_section_title
;
Structure prediction by ZEFSAII (Michael W. Deem and Ramdas Pophale) SiO2 
 PCOD8036176
Probable space group: P -1
;
_chemical_formula_sum "Si O2"
_cell_formula_units_Z 16
_cell_length_a 19.044560
_cell_length_b 9.083049
_cell_length_c 15.208885
_cell_angle_alpha 38.653283
_cell_angle_beta 152.696963
_cell_angle_gamma 140.493616
_cell_volume 725.571463
_symmetry_space_group_name_H-M "P -1"
_symmetry_group_IT_number 2
_symmetry_cell_setting 'triclinic'
loop_
_space_group_symop_operation_xyz
x,y,z
-x,-y,-z
loop_
_atom_site_type_symbol
_atom_site_label
_atom_site_fract_x
_atom_site_fract_y
_atom_site_fract_z
Si Si1 0.595950 0.449436 0.211641
Si Si2 0.378844 0.052575 0.272902
Si Si3 0.334168 0.024156 0.893900
Si Si4 0.334669 0.078253 0.672157
Si Si5 0.116752 0.610337 0.943253
Si Si6 0.901987 0.772625 0.049662
Si Si7 0.781280 0.486951 0.713681
Si Si8 0.115176 0.697450 0.476738
O O1 0.484107 0.206114 0.242014
O O2 0.627877 0.682937 0.201169
O O3 0.766224 0.417624 0.391489
O O4 0.500000 0.500000 0.000000
O O5 0.500000 0.000000 0.500000
O O6 0.270847 0.798054 0.234985
O O7 0.272184 0.207749 0.127651
O O8 0.278794 0.963603 0.759672
O O9 0.200106 0.891871 0.876843
O O10 0.486158 0.935287 0.134105
O O11 0.214882 0.922588 0.540172
O O12 0.338192 0.362193 0.525676
O O13 0.115967 0.464974 0.919461
O O14 0.945229 0.609627 0.788847
O O15 0.204688 0.500641 0.170071
O O16 0.000746 0.782260 0.243403
O O17 0.000000 0.000000 0.000000
O O18 0.000000 0.500000 0.500000
#
# Coordination Sequence:
#
# PCOD8036176 Si02
#       8
#     2   2   2   2   2   2   2   2
#     4  12  25  47  71 104 142 185 239 288 354 414
#     4  12  27  47  73 104 141 187 238 295 350 423
#     4  11  26  46  72 103 143 187 232 292 353 419
#     4  11  26  46  69 106 141 185 237 288 356 418
#     4  11  26  46  70 103 141 187 232 292 355 419
#     4  12  25  47  71 102 142 187 241 289 353 417
#     4  11  26  47  70 104 142 186 234 290 355 417
#     4  12  27  46  72 105 141 189 237 293 351 421
#
# _framework density 22.051583999999998
#
# number of rings (size 3 to 8) (size 9 to 14) (size 15 to 20)
#    0.000    0.500    2.500    4.500   10.500    1.000 
#    0.000    0.000    0.000    0.000    0.000    0.000 
#    0.000    0.000    0.000    0.000    0.000    0.000 
#
# Total GULP energy -198431.012145 kJ/mol
# GULP energy per Si atom -12401.938259 kJ/mol
# Density = 2.200139 g / cm^3
# Si number density = 22.051584 Si / 1000 Ang^3
#
#
#
# Elastic Constant Matrix: (Units=GPa)
#
#
# Indices 1 2 3 4 5 6 
#
# 1 123.4766 40.9353 54.6723 2.1046 -10.3985 17.3830
# 2 40.9353 94.2444 27.7225 -6.9517 -14.6726 12.7615
# 3 54.6723 27.7225 136.7523 4.3651 -12.4289 4.6792
# 4 2.1046 -6.9517 4.3651 33.9220 -6.1682 -7.0682
# 5 -10.3985 -14.6726 -12.4289 -6.1682 43.9904 -0.4530
# 6 17.3830 12.7615 4.6792 -7.0682 -0.4530 53.5395
#
#
#
# Elastic Compliance Matrix: (Units=1/GPa)
#
#
# Indices 1 2 3 4 5 6 
#
# 1 0.011314 -0.003551 -0.003643 -0.001483 0.000225 -0.002702
# 2 -0.003551 0.013517 -0.001032 0.003515 0.003855 -0.001482
# 3 -0.003643 -0.001032 0.009100 -0.000816 0.001257 0.000536
# 4 -0.001483 0.003515 -0.000816 0.032166 0.005143 0.004005
# 5 0.000225 0.003855 0.001257 0.005143 0.025145 -0.000210
# 6 -0.002702 -0.001482 0.000536 0.004005 -0.000210 0.020389
#
#
# Mechanical properties :
#
#
# Convention : Reuss Voigt Hill
#
# Bulk Modulus (GPa) = 57.21072 66.79261 62.00167
# Shear Modulus (GPa) = 37.33902 41.69991 39.51947
#
# Velocity S-wave (km/s) = 4.11939 4.35330 4.23796
# Velocity P-wave (km/s) = 6.97325 7.45810 7.21975
#
# Compressibility (1/GPa) = 0.01747924
#
# Stress axis : x y z
#
# Youngs Moduli (GPa) = 88.38913 73.98255 109.89027
#
# Poissons Ratio (x) = 0.26271 0.40033
# Poissons Ratio (y) = 0.31387 0.11336
# Poissons Ratio (z) = 0.32200 0.07632
#
# Static dielectric constant tensor:
#      x y z
#    x 4.062530 0.057620 -0.102180 
#    y 0.057620 3.954130 0.114330 
#    z -0.102180 0.114330 4.098440 
# 
# 
# High freq. dielectric constant tensor:
#      x y z
#    x 1.881060 0.004090 -0.009910 
#    y 0.004090 1.877840 0.000170 
#    z -0.009910 0.000170 1.881070 
# 
# From -- ./inp_files/537590.got.cif
#   From: 2010.06.25/outbox.cif.g09.slc.cpg/sg2_269_cif.got.tgz:537590.got - 2010.06.27 13:26:56.
