data_PCOD8036615
_publ_section_title
;
Structure prediction by ZEFSAII (Michael W. Deem and Ramdas Pophale) SiO2 
 PCOD8036615
Probable space group: P -1
;
_chemical_formula_sum "Si O2"
_cell_formula_units_Z 14
_cell_length_a 11.386620
_cell_length_b 28.158762
_cell_length_c 14.591203
_cell_angle_alpha 23.449545
_cell_angle_beta 145.425765
_cell_angle_gamma 158.788532
_cell_volume 656.892823
_symmetry_space_group_name_H-M "P -1"
_symmetry_group_IT_number 2
_symmetry_cell_setting 'triclinic'
loop_
_space_group_symop_operation_xyz
x,y,z
-x,-y,-z
loop_
_atom_site_type_symbol
_atom_site_label
_atom_site_fract_x
_atom_site_fract_y
_atom_site_fract_z
Si Si1 0.349312 0.742156 0.076628
Si Si2 0.776453 0.695878 0.066910
Si Si3 0.443656 0.434178 0.477893
Si Si4 0.048512 0.058368 0.639790
Si Si5 0.262244 0.399616 0.110903
Si Si6 0.255821 0.723691 0.255108
Si Si7 0.773632 0.054838 0.640336
O O1 0.419438 0.636087 0.321751
O O2 0.341448 0.796324 0.076616
O O3 0.981896 0.597559 0.054949
O O4 0.620123 0.922803 0.864271
O O5 0.680243 0.628317 0.229267
O O6 0.478685 0.509006 0.146639
O O7 0.116550 0.781201 0.109630
O O8 0.810806 0.854665 0.797542
O O9 0.500000 0.500000 0.500000
O O10 0.062285 0.271429 0.483522
O O11 0.038978 0.178571 0.365504
O O12 0.412248 0.166145 0.675864
O O13 0.940488 0.030391 0.725565
O O14 0.500000 0.500000 0.000000
O O15 0.000000 0.500000 0.500000
O O16 0.500000 0.000000 0.500000
#
# Coordination Sequence:
#
# PCOD8036615 Si02
#       7
#     2   2   2   2   2   2   2
#     4  12  23  42  74  98 135 188 232 282 352 419
#     4  12  25  45  72 103 138 182 234 290 354 417
#     4  12  26  45  71 106 140 182 240 294 347 422
#     4  12  25  45  70 100 142 183 231 291 349 417
#     4  12  24  46  70 100 145 185 226 291 353 416
#     4  12  21  45  71  97 138 181 228 291 349 408
#     4  12  24  46  71  99 143 190 231 289 357 413
#
# _framework density 21.312456000000001
#
# number of rings (size 3 to 8) (size 9 to 14) (size 15 to 20)
#    0.000    0.000    8.571    1.714    2.000    1.714 
#    0.000    2.857    0.000    0.000    0.000    0.000 
#    0.000    0.000    0.000    0.000    0.000    0.000 
#
# Total GULP energy -173609.197630 kJ/mol
# GULP energy per Si atom -12400.656974 kJ/mol
# Density = 2.126395 g / cm^3
# Si number density = 21.312456 Si / 1000 Ang^3
#
#
#
# Elastic Constant Matrix: (Units=GPa)
#
#
# Indices 1 2 3 4 5 6 
#
# 1 118.4546 31.0720 37.7486 -17.8848 -18.7840 -3.8814
# 2 31.0720 104.5109 32.8017 11.9612 13.4101 9.8936
# 3 37.7486 32.8017 118.4619 -15.8094 -11.3603 -5.0194
# 4 -17.8848 11.9612 -15.8094 33.8807 0.5867 -0.1167
# 5 -18.7840 13.4101 -11.3603 0.5867 43.0573 -3.7457
# 6 -3.8814 9.8936 -5.0194 -0.1167 -3.7457 32.5820
#
#
#
# Elastic Compliance Matrix: (Units=1/GPa)
#
#
# Indices 1 2 3 4 5 6 
#
# 1 0.012787 -0.006060 -0.000337 0.008615 0.007627 0.004219
# 2 -0.006060 0.016300 -0.005339 -0.011304 -0.009640 -0.007643
# 3 -0.000337 -0.005339 0.011598 0.007049 0.004823 0.003948
# 4 0.008615 -0.011304 0.007049 0.041208 0.009164 0.006746
# 5 0.007627 -0.009640 0.004823 0.009164 0.031418 0.008223
# 6 0.004219 -0.007643 0.003948 0.006746 0.008223 0.035093
#
#
# Mechanical properties :
#
#
# Convention : Reuss Voigt Hill
#
# Bulk Modulus (GPa) = 58.09607 60.51910 59.30759
# Shear Modulus (GPa) = 28.15103 37.89101 33.02102
#
# Velocity S-wave (km/s) = 3.63832 4.22107 3.94048
# Velocity P-wave (km/s) = 6.70584 7.22595 6.97074
#
# Compressibility (1/GPa) = 0.01721287
#
# Stress axis : x y z
#
# Youngs Moduli (GPa) = 78.20184 61.34944 86.22289
#
# Poissons Ratio (x) = 0.37178 0.02905
# Poissons Ratio (y) = 0.47391 0.46037
# Poissons Ratio (z) = 0.02635 0.32756
#
# Static dielectric constant tensor:
#      x y z
#    x 4.735950 -0.070710 -0.009540 
#    y -0.070710 4.111980 -0.008780 
#    z -0.009540 -0.008780 3.978060 
# 
# 
# High freq. dielectric constant tensor:
#      x y z
#    x 1.847790 0.016490 -0.014240 
#    y 0.016490 1.838190 0.003940 
#    z -0.014240 0.003940 1.837080 
# 
# From -- ./inp_files/255693.got.cif
#   From: 2010.06.25/outbox.cif.g09.slc.cpg/sg2_128_cif.got.tgz:255693.got - 2010.06.27 13:26:56.
