data_PCOD8036218
_publ_section_title
;
Structure prediction by ZEFSAII (Michael W. Deem and Ramdas Pophale) SiO2 
 PCOD8036218
Probable space group: P -1
;
_chemical_formula_sum "Si O2"
_cell_formula_units_Z 16
_cell_length_a 14.901958
_cell_length_b 14.889998
_cell_length_c 14.983472
_cell_angle_alpha 152.545648
_cell_angle_beta 30.273555
_cell_angle_gamma 132.355403
_cell_volume 708.707199
_symmetry_space_group_name_H-M "P -1"
_symmetry_group_IT_number 2
_symmetry_cell_setting 'triclinic'
loop_
_space_group_symop_operation_xyz
x,y,z
-x,-y,-z
loop_
_atom_site_type_symbol
_atom_site_label
_atom_site_fract_x
_atom_site_fract_y
_atom_site_fract_z
Si Si1 0.681966 0.662049 0.692909
Si Si2 0.380452 0.238599 0.778285
Si Si3 0.986852 0.152728 0.773648
Si Si4 0.846520 0.950805 0.875187
Si Si5 0.088194 0.435772 0.060579
Si Si6 0.132930 0.595883 0.421382
Si Si7 0.721213 0.273263 0.426851
Si Si8 0.256108 0.727683 0.079864
O O1 0.666438 0.886088 0.947171
O O2 0.728808 0.490341 0.579029
O O3 0.861440 0.587828 0.404021
O O4 0.483947 0.678923 0.831004
O O5 0.503613 0.300500 0.654356
O O6 0.500000 0.000000 0.500000
O O7 0.180909 0.283741 0.933968
O O8 0.328364 0.397874 0.048181
O O9 0.820594 0.290735 0.968995
O O10 0.882873 0.080988 0.878732
O O11 0.152230 0.963848 0.414168
O O12 0.096121 0.290418 0.841111
O O13 0.030976 0.727658 0.536294
O O14 0.813992 0.081368 0.109431
O O15 0.212438 0.571833 0.048182
O O16 0.173694 0.762569 0.598441
O O17 0.000000 0.500000 0.500000
#
# Coordination Sequence:
#
# PCOD8036218 Si02
#       8
#     2   2   2   2   2   2   2   2
#     4  12  25  46  75 102 149 187 241 297 362 428
#     4  12  27  44  72 110 144 190 245 294 358 427
#     4  11  26  46  75 107 143 187 243 300 362 428
#     4  12  25  46  72 107 146 192 240 302 358 428
#     4  12  24  50  71 105 147 191 234 302 359 430
#     4  12  24  46  70  99 146 190 237 292 358 428
#     4  12  26  44  68 106 142 193 243 290 361 430
#     4  11  26  49  73 107 142 191 240 300 366 428
#
# _framework density 22.576318000000001
#
# number of rings (size 3 to 8) (size 9 to 14) (size 15 to 20)
#    0.000    0.250    6.250    1.875    3.500    1.000 
#    0.000    0.000    0.000    0.000    0.000    0.000 
#    0.000    0.000    0.000    0.000    0.000    0.000 
#
# Total GULP energy -198389.588893 kJ/mol
# GULP energy per Si atom -12399.349306 kJ/mol
# Density = 2.252493 g / cm^3
# Si number density = 22.576318 Si / 1000 Ang^3
#
#
#
# Elastic Constant Matrix: (Units=GPa)
#
#
# Indices 1 2 3 4 5 6 
#
# 1 133.6114 26.6848 50.7418 5.4391 -6.5223 6.1307
# 2 26.6848 88.8389 42.0382 -4.7038 -5.1302 2.0194
# 3 50.7418 42.0382 111.2979 -7.3609 1.4493 0.2200
# 4 5.4391 -4.7038 -7.3609 30.0767 1.5471 -0.0172
# 5 -6.5223 -5.1302 1.4493 1.5471 41.5589 1.1155
# 6 6.1307 2.0194 0.2200 -0.0172 1.1155 38.9717
#
#
#
# Elastic Compliance Matrix: (Units=1/GPa)
#
#
# Indices 1 2 3 4 5 6 
#
# 1 0.009541 -0.000892 -0.004229 -0.002987 0.001686 -0.001480
# 2 -0.000892 0.013977 -0.004823 0.001077 0.001730 -0.000606
# 3 -0.004229 -0.004823 0.012974 0.003282 -0.001858 0.000897
# 4 -0.002987 0.001077 0.003282 0.034851 -0.001760 0.000461
# 5 0.001686 0.001730 -0.001858 -0.001760 0.024699 -0.001052
# 6 -0.001480 -0.000606 0.000897 0.000461 -0.001052 0.025949
#
#
# Mechanical properties :
#
#
# Convention : Reuss Voigt Hill
#
# Bulk Modulus (GPa) = 60.22622 63.63088 61.92855
# Shear Modulus (GPa) = 33.91826 36.40702 35.16264
#
# Velocity S-wave (km/s) = 3.88026 4.02010 3.95080
# Velocity P-wave (km/s) = 6.84178 7.05650 6.94997
#
# Compressibility (1/GPa) = 0.01660406
#
# Stress axis : x y z
#
# Youngs Moduli (GPa) = 104.81626 71.54622 77.07573
#
# Poissons Ratio (x) = 0.06379 0.32599
# Poissons Ratio (y) = 0.09345 0.37172
# Poissons Ratio (z) = 0.44332 0.34506
#
# Static dielectric constant tensor:
#      x y z
#    x 4.728410 0.389110 0.222040 
#    y 0.389110 4.202630 0.163130 
#    z 0.222040 0.163130 4.210030 
# 
# 
# High freq. dielectric constant tensor:
#      x y z
#    x 1.901130 0.007050 0.007400 
#    y 0.007050 1.893650 0.000870 
#    z 0.007400 0.000870 1.884820 
# 
# From -- ./inp_files/534508.got.cif
#   From: 2010.06.25/outbox.cif.g09.slc.cpg/sg2_268_cif.got.tgz:534508.got - 2010.06.27 13:26:56.
