data_PCOD8036543
_publ_section_title
;
Structure prediction by ZEFSAII (Michael W. Deem and Ramdas Pophale) SiO2 
 PCOD8036543
Probable space group: P -1
;
_chemical_formula_sum "Si O2"
_cell_formula_units_Z 14
_cell_length_a 9.611624
_cell_length_b 11.034569
_cell_length_c 8.625685
_cell_angle_alpha 131.646385
_cell_angle_beta 66.526783
_cell_angle_gamma 94.341749
_cell_volume 602.744662
_symmetry_space_group_name_H-M "P -1"
_symmetry_group_IT_number 2
_symmetry_cell_setting 'triclinic'
loop_
_space_group_symop_operation_xyz
x,y,z
-x,-y,-z
loop_
_atom_site_type_symbol
_atom_site_label
_atom_site_fract_x
_atom_site_fract_y
_atom_site_fract_z
Si Si1 0.875230 0.422831 0.406651
Si Si2 0.345408 0.375839 0.583685
Si Si3 0.412465 0.628057 0.014048
Si Si4 0.572272 0.156381 0.078842
Si Si5 0.145066 0.764590 0.468259
Si Si6 0.057451 0.311148 0.751794
Si Si7 0.939882 0.123344 0.903015
O O1 0.754883 0.550433 0.460313
O O2 0.775494 0.361930 0.535211
O O3 0.000000 0.500000 0.500000
O O4 0.966459 0.256218 0.129027
O O5 0.515877 0.273949 0.356723
O O6 0.249752 0.258220 0.611849
O O7 0.346356 0.525122 0.827078
O O8 0.274750 0.765258 0.280946
O O9 0.500000 0.500000 0.000000
O O10 0.495293 0.743494 0.968568
O O11 0.762015 0.105063 0.954604
O O12 0.500000 0.000000 0.000000
O O13 0.008259 0.691536 0.394550
O O14 0.065061 0.946143 0.734136
O O15 0.992842 0.177980 0.760694
O O16 0.000000 0.500000 0.000000
#
# Coordination Sequence:
#
# PCOD8036543 Si02
#       7
#     2   2   2   2   2   2   2
#     4  12  24  44  73 109 141 189 245 302 361 438
#     4  12  25  47  75 104 148 190 247 300 361 439
#     4  12  27  49  75 106 145 201 246 299 361 440
#     4  12  27  48  74 109 152 197 238 299 376 431
#     4  12  24  42  72 107 144 185 246 298 365 430
#     4  12  20  43  72 105 135 188 243 300 352 427
#     4  12  26  46  72 106 152 189 237 308 373 427
#
# _framework density 23.227080000000001
#
# number of rings (size 3 to 8) (size 9 to 14) (size 15 to 20)
#    0.000    0.000    7.143    3.000    4.000    0.000 
#    0.000    0.714    0.000    0.000    0.000    0.000 
#    0.000    0.000    0.000    0.000    0.000    0.000 
#
# Total GULP energy -173465.865595 kJ/mol
# GULP energy per Si atom -12390.418971 kJ/mol
# Density = 2.317421 g / cm^3
# Si number density = 23.227080 Si / 1000 Ang^3
#
#
#
# Elastic Constant Matrix: (Units=GPa)
#
#
# Indices 1 2 3 4 5 6 
#
# 1 82.7311 55.3203 28.7653 -5.6604 8.0340 5.0225
# 2 55.3203 154.9597 40.6477 -18.4347 -2.0507 11.0739
# 3 28.7653 40.6477 131.2596 -4.7414 -6.4177 11.9929
# 4 -5.6604 -18.4347 -4.7414 45.6666 8.6196 -0.5442
# 5 8.0340 -2.0507 -6.4177 8.6196 41.8246 -7.6780
# 6 5.0225 11.0739 11.9929 -0.5442 -7.6780 29.5505
#
#
#
# Elastic Compliance Matrix: (Units=1/GPa)
#
#
# Indices 1 2 3 4 5 6 
#
# 1 0.016945 -0.005416 -0.002125 0.000461 -0.004135 -0.001054
# 2 -0.005416 0.009220 -0.001382 0.002816 0.000365 -0.001827
# 3 -0.002125 -0.001382 0.008784 -0.000181 0.001294 -0.002353
# 4 0.000461 0.002816 -0.000181 0.024050 -0.005301 -0.001995
# 5 -0.004135 0.000365 0.001294 -0.005301 0.027305 0.007038
# 6 -0.001054 -0.001827 -0.002353 -0.001995 0.007038 0.037451
#
#
# Mechanical properties :
#
#
# Convention : Reuss Voigt Hill
#
# Bulk Modulus (GPa) = 58.47314 68.71301 63.59307
# Shear Modulus (GPa) = 33.94381 39.68947 36.81664
#
# Velocity S-wave (km/s) = 3.82696 4.13820 3.98562
# Velocity P-wave (km/s) = 6.69004 7.24433 6.97270
#
# Compressibility (1/GPa) = 0.01710187
#
# Stress axis : x y z
#
# Youngs Moduli (GPa) = 59.01334 108.46177 113.84556
#
# Poissons Ratio (x) = 0.58748 0.24197
# Poissons Ratio (y) = 0.31965 0.15729
# Poissons Ratio (z) = 0.12543 0.14985
#
# Static dielectric constant tensor:
#      x y z
#    x 4.114260 -0.089310 -0.041010 
#    y -0.089310 4.756030 -0.370880 
#    z -0.041010 -0.370880 4.603110 
# 
# 
# High freq. dielectric constant tensor:
#      x y z
#    x 1.893140 0.003110 0.004830 
#    y 0.003110 1.930980 -0.018150 
#    z 0.004830 -0.018150 1.939660 
# 
# From -- ./inp_files/190609.got.cif
#   From: 2010.06.25/outbox.cif.g09.slc.cpg/sg2_96_cif.got.tgz:190609.got - 2010.06.27 13:26:56.
