data_PCOD8036932
_publ_section_title
;
Structure prediction by ZEFSAII (Michael W. Deem and Ramdas Pophale) SiO2 
 PCOD8036932
Probable space group: P -1
;
_chemical_formula_sum "Si O2"
_cell_formula_units_Z 16
_cell_length_a 11.850513
_cell_length_b 8.459349
_cell_length_c 9.040723
_cell_angle_alpha 83.658687
_cell_angle_beta 49.500583
_cell_angle_gamma 88.457654
_cell_volume 683.748329
_symmetry_space_group_name_H-M "P -1"
_symmetry_group_IT_number 2
_symmetry_cell_setting 'triclinic'
loop_
_space_group_symop_operation_xyz
x,y,z
-x,-y,-z
loop_
_atom_site_type_symbol
_atom_site_label
_atom_site_fract_x
_atom_site_fract_y
_atom_site_fract_z
Si Si1 0.888524 0.071972 0.693862
Si Si2 0.612696 0.881652 0.860721
Si Si3 0.364407 0.599797 0.441753
Si Si4 0.615155 0.033437 0.534466
Si Si5 0.089300 0.095634 0.794675
Si Si6 0.165888 0.582041 0.346755
Si Si7 0.345535 0.419815 0.967086
Si Si8 0.158731 0.420867 0.855558
O O1 0.829172 0.229605 0.659101
O O2 0.969381 0.120754 0.769371
O O3 0.759836 0.934426 0.822070
O O4 0.000000 0.000000 0.500000
O O5 0.605769 0.897381 0.686264
O O6 0.586328 0.701380 0.959211
O O7 0.500000 0.000000 0.000000
O O8 0.402128 0.790934 0.401446
O O9 0.241868 0.531081 0.437484
O O10 0.516232 0.522011 0.264081
O O11 0.293228 0.539793 0.664729
O O12 0.500000 0.000000 0.500000
O O13 0.781197 0.020693 0.338221
O O14 0.148829 0.269796 0.773378
O O15 0.000000 0.000000 0.000000
O O16 0.000000 0.500000 0.500000
O O17 0.267363 0.549951 0.120187
O O18 0.211989 0.359503 0.976819
O O19 0.000000 0.500000 0.000000
#
# Coordination Sequence:
#
# PCOD8036932 Si02
#       8
#     2   2   2   2   2   2   2   2
#     4  12  23  45  71 105 144 189 246 305 358 435
#     4  12  25  48  75 105 147 193 250 305 370 439
#     4  12  25  50  70 109 149 192 248 306 370 447
#     4  12  27  49  74 108 147 193 249 308 374 442
#     4  12  26  45  73 109 142 193 248 300 367 443
#     4  12  25  44  73 107 146 192 244 301 369 438
#     4  12  26  47  73 109 145 200 247 306 368 444
#     4  12  27  50  73 107 154 196 242 305 378 447
#
# _framework density 23.400421999999999
#
# number of rings (size 3 to 8) (size 9 to 14) (size 15 to 20)
#    0.000    0.000    3.750    6.000    3.500    0.000 
#    2.250    0.000    0.000    0.000    0.000    0.000 
#    0.000    0.000    0.000    0.000    0.000    0.000 
#
# Total GULP energy -198213.487765 kJ/mol
# GULP energy per Si atom -12388.342985 kJ/mol
# Density = 2.334716 g / cm^3
# Si number density = 23.400422 Si / 1000 Ang^3
#
#
#
# Elastic Constant Matrix: (Units=GPa)
#
#
# Indices 1 2 3 4 5 6 
#
# 1 158.5403 7.2710 31.3695 2.6863 16.3310 -6.2614
# 2 7.2710 70.1887 42.3468 13.2862 2.0469 -10.0885
# 3 31.3695 42.3468 151.3722 15.9729 -12.7550 -16.3727
# 4 2.6863 13.2862 15.9729 45.3891 -7.7479 1.0029
# 5 16.3310 2.0469 -12.7550 -7.7479 49.1072 4.3158
# 6 -6.2614 -10.0885 -16.3727 1.0029 4.3158 37.8244
#
#
#
# Elastic Compliance Matrix: (Units=1/GPa)
#
#
# Indices 1 2 3 4 5 6 
#
# 1 0.006967 0.000630 -0.001714 -0.000518 -0.002952 0.000930
# 2 0.000630 0.018457 -0.004725 -0.004401 -0.003205 0.003464
# 3 -0.001714 -0.004725 0.008857 -0.001216 0.002698 0.002014
# 4 -0.000518 -0.004401 -0.001216 0.024555 0.004170 -0.002913
# 5 -0.002952 -0.003205 0.002698 0.004170 0.023094 -0.002921
# 6 0.000930 0.003464 0.002014 -0.002913 -0.002921 0.028798
#
#
# Mechanical properties :
#
#
# Convention : Reuss Voigt Hill
#
# Bulk Modulus (GPa) = 44.12265 60.23065 52.17665
# Shear Modulus (GPa) = 38.49100 46.40507 42.44803
#
# Velocity S-wave (km/s) = 4.06012 4.45802 4.26371
# Velocity P-wave (km/s) = 6.39342 7.23143 6.82530
#
# Compressibility (1/GPa) = 0.02266410
#
# Stress axis : x y z
#
# Youngs Moduli (GPa) = 143.52805 54.17937 112.90869
#
# Poissons Ratio (x) = -0.03413 0.19347
# Poissons Ratio (y) = -0.09041 0.53349
# Poissons Ratio (z) = 0.24594 0.25600
#
# Static dielectric constant tensor:
#      x y z
#    x 4.332610 -0.180770 -0.031380 
#    y -0.180770 4.473830 -0.230130 
#    z -0.031380 -0.230130 4.528740 
# 
# 
# High freq. dielectric constant tensor:
#      x y z
#    x 1.950800 -0.006990 -0.000850 
#    y -0.006990 1.919500 0.012380 
#    z -0.000850 0.012380 1.942590 
# 
# From -- ./inp_files/243329.got.cif
#   From: 2010.06.25/outbox.cif.g09.slc.cpg/sg2_122_cif.got.tgz:243329.got - 2010.06.27 13:26:56.
