data_PCOD8036334
_publ_section_title
;
Structure prediction by ZEFSAII (Michael W. Deem and Ramdas Pophale) SiO2 
 PCOD8036334
Probable space group: P -1
;
_chemical_formula_sum "Si O2"
_cell_formula_units_Z 16
_cell_length_a 19.375817
_cell_length_b 12.779362
_cell_length_c 8.099533
_cell_angle_alpha 80.995074
_cell_angle_beta 113.380398
_cell_angle_gamma 42.643890
_cell_volume 863.944183
_symmetry_space_group_name_H-M "P -1"
_symmetry_group_IT_number 2
_symmetry_cell_setting 'triclinic'
loop_
_space_group_symop_operation_xyz
x,y,z
-x,-y,-z
loop_
_atom_site_type_symbol
_atom_site_label
_atom_site_fract_x
_atom_site_fract_y
_atom_site_fract_z
Si Si1 0.537003 0.343000 0.768429
Si Si2 0.898174 0.554713 0.060233
Si Si3 0.785716 0.782421 0.365750
Si Si4 0.442324 0.698551 0.581193
Si Si5 0.878048 0.804250 0.879370
Si Si6 0.527527 0.717774 0.966714
Si Si7 0.126351 0.139295 0.780481
Si Si8 0.791831 0.564519 0.245358
O O1 0.454073 0.558554 0.647565
O O2 0.515382 0.321938 0.565225
O O3 0.460411 0.364774 0.832142
O O4 0.724825 0.123789 0.040930
O O5 0.773198 0.648233 0.032494
O O6 0.055367 0.405302 0.333638
O O7 0.962330 0.389861 0.029196
O O8 0.815839 0.759087 0.849165
O O9 0.813773 0.815468 0.216746
O O10 0.757307 0.694295 0.321686
O O11 0.635509 0.014349 0.264336
O O12 0.263154 0.952723 0.394105
O O13 0.549139 0.622141 0.842787
O O14 0.927086 0.797508 0.097887
O O15 0.674018 0.614845 0.138384
O O16 0.973322 0.295682 0.490026
#
# Coordination Sequence:
#
# PCOD8036334 Si02
#       8
#     2   2   2   2   2   2   2   2
#     4   9  21  39  64  78 102 140 193 233 267 314
#     4  10  18  31  54  81 107 145 183 217 258 323
#     4  10  17  34  52  77 109 148 182 211 257 333
#     4  10  20  39  61  83 101 141 192 233 263 318
#     4  10  17  31  57  80 103 137 195 221 255 313
#     4  11  22  36  56  84 115 142 175 224 285 326
#     4   9  17  33  58  76 103 143 185 222 260 316
#     4  11  20  34  51  83 116 145 171 218 280 330
#
# _framework density 18.519714
#
# number of rings (size 3 to 8) (size 9 to 14) (size 15 to 20)
#    0.000    2.000    3.750    1.500    0.000    0.000 
#    2.250    1.250    0.000    2.250    0.000    0.000 
#    0.000    0.000    0.000    0.000    0.000    0.000 
#
# Total GULP energy -198276.189356 kJ/mol
# GULP energy per Si atom -12392.261835 kJ/mol
# Density = 1.847756 g / cm^3
# Si number density = 18.519714 Si / 1000 Ang^3
#
#
#
# Elastic Constant Matrix: (Units=GPa)
#
#
# Indices 1 2 3 4 5 6 
#
# 1 93.6188 48.1346 41.5849 1.4337 2.4380 -3.9594
# 2 48.1346 85.9242 36.9958 -7.0129 -0.1721 -0.1631
# 3 41.5849 36.9958 61.2389 -4.0935 -3.8232 5.5865
# 4 1.4337 -7.0129 -4.0935 34.5407 3.8119 -10.5669
# 5 2.4380 -0.1721 -3.8232 3.8119 27.1517 -1.0698
# 6 -3.9594 -0.1631 5.5865 -10.5669 -1.0698 21.0617
#
#
#
# Elastic Compliance Matrix: (Units=1/GPa)
#
#
# Indices 1 2 3 4 5 6 
#
# 1 0.018440 -0.006397 -0.009376 -0.001323 -0.002630 0.005107
# 2 -0.006397 0.018523 -0.006872 0.004154 -0.000748 0.002810
# 3 -0.009376 -0.006872 0.027926 -0.001117 0.004511 -0.009555
# 4 -0.001323 0.004154 -0.001117 0.035618 -0.004314 0.017730
# 5 -0.002630 -0.000748 0.004511 -0.004314 0.038227 -0.001919
# 6 0.005107 0.002810 -0.009555 0.017730 -0.001919 0.059794
#
#
# Mechanical properties :
#
#
# Convention : Reuss Voigt Hill
#
# Bulk Modulus (GPa) = 51.01914 54.91251 52.96582
# Shear Modulus (GPa) = 19.97203 24.15525 22.06364
#
# Velocity S-wave (km/s) = 3.28749 3.61543 3.45535
# Velocity P-wave (km/s) = 6.48217 6.86612 6.67691
#
# Compressibility (1/GPa) = 0.01960049
#
# Stress axis : x y z
#
# Youngs Moduli (GPa) = 54.23020 53.98620 35.80843
#
# Poissons Ratio (x) = 0.34533 0.33574
# Poissons Ratio (y) = 0.34689 0.24608
# Poissons Ratio (z) = 0.50846 0.37099
#
# Static dielectric constant tensor:
#      x y z
#    x 3.183420 -0.203630 -0.384060 
#    y -0.203630 3.672200 -0.041470 
#    z -0.384060 -0.041470 3.414290 
# 
# 
# High freq. dielectric constant tensor:
#      x y z
#    x 1.683090 -0.014990 -0.035140 
#    y -0.014990 1.729790 -0.004790 
#    z -0.035140 -0.004790 1.707610 
# 
# From -- ./inp_files/163380.got.cif
#   From: 2010.06.25/outbox.cif.g09.slc.cpg/sg2_82_cif.got.tgz:163380.got - 2010.06.27 13:26:56.
