data_PCOD8036794
_publ_section_title
;
Structure prediction by ZEFSAII (Michael W. Deem and Ramdas Pophale) SiO2 
 PCOD8036794
Probable space group: P -1
;
_chemical_formula_sum "Si O2"
_cell_formula_units_Z 16
_cell_length_a 15.398266
_cell_length_b 15.552690
_cell_length_c 15.283501
_cell_angle_alpha 139.771869
_cell_angle_beta 160.959233
_cell_angle_gamma 40.346944
_cell_volume 756.852779
_symmetry_space_group_name_H-M "P -1"
_symmetry_group_IT_number 2
_symmetry_cell_setting 'triclinic'
loop_
_space_group_symop_operation_xyz
x,y,z
-x,-y,-z
loop_
_atom_site_type_symbol
_atom_site_label
_atom_site_fract_x
_atom_site_fract_y
_atom_site_fract_z
Si Si1 0.414233 0.748622 0.500432
Si Si2 0.812851 0.192857 0.156609
Si Si3 0.778486 0.906084 0.224545
Si Si4 0.319338 0.068271 0.653261
Si Si5 0.628305 0.727731 0.500485
Si Si6 0.122867 0.846878 0.012072
Si Si7 0.271276 0.515086 0.721733
Si Si8 0.903580 0.661027 0.018720
O O1 0.546884 0.692864 0.492661
O O2 0.609674 0.678731 0.708768
O O3 0.387545 0.908624 0.606446
O O4 0.120812 0.709365 0.199408
O O5 0.758679 0.347434 0.257749
O O6 0.084847 0.107652 0.389628
O O7 0.578529 0.114861 0.897167
O O8 0.825569 0.218503 0.084799
O O9 0.756852 0.863435 0.272076
O O10 0.866980 0.761824 0.146723
O O11 0.000000 0.000000 0.500000
O O12 0.500000 0.000000 0.000000
O O13 0.394827 0.841279 0.323058
O O14 0.641868 0.595007 0.354282
O O15 0.913904 0.776329 0.812620
O O16 0.000000 0.000000 0.000000
O O17 0.000000 0.500000 0.500000
O O18 0.500000 0.500000 0.000000
O O19 0.000000 0.500000 0.000000
#
# Coordination Sequence:
#
# PCOD8036794 Si02
#       8
#     2   2   2   2   2   2   2   2
#     4  12  25  45  69 103 140 175 227 287 343 405
#     4  12  24  39  65  98 130 170 225 279 318 393
#     4  12  23  46  73  99 137 187 225 272 358 421
#     4  12  24  41  68 101 132 169 227 284 330 395
#     4  12  24  42  68  93 132 187 219 271 346 400
#     4  12  23  41  63  95 132 174 222 270 331 397
#     4  12  23  44  64  89 135 184 224 270 333 399
#     4  12  26  46  74 104 142 181 225 287 350 422
#
# _framework density 21.140173999999998
#
# number of rings (size 3 to 8) (size 9 to 14) (size 15 to 20)
#    0.000    0.000    5.000    6.000    0.000    2.000 
#    0.000    0.000    0.000    0.000    0.000    0.000 
#    0.000    0.000    0.000    0.000    0.000    0.000 
#
# Total GULP energy -198436.771310 kJ/mol
# GULP energy per Si atom -12402.298207 kJ/mol
# Density = 2.109206 g / cm^3
# Si number density = 21.140174 Si / 1000 Ang^3
#
#
#
# Elastic Constant Matrix: (Units=GPa)
#
#
# Indices 1 2 3 4 5 6 
#
# 1 116.8256 14.7586 28.6346 5.9161 7.2287 -16.1369
# 2 14.7586 145.4198 26.4980 10.0832 3.3122 -4.6945
# 3 28.6346 26.4980 117.4771 -10.2880 17.1556 3.1113
# 4 5.9161 10.0832 -10.2880 39.2511 2.7954 -6.3446
# 5 7.2287 3.3122 17.1556 2.7954 41.4091 3.7442
# 6 -16.1369 -4.6945 3.1113 -6.3446 3.7442 37.3558
#
#
#
# Elastic Compliance Matrix: (Units=1/GPa)
#
#
# Indices 1 2 3 4 5 6 
#
# 1 0.009920 -0.000313 -0.002427 -0.001279 -0.001006 0.004331
# 2 -0.000313 0.007415 -0.001860 -0.002284 0.000338 0.000530
# 3 -0.002427 -0.001860 0.010445 0.003675 -0.003900 -0.001137
# 4 -0.001279 -0.002284 0.003675 0.028101 -0.003372 0.003965
# 5 -0.001006 0.000338 -0.003900 -0.003372 0.026439 -0.003290
# 6 0.004331 0.000530 -0.001137 0.003965 -0.003290 0.029805
#
#
# Mechanical properties :
#
#
# Convention : Reuss Voigt Hill
#
# Bulk Modulus (GPa) = 53.82117 57.72275 55.77196
# Shear Modulus (GPa) = 39.21049 44.25861 41.73455
#
# Velocity S-wave (km/s) = 4.31139 4.58053 4.44800
# Velocity P-wave (km/s) = 7.09215 7.43902 7.26766
#
# Compressibility (1/GPa) = 0.01858005
#
# Stress axis : x y z
#
# Youngs Moduli (GPa) = 100.81120 134.86167 95.74115
#
# Poissons Ratio (x) = 0.04222 0.23236
# Poissons Ratio (y) = 0.03156 0.17804
# Poissons Ratio (z) = 0.24467 0.25079
#
# Static dielectric constant tensor:
#      x y z
#    x 4.185320 0.014670 -0.081580 
#    y 0.014670 4.226430 -0.076210 
#    z -0.081580 -0.076210 4.062040 
# 
# 
# High freq. dielectric constant tensor:
#      x y z
#    x 1.834170 -0.009230 0.003920 
#    y -0.009230 1.840040 -0.002820 
#    z 0.003920 -0.002820 1.848230 
# 
# From -- ./inp_files/534229.got.cif
#   From: 2010.06.25/outbox.cif.g09.slc.cpg/sg2_268_cif.got.tgz:534229.got - 2010.06.27 13:26:56.
