data_PCOD8036269
_publ_section_title
;
Structure prediction by ZEFSAII (Michael W. Deem and Ramdas Pophale) SiO2 
 PCOD8036269
Probable space group: P -1
;
_chemical_formula_sum "Si O2"
_cell_formula_units_Z 16
_cell_length_a 15.518734
_cell_length_b 7.927616
_cell_length_c 11.883906
_cell_angle_alpha 72.777701
_cell_angle_beta 138.183181
_cell_angle_gamma 77.170430
_cell_volume 669.334873
_symmetry_space_group_name_H-M "P -1"
_symmetry_group_IT_number 2
_symmetry_cell_setting 'triclinic'
loop_
_space_group_symop_operation_xyz
x,y,z
-x,-y,-z
loop_
_atom_site_type_symbol
_atom_site_label
_atom_site_fract_x
_atom_site_fract_y
_atom_site_fract_z
Si Si1 0.685044 0.590809 0.876362
Si Si2 0.412509 0.271676 0.862415
Si Si3 0.243247 0.456805 0.425430
Si Si4 0.225624 0.948898 0.649988
Si Si5 0.709023 0.315720 0.751979
Si Si6 0.126123 0.661298 0.663275
Si Si7 0.294917 0.050223 0.460338
Si Si8 0.847764 0.807864 0.943769
O O1 0.757662 0.400011 0.884400
O O2 0.721250 0.764071 0.859762
O O3 0.470906 0.776826 0.646469
O O4 0.781647 0.416932 0.111183
O O5 0.353062 0.391336 0.658215
O O6 0.235920 0.420068 0.740302
O O7 0.569136 0.251403 0.065407
O O8 0.500000 0.000000 0.000000
O O9 0.217616 0.665678 0.294615
O O10 0.344654 0.209295 0.500234
O O11 0.042898 0.573241 0.228948
O O12 0.151706 0.821794 0.591312
O O13 0.213585 0.048285 0.496075
O O14 0.086359 0.181286 0.555184
O O15 0.500000 0.500000 0.500000
O O16 0.787225 0.045735 0.899459
O O17 0.150660 0.169165 0.195259
#
# Coordination Sequence:
#
# PCOD8036269 Si02
#       8
#     2   2   2   2   2   2   2   2
#     4  12  25  48  76 108 152 195 254 309 382 449
#     4  12  26  49  73 108 147 195 252 303 377 447
#     4  12  27  47  71 110 151 196 251 312 377 450
#     4  11  26  47  74 107 144 202 251 308 374 443
#     4  12  27  45  72 113 146 198 249 306 379 450
#     4  11  27  48  74 109 146 200 250 313 375 444
#     4  12  23  48  74 103 150 202 244 306 383 444
#     4  12  27  47  74 111 152 199 249 315 373 450
#
# _framework density 23.904326999999999
#
# number of rings (size 3 to 8) (size 9 to 14) (size 15 to 20)
#    0.000    0.250    5.000    3.000    5.250    2.500 
#    2.250    0.000    0.000    0.000    0.000    0.000 
#    0.000    0.000    0.000    0.000    0.000    0.000 
#
# Total GULP energy -198405.053694 kJ/mol
# GULP energy per Si atom -12400.315856 kJ/mol
# Density = 2.384992 g / cm^3
# Si number density = 23.904327 Si / 1000 Ang^3
#
#
#
# Elastic Constant Matrix: (Units=GPa)
#
#
# Indices 1 2 3 4 5 6 
#
# 1 102.5540 47.4516 19.4929 -11.5182 0.8829 3.3939
# 2 47.4516 121.9612 24.0066 -19.0169 -6.1396 -3.4298
# 3 19.4929 24.0066 100.3338 -3.8567 0.7059 -13.1488
# 4 -11.5182 -19.0169 -3.8567 28.9555 -3.2628 2.7838
# 5 0.8829 -6.1396 0.7059 -3.2628 38.8980 -10.5351
# 6 3.3939 -3.4298 -13.1488 2.7838 -10.5351 37.0958
#
#
#
# Elastic Compliance Matrix: (Units=1/GPa)
#
#
# Indices 1 2 3 4 5 6 
#
# 1 0.012394 -0.004348 -0.001634 0.001946 -0.001503 -0.002688
# 2 -0.004348 0.011233 -0.001480 0.005635 0.002712 0.001259
# 3 -0.001634 -0.001480 0.011167 -0.000460 0.000701 0.004204
# 4 0.001946 0.005635 -0.000460 0.039533 0.003699 -0.001736
# 5 -0.001503 0.002712 0.000701 0.003699 0.028779 0.008532
# 6 -0.002688 0.001259 0.004204 -0.001736 0.008532 0.031363
#
#
# Mechanical properties :
#
#
# Convention : Reuss Voigt Hill
#
# Bulk Modulus (GPa) = 50.33279 56.30570 53.31924
# Shear Modulus (GPa) = 32.04752 36.58305 34.31529
#
# Velocity S-wave (km/s) = 3.66547 3.91627 3.79294
# Velocity P-wave (km/s) = 6.24627 6.63742 6.44481
#
# Compressibility (1/GPa) = 0.01986777
#
# Stress axis : x y z
#
# Youngs Moduli (GPa) = 80.68414 89.02228 89.55074
#
# Poissons Ratio (x) = 0.38709 0.14636
# Poissons Ratio (y) = 0.35084 0.13257
# Poissons Ratio (z) = 0.13187 0.13179
#
# Static dielectric constant tensor:
#      x y z
#    x 4.121660 -0.582960 0.221240 
#    y -0.582960 3.574950 0.726150 
#    z 0.221240 0.726150 2.536540 
# 
# 
# High freq. dielectric constant tensor:
#      x y z
#    x 1.949370 -0.001970 -0.001380 
#    y -0.001970 1.946410 -0.013000 
#    z -0.001380 -0.013000 1.958590 
# 
# From -- ./inp_files/447216.got.cif
#   From: 2010.06.25/outbox.cif.g09.slc.cpg/sg2_224_cif.got.tgz:447216.got - 2010.06.27 13:26:56.
