data_PCOD8036763
_publ_section_title
;
Structure prediction by ZEFSAII (Michael W. Deem and Ramdas Pophale) SiO2 
 PCOD8036763
Probable space group: P -1
;
_chemical_formula_sum "Si O2"
_cell_formula_units_Z 16
_cell_length_a 11.848809
_cell_length_b 9.334481
_cell_length_c 8.357283
_cell_angle_alpha 88.884865
_cell_angle_beta 65.697487
_cell_angle_gamma 60.393222
_cell_volume 712.445723
_symmetry_space_group_name_H-M "P -1"
_symmetry_group_IT_number 2
_symmetry_cell_setting 'triclinic'
loop_
_space_group_symop_operation_xyz
x,y,z
-x,-y,-z
loop_
_atom_site_type_symbol
_atom_site_label
_atom_site_fract_x
_atom_site_fract_y
_atom_site_fract_z
Si Si1 0.727598 0.999837 0.004982
Si Si2 0.832808 0.081533 0.245576
Si Si3 0.061783 0.750855 0.302616
Si Si4 0.066164 0.422351 0.789707
Si Si5 0.383234 0.144502 0.682003
Si Si6 0.023167 0.748183 0.693871
Si Si7 0.370230 0.680080 0.127421
Si Si8 0.451652 0.674131 0.433190
O O1 0.828438 0.032461 0.066341
O O2 0.623345 0.943613 0.147775
O O3 0.619645 0.167689 0.960130
O O4 0.848523 0.850368 0.824840
O O5 0.664321 0.169646 0.394908
O O6 0.888772 0.209356 0.230177
O O7 0.935863 0.922293 0.296264
O O8 0.218874 0.707525 0.153579
O O9 0.047548 0.598169 0.249840
O O10 0.048665 0.781846 0.498380
O O11 0.217228 0.239593 0.711635
O O12 0.094773 0.548989 0.674035
O O13 0.000000 0.500000 0.000000
O O14 0.419755 0.290784 0.682761
O O15 0.500000 0.000000 0.500000
O O16 0.371645 0.680839 0.317185
O O17 0.500000 0.500000 0.000000
O O18 0.500000 0.500000 0.500000
#
# Coordination Sequence:
#
# PCOD8036763 Si02
#       8
#     2   2   2   2   2   2   2   2
#     4  12  25  45  75 111 144 195 248 309 366 445
#     4  12  22  46  75 104 139 194 246 294 365 441
#     4  12  25  46  72 107 147 190 245 308 368 441
#     4  12  26  45  71 110 144 191 251 303 372 438
#     4  12  26  47  75 106 149 198 244 302 377 448
#     4  12  24  42  72 107 146 186 245 306 365 431
#     4  12  29  45  71 111 148 192 251 307 375 438
#     4  12  26  49  75 106 147 198 244 300 372 447
#
# _framework density 22.457851999999999
#
# number of rings (size 3 to 8) (size 9 to 14) (size 15 to 20)
#    0.000    0.000    6.250    3.375    3.500    0.500 
#    0.000    1.250    0.000    0.000    0.000    0.000 
#    0.000    0.000    0.000    0.000    0.000    0.000 
#
# Total GULP energy -198427.226112 kJ/mol
# GULP energy per Si atom -12401.701632 kJ/mol
# Density = 2.240674 g / cm^3
# Si number density = 22.457852 Si / 1000 Ang^3
#
#
#
# Elastic Constant Matrix: (Units=GPa)
#
#
# Indices 1 2 3 4 5 6 
#
# 1 94.2870 39.0464 23.5898 -11.8750 -9.1929 13.0511
# 2 39.0464 148.4367 50.9287 -21.1879 -9.0184 -10.1826
# 3 23.5898 50.9287 108.1276 -0.6857 -14.0820 -9.3081
# 4 -11.8750 -21.1879 -0.6857 50.7797 -2.0680 -6.2048
# 5 -9.1929 -9.0184 -14.0820 -2.0680 40.5426 -2.5005
# 6 13.0511 -10.1826 -9.3081 -6.2048 -2.5005 46.9870
#
#
#
# Elastic Compliance Matrix: (Units=1/GPa)
#
#
# Indices 1 2 3 4 5 6 
#
# 1 0.013148 -0.002893 -0.001668 0.001378 0.001561 -0.004344
# 2 -0.002893 0.009415 -0.003477 0.003553 0.000575 0.002655
# 3 -0.001668 -0.003477 0.011809 -0.001310 0.003009 0.002036
# 4 0.001378 0.003553 -0.001310 0.021942 0.001960 0.003129
# 5 0.001561 0.000575 0.003009 0.001960 0.026413 0.001952
# 6 -0.004344 0.002655 0.002036 0.003129 0.001952 0.023985
#
#
# Mechanical properties :
#
#
# Convention : Reuss Voigt Hill
#
# Bulk Modulus (GPa) = 54.65721 64.22014 59.43868
# Shear Modulus (GPa) = 38.79355 43.48095 41.13725
#
# Velocity S-wave (km/s) = 4.16070 4.40490 4.28454
# Velocity P-wave (km/s) = 6.89002 7.38436 7.14147
#
# Compressibility (1/GPa) = 0.01829585
#
# Stress axis : x y z
#
# Youngs Moduli (GPa) = 76.05547 106.21121 84.68176
#
# Poissons Ratio (x) = 0.30726 0.14124
# Poissons Ratio (y) = 0.22002 0.29448
# Poissons Ratio (z) = 0.12685 0.36934
#
# Static dielectric constant tensor:
#      x y z
#    x 4.298740 0.102560 -0.048940 
#    y 0.102560 4.272950 -0.080410 
#    z -0.048940 -0.080410 4.417170 
# 
# 
# High freq. dielectric constant tensor:
#      x y z
#    x 1.880970 0.005090 -0.007260 
#    y 0.005090 1.901410 -0.002570 
#    z -0.007260 -0.002570 1.892490 
# 
# From -- ./inp_files/243408.got.cif
#   From: 2010.06.25/outbox.cif.g09.slc.cpg/sg2_122_cif.got.tgz:243408.got - 2010.06.27 13:26:56.
