data_PCOD8036759
_publ_section_title
;
Structure prediction by ZEFSAII (Michael W. Deem and Ramdas Pophale) SiO2 
 PCOD8036759
Probable space group: P -1
;
_chemical_formula_sum "Si O2"
_cell_formula_units_Z 12
_cell_length_a 11.132276
_cell_length_b 4.861698
_cell_length_c 10.061509
_cell_angle_alpha 110.574787
_cell_angle_beta 91.068888
_cell_angle_gamma 89.816265
_cell_volume 509.720338
_symmetry_space_group_name_H-M "P -1"
_symmetry_group_IT_number 2
_symmetry_cell_setting 'triclinic'
loop_
_space_group_symop_operation_xyz
x,y,z
-x,-y,-z
loop_
_atom_site_type_symbol
_atom_site_label
_atom_site_fract_x
_atom_site_fract_y
_atom_site_fract_z
Si Si1 0.106113 0.942550 0.094411
Si Si2 0.265509 0.574986 0.465074
Si Si3 0.538897 0.501233 0.749926
Si Si4 0.376941 0.999727 0.748008
Si Si5 0.261091 0.384927 0.030872
Si Si6 0.108351 0.019718 0.403715
O O1 0.159655 0.616846 0.024910
O O2 0.212676 0.172007 0.109204
O O3 0.056190 0.003458 0.251146
O O4 0.000000 0.000000 0.000000
O O5 0.388239 0.466083 0.381164
O O6 0.291157 0.799186 0.622430
O O7 0.187434 0.310688 0.479840
O O8 0.191998 0.736701 0.374866
O O9 0.457287 0.791635 0.808721
O O10 0.620001 0.468249 0.878519
O O11 0.542365 0.791345 0.308796
O O12 0.291948 0.201098 0.869844
O O13 0.000000 0.000000 0.500000
#
# Coordination Sequence:
#
# PCOD8036759 Si02
#       6
#     2   2   2   2   2   2
#     4  12  26  49  76 104 141 191 244 303 363 427
#     4  12  25  47  73 106 151 185 240 301 359 427
#     4  12  22  46  72 104 150 192 242 286 362 424
#     4  12  26  42  72 114 142 194 236 294 354 440
#     4  12  25  47  73 106 151 185 240 301 359 427
#     4  12  26  49  76 104 141 191 244 303 363 427
#
# _framework density 23.54232
#
# number of rings (size 3 to 8) (size 9 to 14) (size 15 to 20)
#    0.000    0.000    3.333    7.000    2.333    0.000 
#    0.000    0.000    0.000    0.000    0.000    0.000 
#    0.000    0.000    0.000    0.000    0.000    0.000 
#
# Total GULP energy -148904.906262 kJ/mol
# GULP energy per Si atom -12408.742189 kJ/mol
# Density = 2.348874 g / cm^3
# Si number density = 23.542320 Si / 1000 Ang^3
#
#
#
# Elastic Constant Matrix: (Units=GPa)
#
#
# Indices 1 2 3 4 5 6 
#
# 1 101.0565 44.7544 65.8695 -2.5610 -14.6734 3.2240
# 2 44.7544 132.8339 39.2058 0.5930 -28.9607 10.1320
# 3 65.8695 39.2058 141.1911 6.9793 -15.3666 -7.4903
# 4 -2.5610 0.5930 6.9793 39.9678 -0.5821 -2.0543
# 5 -14.6734 -28.9607 -15.3666 -0.5821 20.5352 -4.4374
# 6 3.2240 10.1320 -7.4903 -2.0543 -4.4374 49.6724
#
#
#
# Elastic Compliance Matrix: (Units=1/GPa)
#
#
# Indices 1 2 3 4 5 6 
#
# 1 0.015815 -0.002842 -0.006514 0.002167 0.002234 -0.001140
# 2 -0.002842 0.011746 -0.000466 -0.000125 0.013958 -0.001040
# 3 -0.006514 -0.000466 0.010834 -0.002134 0.003244 0.002353
# 4 0.002167 -0.000125 -0.002134 0.025578 0.000647 0.000679
# 5 0.002234 0.013958 0.003244 0.000647 0.073305 0.004072
# 6 -0.001140 -0.001040 0.002353 0.000679 0.004072 0.021165
#
#
# Mechanical properties :
#
#
# Convention : Reuss Voigt Hill
#
# Bulk Modulus (GPa) = 53.32349 74.97121 64.14735
# Shear Modulus (GPa) = 27.12442 37.05187 32.08815
#
# Velocity S-wave (km/s) = 3.39802 3.97147 3.69589
# Velocity P-wave (km/s) = 6.17209 7.27630 6.74682
#
# Compressibility (1/GPa) = 0.01875346
#
# Stress axis : x y z
#
# Youngs Moduli (GPa) = 63.23028 85.13417 92.30117
#
# Poissons Ratio (x) = 0.24192 0.60121
# Poissons Ratio (y) = 0.17968 0.04299
# Poissons Ratio (z) = 0.41186 0.03966
#
# Static dielectric constant tensor:
#      x y z
#    x 4.372700 -0.006760 -0.101710 
#    y -0.006760 4.542110 0.014520 
#    z -0.101710 0.014520 4.024150 
# 
# 
# High freq. dielectric constant tensor:
#      x y z
#    x 1.934520 0.001080 -0.000680 
#    y 0.001080 1.951380 0.001490 
#    z -0.000680 0.001490 1.936070 
# 
# From -- ./inp_files/86212.got.cif
#   From: 2010.06.25/outbox.cif.g09.slc.cpg/sg2_44_cif.got.tgz:86212.got - 2010.06.27 13:26:56.
