data_PCOD8036610
_publ_section_title
;
Structure prediction by ZEFSAII (Michael W. Deem and Ramdas Pophale) SiO2 
 PCOD8036610
Probable space group: P -1
;
_chemical_formula_sum "Si O2"
_cell_formula_units_Z 14
_cell_length_a 8.999495
_cell_length_b 6.505994
_cell_length_c 24.590997
_cell_angle_alpha 50.867603
_cell_angle_beta 136.862704
_cell_angle_gamma 128.885318
_cell_volume 724.694589
_symmetry_space_group_name_H-M "P -1"
_symmetry_group_IT_number 2
_symmetry_cell_setting 'triclinic'
loop_
_space_group_symop_operation_xyz
x,y,z
-x,-y,-z
loop_
_atom_site_type_symbol
_atom_site_label
_atom_site_fract_x
_atom_site_fract_y
_atom_site_fract_z
Si Si1 0.674980 0.416627 0.598552
Si Si2 0.425731 0.050580 0.031199
Si Si3 0.554950 0.790593 0.698909
Si Si4 0.490415 0.516541 0.158679
Si Si5 0.278126 0.523524 0.879976
Si Si6 0.879281 0.653048 0.317357
Si Si7 0.888014 0.732274 0.705425
O O1 0.500000 0.500000 0.500000
O O2 0.730249 0.627159 0.628671
O O3 0.901746 0.443886 0.620028
O O4 0.555763 0.104996 0.640679
O O5 0.639283 0.241168 0.091375
O O6 0.343249 0.736131 0.086691
O O7 0.238738 0.215678 0.948160
O O8 0.500000 0.000000 0.000000
O O9 0.626168 0.741452 0.788575
O O10 0.298712 0.579839 0.653224
O O11 0.732544 0.721116 0.718001
O O12 0.520659 0.416510 0.122355
O O13 0.750343 0.677881 0.222359
O O14 0.040855 0.530789 0.790046
O O15 0.952793 0.951878 0.317065
#
# Coordination Sequence:
#
# PCOD8036610 Si02
#       7
#     2   2   2   2   2   2   2
#     4  11  24  40  59  87 115 147 193 241 288 346
#     4   9  18  29  55  87 115 148 193 235 274 333
#     4   9  22  37  59  87 114 150 190 239 287 342
#     4   9  17  36  55  81 114 148 188 228 281 334
#     4  10  17  31  58  86 111 155 192 229 283 331
#     4   9  20  39  58  81 115 150 185 238 284 339
#     4  11  20  37  63  83 113 156 192 232 288 343
#
# _framework density 19.318483000000001
#
# number of rings (size 3 to 8) (size 9 to 14) (size 15 to 20)
#    0.857    1.429    2.857    0.000    0.000    6.286 
#    0.000    2.143    0.000    8.571    0.000    0.000 
#    0.000    0.000    0.000    0.000    0.000    0.000 
#
# Total GULP energy -173457.779619 kJ/mol
# GULP energy per Si atom -12389.841401 kJ/mol
# Density = 1.927451 g / cm^3
# Si number density = 19.318483 Si / 1000 Ang^3
#
#
#
# Elastic Constant Matrix: (Units=GPa)
#
#
# Indices 1 2 3 4 5 6 
#
# 1 56.8756 43.5023 11.3381 -2.8676 -4.0154 -0.2630
# 2 43.5023 114.6150 41.0443 -6.7131 -12.8826 -2.3606
# 3 11.3381 41.0443 78.2556 0.7159 -15.1567 -12.7931
# 4 -2.8676 -6.7131 0.7159 35.6989 -0.3728 -5.0146
# 5 -4.0154 -12.8826 -15.1567 -0.3728 18.7478 -1.5221
# 6 -0.2630 -2.3606 -12.7931 -5.0146 -1.5221 33.6770
#
#
#
# Elastic Compliance Matrix: (Units=1/GPa)
#
#
# Indices 1 2 3 4 5 6 
#
# 1 0.024951 -0.010078 0.001641 0.000090 -0.000243 0.000114
# 2 -0.010078 0.015186 -0.006001 0.002085 0.003399 -0.000830
# 3 0.001641 -0.006001 0.019322 -0.000206 0.012451 0.007464
# 4 0.000090 0.002085 -0.000206 0.029071 0.002229 0.004498
# 5 -0.000243 0.003399 0.012451 0.002229 0.066407 0.008299
# 6 0.000114 -0.000830 0.007464 0.004498 0.008299 0.033517
#
#
# Mechanical properties :
#
#
# Convention : Reuss Voigt Hill
#
# Bulk Modulus (GPa) = 32.69666 49.05728 40.87697
# Shear Modulus (GPa) = 21.97577 27.88217 24.92897
#
# Velocity S-wave (km/s) = 3.37642 3.80319 3.59614
# Velocity P-wave (km/s) = 5.67116 6.68840 6.20068
#
# Compressibility (1/GPa) = 0.03058416
#
# Stress axis : x y z
#
# Youngs Moduli (GPa) = 40.07856 65.85002 51.75457
#
# Poissons Ratio (x) = 0.66361 -0.08495
# Poissons Ratio (y) = 0.40390 0.31059
# Poissons Ratio (z) = -0.06579 0.39518
#
# Static dielectric constant tensor:
#      x y z
#    x 3.229580 -0.186420 0.033360 
#    y -0.186420 3.656300 -0.180700 
#    z 0.033360 -0.180700 3.584550 
# 
# 
# High freq. dielectric constant tensor:
#      x y z
#    x 1.727300 -0.022730 -0.000370 
#    y -0.022730 1.752080 -0.009010 
#    z -0.000370 -0.009010 1.749960 
# 
# From -- ./inp_files/56197.got.cif
#   From: 2010.06.25/outbox.cif.g09.slc.cpg/sg2_29_cif.got.tgz:56197.got - 2010.06.27 13:26:56.
