data_PCOD8036834
_publ_section_title
;
Structure prediction by ZEFSAII (Michael W. Deem and Ramdas Pophale) SiO2 
 PCOD8036834
Probable space group: P -1
;
_chemical_formula_sum "Si O2"
_cell_formula_units_Z 14
_cell_length_a 8.811218
_cell_length_b 17.306998
_cell_length_c 9.866735
_cell_angle_alpha 54.444128
_cell_angle_beta 149.994906
_cell_angle_gamma 117.414659
_cell_volume 608.690424
_symmetry_space_group_name_H-M "P -1"
_symmetry_group_IT_number 2
_symmetry_cell_setting 'triclinic'
loop_
_space_group_symop_operation_xyz
x,y,z
-x,-y,-z
loop_
_atom_site_type_symbol
_atom_site_label
_atom_site_fract_x
_atom_site_fract_y
_atom_site_fract_z
Si Si1 0.334812 0.800103 0.801949
Si Si2 0.701475 0.447289 0.321524
Si Si3 0.240834 0.414545 0.224402
Si Si4 0.323530 0.010509 0.493737
Si Si5 0.737402 0.291556 0.874881
Si Si6 0.767929 0.130940 0.840113
Si Si7 0.990762 0.245757 0.663343
O O1 0.355702 0.913087 0.702754
O O2 0.075953 0.773415 0.526054
O O3 0.253351 0.769517 0.919710
O O4 0.652575 0.742320 0.059251
O O5 0.506604 0.455247 0.300523
O O6 0.783634 0.337025 0.463992
O O7 0.000000 0.500000 0.500000
O O8 0.500000 0.500000 0.000000
O O9 0.422986 0.363255 0.546113
O O10 0.000000 0.500000 0.000000
O O11 0.045602 0.344871 0.057033
O O12 0.500000 0.000000 0.500000
O O13 0.444950 0.092858 0.597228
O O14 0.971372 0.044321 0.158346
O O15 0.733809 0.224836 0.809283
O O16 0.918787 0.155054 0.788905
#
# Coordination Sequence:
#
# PCOD8036834 Si02
#       7
#     2   2   2   2   2   2   2
#     4  12  27  43  72 106 144 187 243 295 354 429
#     4  12  28  46  76 110 140 183 247 301 357 429
#     4  12  28  50  76 104 150 193 238 299 370 434
#     4  12  23  42  71 109 138 185 243 301 353 411
#     4  12  28  49  70 107 147 196 237 289 373 438
#     4  12  24  44  74  97 145 191 235 294 360 428
#     4  12  24  45  71 101 143 188 235 299 358 422
#
# _framework density 23.000197
#
# number of rings (size 3 to 8) (size 9 to 14) (size 15 to 20)
#    0.000    0.000    4.286    5.143    8.000    1.143 
#    0.000    0.000    0.000    0.000    0.000    0.000 
#    0.000    0.000    0.000    0.000    0.000    0.000 
#
# Total GULP energy -173666.289248 kJ/mol
# GULP energy per Si atom -12404.734946 kJ/mol
# Density = 2.294785 g / cm^3
# Si number density = 23.000197 Si / 1000 Ang^3
#
#
#
# Elastic Constant Matrix: (Units=GPa)
#
#
# Indices 1 2 3 4 5 6 
#
# 1 94.9830 51.9822 40.5844 -2.0967 -15.3492 16.5735
# 2 51.9822 113.4971 44.3424 10.9529 -3.9832 7.6616
# 3 40.5844 44.3424 153.3804 -0.7139 -8.7440 10.0190
# 4 -2.0967 10.9529 -0.7139 43.1603 0.2081 -0.4824
# 5 -15.3492 -3.9832 -8.7440 0.2081 41.5711 1.9184
# 6 16.5735 7.6616 10.0190 -0.4824 1.9184 28.7805
#
#
#
# Elastic Compliance Matrix: (Units=1/GPa)
#
#
# Indices 1 2 3 4 5 6 
#
# 1 0.017341 -0.006742 -0.001784 0.002408 0.005734 -0.007912
# 2 -0.006742 0.012946 -0.002156 -0.003626 -0.001742 0.001242
# 3 -0.001784 -0.002156 0.007738 0.000572 0.000812 -0.001137
# 4 0.002408 -0.003626 0.000572 0.024211 0.000552 -0.000251
# 5 0.005734 -0.001742 0.000812 0.000552 0.026398 -0.004872
# 6 -0.007912 0.001242 -0.001137 -0.000251 -0.004872 0.039687
#
#
# Mechanical properties :
#
#
# Convention : Reuss Voigt Hill
#
# Bulk Modulus (GPa) = 60.02280 70.63095 65.32688
# Shear Modulus (GPa) = 32.20824 37.69915 34.95369
#
# Velocity S-wave (km/s) = 3.74618 4.05295 3.90258
# Velocity P-wave (km/s) = 6.69814 7.25792 6.98364
#
# Compressibility (1/GPa) = 0.01666034
#
# Stress axis : x y z
#
# Youngs Moduli (GPa) = 57.66779 77.24375 129.22581
#
# Poissons Ratio (x) = 0.52078 0.23058
# Poissons Ratio (y) = 0.38880 0.27862
# Poissons Ratio (z) = 0.10290 0.16654
#
# Static dielectric constant tensor:
#      x y z
#    x 3.887760 0.127690 -0.004650 
#    y 0.127690 4.234530 -0.022090 
#    z -0.004650 -0.022090 4.597750 
# 
# 
# High freq. dielectric constant tensor:
#      x y z
#    x 1.894120 0.006000 -0.002150 
#    y 0.006000 1.915340 -0.002700 
#    z -0.002150 -0.002700 1.939610 
# 
# From -- ./inp_files/126528.got.cif
#   From: 2010.06.25/outbox.cif.g09.slc.cpg/sg2_64_cif.got.tgz:126528.got - 2010.06.27 13:26:56.
