data_PCOD8036651
_publ_section_title
;
Structure prediction by ZEFSAII (Michael W. Deem and Ramdas Pophale) SiO2 
 PCOD8036651
Probable space group: P -1
;
_chemical_formula_sum "Si O2"
_cell_formula_units_Z 16
_cell_length_a 11.833574
_cell_length_b 16.978345
_cell_length_c 8.397046
_cell_angle_alpha 31.360931
_cell_angle_beta 65.544601
_cell_angle_gamma 57.280256
_cell_volume 734.315067
_symmetry_space_group_name_H-M "P -1"
_symmetry_group_IT_number 2
_symmetry_cell_setting 'triclinic'
loop_
_space_group_symop_operation_xyz
x,y,z
-x,-y,-z
loop_
_atom_site_type_symbol
_atom_site_label
_atom_site_fract_x
_atom_site_fract_y
_atom_site_fract_z
Si Si1 0.247291 0.344383 0.797907
Si Si2 0.192824 0.074539 0.790245
Si Si3 0.592727 0.257314 0.296216
Si Si4 0.756456 0.243378 0.514976
Si Si5 0.061262 0.603979 0.682277
Si Si6 0.620018 0.829857 0.272142
Si Si7 0.478479 0.458632 0.409017
Si Si8 0.647376 0.969787 0.525843
O O1 0.116818 0.501927 0.661056
O O2 0.255485 0.242301 0.805630
O O3 0.351051 0.417108 0.554770
O O4 0.285583 0.222259 0.135588
O O5 0.304115 0.139995 0.672145
O O6 0.254704 0.995648 0.719306
O O7 0.047937 0.220766 0.606129
O O8 0.165680 0.944149 0.146518
O O9 0.723989 0.256670 0.319995
O O10 0.458726 0.288664 0.430048
O O11 0.640500 0.080080 0.492325
O O12 0.539805 0.398758 0.952315
O O13 0.827687 0.363039 0.328707
O O14 0.608944 0.295286 0.583713
O O15 0.000000 0.500000 0.000000
O O16 0.500000 0.000000 0.000000
O O17 0.500000 0.500000 0.500000
O O18 0.500000 0.000000 0.500000
#
# Coordination Sequence:
#
# PCOD8036651 Si02
#       8
#     2   2   2   2   2   2   2   2
#     4  12  24  44  68 106 142 182 241 293 366 422
#     4  12  25  46  73  99 145 196 244 286 360 437
#     4  12  25  41  71 116 142 180 228 308 373 416
#     4  12  25  47  70 103 145 187 241 302 359 417
#     4  12  29  48  70  99 147 205 243 288 350 440
#     4  12  22  43  75 111 144 175 233 307 372 424
#     4  12  24  41  71 109 141 176 234 304 364 416
#     4  12  22  39  73 106 138 181 237 294 365 428
#
# _framework density 21.789012
#
# number of rings (size 3 to 8) (size 9 to 14) (size 15 to 20)
#    0.000    0.000    7.500    3.000    1.750    0.500 
#    0.000    0.625    0.000    0.000    0.000    0.000 
#    0.000    0.000    0.000    0.000    0.000    0.000 
#
# Total GULP energy -198238.748404 kJ/mol
# GULP energy per Si atom -12389.921775 kJ/mol
# Density = 2.173942 g / cm^3
# Si number density = 21.789012 Si / 1000 Ang^3
#
#
#
# Elastic Constant Matrix: (Units=GPa)
#
#
# Indices 1 2 3 4 5 6 
#
# 1 34.5609 87.2938 44.3416 18.2513 -4.4186 -5.6763
# 2 87.2938 92.9877 3.4808 -22.7362 16.8037 16.2000
# 3 44.3416 3.4808 117.7322 -0.0724 10.1776 3.8846
# 4 18.2513 -22.7362 -0.0724 31.0851 -0.2912 7.9765
# 5 -4.4186 16.8037 10.1776 -0.2912 35.9152 0.5101
# 6 -5.6763 16.2000 3.8846 7.9765 0.5101 30.2869
#
#
#
# Elastic Compliance Matrix: (Units=1/GPa)
#
#
# Indices 1 2 3 4 5 6 
#
# 1 -0.004114 0.008921 0.002013 0.011116 -0.005037 -0.008643
# 2 0.008921 -0.000025 -0.003663 -0.006209 0.002044 0.003756
# 3 0.002013 -0.003663 0.007785 -0.004495 -0.000317 0.002527
# 4 0.011116 -0.006209 -0.004495 0.021058 0.005712 0.000339
# 5 -0.005037 0.002044 -0.000317 0.005712 0.026460 -0.003947
# 6 -0.008643 0.003756 0.002527 0.000339 -0.003947 0.029042
#
#
# Mechanical properties :
#
#
# Convention : Reuss Voigt Hill
#
# Bulk Modulus (GPa) = 54.98451 57.27924 56.13188
# Shear Modulus (GPa) = 69.70882 26.80174 48.25528
#
# Velocity S-wave (km/s) = 5.66234 3.51102 4.71112
# Velocity P-wave (km/s) = 8.24859 6.54076 7.44382
#
# Compressibility (1/GPa) = 0.01818694
#
# Stress axis : x y z
#
# Youngs Moduli (GPa) = -243.07597 -39939.55948 128.44948
#
# Poissons Ratio (x) = 356.28731 -0.25859
# Poissons Ratio (y) = 2.16840 0.47057
# Poissons Ratio (z) = 0.48936 -146.31774
#
# Static dielectric constant tensor:
#      x y z
#    x 3.917210 0.150960 0.109970 
#    y 0.150960 4.225870 0.170650 
#    z 0.109970 0.170650 3.809160 
# 
# 
# High freq. dielectric constant tensor:
#      x y z
#    x 1.843520 0.020300 -0.002110 
#    y 0.020300 1.869420 -0.002270 
#    z -0.002110 -0.002270 1.867820 
# 
# From -- ./inp_files/217118.got.cif
#   From: 2010.06.25/outbox.cif.g09.slc.cpg/sg2_109_cif.got.tgz:217118.got - 2010.06.27 13:26:56.
