data_PCOD8036306
_publ_section_title
;
Structure prediction by ZEFSAII (Michael W. Deem and Ramdas Pophale) SiO2 
 PCOD8036306
Probable space group: P -1
;
_chemical_formula_sum "Si O2"
_cell_formula_units_Z 14
_cell_length_a 9.060960
_cell_length_b 14.764087
_cell_length_c 8.352550
_cell_angle_alpha 116.075690
_cell_angle_beta 99.982426
_cell_angle_gamma 32.592383
_cell_volume 493.782819
_symmetry_space_group_name_H-M "P -1"
_symmetry_group_IT_number 2
_symmetry_cell_setting 'triclinic'
loop_
_space_group_symop_operation_xyz
x,y,z
-x,-y,-z
loop_
_atom_site_type_symbol
_atom_site_label
_atom_site_fract_x
_atom_site_fract_y
_atom_site_fract_z
Si Si1 0.329093 0.901210 0.185952
Si Si2 0.836610 0.801703 0.751202
Si Si3 0.243541 0.256590 0.626600
Si Si4 0.551482 0.569671 0.283511
Si Si5 0.307008 0.301607 0.181057
Si Si6 0.879742 0.327793 0.837633
Si Si7 0.186752 0.939635 0.675850
O O1 0.437820 0.883735 0.362858
O O2 0.221868 0.044687 0.138662
O O3 0.620421 0.695080 0.980656
O O4 0.076265 0.966239 0.209320
O O5 0.687424 0.854962 0.596791
O O6 0.694247 0.820262 0.886972
O O7 0.198660 0.577470 0.645296
O O8 0.038823 0.464604 0.675749
O O9 0.094743 0.283040 0.763511
O O10 0.365330 0.572861 0.256844
O O11 0.304125 0.805230 0.438576
O O12 0.709833 0.484374 0.072690
O O13 0.519054 0.232071 0.293698
O O14 0.077499 0.116958 0.767972
#
# Coordination Sequence:
#
# PCOD8036306 Si02
#       7
#     2   2   2   2   2   2   2
#     4  12  28  47  79 113 151 198 258 312 382 452
#     4  12  26  49  78 107 156 198 256 313 382 450
#     4  12  27  50  75 112 153 200 253 314 380 453
#     4  11  26  47  80 111 153 201 251 312 386 444
#     4  12  27  49  78 109 154 200 255 312 382 453
#     4  11  27  48  80 110 159 194 258 312 383 449
#     4  12  27  50  81 114 153 200 255 315 381 454
#
# _framework density 28.352547999999999
#
# number of rings (size 3 to 8) (size 9 to 14) (size 15 to 20)
#    0.000    0.286    1.429    6.000    8.000    2.286 
#    0.000    0.000    0.000    0.000    0.000    0.000 
#    0.000    0.000    0.000    0.000    0.000    0.000 
#
# Total GULP energy -173551.987133 kJ/mol
# GULP energy per Si atom -12396.570509 kJ/mol
# Density = 2.828802 g / cm^3
# Si number density = 28.352548 Si / 1000 Ang^3
#
#
#
# Elastic Constant Matrix: (Units=GPa)
#
#
# Indices 1 2 3 4 5 6 
#
# 1 158.6848 62.2124 0.6271 4.8568 -14.0346 6.6662
# 2 62.2124 92.9513 5.2454 5.8228 -6.0325 -10.7690
# 3 0.6271 5.2454 86.2916 8.5216 -0.8616 13.3813
# 4 4.8568 5.8228 8.5216 24.1307 -2.4672 -0.2898
# 5 -14.0346 -6.0325 -0.8616 -2.4672 34.3104 -4.4229
# 6 6.6662 -10.7690 13.3813 -0.2898 -4.4229 39.2827
#
#
#
# Elastic Compliance Matrix: (Units=1/GPa)
#
#
# Indices 1 2 3 4 5 6 
#
# 1 0.009156 -0.006402 0.000911 -0.000438 0.002176 -0.003378
# 2 -0.006402 0.016016 -0.001690 -0.001823 0.000814 0.006131
# 3 0.000911 -0.001690 0.012912 -0.004456 -0.000580 -0.005114
# 4 -0.000438 -0.001823 -0.004456 0.043846 0.002764 0.001727
# 5 0.002176 0.000814 -0.000580 0.002764 0.030819 0.003542
# 6 -0.003378 0.006131 -0.005114 0.001727 0.003542 0.029864
#
#
# Mechanical properties :
#
#
# Convention : Reuss Voigt Hill
#
# Bulk Modulus (GPa) = 42.15314 52.67751 47.41533
# Shear Modulus (GPa) = 30.32474 37.53430 33.92952
#
# Velocity S-wave (km/s) = 3.27396 3.64241 3.46309
# Velocity P-wave (km/s) = 5.40292 6.02572 5.72280
#
# Compressibility (1/GPa) = 0.02372302
#
# Stress axis : x y z
#
# Youngs Moduli (GPa) = 109.21963 62.43786 77.44691
#
# Poissons Ratio (x) = 0.39974 -0.07058
# Poissons Ratio (y) = 0.69924 0.13086
# Poissons Ratio (z) = -0.09954 0.10550
#
# Static dielectric constant tensor:
#      x y z
#    x 5.301960 -0.184590 0.062980 
#    y -0.184590 5.414210 0.160270 
#    z 0.062980 0.160270 5.130890 
# 
# 
# High freq. dielectric constant tensor:
#      x y z
#    x 2.161560 -0.008250 0.001040 
#    y -0.008250 2.165250 0.010500 
#    z 0.001040 0.010500 2.145950 
# 
# From -- ./inp_files/208760.got.cif
#   From: 2010.06.25/outbox.cif.g09.slc.cpg/sg2_105_cif.got.tgz:208760.got - 2010.06.27 13:26:56.
