data_PCOD8036091
_publ_section_title
;
Structure prediction by ZEFSAII (Michael W. Deem and Ramdas Pophale) SiO2 
 PCOD8036091
Probable space group: P -1
;
_chemical_formula_sum "Si O2"
_cell_formula_units_Z 14
_cell_length_a 23.767453
_cell_length_b 13.636541
_cell_length_c 14.125619
_cell_angle_alpha 21.351020
_cell_angle_beta 22.597191
_cell_angle_gamma 23.076018
_cell_volume 578.322790
_symmetry_space_group_name_H-M "P -1"
_symmetry_group_IT_number 2
_symmetry_cell_setting 'triclinic'
loop_
_space_group_symop_operation_xyz
x,y,z
-x,-y,-z
loop_
_atom_site_type_symbol
_atom_site_label
_atom_site_fract_x
_atom_site_fract_y
_atom_site_fract_z
Si Si1 0.547402 0.814466 0.932887
Si Si2 0.809712 0.663822 0.159626
Si Si3 0.713945 0.095955 0.077429
Si Si4 0.351761 0.686013 0.632059
Si Si5 0.936592 0.195535 0.158367
Si Si6 0.197658 0.110627 0.224473
Si Si7 0.581580 0.456615 0.773835
O O1 0.626038 0.045153 0.592627
O O2 0.662928 0.528169 0.071539
O O3 0.518372 0.714241 0.963067
O O4 0.377435 0.978877 0.109129
O O5 0.704110 0.471655 0.486529
O O6 0.761783 0.924626 0.920525
O O7 0.000000 0.500000 0.000000
O O8 0.757866 0.779607 0.242896
O O9 0.679708 0.323595 0.837877
O O10 0.557673 0.209516 0.285507
O O11 0.875181 0.029494 0.950185
O O12 0.500000 0.500000 0.500000
O O13 0.178112 0.838933 0.712234
O O14 0.897423 0.080046 0.423616
O O15 0.904243 0.539474 0.909365
#
# Coordination Sequence:
#
# PCOD8036091 Si02
#       7
#     2   2   2   2   2   2   2
#     4  12  23  42  69  99 139 187 227 285 352 412
#     4  12  23  40  70 106 139 177 230 292 351 415
#     4  11  26  44  69  98 144 189 229 288 349 424
#     4  12  23  41  68 104 142 177 230 295 347 404
#     4  12  25  42  66 107 142 179 231 285 353 410
#     4  12  22  38  68 105 142 169 226 294 347 402
#     4  11  26  47  66 101 142 190 232 280 355 425
#
# _framework density 24.207934999999999
#
# number of rings (size 3 to 8) (size 9 to 14) (size 15 to 20)
#    0.000    0.286    5.714    4.286    0.000    1.143 
#    0.000    1.429    0.000    0.000    0.000    0.000 
#    0.000    0.000    0.000    0.000    0.000    0.000 
#
# Total GULP energy -173487.685163 kJ/mol
# GULP energy per Si atom -12391.977512 kJ/mol
# Density = 2.415284 g / cm^3
# Si number density = 24.207935 Si / 1000 Ang^3
#
#
#
# Elastic Constant Matrix: (Units=GPa)
#
#
# Indices 1 2 3 4 5 6 
#
# 1 104.8214 52.6835 18.9087 4.3307 -13.4962 -24.3048
# 2 52.6835 127.5485 32.7714 14.4251 -8.3093 -15.2987
# 3 18.9087 32.7714 83.0111 -2.9905 7.5101 -9.4125
# 4 4.3307 14.4251 -2.9905 38.9224 -6.2280 -5.3177
# 5 -13.4962 -8.3093 7.5101 -6.2280 32.5922 -3.7994
# 6 -24.3048 -15.2987 -9.4125 -5.3177 -3.7994 45.5731
#
#
#
# Elastic Compliance Matrix: (Units=1/GPa)
#
#
# Indices 1 2 3 4 5 6 
#
# 1 0.014321 -0.004642 -0.001171 0.001919 0.006150 0.006574
# 2 -0.004642 0.011186 -0.003566 -0.003705 0.001066 0.000199
# 3 -0.001171 -0.003566 0.014288 0.002019 -0.004182 0.001016
# 4 0.001919 -0.003705 0.002019 0.028390 0.005270 0.003949
# 5 0.006150 0.001066 -0.004182 0.005270 0.036218 0.006409
# 6 0.006574 0.000199 0.001016 0.003949 0.006409 0.026721
#
#
# Mechanical properties :
#
#
# Convention : Reuss Voigt Hill
#
# Bulk Modulus (GPa) = 47.53790 58.23424 52.88607
# Shear Modulus (GPa) = 31.86829 37.48538 34.67683
#
# Velocity S-wave (km/s) = 3.63221 3.93934 3.78889
# Velocity P-wave (km/s) = 6.10496 6.69322 6.40585
#
# Compressibility (1/GPa) = 0.02103585
#
# Stress axis : x y z
#
# Youngs Moduli (GPa) = 69.82522 89.39451 69.99111
#
# Poissons Ratio (x) = 0.41500 0.08198
# Poissons Ratio (y) = 0.32416 0.24959
# Poissons Ratio (z) = 0.08179 0.31879
#
# Static dielectric constant tensor:
#      x y z
#    x 4.667030 -0.360650 0.073400 
#    y -0.360650 4.603460 -0.209150 
#    z 0.073400 -0.209150 4.255970 
# 
# 
# High freq. dielectric constant tensor:
#      x y z
#    x 1.954310 -0.020720 -0.010350 
#    y -0.020720 1.967510 -0.022130 
#    z -0.010350 -0.022130 1.946440 
# 
# From -- ./inp_files/372990.got.cif
#   From: 2010.06.25/outbox.cif.g09.slc.cpg/sg2_187_cif.got.tgz:372990.got - 2010.06.27 13:26:56.
