data_PCOD8036245
_publ_section_title
;
Structure prediction by ZEFSAII (Michael W. Deem and Ramdas Pophale) SiO2 
 PCOD8036245
Probable space group: P -1
;
_chemical_formula_sum "Si O2"
_cell_formula_units_Z 14
_cell_length_a 11.445904
_cell_length_b 8.641026
_cell_length_c 8.734457
_cell_angle_alpha 131.062083
_cell_angle_beta 101.020635
_cell_angle_gamma 67.768722
_cell_volume 600.901506
_symmetry_space_group_name_H-M "P -1"
_symmetry_group_IT_number 2
_symmetry_cell_setting 'triclinic'
loop_
_space_group_symop_operation_xyz
x,y,z
-x,-y,-z
loop_
_atom_site_type_symbol
_atom_site_label
_atom_site_fract_x
_atom_site_fract_y
_atom_site_fract_z
Si Si1 0.397117 0.889063 0.873188
Si Si2 0.614310 0.581819 0.046086
Si Si3 0.788157 0.195136 0.010604
Si Si4 0.880532 0.806828 0.564534
Si Si5 0.322461 0.018637 0.625669
Si Si6 0.394566 0.539435 0.363491
Si Si7 0.842506 0.412076 0.451104
O O1 0.331332 0.871840 0.005172
O O2 0.469343 0.639573 0.657276
O O3 0.294641 0.015558 0.800612
O O4 0.500000 0.000000 0.000000
O O5 0.741707 0.412970 0.039148
O O6 0.596256 0.820011 0.270902
O O7 0.500000 0.500000 0.000000
O O8 0.629124 0.595832 0.876157
O O9 0.861044 0.241582 0.205382
O O10 0.877435 0.003257 0.804210
O O11 0.807585 0.898812 0.448317
O O12 0.816105 0.654115 0.536384
O O13 0.026897 0.670806 0.473019
O O14 0.403491 0.766026 0.440776
O O15 0.274966 0.584101 0.473390
#
# Coordination Sequence:
#
# PCOD8036245 Si02
#       7
#     2   2   2   2   2   2   2
#     4  12  24  44  69 103 139 177 223 285 348 411
#     4  12  25  45  66 105 143 176 226 282 344 417
#     4  12  23  46  69  99 139 178 227 285 342 403
#     4  11  26  47  71 100 134 185 233 282 336 403
#     4  12  25  44  70 101 139 182 228 280 344 406
#     4  12  25  45  69 103 141 177 226 281 347 404
#     4  11  26  47  71  99 137 181 234 280 340 404
#
# _framework density 23.298325999999999
#
# number of rings (size 3 to 8) (size 9 to 14) (size 15 to 20)
#    0.000    0.286    7.143    1.714    0.000    1.143 
#    2.571    0.714    0.000    0.000    0.000    0.000 
#    0.000    0.000    0.000    0.000    0.000    0.000 
#
# Total GULP energy -173563.120881 kJ/mol
# GULP energy per Si atom -12397.365777 kJ/mol
# Density = 2.324530 g / cm^3
# Si number density = 23.298326 Si / 1000 Ang^3
#
#
#
# Elastic Constant Matrix: (Units=GPa)
#
#
# Indices 1 2 3 4 5 6 
#
# 1 90.5056 53.7011 33.1612 4.8843 8.9750 -6.7527
# 2 53.7011 171.3408 47.5992 -2.6304 7.5465 -15.9794
# 3 33.1612 47.5992 111.4912 8.7992 14.0999 -3.3676
# 4 4.8843 -2.6304 8.7992 47.4264 6.7018 11.4436
# 5 8.9750 7.5465 14.0999 6.7018 34.9500 2.2900
# 6 -6.7527 -15.9794 -3.3676 11.4436 2.2900 30.0879
#
#
#
# Elastic Compliance Matrix: (Units=1/GPa)
#
#
# Indices 1 2 3 4 5 6 
#
# 1 0.014467 -0.003664 -0.002345 -0.001415 -0.001819 0.001715
# 2 -0.003664 0.007888 -0.002211 0.000543 -0.000166 0.002925
# 3 -0.002345 -0.002211 0.011146 -0.001601 -0.003136 0.000395
# 4 -0.001415 0.000543 -0.001601 0.024218 -0.003150 -0.009180
# 5 -0.001819 -0.000166 -0.003136 -0.003150 0.031117 -0.002017
# 6 0.001715 0.002925 0.000395 -0.009180 -0.002017 0.038864
#
#
# Mechanical properties :
#
#
# Convention : Reuss Voigt Hill
#
# Bulk Modulus (GPa) = 58.61919 71.36229 64.99074
# Shear Modulus (GPa) = 33.37197 38.41793 35.89495
#
# Velocity S-wave (km/s) = 3.78878 4.06514 3.92939
# Velocity P-wave (km/s) = 6.65993 7.26155 6.96724
#
# Compressibility (1/GPa) = 0.01705926
#
# Stress axis : x y z
#
# Youngs Moduli (GPa) = 69.12164 126.78281 89.72150
#
# Poissons Ratio (x) = 0.46459 0.21040
# Poissons Ratio (y) = 0.25330 0.19837
# Poissons Ratio (z) = 0.16210 0.28031
#
# Static dielectric constant tensor:
#      x y z
#    x 3.745530 0.052510 0.370140 
#    y 0.052510 4.689920 0.026170 
#    z 0.370140 0.026170 4.705870 
# 
# 
# High freq. dielectric constant tensor:
#      x y z
#    x 1.888050 0.002030 0.034410 
#    y 0.002030 1.949540 0.001350 
#    z 0.034410 0.001350 1.940280 
# 
# From -- ./inp_files/202329.got.cif
#   From: 2010.06.25/outbox.cif.g09.slc.cpg/sg2_102_cif.got.tgz:202329.got - 2010.06.27 13:26:56.
