data_PCOD8036440
_publ_section_title
;
Structure prediction by ZEFSAII (Michael W. Deem and Ramdas Pophale) SiO2 
 PCOD8036440
Probable space group: P -1
;
_chemical_formula_sum "Si O2"
_cell_formula_units_Z 16
_cell_length_a 6.641589
_cell_length_b 23.665054
_cell_length_c 15.578557
_cell_angle_alpha 26.477605
_cell_angle_beta 55.743078
_cell_angle_gamma 72.995451
_cell_volume 739.032077
_symmetry_space_group_name_H-M "P -1"
_symmetry_group_IT_number 2
_symmetry_cell_setting 'triclinic'
loop_
_space_group_symop_operation_xyz
x,y,z
-x,-y,-z
loop_
_atom_site_type_symbol
_atom_site_label
_atom_site_fract_x
_atom_site_fract_y
_atom_site_fract_z
Si Si1 0.743467 0.285445 0.218579
Si Si2 0.288687 0.846369 0.313358
Si Si3 0.794707 0.051936 0.622642
Si Si4 0.667684 0.538371 0.496164
Si Si5 0.581918 0.878160 0.646357
Si Si6 0.670468 0.253068 0.936145
Si Si7 0.372710 0.585740 0.662285
Si Si8 0.627325 0.632383 0.717223
O O1 0.834018 0.170202 0.379114
O O2 0.621301 0.254234 0.193843
O O3 0.489873 0.261544 0.376296
O O4 0.019365 0.462770 0.918236
O O5 0.217062 0.886332 0.367009
O O6 0.446068 0.757170 0.408748
O O7 0.981899 0.736528 0.485383
O O8 0.500000 0.000000 0.000000
O O9 0.070678 0.037475 0.572498
O O10 0.489885 0.885293 0.906192
O O11 0.500000 0.500000 0.500000
O O12 0.690665 0.397430 0.697481
O O13 0.491636 0.554889 0.590899
O O14 0.995841 0.698779 0.192681
O O15 0.500000 0.000000 0.500000
O O16 0.518038 0.798485 0.861748
O O17 0.514988 0.562402 0.744064
O O18 0.500000 0.500000 0.000000
#
# Coordination Sequence:
#
# PCOD8036440 Si02
#       8
#     2   2   2   2   2   2   2   2
#     4  12  24  44  74 104 143 184 241 303 356 418
#     4  12  29  46  71 106 149 191 236 296 362 430
#     4  12  26  46  71 106 145 185 240 298 357 432
#     4  11  28  48  72 100 144 194 237 296 353 430
#     4  12  26  43  73 108 141 186 233 300 362 421
#     4  11  27  46  70 104 143 185 245 288 359 430
#     4  12  27  45  75 105 142 188 245 292 359 432
#     4  12  25  47  73 104 143 188 241 299 358 425
#
# _framework density 21.649940999999998
#
# number of rings (size 3 to 8) (size 9 to 14) (size 15 to 20)
#    0.000    0.250    5.000    3.000    8.750    2.500 
#    0.000    0.000    0.000    0.000    0.000    0.000 
#    0.000    0.000    0.000    0.000    0.000    0.000 
#
# Total GULP energy -198510.261324 kJ/mol
# GULP energy per Si atom -12406.891333 kJ/mol
# Density = 2.160066 g / cm^3
# Si number density = 21.649941 Si / 1000 Ang^3
#
#
#
# Elastic Constant Matrix: (Units=GPa)
#
#
# Indices 1 2 3 4 5 6 
#
# 1 128.2716 46.4454 49.5576 -3.1336 -10.0255 13.0333
# 2 46.4454 101.2003 12.6796 0.6797 -2.6248 15.2976
# 3 49.5576 12.6796 117.4060 -10.4879 -6.5300 5.4549
# 4 -3.1336 0.6797 -10.4879 33.4913 2.2680 -0.2834
# 5 -10.0255 -2.6248 -6.5300 2.2680 37.5360 -7.2313
# 6 13.0333 15.2976 5.4549 -0.2834 -7.2313 47.5521
#
#
#
# Elastic Compliance Matrix: (Units=1/GPa)
#
#
# Indices 1 2 3 4 5 6 
#
# 1 0.011235 -0.004452 -0.004145 -0.000287 0.001813 -0.000898
# 2 -0.004452 0.012273 0.000607 -0.000449 -0.000760 -0.002916
# 3 -0.004145 0.000607 0.010494 0.002847 0.000558 -0.000161
# 4 -0.000287 -0.000449 0.002847 0.030833 -0.001504 -0.000149
# 5 0.001813 -0.000760 0.000558 -0.001504 0.028018 0.003935
# 6 -0.000898 -0.002916 -0.000161 -0.000149 0.003935 0.022830
#
#
# Mechanical properties :
#
#
# Convention : Reuss Voigt Hill
#
# Bulk Modulus (GPa) = 55.48711 62.69370 59.09041
# Shear Modulus (GPa) = 36.31850 39.59556 37.95703
#
# Velocity S-wave (km/s) = 4.10021 4.28120 4.19169
# Velocity P-wave (km/s) = 6.93545 7.31157 7.12599
#
# Compressibility (1/GPa) = 0.01802220
#
# Stress axis : x y z
#
# Youngs Moduli (GPa) = 89.00496 81.48086 95.29037
#
# Poissons Ratio (x) = 0.36279 0.39495
# Poissons Ratio (y) = 0.39629 -0.05785
# Poissons Ratio (z) = 0.36890 -0.04947
#
# Static dielectric constant tensor:
#      x y z
#    x 4.209780 0.061060 -0.150750 
#    y 0.061060 4.052580 -0.044530 
#    z -0.150750 -0.044530 4.020100 
# 
# 
# High freq. dielectric constant tensor:
#      x y z
#    x 1.868520 0.003740 -0.004680 
#    y 0.003740 1.863170 -0.005980 
#    z -0.004680 -0.005980 1.847950 
# 
# From -- ./inp_files/485958.got.cif
#   From: 2010.06.25/outbox.cif.g09.slc.cpg/sg2_243_cif.got.tgz:485958.got - 2010.06.27 13:26:56.
