data_PCOD8036279
_publ_section_title
;
Structure prediction by ZEFSAII (Michael W. Deem and Ramdas Pophale) SiO2 
 PCOD8036279
Probable space group: P -1
;
_chemical_formula_sum "Si O2"
_cell_formula_units_Z 16
_cell_length_a 9.494746
_cell_length_b 15.520944
_cell_length_c 8.578525
_cell_angle_alpha 92.692269
_cell_angle_beta 130.430472
_cell_angle_gamma 119.314246
_cell_volume 701.227430
_symmetry_space_group_name_H-M "P -1"
_symmetry_group_IT_number 2
_symmetry_cell_setting 'triclinic'
loop_
_space_group_symop_operation_xyz
x,y,z
-x,-y,-z
loop_
_atom_site_type_symbol
_atom_site_label
_atom_site_fract_x
_atom_site_fract_y
_atom_site_fract_z
Si Si1 0.542391 0.653255 0.713115
Si Si2 0.530308 0.005058 0.706579
Si Si3 0.003436 0.089538 0.601251
Si Si4 0.751642 0.896170 0.907803
Si Si5 0.041227 0.468383 0.189412
Si Si6 0.753670 0.667293 0.354297
Si Si7 0.014559 0.271045 0.140731
Si Si8 0.268570 0.514893 0.815888
O O1 0.585491 0.766816 0.701827
O O2 0.339052 0.548831 0.438472
O O3 0.808802 0.688091 0.880985
O O4 0.446386 0.612342 0.817548
O O5 0.500000 0.000000 0.500000
O O6 0.283394 0.969089 0.598512
O O7 0.564530 0.918460 0.787659
O O8 0.775272 0.132832 0.953865
O O9 0.158330 0.214641 0.642563
O O10 0.000000 0.000000 0.500000
O O11 0.147454 0.114083 0.863834
O O12 0.000000 0.000000 0.000000
O O13 0.904392 0.332484 0.068113
O O14 0.946611 0.488766 0.278048
O O15 0.000000 0.500000 0.000000
O O16 0.816128 0.691926 0.582429
O O17 0.870918 0.618051 0.352683
O O18 0.451239 0.557916 0.100824
#
# Coordination Sequence:
#
# PCOD8036279 Si02
#       8
#     2   2   2   2   2   2   2   2
#     4  12  25  48  77 103 147 195 247 302 381 444
#     4  12  28  48  77 108 148 200 253 304 376 452
#     4  12  28  47  77 110 147 197 247 312 379 435
#     4  12  25  49  75 108 146 196 251 306 372 449
#     4  12  29  43  73 112 147 191 249 307 372 443
#     4  11  26  47  75 101 152 189 248 302 382 439
#     4  12  27  47  73 106 148 193 249 309 373 450
#     4  11  26  48  74 108 146 194 244 305 372 450
#
# _framework density 22.817135
#
# number of rings (size 3 to 8) (size 9 to 14) (size 15 to 20)
#    0.000    0.250    5.000    2.250    8.750    2.000 
#    0.000    0.000    0.000    0.000    0.000    0.000 
#    0.000    0.000    0.000    0.000    0.000    0.000 
#
# Total GULP energy -198386.524251 kJ/mol
# GULP energy per Si atom -12399.157766 kJ/mol
# Density = 2.276520 g / cm^3
# Si number density = 22.817135 Si / 1000 Ang^3
#
#
#
# Elastic Constant Matrix: (Units=GPa)
#
#
# Indices 1 2 3 4 5 6 
#
# 1 120.0761 49.7461 15.1471 -2.8659 7.0552 -23.4888
# 2 49.7461 163.0784 20.2192 1.3316 -11.5176 -22.8904
# 3 15.1471 20.2192 95.6264 -1.9811 -3.0023 -0.9782
# 4 -2.8659 1.3316 -1.9811 43.7501 -6.1962 -8.7928
# 5 7.0552 -11.5176 -3.0023 -6.1962 35.6602 -6.6883
# 6 -23.4888 -22.8904 -0.9782 -8.7928 -6.6883 43.5315
#
#
#
# Elastic Compliance Matrix: (Units=1/GPa)
#
#
# Indices 1 2 3 4 5 6 
#
# 1 0.010535 -0.002637 -0.001105 0.001284 -0.002014 0.004223
# 2 -0.002637 0.007798 -0.001065 0.000746 0.003713 0.003375
# 3 -0.001105 -0.001065 0.010882 0.000412 0.000728 -0.000716
# 4 0.001284 0.000746 0.000412 0.025165 0.005718 0.007056
# 5 -0.002014 0.003713 0.000728 0.005718 0.031999 0.006954
# 6 0.004223 0.003375 -0.000716 0.007056 0.006954 0.029503
#
#
# Mechanical properties :
#
#
# Convention : Reuss Voigt Hill
#
# Bulk Modulus (GPa) = 51.01316 61.00063 56.00690
# Shear Modulus (GPa) = 37.87094 44.16626 41.01860
#
# Velocity S-wave (km/s) = 4.07843 4.40439 4.24454
# Velocity P-wave (km/s) = 6.67713 7.25655 6.97286
#
# Compressibility (1/GPa) = 0.01960279
#
# Stress axis : x y z
#
# Youngs Moduli (GPa) = 94.92409 128.23457 91.89893
#
# Poissons Ratio (x) = 0.33809 0.10152
# Poissons Ratio (y) = 0.25027 0.09784
# Poissons Ratio (z) = 0.10486 0.13653
#
# Static dielectric constant tensor:
#      x y z
#    x 4.170570 -0.225950 0.063250 
#    y -0.225950 4.265020 0.028670 
#    z 0.063250 0.028670 4.249210 
# 
# 
# High freq. dielectric constant tensor:
#      x y z
#    x 1.897280 -0.012690 -0.004310 
#    y -0.012690 1.919040 0.002170 
#    z -0.004310 0.002170 1.913040 
# 
# From -- ./inp_files/208053.got.cif
#   From: 2010.06.25/outbox.cif.g09.slc.cpg/sg2_105_cif.got.tgz:208053.got - 2010.06.27 13:26:56.
