data_PCOD8036366
_publ_section_title
;
Structure prediction by ZEFSAII (Michael W. Deem and Ramdas Pophale) SiO2 
 PCOD8036366
Probable space group: P -1
;
_chemical_formula_sum "Si O2"
_cell_formula_units_Z 14
_cell_length_a 12.075683
_cell_length_b 17.359280
_cell_length_c 9.144852
_cell_angle_alpha 69.421863
_cell_angle_beta 130.435422
_cell_angle_gamma 151.205408
_cell_volume 566.596463
_symmetry_space_group_name_H-M "P -1"
_symmetry_group_IT_number 2
_symmetry_cell_setting 'triclinic'
loop_
_space_group_symop_operation_xyz
x,y,z
-x,-y,-z
loop_
_atom_site_type_symbol
_atom_site_label
_atom_site_fract_x
_atom_site_fract_y
_atom_site_fract_z
Si Si1 0.260653 0.565939 0.121098
Si Si2 0.720905 0.913695 0.709925
Si Si3 0.442920 0.547405 0.523414
Si Si4 0.733320 0.193444 0.752476
Si Si5 0.800251 0.696850 0.035072
Si Si6 0.359113 0.880330 0.820695
Si Si7 0.683307 0.874303 0.027832
O O1 0.516109 0.665715 0.404415
O O2 0.483738 0.711215 0.076485
O O3 0.000000 0.500000 0.000000
O O4 0.023261 0.364846 0.008774
O O5 0.391794 0.784017 0.433899
O O6 0.564968 0.799724 0.806499
O O7 0.897334 0.932839 0.747114
O O8 0.038615 0.141322 0.856040
O O9 0.500000 0.500000 0.500000
O O10 0.688699 0.667207 0.795609
O O11 0.042212 0.352296 0.363634
O O12 0.399603 0.970263 0.671357
O O13 0.907077 0.223270 0.763914
O O14 0.500000 0.500000 0.000000
O O15 0.614616 0.933427 0.975112
O O16 0.500000 0.000000 0.000000
#
# Coordination Sequence:
#
# PCOD8036366 Si02
#       7
#     2   2   2   2   2   2   2
#     4  12  25  47  70 108 146 190 242 305 374 435
#     4  11  27  48  73 105 149 197 244 306 365 440
#     4  12  26  46  75 109 146 191 245 305 370 438
#     4  12  25  46  75 105 141 191 254 295 360 436
#     4  12  25  45  75 108 143 191 251 301 359 440
#     4  12  23  48  75 104 143 188 241 307 359 438
#     4  11  26  49  69 107 151 189 245 298 378 433
#
# _framework density 24.708942
#
# number of rings (size 3 to 8) (size 9 to 14) (size 15 to 20)
#    0.000    0.286    5.714    2.143    4.000    2.857 
#    0.000    2.143    0.000    0.000    0.000    0.000 
#    0.000    0.000    0.000    0.000    0.000    0.000 
#
# Total GULP energy -173500.397635 kJ/mol
# GULP energy per Si atom -12392.885545 kJ/mol
# Density = 2.465270 g / cm^3
# Si number density = 24.708942 Si / 1000 Ang^3
#
#
#
# Elastic Constant Matrix: (Units=GPa)
#
#
# Indices 1 2 3 4 5 6 
#
# 1 147.3303 24.1461 34.4684 -9.7242 29.0550 17.1915
# 2 24.1461 130.8708 22.2739 -29.8793 -3.2371 28.7315
# 3 34.4684 22.2739 116.9019 -27.4281 22.2196 9.6479
# 4 -9.7242 -29.8793 -27.4281 39.9226 -11.1380 -2.0212
# 5 29.0550 -3.2371 22.2196 -11.1380 44.4422 1.9281
# 6 17.1915 28.7315 9.6479 -2.0212 1.9281 43.9785
#
#
#
# Elastic Compliance Matrix: (Units=1/GPa)
#
#
# Indices 1 2 3 4 5 6 
#
# 1 0.008511 -0.001367 -0.001445 -0.001502 -0.005233 -0.001956
# 2 -0.001367 0.011599 0.000117 0.009283 0.004303 -0.006831
# 3 -0.001445 0.000117 0.011170 0.006514 -0.002932 -0.001534
# 4 -0.001502 0.009283 0.006514 0.038112 0.008192 -0.005514
# 5 -0.005233 0.004303 -0.002932 0.008192 0.029800 -0.001052
# 6 -0.001956 -0.006831 -0.001534 -0.005514 -0.001052 0.028095
#
#
# Mechanical properties :
#
#
# Convention : Reuss Voigt Hill
#
# Bulk Modulus (GPa) = 38.62612 61.87554 50.25083
# Shear Modulus (GPa) = 35.38367 46.61632 40.99999
#
# Velocity S-wave (km/s) = 3.78831 4.34823 4.07789
# Velocity P-wave (km/s) = 5.89927 7.09265 6.52331
#
# Compressibility (1/GPa) = 0.02588922
#
# Stress axis : x y z
#
# Youngs Moduli (GPa) = 117.49889 86.21434 89.52259
#
# Poissons Ratio (x) = 0.11787 0.12939
# Poissons Ratio (y) = 0.16064 -0.01048
# Poissons Ratio (z) = 0.16982 -0.01009
#
# Static dielectric constant tensor:
#      x y z
#    x 4.858570 0.089100 0.185910 
#    y 0.089100 4.918170 -0.210800 
#    z 0.185910 -0.210800 4.616120 
# 
# 
# High freq. dielectric constant tensor:
#      x y z
#    x 2.002870 0.002190 0.012420 
#    y 0.002190 1.987080 -0.019590 
#    z 0.012420 -0.019590 1.984710 
# 
# From -- ./inp_files/279271.got.cif
#   From: 2010.06.25/outbox.cif.g09.slc.cpg/sg2_140_cif.got.tgz:279271.got - 2010.06.27 13:26:56.
