data_PCOD8036113
_publ_section_title
;
Structure prediction by ZEFSAII (Michael W. Deem and Ramdas Pophale) SiO2 
 PCOD8036113
Probable space group: P -1
;
_chemical_formula_sum "Si O2"
_cell_formula_units_Z 16
_cell_length_a 9.182271
_cell_length_b 9.214430
_cell_length_c 14.984433
_cell_angle_alpha 95.834189
_cell_angle_beta 73.866439
_cell_angle_gamma 43.516178
_cell_volume 745.323257
_symmetry_space_group_name_H-M "P -1"
_symmetry_group_IT_number 2
_symmetry_cell_setting 'triclinic'
loop_
_space_group_symop_operation_xyz
x,y,z
-x,-y,-z
loop_
_atom_site_type_symbol
_atom_site_label
_atom_site_fract_x
_atom_site_fract_y
_atom_site_fract_z
Si Si1 0.288753 0.925466 0.659387
Si Si2 0.694533 0.374926 0.036730
Si Si3 0.395863 0.106549 0.121609
Si Si4 0.244830 0.939039 0.865931
Si Si5 0.489556 0.785229 0.213594
Si Si6 0.123394 0.371445 0.727631
Si Si7 0.175161 0.462556 0.529616
Si Si8 0.994632 0.927998 0.590841
O O1 0.314160 0.838815 0.748150
O O2 0.550330 0.770656 0.565334
O O3 0.167746 0.888912 0.622556
O O4 0.123899 0.196768 0.704041
O O5 0.682015 0.242009 0.090533
O O6 0.647446 0.548765 0.117728
O O7 0.500000 0.500000 0.000000
O O8 0.958343 0.196747 0.935653
O O9 0.599927 0.036557 0.137769
O O10 0.141516 0.386098 0.172191
O O11 0.352359 0.991186 0.177217
O O12 0.500000 0.000000 0.000000
O O13 0.665472 0.741851 0.246563
O O14 0.282475 0.861942 0.311722
O O15 0.161046 0.422744 0.631013
O O16 0.099388 0.687048 0.548537
O O17 0.000000 0.500000 0.500000
O O18 0.000000 0.000000 0.500000
#
# Coordination Sequence:
#
# PCOD8036113 Si02
#       8
#     2   2   2   2   2   2   2   2
#     4  12  26  44  73 102 141 186 233 289 354 416
#     4  11  26  45  71 101 148 186 231 290 356 415
#     4  12  26  45  73 103 144 186 242 290 348 416
#     4  11  26  45  68 108 139 187 236 287 350 422
#     4  12  26  46  72 106 140 187 237 291 350 419
#     4  12  26  47  72 103 142 186 233 291 351 418
#     4  12  25  48  74 103 142 183 233 291 352 425
#     4  12  27  46  71 107 143 182 236 291 355 422
#
# _framework density 21.467196000000001
#
# number of rings (size 3 to 8) (size 9 to 14) (size 15 to 20)
#    0.000    0.250    2.500    6.000    8.750    3.000 
#    0.000    0.000    0.000    0.000    0.000    0.000 
#    0.000    0.000    0.000    0.000    0.000    0.000 
#
# Total GULP energy -198522.477113 kJ/mol
# GULP energy per Si atom -12407.654820 kJ/mol
# Density = 2.141834 g / cm^3
# Si number density = 21.467196 Si / 1000 Ang^3
#
#
#
# Elastic Constant Matrix: (Units=GPa)
#
#
# Indices 1 2 3 4 5 6 
#
# 1 145.4366 44.7837 62.0545 5.3332 5.8989 -9.1933
# 2 44.7837 114.3782 57.5212 5.3239 0.0598 -2.1689
# 3 62.0545 57.5212 145.1299 -9.9339 6.0785 -5.5225
# 4 5.3332 5.3239 -9.9339 41.8477 0.6328 4.7398
# 5 5.8989 0.0598 6.0785 0.6328 41.2860 1.2679
# 6 -9.1933 -2.1689 -5.5225 4.7398 1.2679 38.3232
#
#
#
# Elastic Compliance Matrix: (Units=1/GPa)
#
#
# Indices 1 2 3 4 5 6 
#
# 1 0.008999 -0.001818 -0.003148 -0.001861 -0.000848 0.001860
# 2 -0.001818 0.011564 -0.003996 -0.002188 0.000868 -0.000116
# 3 -0.003148 -0.003996 0.010096 0.003312 -0.001085 0.000100
# 4 -0.001861 -0.002188 0.003312 0.025572 -0.000511 -0.003239
# 5 -0.000848 0.000868 -0.001085 -0.000511 0.024541 -0.001059
# 6 0.001860 -0.000116 0.000100 -0.003239 -0.001059 0.026984
#
#
# Mechanical properties :
#
#
# Convention : Reuss Voigt Hill
#
# Bulk Modulus (GPa) = 78.53079 81.51820 80.02449
# Shear Modulus (GPa) = 38.48319 40.33041 39.40680
#
# Velocity S-wave (km/s) = 4.23856 4.33910 4.28913
# Velocity P-wave (km/s) = 7.78557 7.94730 7.86685
#
# Compressibility (1/GPa) = 0.01273386
#
# Stress axis : x y z
#
# Youngs Moduli (GPa) = 111.12057 86.47715 99.04463
#
# Poissons Ratio (x) = 0.15720 0.31184
# Poissons Ratio (y) = 0.20200 0.39583
# Poissons Ratio (z) = 0.34986 0.34560
#
# Static dielectric constant tensor:
#      x y z
#    x 3.894870 0.133330 -0.121320 
#    y 0.133330 3.913070 0.092270 
#    z -0.121320 0.092270 4.151630 
# 
# 
# High freq. dielectric constant tensor:
#      x y z
#    x 1.857750 0.000690 -0.000270 
#    y 0.000690 1.857360 -0.004580 
#    z -0.000270 -0.004580 1.867590 
# 
# From -- ./inp_files/90192.got.cif
#   From: 2010.06.25/outbox.cif.g09.slc.cpg/sg2_46_cif.got.tgz:90192.got - 2010.06.27 13:26:56.
