data_PCOD8036411
_publ_section_title
;
Structure prediction by ZEFSAII (Michael W. Deem and Ramdas Pophale) SiO2 
 PCOD8036411
Probable space group: P -1
;
_chemical_formula_sum "Si O2"
_cell_formula_units_Z 14
_cell_length_a 20.143055
_cell_length_b 11.758867
_cell_length_c 5.088373
_cell_angle_alpha 111.120781
_cell_angle_beta 59.227906
_cell_angle_gamma 148.762150
_cell_volume 528.921269
_symmetry_space_group_name_H-M "P -1"
_symmetry_group_IT_number 2
_symmetry_cell_setting 'triclinic'
loop_
_space_group_symop_operation_xyz
x,y,z
-x,-y,-z
loop_
_atom_site_type_symbol
_atom_site_label
_atom_site_fract_x
_atom_site_fract_y
_atom_site_fract_z
Si Si1 0.074796 0.511687 0.624447
Si Si2 0.130018 0.446803 0.944499
Si Si3 0.520682 0.884668 0.904139
Si Si4 0.659029 0.685162 0.424790
Si Si5 0.064552 0.017650 0.130638
Si Si6 0.382647 0.605489 0.459908
Si Si7 0.796731 0.123607 0.639730
O O1 0.152049 0.582859 0.799693
O O2 0.103499 0.693528 0.650998
O O3 0.904362 0.266685 0.788104
O O4 0.136957 0.504643 0.272777
O O5 0.250017 0.504891 0.742165
O O6 0.983476 0.186285 0.953456
O O7 0.507810 0.800889 0.578313
O O8 0.675158 0.064999 0.862151
O O9 0.414231 0.685033 0.163993
O O10 0.500000 0.000000 0.000000
O O11 0.500000 0.500000 0.500000
O O12 0.649330 0.581218 0.608635
O O13 0.728977 0.902134 0.561590
O O14 0.762815 0.759698 0.055842
O O15 0.000000 0.000000 0.500000
O O16 0.000000 0.000000 0.000000
#
# Coordination Sequence:
#
# PCOD8036411 Si02
#       7
#     2   2   2   2   2   2   2
#     4  11  27  48  77 114 149 204 263 334 381 475
#     4  12  24  48  79 111 152 197 273 319 395 457
#     4  12  27  50  78 111 154 206 262 326 399 477
#     4  12  27  53  79 121 169 213 265 337 413 481
#     4  12  27  48  78 112 156 209 265 320 389 483
#     4  12  27  46  78 115 154 205 265 322 398 481
#     4  11  26  50  76 112 158 205 262 322 407 465
#
# _framework density 26.468969000000001
#
# number of rings (size 3 to 8) (size 9 to 14) (size 15 to 20)
#    0.000    0.286    4.286    3.857    2.000    6.286 
#    0.000    0.000    0.000    0.000    0.000    0.000 
#    0.000    0.000    0.000    0.000    0.000    0.000 
#
# Total GULP energy -173513.423898 kJ/mol
# GULP energy per Si atom -12393.815993 kJ/mol
# Density = 2.640872 g / cm^3
# Si number density = 26.468969 Si / 1000 Ang^3
#
#
#
# Elastic Constant Matrix: (Units=GPa)
#
#
# Indices 1 2 3 4 5 6 
#
# 1 163.1270 44.7321 54.2353 -14.6244 -13.5692 -14.4793
# 2 44.7321 129.9308 36.4339 -18.4181 -18.5568 -32.7391
# 3 54.2353 36.4339 130.1672 -8.2272 1.1599 3.7063
# 4 -14.6244 -18.4181 -8.2272 35.0413 7.0965 -14.9649
# 5 -13.5692 -18.5568 1.1599 7.0965 43.0380 -9.5411
# 6 -14.4793 -32.7391 3.7063 -14.9649 -9.5411 56.3718
#
#
#
# Elastic Compliance Matrix: (Units=1/GPa)
#
#
# Indices 1 2 3 4 5 6 
#
# 1 0.008122 -0.000002 -0.003286 0.003637 0.002881 0.003755
# 2 -0.000002 0.014603 -0.003840 0.010748 0.007477 0.012852
# 3 -0.003286 -0.003840 0.010150 -0.002398 -0.003679 -0.005001
# 4 0.003637 0.010748 -0.002398 0.042719 0.003056 0.019192
# 5 0.002881 0.007477 -0.003679 0.003056 0.029427 0.011116
# 6 0.003755 0.012852 -0.005001 0.019192 0.011116 0.033473
#
#
# Mechanical properties :
#
#
# Convention : Reuss Voigt Hill
#
# Bulk Modulus (GPa) = 53.70637 77.11417 65.41027
# Shear Modulus (GPa) = 31.45481 46.07848 38.76664
#
# Velocity S-wave (km/s) = 3.45101 4.17687 3.83117
# Velocity P-wave (km/s) = 6.01778 7.24284 6.65854
#
# Compressibility (1/GPa) = 0.01861976
#
# Stress axis : x y z
#
# Youngs Moduli (GPa) = 123.11745 68.47675 98.51957
#
# Poissons Ratio (x) = 0.00011 0.32378
# Poissons Ratio (y) = 0.00019 0.37833
# Poissons Ratio (z) = 0.40462 0.26296
#
# Static dielectric constant tensor:
#      x y z
#    x 5.073170 -0.031870 -0.221470 
#    y -0.031870 5.286210 -0.329150 
#    z -0.221470 -0.329150 4.815930 
# 
# 
# High freq. dielectric constant tensor:
#      x y z
#    x 2.087910 -0.006830 -0.013550 
#    y -0.006830 2.073770 -0.008830 
#    z -0.013550 -0.008830 2.055090 
# 
# From -- ./inp_files/118780.got.cif
#   From: 2010.06.25/outbox.cif.g09.slc.cpg/sg2_60_cif.got.tgz:118780.got - 2010.06.27 13:26:56.
