data_PCOD8036581
_publ_section_title
;
Structure prediction by ZEFSAII (Michael W. Deem and Ramdas Pophale) SiO2 
 PCOD8036581
Probable space group: P -1
;
_chemical_formula_sum "Si O2"
_cell_formula_units_Z 12
_cell_length_a 20.798927
_cell_length_b 10.540837
_cell_length_c 18.337876
_cell_angle_alpha 142.644694
_cell_angle_beta 12.902832
_cell_angle_gamma 144.092380
_cell_volume 526.062693
_symmetry_space_group_name_H-M "P -1"
_symmetry_group_IT_number 2
_symmetry_cell_setting 'triclinic'
loop_
_space_group_symop_operation_xyz
x,y,z
-x,-y,-z
loop_
_atom_site_type_symbol
_atom_site_label
_atom_site_fract_x
_atom_site_fract_y
_atom_site_fract_z
Si Si1 0.817718 0.655544 0.240634
Si Si2 0.169348 0.926871 0.512121
Si Si3 0.843501 0.134922 0.181036
Si Si4 0.299886 0.776842 0.143702
Si Si5 0.523471 0.707213 0.117713
Si Si6 0.772626 0.513241 0.522768
O O1 0.500000 0.500000 0.500000
O O2 0.782955 0.814211 0.418525
O O3 0.000000 0.500000 0.000000
O O4 0.987779 0.817986 0.062279
O O5 0.162258 0.821934 0.392660
O O6 0.437945 0.888065 0.245572
O O7 0.843683 0.801476 0.844443
O O8 0.863614 0.380302 0.295612
O O9 0.500000 0.000000 0.500000
O O10 0.000000 0.000000 0.000000
O O11 0.046751 0.712788 0.332660
O O12 0.481589 0.595302 0.864433
O O13 0.500000 0.000000 0.000000
O O14 0.288082 0.650056 0.416729
O O15 0.500000 0.500000 0.000000
#
# Coordination Sequence:
#
# PCOD8036581 Si02
#       6
#     2   2   2   2   2   2
#     4  12  28  47  73 102 138 187 236 285 342 410
#     4  12  24  43  68  96 136 170 219 278 333 404
#     4  12  26  49  73 102 141 185 235 285 342 409
#     4  12  26  41  64  99 134 175 216 270 338 397
#     4  12  21  41  66 102 129 166 218 269 343 394
#     4  12  25  42  70  98 132 171 221 277 331 404
#
# _framework density 22.810969
#
# number of rings (size 3 to 8) (size 9 to 14) (size 15 to 20)
#    0.000    0.000    3.333    7.000    4.667    0.000 
#    0.000    0.000    0.000    0.000    0.000    0.000 
#    0.000    0.000    0.000    0.000    0.000    0.000 
#
# Total GULP energy -148791.558521 kJ/mol
# GULP energy per Si atom -12399.296543 kJ/mol
# Density = 2.275905 g / cm^3
# Si number density = 22.810969 Si / 1000 Ang^3
#
#
#
# Elastic Constant Matrix: (Units=GPa)
#
#
# Indices 1 2 3 4 5 6 
#
# 1 63.8096 22.5083 29.4483 2.4396 -13.6312 -2.9261
# 2 22.5083 123.9063 51.0311 6.6626 -7.4010 9.7116
# 3 29.4483 51.0311 113.8016 -1.2005 -23.0765 7.2372
# 4 2.4396 6.6626 -1.2005 65.7151 -0.3000 1.1737
# 5 -13.6312 -7.4010 -23.0765 -0.3000 38.3027 2.0572
# 6 -2.9261 9.7116 7.2372 1.1737 2.0572 47.6707
#
#
#
# Elastic Compliance Matrix: (Units=1/GPa)
#
#
# Indices 1 2 3 4 5 6 
#
# 1 0.018890 -0.001943 -0.003277 -0.000578 0.004267 0.001883
# 2 -0.001943 0.010281 -0.004268 -0.001027 -0.001204 -0.001489
# 3 -0.003277 -0.004268 0.012840 0.000843 0.005835 -0.001554
# 4 -0.000578 -0.001027 0.000843 0.015365 0.000243 -0.000343
# 5 0.004267 -0.001204 0.005835 0.000243 0.031003 -0.001722
# 6 0.001883 -0.001489 -0.001554 -0.000343 -0.001722 0.021715
#
#
# Mechanical properties :
#
#
# Convention : Reuss Voigt Hill
#
# Bulk Modulus (GPa) = 43.41416 56.38809 49.90112
# Shear Modulus (GPa) = 36.56330 43.57303 40.06817
#
# Velocity S-wave (km/s) = 4.00794 4.37530 4.19565
# Velocity P-wave (km/s) = 6.36330 7.09209 6.73756
#
# Compressibility (1/GPa) = 0.02303396
#
# Stress axis : x y z
#
# Youngs Moduli (GPa) = 52.93945 97.26356 77.88181
#
# Poissons Ratio (x) = 0.18901 0.25524
# Poissons Ratio (y) = 0.10288 0.33239
# Poissons Ratio (z) = 0.17349 0.41511
#
# Static dielectric constant tensor:
#      x y z
#    x 5.701830 0.441970 -0.327140 
#    y 0.441970 4.247650 -0.043340 
#    z -0.327140 -0.043340 4.374150 
# 
# 
# High freq. dielectric constant tensor:
#      x y z
#    x 1.897510 0.011330 -0.005290 
#    y 0.011330 1.916430 0.003110 
#    z -0.005290 0.003110 1.917690 
# 
# From -- ./inp_files/258591.got.cif
#   From: 2010.06.25/outbox.cif.g09.slc.cpg/sg2_130_cif.got.tgz:258591.got - 2010.06.27 13:26:56.
