data_PCOD8036288
_publ_section_title
;
Structure prediction by ZEFSAII (Michael W. Deem and Ramdas Pophale) SiO2 
 PCOD8036288
Probable space group: P -1
;
_chemical_formula_sum "Si O2"
_cell_formula_units_Z 12
_cell_length_a 8.107698
_cell_length_b 4.839482
_cell_length_c 16.256700
_cell_angle_alpha 67.489029
_cell_angle_beta 124.778245
_cell_angle_gamma 121.109956
_cell_volume 445.031409
_symmetry_space_group_name_H-M "P -1"
_symmetry_group_IT_number 2
_symmetry_cell_setting 'triclinic'
loop_
_space_group_symop_operation_xyz
x,y,z
-x,-y,-z
loop_
_atom_site_type_symbol
_atom_site_label
_atom_site_fract_x
_atom_site_fract_y
_atom_site_fract_z
Si Si1 0.956008 0.920166 0.177119
Si Si2 0.891507 0.534576 0.050306
Si Si3 0.754069 0.436718 0.455345
Si Si4 0.334263 0.813186 0.367406
Si Si5 0.503316 0.623218 0.854419
Si Si6 0.484730 0.704307 0.261800
O O1 0.021544 0.857291 0.107332
O O2 0.746775 0.607792 0.180073
O O3 0.149160 0.961057 0.291704
O O4 0.884258 0.220988 0.133893
O O5 0.651186 0.538691 0.973049
O O6 0.000000 0.500000 0.000000
O O7 0.713964 0.436737 0.541878
O O8 0.714868 0.730522 0.364294
O O9 0.000000 0.500000 0.500000
O O10 0.577675 0.095676 0.409157
O O11 0.317317 0.610918 0.301508
O O12 0.598243 0.588960 0.794785
O O13 0.507337 0.982885 0.821889
#
# Coordination Sequence:
#
# PCOD8036288 Si02
#       6
#     2   2   2   2   2   2
#     4  12  26  46  72 111 148 192 250 301 360 438
#     4  12  25  46  73 107 150 199 244 300 362 433
#     4  11  26  51  77 109 147 192 247 306 372 438
#     4  11  26  47  76 110 147 194 245 305 368 438
#     4  12  25  46  76 109 148 198 242 302 363 434
#     4  12  24  48  73 108 147 189 243 300 369 432
#
# _framework density 26.964386000000001
#
# number of rings (size 3 to 8) (size 9 to 14) (size 15 to 20)
#    0.000    0.333    1.667    7.000    2.333    0.667 
#    3.000    0.000    0.000    0.000    0.000    0.000 
#    0.000    0.000    0.000    0.000    0.000    0.000 
#
# Total GULP energy -148752.369045 kJ/mol
# GULP energy per Si atom -12396.030754 kJ/mol
# Density = 2.690301 g / cm^3
# Si number density = 26.964386 Si / 1000 Ang^3
#
#
#
# Elastic Constant Matrix: (Units=GPa)
#
#
# Indices 1 2 3 4 5 6 
#
# 1 86.1010 22.8433 29.2510 9.0482 16.5580 -8.4073
# 2 22.8433 84.9705 42.4676 -3.7151 23.6320 -17.5967
# 3 29.2510 42.4676 179.7157 -3.9554 46.0353 -8.6618
# 4 9.0482 -3.7151 -3.9554 38.2012 -6.0879 14.3021
# 5 16.5580 23.6320 46.0353 -6.0879 46.0729 6.1732
# 6 -8.4073 -17.5967 -8.6618 14.3021 6.1732 36.8769
#
#
#
# Elastic Compliance Matrix: (Units=1/GPa)
#
#
# Indices 1 2 3 4 5 6 
#
# 1 0.014556 -0.000965 -0.000415 -0.006991 -0.006115 0.006495
# 2 -0.000965 0.017234 -0.001086 -0.003723 -0.009340 0.010756
# 3 -0.000415 -0.001086 0.008060 -0.001672 -0.008006 0.003269
# 4 -0.006991 -0.003723 -0.001672 0.037153 0.013746 -0.020474
# 5 -0.006115 -0.009340 -0.008006 0.013746 0.041183 -0.019957
# 6 0.006495 0.010756 0.003269 -0.020474 -0.019957 0.045779
#
#
# Mechanical properties :
#
#
# Convention : Reuss Voigt Hill
#
# Bulk Modulus (GPa) = 28.64018 59.99010 44.31514
# Shear Modulus (GPa) = 27.69479 41.31189 34.50334
#
# Velocity S-wave (km/s) = 3.20830 3.91844 3.58102
# Velocity P-wave (km/s) = 4.93647 6.53976 5.79384
#
# Compressibility (1/GPa) = 0.03491598
#
# Stress axis : x y z
#
# Youngs Moduli (GPa) = 68.69798 58.02618 124.06593
#
# Poissons Ratio (x) = 0.05602 0.05155
# Poissons Ratio (y) = 0.06633 0.13476
# Poissons Ratio (z) = 0.02854 0.06303
#
# Static dielectric constant tensor:
#      x y z
#    x 5.078400 -0.358940 -0.033940 
#    y -0.358940 4.749680 -0.222950 
#    z -0.033940 -0.222950 5.547940 
# 
# 
# High freq. dielectric constant tensor:
#      x y z
#    x 2.089850 -0.012340 0.005720 
#    y -0.012340 2.068500 -0.008680 
#    z 0.005720 -0.008680 2.115370 
# 
# From -- ./inp_files/551909.got.cif
#   From: 2010.06.25/outbox.cif.g09.slc.cpg/sg2_276_cif.got.tgz:551909.got - 2010.06.27 13:26:56.
