data_PCOD8036602
_publ_section_title
;
Structure prediction by ZEFSAII (Michael W. Deem and Ramdas Pophale) SiO2 
 PCOD8036602
Probable space group: P -1
;
_chemical_formula_sum "Si O2"
_cell_formula_units_Z 14
_cell_length_a 14.530705
_cell_length_b 25.043251
_cell_length_c 14.461162
_cell_angle_alpha 156.520900
_cell_angle_beta 160.164480
_cell_angle_gamma 21.603732
_cell_volume 618.013683
_symmetry_space_group_name_H-M "P -1"
_symmetry_group_IT_number 2
_symmetry_cell_setting 'triclinic'
loop_
_space_group_symop_operation_xyz
x,y,z
-x,-y,-z
loop_
_atom_site_type_symbol
_atom_site_label
_atom_site_fract_x
_atom_site_fract_y
_atom_site_fract_z
Si Si1 0.934662 0.598690 0.752418
Si Si2 0.670328 0.549940 0.813471
Si Si3 0.971560 0.997554 0.359959
Si Si4 0.336615 0.167755 0.285430
Si Si5 0.266643 0.823357 0.986834
Si Si6 0.199799 0.256103 0.494230
Si Si7 0.294319 0.668802 0.343583
O O1 0.846406 0.663868 0.668418
O O2 0.640010 0.631580 0.587905
O O3 0.165999 0.416362 0.681718
O O4 0.110184 0.682454 0.096567
O O5 0.500000 0.500000 0.500000
O O6 0.721774 0.460082 0.815004
O O7 0.468016 0.732833 0.941175
O O8 0.000000 0.500000 0.000000
O O9 0.302855 0.878586 0.441083
O O10 0.866736 0.169246 0.496661
O O11 0.711766 0.954026 0.014268
O O12 0.000000 0.000000 0.500000
O O13 0.230141 0.162482 0.280633
O O14 0.496964 0.829430 0.290494
O O15 0.103170 0.725756 0.710460
O O16 0.000000 0.000000 0.000000
#
# Coordination Sequence:
#
# PCOD8036602 Si02
#       7
#     2   2   2   2   2   2   2
#     4  12  21  43  69 100 136 184 227 270 342 419
#     4  12  26  47  73 104 134 178 243 300 356 426
#     4  12  23  42  63 100 144 188 229 279 343 412
#     4  12  25  40  69 106 143 185 234 280 339 426
#     4  12  27  50  76 101 142 190 238 303 369 419
#     4  12  25  46  71 104 141 182 237 288 351 424
#     4  12  24  41  72  94 137 186 223 278 353 413
#
# _framework density 22.653220000000001
#
# number of rings (size 3 to 8) (size 9 to 14) (size 15 to 20)
#    0.000    0.000    5.714    4.714    0.000    3.429 
#    0.000    4.286    0.000    0.000    0.000    0.000 
#    0.000    0.000    0.000    0.000    0.000    0.000 
#
# Total GULP energy -173636.603045 kJ/mol
# GULP energy per Si atom -12402.614503 kJ/mol
# Density = 2.260166 g / cm^3
# Si number density = 22.653220 Si / 1000 Ang^3
#
#
#
# Elastic Constant Matrix: (Units=GPa)
#
#
# Indices 1 2 3 4 5 6 
#
# 1 93.6478 38.8359 33.0917 -4.7201 -16.1672 -16.8861
# 2 38.8359 120.8015 27.6036 3.0132 -9.6044 -11.4874
# 3 33.0917 27.6036 109.3741 -8.9939 -8.7603 -7.6669
# 4 -4.7201 3.0132 -8.9939 42.8256 -0.6818 2.5863
# 5 -16.1672 -9.6044 -8.7603 -0.6818 39.1547 -3.0040
# 6 -16.8861 -11.4874 -7.6669 2.5863 -3.0040 30.3670
#
#
#
# Elastic Compliance Matrix: (Units=1/GPa)
#
#
# Indices 1 2 3 4 5 6 
#
# 1 0.015243 -0.003185 -0.002800 0.000979 0.005442 0.007019
# 2 -0.003185 0.009917 -0.001458 -0.001451 0.000906 0.001825
# 3 -0.002800 -0.001458 0.010633 0.002012 0.000939 0.000498
# 4 0.000979 -0.001451 0.002012 0.024085 0.000805 -0.001468
# 5 0.005442 0.000906 0.000939 0.000805 0.028722 0.006379
# 6 0.007019 0.001825 0.000498 -0.001468 0.006379 0.038406
#
#
# Mechanical properties :
#
#
# Convention : Reuss Voigt Hill
#
# Bulk Modulus (GPa) = 47.82788 58.09841 52.96314
# Shear Modulus (GPa) = 33.58847 37.42225 35.50536
#
# Velocity S-wave (km/s) = 3.85479 4.06884 3.96326
# Velocity P-wave (km/s) = 6.40090 6.91206 6.66138
#
# Compressibility (1/GPa) = 0.02090831
#
# Stress axis : x y z
#
# Youngs Moduli (GPa) = 65.60437 100.83789 94.04274
#
# Poissons Ratio (x) = 0.32116 0.26328
# Poissons Ratio (y) = 0.20894 0.13711
# Poissons Ratio (z) = 0.18367 0.14702
#
# Static dielectric constant tensor:
#      x y z
#    x 4.060320 -0.039040 -0.020070 
#    y -0.039040 4.516620 0.089600 
#    z -0.020070 0.089600 4.126780 
# 
# 
# High freq. dielectric constant tensor:
#      x y z
#    x 1.882570 -0.000200 0.000210 
#    y -0.000200 1.903540 -0.004690 
#    z 0.000210 -0.004690 1.908530 
# 
# From -- ./inp_files/77083.got.cif
#   From: 2010.06.25/outbox.cif.g09.slc.cpg/sg2_39_cif.got.tgz:77083.got - 2010.06.27 13:26:56.
