data_PCOD8036328
_publ_section_title
;
Structure prediction by ZEFSAII (Michael W. Deem and Ramdas Pophale) SiO2 
 PCOD8036328
Probable space group: P -1
;
_chemical_formula_sum "Si O2"
_cell_formula_units_Z 16
_cell_length_a 9.171470
_cell_length_b 12.767187
_cell_length_c 17.848074
_cell_angle_alpha 46.448603
_cell_angle_beta 123.041504
_cell_angle_gamma 150.647968
_cell_volume 733.399031
_symmetry_space_group_name_H-M "P -1"
_symmetry_group_IT_number 2
_symmetry_cell_setting 'triclinic'
loop_
_space_group_symop_operation_xyz
x,y,z
-x,-y,-z
loop_
_atom_site_type_symbol
_atom_site_label
_atom_site_fract_x
_atom_site_fract_y
_atom_site_fract_z
Si Si1 0.225319 0.717919 0.895706
Si Si2 0.769737 0.468413 0.465624
Si Si3 0.872341 0.976642 0.550797
Si Si4 0.200054 0.574010 0.797828
Si Si5 0.197197 0.495199 0.376954
Si Si6 0.813559 0.965036 0.257245
Si Si7 0.905925 0.056860 0.751213
Si Si8 0.092635 0.904395 0.096804
O O1 0.124062 0.600661 0.841988
O O2 0.222231 0.887921 0.819508
O O3 0.555346 0.881101 0.925384
O O4 0.000000 0.500000 0.000000
O O5 0.658990 0.369731 0.568600
O O6 0.000000 0.500000 0.500000
O O7 0.937779 0.734093 0.369093
O O8 0.488284 0.262691 0.432903
O O9 0.996811 0.221040 0.470169
O O10 0.961986 0.936305 0.664356
O O11 0.000000 0.000000 0.500000
O O12 0.014821 0.522433 0.704630
O O13 0.098977 0.338135 0.886924
O O14 0.550099 0.819192 0.756210
O O15 0.483392 0.666856 0.318314
O O16 0.959352 0.012091 0.195600
O O17 0.987023 0.164872 0.803682
O O18 0.000000 0.000000 0.000000
#
# Coordination Sequence:
#
# PCOD8036328 Si02
#       8
#     2   2   2   2   2   2   2   2
#     4  11  28  49  75 106 138 181 237 298 358 424
#     4  12  26  41  68 102 146 188 244 281 338 424
#     4  12  24  41  68  98 141 190 228 284 345 403
#     4  11  26  48  73 101 144 187 231 293 355 418
#     4  12  24  45  67 102 143 191 235 282 347 413
#     4  12  25  46  68 107 147 183 239 294 351 424
#     4  11  27  44  69 109 141 185 239 291 351 422
#     4  11  27  49  76 101 139 185 235 297 358 423
#
# _framework density 21.816226
#
# number of rings (size 3 to 8) (size 9 to 14) (size 15 to 20)
#    0.000    0.500    3.750    3.375    8.750    3.500 
#    0.000    0.000    0.000    0.000    0.000    0.000 
#    0.000    0.000    0.000    0.000    0.000    0.000 
#
# Total GULP energy -198451.560389 kJ/mol
# GULP energy per Si atom -12403.222524 kJ/mol
# Density = 2.176657 g / cm^3
# Si number density = 21.816226 Si / 1000 Ang^3
#
#
#
# Elastic Constant Matrix: (Units=GPa)
#
#
# Indices 1 2 3 4 5 6 
#
# 1 150.0585 50.1378 47.5811 -5.4546 4.0889 8.1211
# 2 50.1378 129.0495 46.0331 -5.2065 4.2103 16.6987
# 3 47.5811 46.0331 106.7025 -9.5536 10.1928 11.6891
# 4 -5.4546 -5.2065 -9.5536 22.1457 6.2085 3.2552
# 5 4.0889 4.2103 10.1928 6.2085 46.7376 -0.0396
# 6 8.1211 16.6987 11.6891 3.2552 -0.0396 40.8238
#
#
#
# Elastic Compliance Matrix: (Units=1/GPa)
#
#
# Indices 1 2 3 4 5 6 
#
# 1 0.008280 -0.002244 -0.002698 0.000340 0.000021 0.000016
# 2 -0.002244 0.010090 -0.002916 0.001054 -0.000219 -0.002930
# 3 -0.002698 -0.002916 0.012867 0.005400 -0.003027 -0.002388
# 4 0.000340 0.001054 0.005400 0.050981 -0.008080 -0.006118
# 5 0.000021 -0.000219 -0.003027 -0.008080 0.023149 0.001619
# 6 0.000016 -0.002930 -0.002388 -0.006118 0.001619 0.026864
#
#
# Mechanical properties :
#
#
# Convention : Reuss Voigt Hill
#
# Bulk Modulus (GPa) = 64.42431 74.81273 69.61852
# Shear Modulus (GPa) = 32.65425 38.07865 35.36645
#
# Velocity S-wave (km/s) = 3.87303 4.18236 4.03067
# Velocity P-wave (km/s) = 7.04238 7.59537 7.32409
#
# Compressibility (1/GPa) = 0.01552209
#
# Stress axis : x y z
#
# Youngs Moduli (GPa) = 120.77260 99.11142 77.71738
#
# Poissons Ratio (x) = 0.22238 0.20965
# Poissons Ratio (y) = 0.27098 0.22663
# Poissons Ratio (z) = 0.32580 0.28902
#
# Static dielectric constant tensor:
#      x y z
#    x 4.222730 0.049640 -0.068650 
#    y 0.049640 3.912220 0.106240 
#    z -0.068650 0.106240 3.949450 
# 
# 
# High freq. dielectric constant tensor:
#      x y z
#    x 1.879420 0.002590 0.002480 
#    y 0.002590 1.868600 -0.001340 
#    z 0.002480 -0.001340 1.853050 
# 
# From -- ./inp_files/85127.got.cif
#   From: 2010.06.25/outbox.cif.g09.slc.cpg/sg2_43_cif.got.tgz:85127.got - 2010.06.27 13:26:56.
