data_PCOD8036029
_publ_section_title
;
Structure prediction by ZEFSAII (Michael W. Deem and Ramdas Pophale) SiO2 
 PCOD8036029
Probable space group: P -1
;
_chemical_formula_sum "Si O2"
_cell_formula_units_Z 16
_cell_length_a 18.285818
_cell_length_b 8.026263
_cell_length_c 6.805583
_cell_angle_alpha 82.140447
_cell_angle_beta 134.459259
_cell_angle_gamma 98.810695
_cell_volume 703.888569
_symmetry_space_group_name_H-M "P -1"
_symmetry_group_IT_number 2
_symmetry_cell_setting 'triclinic'
loop_
_space_group_symop_operation_xyz
x,y,z
-x,-y,-z
loop_
_atom_site_type_symbol
_atom_site_label
_atom_site_fract_x
_atom_site_fract_y
_atom_site_fract_z
Si Si1 0.197608 0.429227 0.150948
Si Si2 0.763548 0.957691 0.092464
Si Si3 0.093745 0.236042 0.317875
Si Si4 0.260487 0.785751 0.695234
Si Si5 0.107672 0.503360 0.597605
Si Si6 0.551491 0.427065 0.914961
Si Si7 0.617775 0.678603 0.659205
Si Si8 0.858709 0.197787 0.908666
O O1 0.150955 0.267008 0.212511
O O2 0.320756 0.431172 0.366426
O O3 0.156638 0.606322 0.106983
O O4 0.170854 0.387461 0.878368
O O5 0.697796 0.064679 0.103749
O O6 0.843058 0.866979 0.393558
O O7 0.831682 0.083743 0.062373
O O8 0.681899 0.849513 0.820178
O O9 0.093341 0.425787 0.368767
O O10 0.976021 0.164641 0.077932
O O11 0.166146 0.686260 0.650730
O O12 0.214091 0.863633 0.399415
O O13 0.348686 0.666173 0.818546
O O14 0.000000 0.500000 0.500000
O O15 0.586351 0.583686 0.816145
O O16 0.480479 0.293404 0.668805
O O17 0.500000 0.500000 0.000000
#
# Coordination Sequence:
#
# PCOD8036029 Si02
#       8
#     2   2   2   2   2   2   2   2
#     4  12  22  42  72  98 136 183 246 288 329 412
#     4  12  27  45  66 100 156 181 221 289 361 418
#     4  12  25  41  69 104 141 195 239 282 341 412
#     4  12  25  44  67 103 144 183 229 286 354 414
#     4  12  21  40  69 101 138 185 237 286 333 407
#     4  11  25  49  79 103 130 178 242 297 347 413
#     4  11  26  45  73 104 134 180 234 289 357 416
#     4  12  25  42  68 105 142 189 237 283 345 412
#
# _framework density 22.730869999999999
#
# number of rings (size 3 to 8) (size 9 to 14) (size 15 to 20)
#    0.000    0.250    6.250    2.250    3.500    2.000 
#    0.000    1.250    0.000    0.000    0.000    0.000 
#    0.000    0.000    0.000    0.000    0.000    0.000 
#
# Total GULP energy -198269.354725 kJ/mol
# GULP energy per Si atom -12391.834670 kJ/mol
# Density = 2.267913 g / cm^3
# Si number density = 22.730870 Si / 1000 Ang^3
#
#
#
# Elastic Constant Matrix: (Units=GPa)
#
#
# Indices 1 2 3 4 5 6 
#
# 1 130.6341 39.4444 28.6341 -2.1186 -6.7807 4.8937
# 2 39.4444 73.6844 35.4553 0.8269 -1.9655 2.1531
# 3 28.6341 35.4553 115.1853 0.0776 -6.5436 9.1031
# 4 -2.1186 0.8269 0.0776 33.5366 6.5880 -12.6043
# 5 -6.7807 -1.9655 -6.5436 6.5880 40.1838 -1.4992
# 6 4.8937 2.1531 9.1031 -12.6043 -1.4992 28.6887
#
#
#
# Elastic Compliance Matrix: (Units=1/GPa)
#
#
# Indices 1 2 3 4 5 6 
#
# 1 0.009293 -0.004547 -0.000776 0.000144 0.001163 -0.000874
# 2 -0.004547 0.018162 -0.004543 -0.000371 -0.000533 0.000663
# 3 -0.000776 -0.004543 0.010637 -0.001580 0.001507 -0.003517
# 4 0.000144 -0.000371 -0.001580 0.037182 -0.005730 0.016541
# 5 0.001163 -0.000533 0.001507 -0.005730 0.026174 -0.001786
# 6 -0.000874 0.000663 -0.003517 0.016541 -0.001786 0.043246
#
#
# Mechanical properties :
#
#
# Convention : Reuss Voigt Hill
#
# Bulk Modulus (GPa) = 54.45873 58.50794 56.48334
# Shear Modulus (GPa) = 29.31775 34.87983 32.09879
#
# Velocity S-wave (km/s) = 3.59524 3.92148 3.76190
# Velocity P-wave (km/s) = 6.42218 6.80436 6.61603
#
# Compressibility (1/GPa) = 0.01836253
#
# Stress axis : x y z
#
# Youngs Moduli (GPa) = 107.60462 55.06120 94.00815
#
# Poissons Ratio (x) = 0.25034 0.07292
# Poissons Ratio (y) = 0.48924 0.42704
# Poissons Ratio (z) = 0.08347 0.25012
#
# Static dielectric constant tensor:
#      x y z
#    x 4.926700 -0.334570 -0.342800 
#    y -0.334570 4.026660 0.140800 
#    z -0.342800 0.140800 3.071050 
# 
# 
# High freq. dielectric constant tensor:
#      x y z
#    x 1.908060 -0.000730 -0.012070 
#    y -0.000730 1.878380 0.002240 
#    z -0.012070 0.002240 1.916530 
# 
# From -- ./inp_files/106810.got.cif
#   From: 2010.06.25/outbox.cif.g09.slc.cpg/sg2_54_cif.got.tgz:106810.got - 2010.06.27 13:26:56.
