data_PCOD8036006
_publ_section_title
;
Structure prediction by ZEFSAII (Michael W. Deem and Ramdas Pophale) SiO2 
 PCOD8036006
Probable space group: P -1
;
_chemical_formula_sum "Si O2"
_cell_formula_units_Z 14
_cell_length_a 5.366269
_cell_length_b 16.179858
_cell_length_c 15.688647
_cell_angle_alpha 152.260371
_cell_angle_beta 82.286794
_cell_angle_gamma 111.194160
_cell_volume 534.247474
_symmetry_space_group_name_H-M "P -1"
_symmetry_group_IT_number 2
_symmetry_cell_setting 'triclinic'
loop_
_space_group_symop_operation_xyz
x,y,z
-x,-y,-z
loop_
_atom_site_type_symbol
_atom_site_label
_atom_site_fract_x
_atom_site_fract_y
_atom_site_fract_z
Si Si1 0.072547 0.719573 0.481384
Si Si2 0.696757 0.542300 0.612150
Si Si3 0.280207 0.134359 0.477776
Si Si4 0.404009 0.717286 0.894503
Si Si5 0.409736 0.652082 0.179601
Si Si6 0.759586 0.169425 0.253406
Si Si7 0.187999 0.721727 0.087265
O O1 0.868226 0.746440 0.446865
O O2 0.929195 0.471108 0.283478
O O3 0.401104 0.805873 0.516021
O O4 0.062594 0.833995 0.673704
O O5 0.500000 0.500000 0.500000
O O6 0.611831 0.629204 0.777124
O O7 0.639829 0.314049 0.426100
O O8 0.036483 0.723060 0.740045
O O9 0.326864 0.186013 0.623421
O O10 0.076595 0.886018 0.241412
O O11 0.412552 0.760300 0.034637
O O12 0.501296 0.927801 0.026887
O O13 0.372197 0.773013 0.213396
O O14 0.500000 0.500000 0.000000
O O15 0.096149 0.514070 0.118713
#
# Coordination Sequence:
#
# PCOD8036006 Si02
#       7
#     2   2   2   2   2   2   2
#     4  12  26  48  75 115 151 198 263 319 374 470
#     4  11  25  49  74 113 153 198 255 324 377 472
#     4  12  27  48  77 108 158 199 257 323 383 455
#     4  12  24  48  77 107 153 205 252 315 390 456
#     4  11  26  47  72 108 152 198 260 320 380 463
#     4  11  26  49  74 111 155 198 261 313 392 454
#     4  11  26  46  73 111 147 204 256 310 394 453
#
# _framework density 26.205083999999999
#
# number of rings (size 3 to 8) (size 9 to 14) (size 15 to 20)
#    0.000    0.571    4.286    2.571    4.000    2.286 
#    7.714    0.000    0.000    0.000    0.000    0.000 
#    0.000    0.000    0.000    0.000    0.000    0.000 
#
# Total GULP energy -173531.075135 kJ/mol
# GULP energy per Si atom -12395.076795 kJ/mol
# Density = 2.614544 g / cm^3
# Si number density = 26.205084 Si / 1000 Ang^3
#
#
#
# Elastic Constant Matrix: (Units=GPa)
#
#
# Indices 1 2 3 4 5 6 
#
# 1 77.5238 16.3571 16.9780 5.1191 -15.7942 0.1807
# 2 16.3571 74.2049 19.8754 10.6539 -15.6758 15.3942
# 3 16.9780 19.8754 125.3563 15.3781 -19.0091 8.7949
# 4 5.1191 10.6539 15.3781 53.6654 4.2441 -1.7359
# 5 -15.7942 -15.6758 -19.0091 4.2441 42.4324 -9.6182
# 6 0.1807 15.3942 8.7949 -1.7359 -9.6182 33.1283
#
#
#
# Elastic Compliance Matrix: (Units=1/GPa)
#
#
# Indices 1 2 3 4 5 6 
#
# 1 0.014648 -0.002359 -0.000941 -0.000958 0.004850 0.002624
# 2 -0.002359 0.016912 -0.000902 -0.003390 0.003789 -0.006684
# 3 -0.000941 -0.000902 0.009177 -0.002670 0.003433 -0.001155
# 4 -0.000958 -0.003390 -0.002670 0.020578 -0.004389 0.002093
# 5 0.004850 0.003789 0.003433 -0.004389 0.030063 0.005800
# 6 0.002624 -0.006684 -0.001155 0.002093 0.005800 0.035377
#
#
# Mechanical properties :
#
#
# Convention : Reuss Voigt Hill
#
# Bulk Modulus (GPa) = 30.92966 42.61176 36.77071
# Shear Modulus (GPa) = 34.26109 40.77020 37.51564
#
# Velocity S-wave (km/s) = 3.61975 3.94866 3.78778
# Velocity P-wave (km/s) = 5.41283 6.08978 5.76125
#
# Compressibility (1/GPa) = 0.03233142
#
# Stress axis : x y z
#
# Youngs Moduli (GPa) = 68.26703 59.13080 108.96978
#
# Poissons Ratio (x) = 0.13950 0.10254
# Poissons Ratio (y) = 0.16106 0.09834
# Poissons Ratio (z) = 0.06424 0.05337
#
# Static dielectric constant tensor:
#      x y z
#    x 4.787650 -0.121960 0.109780 
#    y -0.121960 5.432140 0.069750 
#    z 0.109780 0.069750 5.004830 
# 
# 
# High freq. dielectric constant tensor:
#      x y z
#    x 2.030750 0.009590 0.000410 
#    y 0.009590 2.066890 -0.000640 
#    z 0.000410 -0.000640 2.060130 
# 
# From -- ./inp_files/484639.got.cif
#   From: 2010.06.25/outbox.cif.g09.slc.cpg/sg2_243_cif.got.tgz:484639.got - 2010.06.27 13:26:56.
