data_PCOD8036455
_publ_section_title
;
Structure prediction by ZEFSAII (Michael W. Deem and Ramdas Pophale) SiO2 
 PCOD8036455
Probable space group: P -1
;
_chemical_formula_sum "Si O2"
_cell_formula_units_Z 16
_cell_length_a 9.641209
_cell_length_b 8.259384
_cell_length_c 11.397587
_cell_angle_alpha 53.161414
_cell_angle_beta 77.542118
_cell_angle_gamma 88.175410
_cell_volume 703.729175
_symmetry_space_group_name_H-M "P -1"
_symmetry_group_IT_number 2
_symmetry_cell_setting 'triclinic'
loop_
_space_group_symop_operation_xyz
x,y,z
-x,-y,-z
loop_
_atom_site_type_symbol
_atom_site_label
_atom_site_fract_x
_atom_site_fract_y
_atom_site_fract_z
Si Si1 0.844327 0.654584 0.158396
Si Si2 0.738725 0.915668 0.255536
Si Si3 0.983087 0.677582 0.650318
Si Si4 0.799956 0.140994 0.639453
Si Si5 0.521497 0.840332 0.830402
Si Si6 0.279541 0.454060 0.411611
Si Si7 0.019945 0.146325 0.175195
Si Si8 0.457172 0.466075 0.834302
O O1 0.817430 0.852799 0.150979
O O2 0.935452 0.521577 0.280318
O O3 0.693361 0.528293 0.204865
O O4 0.939561 0.705416 0.004331
O O5 0.682640 0.720821 0.430204
O O6 0.610448 0.032834 0.185052
O O7 0.851272 0.070730 0.239663
O O8 0.094358 0.855521 0.494157
O O9 0.839018 0.637918 0.618844
O O10 0.938985 0.732133 0.765367
O O11 0.775904 0.367184 0.581166
O O12 0.655035 0.998657 0.697249
O O13 0.884820 0.040762 0.771664
O O14 0.492060 0.675768 0.805646
O O15 0.550645 0.731466 0.994692
O O16 0.422374 0.550274 0.277894
#
# Coordination Sequence:
#
# PCOD8036455 Si02
#       8
#     2   2   2   2   2   2   2   2
#     4  12  26  47  72 103 144 184 233 289 348 415
#     4  12  27  46  71 109 141 185 233 286 348 418
#     4  12  26  46  74 104 144 184 233 292 346 412
#     4  12  24  47  72 102 142 187 230 284 349 415
#     4  11  27  47  74 102 141 183 235 289 351 413
#     4  12  27  45  73 105 145 184 231 288 348 413
#     4  12  26  45  73 105 140 186 237 286 349 411
#     4  11  27  48  71 105 140 182 233 293 350 413
#
# _framework density 22.736021999999998
#
# number of rings (size 3 to 8) (size 9 to 14) (size 15 to 20)
#    0.000    0.250    3.750    4.500    8.750    2.500 
#    0.000    0.000    0.000    0.000    0.000    0.000 
#    0.000    0.000    0.000    0.000    0.000    0.000 
#
# Total GULP energy -198516.407928 kJ/mol
# GULP energy per Si atom -12407.275495 kJ/mol
# Density = 2.268427 g / cm^3
# Si number density = 22.736022 Si / 1000 Ang^3
#
#
#
# Elastic Constant Matrix: (Units=GPa)
#
#
# Indices 1 2 3 4 5 6 
#
# 1 78.2826 7.7457 15.9498 -16.7651 -0.6185 -5.4615
# 2 7.7457 76.2183 24.7936 2.6755 -1.4383 4.1444
# 3 15.9498 24.7936 82.9823 0.2916 -8.3528 1.5984
# 4 -16.7651 2.6755 0.2916 33.5641 -0.8041 -1.1064
# 5 -0.6185 -1.4383 -8.3528 -0.8041 38.9728 -4.3100
# 6 -5.4615 4.1444 1.5984 -1.1064 -4.3100 34.9265
#
#
#
# Elastic Compliance Matrix: (Units=1/GPa)
#
#
# Indices 1 2 3 4 5 6 
#
# 1 0.015320 -0.001116 -0.002684 0.007863 0.000111 0.002914
# 2 -0.001116 0.014757 -0.004215 -0.001774 -0.000619 -0.001865
# 3 -0.002684 -0.004215 0.014114 -0.001069 0.002776 -0.000257
# 4 0.007863 -0.001774 -0.001069 0.033980 0.000826 0.002667
# 5 0.000111 -0.000619 0.002776 0.000826 0.026612 0.003274
# 6 0.002914 -0.001865 -0.000257 0.002667 0.003274 0.029809
#
#
# Mechanical properties :
#
#
# Convention : Reuss Voigt Hill
#
# Bulk Modulus (GPa) = 35.50977 37.16239 36.33608
# Shear Modulus (GPa) = 31.24871 34.09229 32.67050
#
# Velocity S-wave (km/s) = 3.71133 3.87652 3.79482
# Velocity P-wave (km/s) = 5.83245 6.03466 5.93442
#
# Compressibility (1/GPa) = 0.02816126
#
# Stress axis : x y z
#
# Youngs Moduli (GPa) = 65.27604 67.76607 70.85170
#
# Poissons Ratio (x) = 0.07564 0.19014
# Poissons Ratio (y) = 0.07286 0.29861
# Poissons Ratio (z) = 0.17517 0.28561
#
# Static dielectric constant tensor:
#      x y z
#    x 4.218720 -0.048740 0.069900 
#    y -0.048740 3.998270 -0.057980 
#    z 0.069900 -0.057980 4.225230 
# 
# 
# High freq. dielectric constant tensor:
#      x y z
#    x 1.910670 -0.004230 0.000460 
#    y -0.004230 1.900710 -0.002730 
#    z 0.000460 -0.002730 1.908940 
# 
# From -- ./inp_files/184296.got.cif
#   From: 2010.06.25/outbox.cif.g09.slc.cpg/sg2_93_cif.got.tgz:184296.got - 2010.06.27 13:26:56.
