data_PCOD8036950
_publ_section_title
;
Structure prediction by ZEFSAII (Michael W. Deem and Ramdas Pophale) SiO2 
 PCOD8036950
Probable space group: P -1
;
_chemical_formula_sum "Si O2"
_cell_formula_units_Z 16
_cell_length_a 12.679176
_cell_length_b 9.202406
_cell_length_c 8.637485
_cell_angle_alpha 47.224852
_cell_angle_beta 86.015240
_cell_angle_gamma 83.036209
_cell_volume 734.187664
_symmetry_space_group_name_H-M "P -1"
_symmetry_group_IT_number 2
_symmetry_cell_setting 'triclinic'
loop_
_space_group_symop_operation_xyz
x,y,z
-x,-y,-z
loop_
_atom_site_type_symbol
_atom_site_label
_atom_site_fract_x
_atom_site_fract_y
_atom_site_fract_z
Si Si1 0.534770 0.489503 0.181327
Si Si2 0.306614 0.784162 0.454905
Si Si3 0.602870 0.901521 0.978306
Si Si4 0.214999 0.194763 0.742171
Si Si5 0.972233 0.562535 0.285211
Si Si6 0.686965 0.473361 0.667544
Si Si7 0.914766 0.191804 0.387031
Si Si8 0.849360 0.215328 0.037565
O O1 0.625277 0.308614 0.338530
O O2 0.433899 0.462892 0.318940
O O3 0.500000 0.500000 0.000000
O O4 0.588178 0.685182 0.076517
O O5 0.311651 0.629779 0.424821
O O6 0.183229 0.848754 0.462033
O O7 0.360721 0.978840 0.259491
O O8 0.686386 0.908048 0.101748
O O9 0.500000 0.000000 0.000000
O O10 0.145697 0.325432 0.781871
O O11 0.251022 0.329874 0.498868
O O12 0.150597 0.022686 0.802385
O O13 0.978303 0.369394 0.315981
O O14 0.000000 0.500000 0.500000
O O15 0.050999 0.719458 0.111985
O O16 0.741599 0.331064 0.897672
O O17 0.862415 0.267850 0.176659
O O18 0.000000 0.000000 0.500000
#
# Coordination Sequence:
#
# PCOD8036950 Si02
#       8
#     2   2   2   2   2   2   2   2
#     4  12  26  45  72 107 144 180 227 296 359 407
#     4  12  24  47  72 102 141 187 241 284 344 429
#     4  12  24  42  73 105 138 184 235 285 348 423
#     4  12  24  42  75 103 133 187 240 282 350 419
#     4  12  24  47  72 100 138 190 238 286 346 426
#     4  12  23  45  75 103 140 184 238 287 343 433
#     4  12  28  47  69 106 146 187 234 298 358 407
#     4  12  26  44  69 105 143 178 235 298 351 408
#
# _framework density 21.792794000000001
#
# number of rings (size 3 to 8) (size 9 to 14) (size 15 to 20)
#    0.000    0.000    6.250    3.375    1.750    1.500 
#    2.250    0.000    0.000    0.000    0.000    0.000 
#    0.000    0.000    0.000    0.000    0.000    0.000 
#
# Total GULP energy -198483.194524 kJ/mol
# GULP energy per Si atom -12405.199658 kJ/mol
# Density = 2.174319 g / cm^3
# Si number density = 21.792794 Si / 1000 Ang^3
#
#
#
# Elastic Constant Matrix: (Units=GPa)
#
#
# Indices 1 2 3 4 5 6 
#
# 1 127.1474 45.9690 37.7394 -10.0407 -15.6185 -12.6369
# 2 45.9690 107.7418 43.0760 -2.6112 -6.3569 9.2337
# 3 37.7394 43.0760 117.0548 -5.4622 -10.8573 9.4184
# 4 -10.0407 -2.6112 -5.4622 43.5201 10.0445 0.2098
# 5 -15.6185 -6.3569 -10.8573 10.0445 59.7941 -4.8571
# 6 -12.6369 9.2337 9.4184 0.2098 -4.8571 46.3769
#
#
#
# Elastic Compliance Matrix: (Units=1/GPa)
#
#
# Indices 1 2 3 4 5 6 
#
# 1 0.010720 -0.003952 -0.002088 0.001467 0.002108 0.004346
# 2 -0.003952 0.012434 -0.003125 -0.000441 -0.000444 -0.002962
# 3 -0.002088 -0.003125 0.010626 0.000488 0.000806 -0.002023
# 4 0.001467 -0.000441 0.000488 0.024193 -0.003648 -0.000103
# 5 0.002108 -0.000444 0.000806 -0.003648 0.018183 0.002420
# 6 0.004346 -0.002962 -0.002023 -0.000103 0.002420 0.024001
#
#
# Mechanical properties :
#
#
# Convention : Reuss Voigt Hill
#
# Bulk Modulus (GPa) = 64.71947 67.27921 65.99934
# Shear Modulus (GPa) = 40.44110 44.94886 42.69498
#
# Velocity S-wave (km/s) = 4.31247 4.54646 4.43101
# Velocity P-wave (km/s) = 7.38638 7.64851 7.51859
#
# Compressibility (1/GPa) = 0.01545130
#
# Stress axis : x y z
#
# Youngs Moduli (GPa) = 93.28497 80.42590 94.10546
#
# Poissons Ratio (x) = 0.31781 0.19647
# Poissons Ratio (y) = 0.36862 0.29408
# Poissons Ratio (z) = 0.19475 0.25134
#
# Static dielectric constant tensor:
#      x y z
#    x 4.149220 -0.118900 0.015380 
#    y -0.118900 4.875450 0.238990 
#    z 0.015380 0.238990 4.162000 
# 
# 
# High freq. dielectric constant tensor:
#      x y z
#    x 1.879210 0.003060 -0.001890 
#    y 0.003060 1.848150 -0.005130 
#    z -0.001890 -0.005130 1.869790 
# 
# From -- ./inp_files/242055.got.cif
#   From: 2010.06.25/outbox.cif.g09.slc.cpg/sg2_122_cif.got.tgz:242055.got - 2010.06.27 13:26:56.
