data_PCOD8036242
_publ_section_title
;
Structure prediction by ZEFSAII (Michael W. Deem and Ramdas Pophale) SiO2 
 PCOD8036242
Probable space group: P -1
;
_chemical_formula_sum "Si O2"
_cell_formula_units_Z 16
_cell_length_a 9.354829
_cell_length_b 11.751683
_cell_length_c 15.920882
_cell_angle_alpha 70.790761
_cell_angle_beta 35.144479
_cell_angle_gamma 52.068530
_cell_volume 734.269465
_symmetry_space_group_name_H-M "P -1"
_symmetry_group_IT_number 2
_symmetry_cell_setting 'triclinic'
loop_
_space_group_symop_operation_xyz
x,y,z
-x,-y,-z
loop_
_atom_site_type_symbol
_atom_site_label
_atom_site_fract_x
_atom_site_fract_y
_atom_site_fract_z
Si Si1 0.944930 0.062196 0.605945
Si Si2 0.054251 0.561004 0.878718
Si Si3 0.664651 0.577793 0.907267
Si Si4 0.856116 0.057200 0.963830
Si Si5 0.961252 0.564165 0.395208
Si Si6 0.621278 0.897624 0.048795
Si Si7 0.230955 0.617907 0.390172
Si Si8 0.352125 0.914870 0.603855
O O1 0.597698 0.133390 0.791862
O O2 0.979281 0.195877 0.555574
O O3 0.000000 0.000000 0.500000
O O4 0.189807 0.930531 0.588501
O O5 0.435553 0.455331 0.704517
O O6 0.833602 0.563670 0.915460
O O7 0.000000 0.500000 0.000000
O O8 0.944763 0.731272 0.905074
O O9 0.970964 0.471809 0.725822
O O10 0.500000 0.500000 0.000000
O O11 0.399353 0.756485 0.963647
O O12 0.106574 0.992620 0.781724
O O13 0.678119 0.984876 0.065941
O O14 0.000000 0.000000 0.000000
O O15 0.970162 0.424168 0.457089
O O16 0.618571 0.731594 0.537497
O O17 0.246437 0.559164 0.301542
O O18 0.500000 0.000000 0.000000
O O19 0.500000 0.000000 0.500000
#
# Coordination Sequence:
#
# PCOD8036242 Si02
#       8
#     2   2   2   2   2   2   2   2
#     4  12  28  45  74 104 148 189 245 296 360 440
#     4  12  25  45  74 100 146 191 238 297 365 432
#     4  12  28  47  73 112 145 186 247 300 363 443
#     4  12  30  47  77 107 147 192 250 302 361 438
#     4  11  27  45  75 103 150 187 240 300 362 438
#     4  12  25  49  72 104 144 195 244 305 360 427
#     4  11  26  47  70 104 144 190 236 290 373 426
#     4  12  25  49  75 104 145 194 239 300 366 429
#
# _framework density 21.790365999999999
#
# number of rings (size 3 to 8) (size 9 to 14) (size 15 to 20)
#    0.000    0.250    5.000    2.250   12.250    0.500 
#    0.000    0.000    0.000    0.000    0.000    0.000 
#    0.000    0.000    0.000    0.000    0.000    0.000 
#
# Total GULP energy -198274.970513 kJ/mol
# GULP energy per Si atom -12392.185657 kJ/mol
# Density = 2.174077 g / cm^3
# Si number density = 21.790366 Si / 1000 Ang^3
#
#
#
# Elastic Constant Matrix: (Units=GPa)
#
#
# Indices 1 2 3 4 5 6 
#
# 1 176.4076 61.5795 36.9621 -9.5597 4.7897 -9.1010
# 2 61.5795 139.8634 32.9954 -5.2195 2.1162 9.0459
# 3 36.9621 32.9954 87.9613 1.8666 12.0991 0.1359
# 4 -9.5597 -5.2195 1.8666 31.1112 -1.2228 -6.3717
# 5 4.7897 2.1162 12.0991 -1.2228 42.0412 -5.9930
# 6 -9.1010 9.0459 0.1359 -6.3717 -5.9930 46.3240
#
#
#
# Elastic Compliance Matrix: (Units=1/GPa)
#
#
# Indices 1 2 3 4 5 6 
#
# 1 0.007335 -0.002794 -0.002134 0.002411 0.000327 0.002367
# 2 -0.002794 0.009068 -0.002259 0.000348 0.000203 -0.002239
# 3 -0.002134 -0.002259 0.013677 -0.002167 -0.003757 -0.000802
# 4 0.002411 0.000348 -0.002167 0.034259 0.002097 0.005396
# 5 0.000327 0.000203 -0.003757 0.002097 0.025395 0.003609
# 6 0.002367 -0.002239 -0.000802 0.005396 0.003609 0.023701
#
#
# Mechanical properties :
#
#
# Convention : Reuss Voigt Hill
#
# Bulk Modulus (GPa) = 63.67337 74.14515 68.90926
# Shear Modulus (GPa) = 37.58147 42.07497 39.82822
#
# Velocity S-wave (km/s) = 4.15744 4.39897 4.27990
# Velocity P-wave (km/s) = 7.23395 7.73961 7.49105
#
# Compressibility (1/GPa) = 0.01570515
#
# Stress axis : x y z
#
# Youngs Moduli (GPa) = 136.33206 110.28135 73.11717
#
# Poissons Ratio (x) = 0.30814 0.15602
# Poissons Ratio (y) = 0.38093 0.16518
# Poissons Ratio (z) = 0.29091 0.24914
#
# Static dielectric constant tensor:
#      x y z
#    x 4.901050 -0.080090 -0.437810 
#    y -0.080090 4.092530 -0.132560 
#    z -0.437810 -0.132560 3.884030 
# 
# 
# High freq. dielectric constant tensor:
#      x y z
#    x 1.875260 0.001110 -0.003240 
#    y 0.001110 1.878610 -0.008700 
#    z -0.003240 -0.008700 1.850220 
# 
# From -- ./inp_files/494580.got.cif
#   From: 2010.06.25/outbox.cif.g09.slc.cpg/sg2_248_cif.got.tgz:494580.got - 2010.06.27 13:26:56.
