data_PCOD8036650
_publ_section_title
;
Structure prediction by ZEFSAII (Michael W. Deem and Ramdas Pophale) SiO2 
 PCOD8036650
Probable space group: P -1
;
_chemical_formula_sum "Si O2"
_cell_formula_units_Z 16
_cell_length_a 11.748418
_cell_length_b 11.588002
_cell_length_c 8.794810
_cell_angle_alpha 124.174233
_cell_angle_beta 106.152136
_cell_angle_gamma 48.321529
_cell_volume 731.005609
_symmetry_space_group_name_H-M "P -1"
_symmetry_group_IT_number 2
_symmetry_cell_setting 'triclinic'
loop_
_space_group_symop_operation_xyz
x,y,z
-x,-y,-z
loop_
_atom_site_type_symbol
_atom_site_label
_atom_site_fract_x
_atom_site_fract_y
_atom_site_fract_z
Si Si1 0.245923 0.902399 0.272766
Si Si2 0.881004 0.304808 0.940521
Si Si3 0.822913 0.888158 0.907205
Si Si4 0.991291 0.730227 0.370111
Si Si5 0.841484 0.570312 0.570928
Si Si6 0.539351 0.797987 0.453917
Si Si7 0.746784 0.695630 0.208287
Si Si8 0.619322 0.971331 0.135252
O O1 0.215633 0.762667 0.141513
O O2 0.419160 0.783796 0.316631
O O3 0.232345 0.984405 0.164157
O O4 0.116954 0.065210 0.455937
O O5 0.963071 0.262882 0.777496
O O6 0.759704 0.519558 0.082123
O O7 0.000369 0.214338 0.059398
O O8 0.782590 0.754565 0.769950
O O9 0.722192 0.006517 0.106873
O O10 0.902055 0.650458 0.289633
O O11 0.135185 0.582973 0.423831
O O12 0.709146 0.614169 0.437219
O O13 0.000000 0.500000 0.500000
O O14 0.601273 0.854276 0.381490
O O15 0.452947 0.911544 0.654761
O O16 0.723603 0.764013 0.078006
O O17 0.500000 0.000000 0.000000
#
# Coordination Sequence:
#
# PCOD8036650 Si02
#       8
#     2   2   2   2   2   2   2   2
#     4  12  27  45  70  98 145 192 221 276 345 423
#     4  12  26  45  68 104 142 182 233 276 343 413
#     4  12  22  42  68 102 139 177 233 283 340 402
#     4  12  23  44  73 101 131 178 237 288 339 395
#     4  12  22  39  71 104 130 171 230 292 338 393
#     4  12  25  43  69 101 141 179 226 280 351 410
#     4  12  23  42  73  99 138 175 228 294 339 393
#     4  12  24  38  69 109 134 169 230 296 342 394
#
# _framework density 21.887657000000001
#
# number of rings (size 3 to 8) (size 9 to 14) (size 15 to 20)
#    0.000    0.000    7.500    3.000    0.000    0.500 
#    0.000    0.625    0.000    0.000    0.000    0.000 
#    0.000    0.000    0.000    0.000    0.000    0.000 
#
# Total GULP energy -198226.992019 kJ/mol
# GULP energy per Si atom -12389.187001 kJ/mol
# Density = 2.183784 g / cm^3
# Si number density = 21.887657 Si / 1000 Ang^3
#
#
#
# Elastic Constant Matrix: (Units=GPa)
#
#
# Indices 1 2 3 4 5 6 
#
# 1 106.3793 55.9543 49.9375 -9.7107 1.6847 -14.6332
# 2 55.9543 114.5891 54.3470 -25.4784 8.1185 -11.3270
# 3 49.9375 54.3470 100.9200 -19.3261 -17.4762 2.1013
# 4 -9.7107 -25.4784 -19.3261 35.6084 -6.2948 7.4737
# 5 1.6847 8.1185 -17.4762 -6.2948 37.2093 -5.5597
# 6 -14.6332 -11.3270 2.1013 7.4737 -5.5597 29.6554
#
#
#
# Elastic Compliance Matrix: (Units=1/GPa)
#
#
# Indices 1 2 3 4 5 6 
#
# 1 0.015539 -0.004539 -0.006722 -0.004604 -0.002591 0.007085
# 2 -0.004539 0.015464 -0.005911 0.005393 -0.004759 0.001835
# 3 -0.006722 -0.005911 0.020141 0.008350 0.011426 -0.006964
# 4 -0.004604 0.005393 0.008350 0.038543 0.008130 -0.008993
# 5 -0.002591 -0.004759 0.011426 0.008130 0.034859 0.000581
# 6 0.007085 0.001835 -0.006964 -0.008993 0.000581 0.040786
#
#
# Mechanical properties :
#
#
# Convention : Reuss Voigt Hill
#
# Bulk Modulus (GPa) = 59.52775 71.37402 65.45088
# Shear Modulus (GPa) = 24.35722 31.27125 27.81423
#
# Velocity S-wave (km/s) = 3.33953 3.78394 3.56866
# Velocity P-wave (km/s) = 6.49045 7.19520 6.85189
#
# Compressibility (1/GPa) = 0.01679889
#
# Stress axis : x y z
#
# Youngs Moduli (GPa) = 64.35484 64.66443 49.64953
#
# Poissons Ratio (x) = 0.29353 0.33376
# Poissons Ratio (y) = 0.29212 0.29349
# Poissons Ratio (z) = 0.43261 0.38225
#
# Static dielectric constant tensor:
#      x y z
#    x 3.820310 -0.482410 0.042810 
#    y -0.482410 3.872210 0.533970 
#    z 0.042810 0.533970 2.949010 
# 
# 
# High freq. dielectric constant tensor:
#      x y z
#    x 1.842370 -0.019390 -0.027750 
#    y -0.019390 1.873050 -0.028600 
#    z -0.027750 -0.028600 1.870670 
# 
# From -- ./inp_files/263093.got.cif
#   From: 2010.06.25/outbox.cif.g09.slc.cpg/sg2_132_cif.got.tgz:263093.got - 2010.06.27 13:26:56.
