data_PCOD8036067
_publ_section_title
;
Structure prediction by ZEFSAII (Michael W. Deem and Ramdas Pophale) SiO2 
 PCOD8036067
Probable space group: P -1
;
_chemical_formula_sum "Si O2"
_cell_formula_units_Z 10
_cell_length_a 11.687232
_cell_length_b 7.840491
_cell_length_c 5.077378
_cell_angle_alpha 61.495519
_cell_angle_beta 75.526722
_cell_angle_gamma 69.788929
_cell_volume 381.638615
_symmetry_space_group_name_H-M "P -1"
_symmetry_group_IT_number 2
_symmetry_cell_setting 'triclinic'
loop_
_space_group_symop_operation_xyz
x,y,z
-x,-y,-z
loop_
_atom_site_type_symbol
_atom_site_label
_atom_site_fract_x
_atom_site_fract_y
_atom_site_fract_z
Si Si1 0.134664 0.111950 0.850835
Si Si2 0.007807 0.707970 0.717574
Si Si3 0.417202 0.913174 0.299984
Si Si4 0.760844 0.296577 0.721173
Si Si5 0.661207 0.743090 0.538765
O O1 0.070597 0.237686 0.544932
O O2 0.254163 0.195699 0.787200
O O3 0.045222 0.128494 0.144722
O O4 0.178212 0.869090 0.968646
O O5 0.147663 0.690427 0.578524
O O6 0.000000 0.500000 0.000000
O O7 0.351693 0.764569 0.304914
O O8 0.516517 0.778532 0.544773
O O9 0.321557 0.103886 0.351709
O O10 0.500000 0.000000 0.000000
O O11 0.715044 0.507351 0.747548
#
# Coordination Sequence:
#
# PCOD8036067 Si02
#       5
#     2   2   2   2   2
#     4  12  26  52  77 121 162 204 266 332 390 486
#     4  12  27  51  80 118 164 207 263 329 400 479
#     4  11  25  52  74 115 158 202 272 329 385 476
#     4  12  26  50  84 114 158 216 256 326 409 463
#     4  11  26  49  80 112 159 206 265 329 393 471
#
# _framework density 26.202797
#
# number of rings (size 3 to 8) (size 9 to 14) (size 15 to 20)
#    0.000    0.400    4.000    3.600    0.000    2.400 
#    7.200    0.000    0.000    0.000    0.000    0.000 
#    0.000    0.000    0.000    0.000    0.000    0.000 
#
# Total GULP energy -123944.921762 kJ/mol
# GULP energy per Si atom -12394.492176 kJ/mol
# Density = 2.614316 g / cm^3
# Si number density = 26.202797 Si / 1000 Ang^3
#
#
#
# Elastic Constant Matrix: (Units=GPa)
#
#
# Indices 1 2 3 4 5 6 
#
# 1 109.5150 28.7289 51.9022 0.8251 -25.8779 -9.5260
# 2 28.7289 198.4310 49.4243 -24.9093 -0.0023 -12.1720
# 3 51.9022 49.4243 119.7452 -10.9136 -0.7184 -6.4102
# 4 0.8251 -24.9093 -10.9136 45.6089 5.4793 -6.2152
# 5 -25.8779 -0.0023 -0.7184 5.4793 47.9737 -2.9642
# 6 -9.5260 -12.1720 -6.4102 -6.2152 -2.9642 27.7347
#
#
#
# Elastic Compliance Matrix: (Units=1/GPa)
#
#
# Indices 1 2 3 4 5 6 
#
# 1 0.014398 -0.000708 -0.005943 -0.002568 0.008191 0.003561
# 2 -0.000708 0.006186 -0.001791 0.003413 -0.000628 0.002755
# 3 -0.005943 -0.001791 0.011868 0.002378 -0.003294 0.000097
# 4 -0.002568 0.003413 0.002378 0.025761 -0.003889 0.006523
# 5 0.008191 -0.000628 -0.003294 -0.003889 0.025885 0.003671
# 6 0.003561 0.002755 0.000097 0.006523 0.003671 0.040365
#
#
# Mechanical properties :
#
#
# Convention : Reuss Voigt Hill
#
# Bulk Modulus (GPa) = 64.23576 76.42246 70.32911
# Shear Modulus (GPa) = 34.12129 44.10583 39.11356
#
# Velocity S-wave (km/s) = 3.61252 4.10719 3.86777
# Velocity P-wave (km/s) = 6.47830 7.19174 6.84432
#
# Compressibility (1/GPa) = 0.01556765
#
# Stress axis : x y z
#
# Youngs Moduli (GPa) = 69.45503 161.66181 84.25805
#
# Poissons Ratio (x) = 0.11449 0.50071
# Poissons Ratio (y) = 0.04919 0.15093
# Poissons Ratio (z) = 0.41274 0.28959
#
# Static dielectric constant tensor:
#      x y z
#    x 6.631490 -0.991540 -0.692140 
#    y -0.991540 5.593460 0.189170 
#    z -0.692140 0.189170 4.893960 
# 
# 
# High freq. dielectric constant tensor:
#      x y z
#    x 2.061170 -0.014840 -0.021900 
#    y -0.014840 2.057640 -0.008860 
#    z -0.021900 -0.008860 2.050720 
# 
# From -- ./inp_files/58833.got.cif
#   From: 2010.06.25/outbox.cif.g09.slc.cpg/sg2_30_cif.got.tgz:58833.got - 2010.06.27 13:26:56.
