data_PCOD8036402
_publ_section_title
;
Structure prediction by ZEFSAII (Michael W. Deem and Ramdas Pophale) SiO2 
 PCOD8036402
Probable space group: P -1
;
_chemical_formula_sum "Si O2"
_cell_formula_units_Z 14
_cell_length_a 20.792796
_cell_length_b 8.562192
_cell_length_c 11.564461
_cell_angle_alpha 115.788002
_cell_angle_beta 151.544185
_cell_angle_gamma 45.559052
_cell_volume 593.638314
_symmetry_space_group_name_H-M "P -1"
_symmetry_group_IT_number 2
_symmetry_cell_setting 'triclinic'
loop_
_space_group_symop_operation_xyz
x,y,z
-x,-y,-z
loop_
_atom_site_type_symbol
_atom_site_label
_atom_site_fract_x
_atom_site_fract_y
_atom_site_fract_z
Si Si1 0.686377 0.913164 0.525129
Si Si2 0.137619 0.133703 0.741887
Si Si3 0.286953 0.617295 0.868815
Si Si4 0.962771 0.227221 0.059075
Si Si5 0.262094 0.234328 0.195541
Si Si6 0.469680 0.891782 0.020587
Si Si7 0.371378 0.495288 0.216809
O O1 0.805269 0.785178 0.793653
O O2 0.821558 0.885289 0.635035
O O3 0.471924 0.211689 0.293563
O O4 0.629650 0.780994 0.340470
O O5 0.899677 0.340819 0.412537
O O6 0.233577 0.852073 0.807802
O O7 0.245025 0.115893 0.792925
O O8 0.171125 0.212746 0.937705
O O9 0.473085 0.355138 0.010004
O O10 0.368164 0.576967 0.111666
O O11 0.810193 0.496353 0.832233
O O12 0.861540 0.301735 0.048253
O O13 0.000000 0.000000 0.000000
O O14 0.500000 0.000000 0.500000
O O15 0.500000 0.000000 0.000000
O O16 0.500000 0.500000 0.500000
#
# Coordination Sequence:
#
# PCOD8036402 Si02
#       7
#     2   2   2   2   2   2   2
#     4  12  25  47  72 110 144 193 245 295 371 432
#     4  11  26  50  72 105 147 197 243 297 367 434
#     4  11  27  46  74 105 146 194 246 299 362 439
#     4  12  27  43  71 111 146 186 241 306 364 432
#     4  12  24  49  77 104 148 194 240 305 363 432
#     4  12  25  45  71 105 147 190 239 295 363 440
#     4  12  24  45  71 105 146 187 242 303 364 423
#
# _framework density 23.583383999999999
#
# number of rings (size 3 to 8) (size 9 to 14) (size 15 to 20)
#    0.000    0.286    5.714    2.571    2.000    0.571 
#    2.571    0.000    0.000    0.000    0.000    0.000 
#    0.000    0.000    0.000    0.000    0.000    0.000 
#
# Total GULP energy -173540.027944 kJ/mol
# GULP energy per Si atom -12395.716282 kJ/mol
# Density = 2.352971 g / cm^3
# Si number density = 23.583384 Si / 1000 Ang^3
#
#
#
# Elastic Constant Matrix: (Units=GPa)
#
#
# Indices 1 2 3 4 5 6 
#
# 1 108.8357 26.5927 19.2097 9.3560 2.5110 -18.2700
# 2 26.5927 108.6137 26.7859 -12.9645 3.8918 -1.4763
# 3 19.2097 26.7859 89.0148 11.0573 3.4194 -16.0178
# 4 9.3560 -12.9645 11.0573 41.9461 -1.5088 -3.0238
# 5 2.5110 3.8918 3.4194 -1.5088 39.4453 -1.9362
# 6 -18.2700 -1.4763 -16.0178 -3.0238 -1.9362 40.3063
#
#
#
# Elastic Compliance Matrix: (Units=1/GPa)
#
#
# Indices 1 2 3 4 5 6 
#
# 1 0.010964 -0.002888 -0.000310 -0.002942 -0.000277 0.004507
# 2 -0.002888 0.011438 -0.003789 0.005012 -0.000525 -0.002045
# 3 -0.000310 -0.003789 0.013899 -0.004441 -0.000742 0.004875
# 4 -0.002942 0.005012 -0.004441 0.027195 0.001078 -0.000823
# 5 -0.000277 -0.000525 -0.000742 0.001078 0.025569 0.000869
# 6 0.004507 -0.002045 0.004875 -0.000823 0.000869 0.028695
#
#
# Mechanical properties :
#
#
# Convention : Reuss Voigt Hill
#
# Bulk Modulus (GPa) = 44.78943 50.18231 47.48587
# Shear Modulus (GPa) = 35.92558 39.93126 37.92842
#
# Velocity S-wave (km/s) = 3.90724 4.11931 4.01467
# Velocity P-wave (km/s) = 6.27603 6.62946 6.45517
#
# Compressibility (1/GPa) = 0.02232669
#
# Stress axis : x y z
#
# Youngs Moduli (GPa) = 91.20463 87.43057 71.94994
#
# Poissons Ratio (x) = 0.25249 0.02231
# Poissons Ratio (y) = 0.26339 0.27261
# Poissons Ratio (z) = 0.02828 0.33127
#
# Static dielectric constant tensor:
#      x y z
#    x 4.747000 -0.313850 0.135030 
#    y -0.313850 4.556750 -0.119700 
#    z 0.135030 -0.119700 4.357080 
# 
# 
# High freq. dielectric constant tensor:
#      x y z
#    x 1.941280 -0.009830 0.013280 
#    y -0.009830 1.947350 -0.006100 
#    z 0.013280 -0.006100 1.926100 
# 
# From -- ./inp_files/405336.got.cif
#   From: 2010.06.25/outbox.cif.g09.slc.cpg/sg2_203_cif.got.tgz:405336.got - 2010.06.27 13:26:56.
