data_PCOD8036873
_publ_section_title
;
Structure prediction by ZEFSAII (Michael W. Deem and Ramdas Pophale) SiO2 
 PCOD8036873
Probable space group: P -1
;
_chemical_formula_sum "Si O2"
_cell_formula_units_Z 16
_cell_length_a 12.169104
_cell_length_b 18.791751
_cell_length_c 22.079236
_cell_angle_alpha 17.006407
_cell_angle_beta 151.462399
_cell_angle_gamma 149.080689
_cell_volume 699.741006
_symmetry_space_group_name_H-M "P -1"
_symmetry_group_IT_number 2
_symmetry_cell_setting 'triclinic'
loop_
_space_group_symop_operation_xyz
x,y,z
-x,-y,-z
loop_
_atom_site_type_symbol
_atom_site_label
_atom_site_fract_x
_atom_site_fract_y
_atom_site_fract_z
Si Si1 0.035302 0.645208 0.532802
Si Si2 0.105560 0.375915 0.318838
Si Si3 0.264399 0.920482 0.985460
Si Si4 0.413978 0.800730 0.497486
Si Si5 0.320652 0.696759 0.751180
Si Si6 0.770287 0.506103 0.848319
Si Si7 0.544615 0.971624 0.191499
Si Si8 0.786540 0.147040 0.771319
O O1 0.246060 0.638420 0.594093
O O2 0.138046 0.636031 0.657515
O O3 0.842988 0.416152 0.609887
O O4 0.916863 0.889092 0.267787
O O5 0.168246 0.337476 0.310255
O O6 0.265928 0.218795 0.564498
O O7 0.834746 0.296551 0.268370
O O8 0.144636 0.662947 0.114693
O O9 0.322743 0.883184 0.114405
O O10 0.500000 0.000000 0.000000
O O11 0.611047 0.642734 0.702865
O O12 0.266346 0.854226 0.324068
O O13 0.524273 0.041205 0.391605
O O14 0.500000 0.500000 0.000000
O O15 0.000000 0.500000 0.000000
O O16 0.654373 0.229436 0.006327
O O17 0.441538 0.990127 0.193957
O O18 0.000000 0.000000 0.000000
#
# Coordination Sequence:
#
# PCOD8036873 Si02
#       8
#     2   2   2   2   2   2   2   2
#     4  12  26  47  73 107 144 189 241 294 361 422
#     4  12  26  47  72 106 145 183 243 290 357 425
#     4  12  23  43  73 102 140 186 236 290 355 421
#     4  12  26  47  72 105 145 185 240 294 356 425
#     4  12  28  47  73 104 145 191 238 298 354 424
#     4  12  28  44  73 104 143 192 233 294 355 423
#     4  12  24  46  70 107 143 183 240 291 358 422
#     4  12  24  44  72 106 145 185 233 296 355 423
#
# _framework density 22.865603
#
# number of rings (size 3 to 8) (size 9 to 14) (size 15 to 20)
#    0.000    0.000    2.500    7.875    5.250    1.000 
#    0.000    0.000    0.000    0.000    0.000    0.000 
#    0.000    0.000    0.000    0.000    0.000    0.000 
#
# Total GULP energy -198468.805286 kJ/mol
# GULP energy per Si atom -12404.300330 kJ/mol
# Density = 2.281356 g / cm^3
# Si number density = 22.865603 Si / 1000 Ang^3
#
#
#
# Elastic Constant Matrix: (Units=GPa)
#
#
# Indices 1 2 3 4 5 6 
#
# 1 123.4125 9.3958 28.1294 9.4208 3.0294 18.8899
# 2 9.3958 77.2261 14.6793 11.1722 -3.2471 -3.8960
# 3 28.1294 14.6793 145.9490 20.6942 28.4465 3.7176
# 4 9.4208 11.1722 20.6942 39.8993 5.8368 1.0396
# 5 3.0294 -3.2471 28.4465 5.8368 46.4995 4.1814
# 6 18.8899 -3.8960 3.7176 1.0396 4.1814 41.0144
#
#
#
# Elastic Compliance Matrix: (Units=1/GPa)
#
#
# Indices 1 2 3 4 5 6 
#
# 1 0.009246 -0.000837 -0.001592 -0.001135 0.000838 -0.004250
# 2 -0.000837 0.013946 -0.001195 -0.003430 0.002037 0.001698
# 3 -0.001592 -0.001195 0.008665 -0.003073 -0.004932 0.000415
# 4 -0.001135 -0.003430 -0.003073 0.028152 -0.001815 -0.000053
# 5 0.000838 0.002037 -0.004932 -0.001815 0.025041 -0.002252
# 6 -0.004250 0.001698 0.000415 -0.000053 -0.002252 0.026694
#
#
# Mechanical properties :
#
#
# Convention : Reuss Voigt Hill
#
# Bulk Modulus (GPa) = 40.63768 50.11075 45.37422
# Shear Modulus (GPa) = 39.30949 45.10816 42.20882
#
# Velocity S-wave (km/s) = 4.15077 4.44639 4.30112
# Velocity P-wave (km/s) = 6.38614 6.95150 6.67481
#
# Compressibility (1/GPa) = 0.02460770
#
# Stress axis : x y z
#
# Youngs Moduli (GPa) = 108.15321 71.70745 115.40328
#
# Poissons Ratio (x) = 0.06005 0.18371
# Poissons Ratio (y) = 0.09057 0.13794
# Poissons Ratio (z) = 0.17217 0.08571
#
# Static dielectric constant tensor:
#      x y z
#    x 3.961340 0.129300 0.147070 
#    y 0.129300 4.337100 -0.087320 
#    z 0.147070 -0.087320 4.109590 
# 
# 
# High freq. dielectric constant tensor:
#      x y z
#    x 1.921500 0.006060 0.002530 
#    y 0.006060 1.906930 0.003580 
#    z 0.002530 0.003580 1.916800 
# 
# From -- ./inp_files/363845.got.cif
#   From: 2010.06.25/outbox.cif.g09.slc.cpg/sg2_182_cif.got.tgz:363845.got - 2010.06.27 13:26:56.
