data_PCOD8036339
_publ_section_title
;
Structure prediction by ZEFSAII (Michael W. Deem and Ramdas Pophale) SiO2 
 PCOD8036339
Probable space group: P -1
;
_chemical_formula_sum "Si O2"
_cell_formula_units_Z 12
_cell_length_a 15.305666
_cell_length_b 9.287973
_cell_length_c 18.946598
_cell_angle_alpha 39.026745
_cell_angle_beta 161.177213
_cell_angle_gamma 132.077725
_cell_volume 518.285791
_symmetry_space_group_name_H-M "P -1"
_symmetry_group_IT_number 2
_symmetry_cell_setting 'triclinic'
loop_
_space_group_symop_operation_xyz
x,y,z
-x,-y,-z
loop_
_atom_site_type_symbol
_atom_site_label
_atom_site_fract_x
_atom_site_fract_y
_atom_site_fract_z
Si Si1 0.174234 0.481427 0.567607
Si Si2 0.609591 0.727579 0.986163
Si Si3 0.277130 0.340310 0.315139
Si Si4 0.829699 0.476835 0.679514
Si Si5 0.460611 0.189358 0.255192
Si Si6 0.761583 0.875079 0.361354
O O1 0.438972 0.581303 0.736973
O O2 0.283310 0.212705 0.718928
O O3 0.000000 0.500000 0.500000
O O4 0.951952 0.638420 0.280084
O O5 0.493457 0.862728 0.773307
O O6 0.526853 0.917984 0.914830
O O7 0.500000 0.500000 0.000000
O O8 0.560321 0.392568 0.484957
O O9 0.224680 0.392946 0.336869
O O10 0.344368 0.052247 0.464045
O O11 0.000000 0.500000 0.000000
O O12 0.859452 0.656632 0.573879
O O13 0.127054 0.254266 0.995994
O O14 0.000000 0.000000 0.500000
#
# Coordination Sequence:
#
# PCOD8036339 Si02
#       6
#     2   2   2   2   2   2
#     4  12  27  42  71 115 147 192 247 298 366 443
#     4  12  23  46  69 103 153 193 236 298 372 439
#     4  11  28  49  75 107 146 189 256 310 359 437
#     4  11  26  48  74 108 143 199 244 297 380 434
#     4  12  25  47  76 103 150 192 247 304 368 441
#     4  12  24  46  76 102 151 195 236 301 372 443
#
# _framework density 23.153248000000001
#
# number of rings (size 3 to 8) (size 9 to 14) (size 15 to 20)
#    0.000    0.333    6.667    0.500    4.667    1.333 
#    0.000    0.000    0.000    0.000    0.000    0.000 
#    0.000    0.000    0.000    0.000    0.000    0.000 
#
# Total GULP energy -148777.108887 kJ/mol
# GULP energy per Si atom -12398.092407 kJ/mol
# Density = 2.310055 g / cm^3
# Si number density = 23.153248 Si / 1000 Ang^3
#
#
#
# Elastic Constant Matrix: (Units=GPa)
#
#
# Indices 1 2 3 4 5 6 
#
# 1 105.7916 67.8856 32.3151 -2.6894 10.0930 -6.0392
# 2 67.8856 149.3226 57.0264 4.4267 11.5218 -12.3267
# 3 32.3151 57.0264 144.8143 -1.7643 17.3017 7.5699
# 4 -2.6894 4.4267 -1.7643 47.4845 1.0851 6.1632
# 5 10.0930 11.5218 17.3017 1.0851 39.2929 -5.9595
# 6 -6.0392 -12.3267 7.5699 6.1632 -5.9595 45.4388
#
#
#
# Elastic Compliance Matrix: (Units=1/GPa)
#
#
# Indices 1 2 3 4 5 6 
#
# 1 0.013575 -0.005911 -0.000489 0.001352 -0.001592 -0.000110
# 2 -0.005911 0.010878 -0.003170 -0.001858 0.000227 0.002975
# 3 -0.000489 -0.003170 0.008827 0.001057 -0.003312 -0.002973
# 4 0.001352 -0.001858 0.001057 0.021855 -0.001426 -0.003652
# 5 -0.001592 0.000227 -0.003312 -0.001426 0.027936 0.004259
# 6 -0.000110 0.002975 -0.002973 -0.003652 0.004259 0.024349
#
#
# Mechanical properties :
#
#
# Convention : Reuss Voigt Hill
#
# Bulk Modulus (GPa) = 70.72247 79.37587 75.04917
# Shear Modulus (GPa) = 38.08845 42.62334 40.35589
#
# Velocity S-wave (km/s) = 4.06033 4.29525 4.17944
# Velocity P-wave (km/s) = 7.25213 7.67829 7.46825
#
# Compressibility (1/GPa) = 0.01413978
#
# Stress axis : x y z
#
# Youngs Moduli (GPa) = 73.66460 91.92876 113.29203
#
# Poissons Ratio (x) = 0.54340 0.05540
# Poissons Ratio (y) = 0.43544 0.35912
# Poissons Ratio (z) = 0.03602 0.29140
#
# Static dielectric constant tensor:
#      x y z
#    x 4.515240 -0.295640 0.064690 
#    y -0.295640 4.365920 0.021770 
#    z 0.064690 0.021770 4.307770 
# 
# 
# High freq. dielectric constant tensor:
#      x y z
#    x 1.925380 -0.008630 0.009420 
#    y -0.008630 1.913570 -0.004920 
#    z 0.009420 -0.004920 1.922330 
# 
# From -- ./inp_files/335745.got.cif
#   From: 2010.06.25/outbox.cif.g09.slc.cpg/sg2_168_cif.got.tgz:335745.got - 2010.06.27 13:26:56.
