data_PCOD8036019
_publ_section_title
;
Structure prediction by ZEFSAII (Michael W. Deem and Ramdas Pophale) SiO2 
 PCOD8036019
Probable space group: P -1
;
_chemical_formula_sum "Si O2"
_cell_formula_units_Z 12
_cell_length_a 5.404294
_cell_length_b 8.935742
_cell_length_c 12.075523
_cell_angle_alpha 96.283694
_cell_angle_beta 77.059339
_cell_angle_gamma 120.591560
_cell_volume 489.223838
_symmetry_space_group_name_H-M "P -1"
_symmetry_group_IT_number 2
_symmetry_cell_setting 'triclinic'
loop_
_space_group_symop_operation_xyz
x,y,z
-x,-y,-z
loop_
_atom_site_type_symbol
_atom_site_label
_atom_site_fract_x
_atom_site_fract_y
_atom_site_fract_z
Si Si1 0.138540 0.499091 0.211986
Si Si2 0.550101 0.671696 0.371565
Si Si3 0.559399 0.318016 0.372320
Si Si4 0.832538 0.783520 0.925621
Si Si5 0.259051 0.781778 0.069421
Si Si6 0.122812 0.994027 0.250507
O O1 0.337741 0.651582 0.290286
O O2 0.306164 0.405470 0.134510
O O3 0.057640 0.591987 0.129693
O O4 0.854197 0.346737 0.288075
O O5 0.538650 0.488782 0.366388
O O6 0.430125 0.710616 0.499606
O O7 0.867814 0.831658 0.327631
O O8 0.293266 0.145522 0.334398
O O9 0.998404 0.933755 0.829157
O O10 0.567015 0.801746 0.003811
O O11 0.073994 0.803192 0.991581
O O12 0.329711 0.931044 0.165566
#
# Coordination Sequence:
#
# PCOD8036019 Si02
#       6
#     2   2   2   2   2   2
#     4  12  25  48  76 112 152 202 253 312 384 454
#     4  11  25  49  76 110 150 197 252 317 383 453
#     4  11  25  49  76 110 150 197 252 317 383 453
#     4  12  27  47  76 113 157 203 256 314 378 457
#     4  12  27  47  76 113 157 203 256 314 378 457
#     4  12  25  50  78 114 150 200 253 314 382 452
#
# _framework density 24.528645999999998
#
# number of rings (size 3 to 8) (size 9 to 14) (size 15 to 20)
#    0.000    0.333    3.333    5.000    0.000    4.000 
#    0.000    1.667    0.000    0.000    0.000    0.000 
#    0.000    0.000    0.000    0.000    0.000    0.000 
#
# Total GULP energy -148768.977381 kJ/mol
# GULP energy per Si atom -12397.414782 kJ/mol
# Density = 2.447282 g / cm^3
# Si number density = 24.528646 Si / 1000 Ang^3
#
#
#
# Elastic Constant Matrix: (Units=GPa)
#
#
# Indices 1 2 3 4 5 6 
#
# 1 76.5213 10.2785 23.6996 14.4971 2.3930 -10.4277
# 2 10.2785 102.1095 42.1409 29.8789 6.7023 5.9305
# 3 23.6996 42.1409 131.4482 18.5379 6.7842 -8.6784
# 4 14.4971 29.8789 18.5379 10.0849 0.1720 3.5905
# 5 2.3930 6.7023 6.7842 0.1720 27.8270 1.7721
# 6 -10.4277 5.9305 -8.6784 3.5905 1.7721 28.5156
#
#
#
# Elastic Compliance Matrix: (Units=1/GPa)
#
#
# Indices 1 2 3 4 5 6 
#
# 1 -0.006912 -0.033914 -0.007702 0.129663 0.010783 -0.014814
# 2 -0.033914 -0.039210 -0.012646 0.200101 0.016392 -0.034310
# 3 -0.007702 -0.012646 0.007908 0.034781 0.001710 -0.002265
# 4 0.129663 0.200101 0.034781 -0.785412 -0.070593 0.119665
# 5 0.010783 0.016392 0.001710 -0.070593 0.030568 0.008043
# 6 -0.014814 -0.034310 -0.002265 0.119665 0.008043 0.020530
#
#
# Mechanical properties :
#
#
# Convention : Reuss Voigt Hill
#
# Bulk Modulus (GPa) = -6.81482 51.36855 22.27687
# Shear Modulus (GPa) = -7.01346 28.88284 10.93469
#
# Velocity S-wave (km/s) = -1.69278 3.43522 2.11367
# Velocity P-wave (km/s) = 2.57002 6.05987 3.88053
#
# Compressibility (1/GPa) = -0.14673901
#
# Stress axis : x y z
#
# Youngs Moduli (GPa) = -144.67955 -25.50400 126.46149
#
# Poissons Ratio (x) = -0.86495 0.97400
# Poissons Ratio (y) = -4.90671 1.59927
# Poissons Ratio (z) = -1.11431 -0.32253
#
# Static dielectric constant tensor:
#      x y z
#    x 4.166120 -0.315630 0.069830 
#    y -0.315630 4.720890 0.041060 
#    z 0.069830 0.041060 4.950350 
# 
# 
# High freq. dielectric constant tensor:
#      x y z
#    x 1.956260 -0.011880 0.002680 
#    y -0.011880 1.996660 0.001590 
#    z 0.002680 0.001590 1.997450 
# 
# From -- ./inp_files/360800.got.cif
#   From: 2010.06.25/outbox.cif.g09.slc.cpg/sg2_181_cif.got.tgz:360800.got - 2010.06.27 13:26:56.
