data_PCOD8036785
_publ_section_title
;
Structure prediction by ZEFSAII (Michael W. Deem and Ramdas Pophale) SiO2 
 PCOD8036785
Probable space group: P -1
;
_chemical_formula_sum "Si O2"
_cell_formula_units_Z 16
_cell_length_a 26.085971
_cell_length_b 25.576042
_cell_length_c 11.014790
_cell_angle_alpha 149.203127
_cell_angle_beta 147.367407
_cell_angle_gamma 11.393179
_cell_volume 743.257709
_symmetry_space_group_name_H-M "P -1"
_symmetry_group_IT_number 2
_symmetry_cell_setting 'triclinic'
loop_
_space_group_symop_operation_xyz
x,y,z
-x,-y,-z
loop_
_atom_site_type_symbol
_atom_site_label
_atom_site_fract_x
_atom_site_fract_y
_atom_site_fract_z
Si Si1 0.498520 0.620285 0.243287
Si Si2 0.000795 0.209711 0.307515
Si Si3 0.510161 0.917198 0.469671
Si Si4 0.502861 0.664881 0.623210
Si Si5 0.990689 0.723912 0.806732
Si Si6 0.998727 0.894048 0.356916
Si Si7 0.004694 0.385876 0.836505
Si Si8 0.494478 0.121963 0.016562
O O1 0.749312 0.405704 0.245035
O O2 0.491164 0.667438 0.459934
O O3 0.500000 0.500000 0.000000
O O4 0.251601 0.899987 0.232791
O O5 0.993770 0.222096 0.173428
O O6 0.009167 0.315059 0.583822
O O7 0.779533 0.587830 0.351929
O O8 0.500000 0.000000 0.500000
O O9 0.490797 0.012422 0.735526
O O10 0.278260 0.068336 0.309761
O O11 0.756181 0.355571 0.562661
O O12 0.503665 0.786898 0.896746
O O13 0.258602 0.853299 0.571471
O O14 0.010146 0.784156 0.074762
O O15 0.000000 0.000000 0.500000
O O16 0.000000 0.500000 0.000000
O O17 0.756378 0.609785 0.867670
O O18 0.254336 0.114853 0.873482
#
# Coordination Sequence:
#
# PCOD8036785 Si02
#       8
#     2   2   2   2   2   2   2   2
#     4  12  27  45  75 102 138 187 225 290 349 406
#     4  12  24  47  68 106 145 177 229 282 348 416
#     4  12  25  45  69 101 139 186 235 279 344 407
#     4  12  25  48  72 104 137 176 241 281 340 416
#     4  12  27  46  69 105 142 183 230 286 345 412
#     4  12  28  47  74 100 137 185 231 290 343 401
#     4  12  23  40  65 100 136 180 222 267 340 403
#     4  12  23  42  68  98 134 179 222 281 335 399
#
# _framework density 21.526852999999999
#
# number of rings (size 3 to 8) (size 9 to 14) (size 15 to 20)
#    0.000    0.000    2.500    8.250    3.500    0.000 
#    0.000    0.000    0.000    0.000    0.000    0.000 
#    0.000    0.000    0.000    0.000    0.000    0.000 
#
# Total GULP energy -198467.558468 kJ/mol
# GULP energy per Si atom -12404.222404 kJ/mol
# Density = 2.147786 g / cm^3
# Si number density = 21.526853 Si / 1000 Ang^3
#
#
#
# Elastic Constant Matrix: (Units=GPa)
#
#
# Indices 1 2 3 4 5 6 
#
# 1 145.9827 59.0328 17.0262 -6.9999 15.1092 -5.4786
# 2 59.0328 163.0922 13.3003 -6.1055 9.9542 -2.0364
# 3 17.0262 13.3003 83.6503 4.4841 14.8772 2.3405
# 4 -6.9999 -6.1055 4.4841 37.1212 2.0085 13.7406
# 5 15.1092 9.9542 14.8772 2.0085 48.8908 -0.1053
# 6 -5.4786 -2.0364 2.3405 13.7406 -0.1053 55.9101
#
#
#
# Elastic Compliance Matrix: (Units=1/GPa)
#
#
# Indices 1 2 3 4 5 6 
#
# 1 0.008349 -0.002783 -0.001021 0.001160 -0.001750 0.000471
# 2 -0.002783 0.007241 -0.000538 0.000828 -0.000485 -0.000191
# 3 -0.001021 -0.000538 0.012953 -0.001553 -0.003453 -0.000287
# 4 0.001160 0.000828 -0.001553 0.030226 -0.001312 -0.007222
# 5 -0.001750 -0.000485 -0.003453 -0.001312 0.022199 0.000320
# 6 0.000471 -0.000191 -0.000287 -0.007222 0.000320 0.019713
#
#
# Mechanical properties :
#
#
# Convention : Reuss Voigt Hill
#
# Bulk Modulus (GPa) = 50.35211 63.49376 56.92294
# Shear Modulus (GPa) = 43.11001 48.60883 45.85942
#
# Velocity S-wave (km/s) = 4.47991 4.75706 4.62056
# Velocity P-wave (km/s) = 7.08524 7.72864 7.41393
#
# Compressibility (1/GPa) = 0.01986014
#
# Stress axis : x y z
#
# Youngs Moduli (GPa) = 119.77723 138.10721 77.20041
#
# Poissons Ratio (x) = 0.38429 0.07883
# Poissons Ratio (y) = 0.33329 0.04151
# Poissons Ratio (z) = 0.12231 0.07426
#
# Static dielectric constant tensor:
#      x y z
#    x 4.094440 -0.009690 0.032640 
#    y -0.009690 4.036670 -0.009190 
#    z 0.032640 -0.009190 4.280940 
# 
# 
# High freq. dielectric constant tensor:
#      x y z
#    x 1.861890 0.000070 0.007710 
#    y 0.000070 1.868560 0.000700 
#    z 0.007710 0.000700 1.860690 
# 
# From -- ./inp_files/477245.got.cif
#   From: 2010.06.25/outbox.cif.g09.slc.cpg/sg2_239_cif.got.tgz:477245.got - 2010.06.27 13:26:56.
