data_PCOD8036825
_publ_section_title
;
Structure prediction by ZEFSAII (Michael W. Deem and Ramdas Pophale) SiO2 
 PCOD8036825
Probable space group: P -1
;
_chemical_formula_sum "Si O2"
_cell_formula_units_Z 16
_cell_length_a 8.755344
_cell_length_b 12.148185
_cell_length_c 18.226734
_cell_angle_alpha 148.438140
_cell_angle_beta 132.750009
_cell_angle_gamma 48.843264
_cell_volume 728.917494
_symmetry_space_group_name_H-M "P -1"
_symmetry_group_IT_number 2
_symmetry_cell_setting 'triclinic'
loop_
_space_group_symop_operation_xyz
x,y,z
-x,-y,-z
loop_
_atom_site_type_symbol
_atom_site_label
_atom_site_fract_x
_atom_site_fract_y
_atom_site_fract_z
Si Si1 0.474085 0.279863 0.403100
Si Si2 0.664077 0.145503 0.654321
Si Si3 0.979368 0.917631 0.156227
Si Si4 0.348499 0.553923 0.832570
Si Si5 0.999466 0.652585 0.656689
Si Si6 0.162107 0.794907 0.407892
Si Si7 0.634834 0.853757 0.124474
Si Si8 0.859876 0.510397 0.122619
O O1 0.500000 0.500000 0.500000
O O2 0.233618 0.282322 0.347962
O O3 0.611402 0.240951 0.499618
O O4 0.560957 0.089932 0.267221
O O5 0.551745 0.380644 0.775851
O O6 0.813008 0.164930 0.646192
O O7 0.820906 0.036018 0.706648
O O8 0.500000 0.000000 0.500000
O O9 0.793088 0.863758 0.114744
O O10 0.904671 0.139218 0.213830
O O11 0.057933 0.723451 0.016367
O O12 0.301388 0.502510 0.871694
O O13 0.154061 0.538030 0.706348
O O14 0.424373 0.780875 0.983612
O O15 0.000000 0.500000 0.500000
O O16 0.063059 0.584900 0.266281
O O17 0.000000 0.000000 0.500000
O O18 0.746990 0.683207 0.124598
#
# Coordination Sequence:
#
# PCOD8036825 Si02
#       8
#     2   2   2   2   2   2   2   2
#     4  12  26  45  71 102 143 187 231 288 352 414
#     4  12  24  40  68 102 133 182 235 284 346 409
#     4  12  25  45  73 102 141 183 230 295 349 410
#     4  12  27  44  72 102 141 189 232 283 356 414
#     4  12  28  50  68 102 146 187 235 285 347 421
#     4  12  23  42  70 101 137 183 233 287 348 412
#     4  12  25  46  73 106 143 178 236 297 346 414
#     4  12  24  44  73 107 143 174 236 294 345 417
#
# _framework density 21.950357
#
# number of rings (size 3 to 8) (size 9 to 14) (size 15 to 20)
#    0.000    0.000    3.750    6.750    1.750    3.500 
#    0.000    0.000    0.000    0.000    0.000    0.000 
#    0.000    0.000    0.000    0.000    0.000    0.000 
#
# Total GULP energy -198490.102443 kJ/mol
# GULP energy per Si atom -12405.631403 kJ/mol
# Density = 2.190040 g / cm^3
# Si number density = 21.950357 Si / 1000 Ang^3
#
#
#
# Elastic Constant Matrix: (Units=GPa)
#
#
# Indices 1 2 3 4 5 6 
#
# 1 143.2797 35.5300 45.9801 7.3704 -8.8730 8.2137
# 2 35.5300 70.4126 9.4153 4.0224 -5.6860 7.2811
# 3 45.9801 9.4153 129.8860 13.1584 -3.9191 7.9877
# 4 7.3704 4.0224 13.1584 46.0968 -7.7027 8.2709
# 5 -8.8730 -5.6860 -3.9191 -7.7027 51.3809 0.4586
# 6 8.2137 7.2811 7.9877 8.2709 0.4586 32.5751
#
#
#
# Elastic Compliance Matrix: (Units=1/GPa)
#
#
# Indices 1 2 3 4 5 6 
#
# 1 0.008972 -0.004007 -0.002815 -0.000008 0.000896 -0.000687
# 2 -0.004007 0.016557 0.000447 -0.000243 0.001163 -0.002755
# 3 -0.002815 0.000447 0.008926 -0.001949 -0.000038 -0.001084
# 4 -0.000008 -0.000243 -0.001949 0.023848 0.003448 -0.005569
# 5 0.000896 0.001163 -0.000038 0.003448 0.020274 -0.001637
# 6 -0.000687 -0.002755 -0.001084 -0.005569 -0.001637 0.033190
#
#
# Mechanical properties :
#
#
# Convention : Reuss Voigt Hill
#
# Bulk Modulus (GPa) = 46.07276 58.38101 52.22688
# Shear Modulus (GPa) = 37.95024 42.85408 40.40216
#
# Velocity S-wave (km/s) = 4.16253 4.42330 4.29489
# Velocity P-wave (km/s) = 6.64359 7.26237 6.95986
#
# Compressibility (1/GPa) = 0.02170480
#
# Stress axis : x y z
#
# Youngs Moduli (GPa) = 111.46103 60.39883 112.02938
#
# Poissons Ratio (x) = 0.24201 0.31542
# Poissons Ratio (y) = 0.44660 -0.05012
# Poissons Ratio (z) = 0.31382 -0.02702
#
# Static dielectric constant tensor:
#      x y z
#    x 4.139250 -0.086680 0.009000 
#    y -0.086680 3.557790 0.238000 
#    z 0.009000 0.238000 4.137110 
# 
# 
# High freq. dielectric constant tensor:
#      x y z
#    x 1.882670 -0.000980 0.000740 
#    y -0.000980 1.860420 -0.002660 
#    z 0.000740 -0.002660 1.887040 
# 
# From -- ./inp_files/186701.got.cif
#   From: 2010.06.25/outbox.cif.g09.slc.cpg/sg2_94_cif.got.tgz:186701.got - 2010.06.27 13:26:56.
