data_PCOD8036131
_publ_section_title
;
Structure prediction by ZEFSAII (Michael W. Deem and Ramdas Pophale) SiO2 
 PCOD8036131
Probable space group: P -1
;
_chemical_formula_sum "Si O2"
_cell_formula_units_Z 16
_cell_length_a 11.260047
_cell_length_b 9.127997
_cell_length_c 9.802144
_cell_angle_alpha 114.318956
_cell_angle_beta 113.147298
_cell_angle_gamma 105.477817
_cell_volume 725.290905
_symmetry_space_group_name_H-M "P -1"
_symmetry_group_IT_number 2
_symmetry_cell_setting 'triclinic'
loop_
_space_group_symop_operation_xyz
x,y,z
-x,-y,-z
loop_
_atom_site_type_symbol
_atom_site_label
_atom_site_fract_x
_atom_site_fract_y
_atom_site_fract_z
Si Si1 0.441552 0.938673 0.104005
Si Si2 0.973845 0.650744 0.619817
Si Si3 0.856038 0.928433 0.188319
Si Si4 0.125551 0.640908 0.936371
Si Si5 0.619632 0.744523 0.775354
Si Si6 0.330430 0.365332 0.532845
Si Si7 0.936017 0.227814 0.767464
Si Si8 0.700513 0.921588 0.372054
O O1 0.557146 0.912369 0.236044
O O2 0.420690 0.099421 0.223725
O O3 0.282413 0.742536 0.963034
O O4 0.500000 0.000000 0.000000
O O5 0.813012 0.617055 0.491986
O O6 0.000000 0.500000 0.500000
O O7 0.992117 0.635685 0.784846
O O8 0.102026 0.857464 0.713038
O O9 0.779074 0.853578 0.271688
O O10 0.003946 0.913929 0.232667
O O11 0.746039 0.815580 0.973594
O O12 0.077452 0.426793 0.862604
O O13 0.142799 0.751570 0.125907
O O14 0.474707 0.565796 0.703248
O O15 0.681892 0.694689 0.652364
O O16 0.347053 0.218858 0.576970
O O17 0.811078 0.133955 0.556591
#
# Coordination Sequence:
#
# PCOD8036131 Si02
#       8
#     2   2   2   2   2   2   2   2
#     4  12  26  47  71 103 144 188 239 289 360 425
#     4  12  26  44  73 102 140 186 237 296 353 421
#     4  12  25  46  73 100 143 186 237 294 358 423
#     4  11  26  45  71 104 142 192 232 298 356 423
#     4  11  26  48  70 100 145 193 232 288 354 435
#     4  11  28  45  71 106 141 186 240 290 357 420
#     4  11  26  45  71 106 143 181 243 292 359 427
#     4  12  26  45  71 106 139 187 234 302 348 422
#
# _framework density 22.060115
#
# number of rings (size 3 to 8) (size 9 to 14) (size 15 to 20)
#    0.000    0.500    3.750    2.625    8.750    3.500 
#    0.000    0.000    0.000    0.000    0.000    0.000 
#    0.000    0.000    0.000    0.000    0.000    0.000 
#
# Total GULP energy -198490.494843 kJ/mol
# GULP energy per Si atom -12405.655928 kJ/mol
# Density = 2.200990 g / cm^3
# Si number density = 22.060115 Si / 1000 Ang^3
#
#
#
# Elastic Constant Matrix: (Units=GPa)
#
#
# Indices 1 2 3 4 5 6 
#
# 1 86.5507 32.5698 43.7883 -2.4890 14.8874 0.5225
# 2 32.5698 101.3067 59.9266 6.2846 5.8472 9.8071
# 3 43.7883 59.9266 115.2203 -4.4954 22.7974 -1.6987
# 4 -2.4890 6.2846 -4.4954 40.1766 -5.3557 1.1492
# 5 14.8874 5.8472 22.7974 -5.3557 25.6456 -0.8984
# 6 0.5225 9.8071 -1.6987 1.1492 -0.8984 40.0087
#
#
#
# Elastic Compliance Matrix: (Units=1/GPa)
#
#
# Indices 1 2 3 4 5 6 
#
# 1 0.015128 -0.002614 -0.003360 0.000281 -0.005134 0.000177
# 2 -0.002614 0.015988 -0.008404 -0.002874 0.004601 -0.004056
# 3 -0.003360 -0.008404 0.016476 0.001494 -0.010379 0.002528
# 4 0.000281 -0.002874 0.001494 0.026138 0.004627 0.000117
# 5 -0.005134 0.004601 -0.010379 0.004627 0.051100 -0.000487
# 6 0.000177 -0.004056 0.002528 0.000117 -0.000487 0.026079
#
#
# Mechanical properties :
#
#
# Convention : Reuss Voigt Hill
#
# Bulk Modulus (GPa) = 53.09251 63.96082 58.52666
# Shear Modulus (GPa) = 26.88965 32.28571 29.58768
#
# Velocity S-wave (km/s) = 3.49510 3.82977 3.66625
# Velocity P-wave (km/s) = 6.35666 6.97230 6.67158
#
# Compressibility (1/GPa) = 0.01883505
#
# Stress axis : x y z
#
# Youngs Moduli (GPa) = 66.10389 62.54561 60.69297
#
# Poissons Ratio (x) = 0.16350 0.20394
# Poissons Ratio (y) = 0.17280 0.51009
# Poissons Ratio (z) = 0.22212 0.52566
#
# Static dielectric constant tensor:
#      x y z
#    x 3.888470 0.059620 0.005340 
#    y 0.059620 4.089180 0.013090 
#    z 0.005340 0.013090 4.120660 
# 
# 
# High freq. dielectric constant tensor:
#      x y z
#    x 1.866510 0.002410 -0.000200 
#    y 0.002410 1.878880 0.002330 
#    z -0.000200 0.002330 1.884780 
# 
# From -- ./inp_files/245139.got.cif
#   From: 2010.06.25/outbox.cif.g09.slc.cpg/sg2_123_cif.got.tgz:245139.got - 2010.06.27 13:26:56.
