data_PCOD8036560
_publ_section_title
;
Structure prediction by ZEFSAII (Michael W. Deem and Ramdas Pophale) SiO2 
 PCOD8036560
Probable space group: P -1
;
_chemical_formula_sum "Si O2"
_cell_formula_units_Z 16
_cell_length_a 13.158420
_cell_length_b 11.817875
_cell_length_c 12.124129
_cell_angle_alpha 156.417265
_cell_angle_beta 75.075664
_cell_angle_gamma 102.477588
_cell_volume 727.862302
_symmetry_space_group_name_H-M "P -1"
_symmetry_group_IT_number 2
_symmetry_cell_setting 'triclinic'
loop_
_space_group_symop_operation_xyz
x,y,z
-x,-y,-z
loop_
_atom_site_type_symbol
_atom_site_label
_atom_site_fract_x
_atom_site_fract_y
_atom_site_fract_z
Si Si1 0.601603 0.378818 0.300777
Si Si2 0.512674 0.731292 0.452931
Si Si3 0.862501 0.947065 0.688624
Si Si4 0.368259 0.247460 0.009645
Si Si5 0.001986 0.533444 0.898884
Si Si6 0.286677 0.200694 0.226334
Si Si7 0.709839 0.032335 0.608314
Si Si8 0.233459 0.373953 0.954548
O O1 0.500000 0.500000 0.500000
O O2 0.589999 0.510432 0.300348
O O3 0.698472 0.506356 0.451615
O O4 0.620252 0.039598 0.986280
O O5 0.434863 0.529630 0.229152
O O6 0.592101 0.915713 0.524547
O O7 0.442086 0.960624 0.748485
O O8 0.933550 0.710210 0.398987
O O9 0.824274 0.888466 0.772438
O O10 0.759181 0.016450 0.703319
O O11 0.938943 0.193925 0.905475
O O12 0.289880 0.267480 0.154972
O O13 0.298555 0.217160 0.893691
O O14 0.882939 0.536451 0.889387
O O15 0.000000 0.500000 0.000000
O O16 0.704395 0.358469 0.865187
O O17 0.782195 0.846631 0.337554
#
# Coordination Sequence:
#
# PCOD8036560 Si02
#       8
#     2   2   2   2   2   2   2   2
#     4  12  21  37  64  96 126 174 220 263 307 373
#     4  12  25  39  67  97 134 171 219 260 318 378
#     4  12  24  40  69 105 125 155 215 291 331 365
#     4  12  26  45  61  93 136 187 210 248 317 401
#     4  12  23  44  70  98 125 162 217 277 337 380
#     4  12  24  40  65  97 136 166 215 271 321 376
#     4  12  24  41  66 101 126 166 215 277 318 380
#     4  12  27  44  67  90 133 174 219 260 328 396
#
# _framework density 21.982181000000001
#
# number of rings (size 3 to 8) (size 9 to 14) (size 15 to 20)
#    0.000    0.000    6.250    4.500    1.750    3.000 
#    0.000    1.250    0.000    0.000    0.000    0.000 
#    0.000    0.000    0.000    0.000    0.000    0.000 
#
# Total GULP energy -198347.542911 kJ/mol
# GULP energy per Si atom -12396.721432 kJ/mol
# Density = 2.193215 g / cm^3
# Si number density = 21.982181 Si / 1000 Ang^3
#
#
#
# Elastic Constant Matrix: (Units=GPa)
#
#
# Indices 1 2 3 4 5 6 
#
# 1 72.9915 40.2035 9.5477 -1.5869 7.1068 13.0025
# 2 40.2035 85.4853 11.9007 3.1339 5.1828 8.5415
# 3 9.5477 11.9007 88.4638 5.9017 0.8204 -1.5406
# 4 -1.5869 3.1339 5.9017 28.2301 10.5356 0.1081
# 5 7.1068 5.1828 0.8204 10.5356 38.0012 1.9533
# 6 13.0025 8.5415 -1.5406 0.1081 1.9533 35.9377
#
#
#
# Elastic Compliance Matrix: (Units=1/GPa)
#
#
# Indices 1 2 3 4 5 6 
#
# 1 0.019905 -0.008612 -0.001286 0.003577 -0.003253 -0.005044
# 2 -0.008612 0.016048 -0.001106 -0.002051 0.000053 -0.000742
# 3 -0.001286 -0.001106 0.011787 -0.002729 0.000832 0.001196
# 4 0.003577 -0.002051 -0.002729 0.040756 -0.011608 -0.000415
# 5 -0.003253 0.000053 0.000832 -0.011608 0.030137 -0.000403
# 6 -0.005044 -0.000742 0.001196 -0.000415 -0.000403 0.029902
#
#
# Mechanical properties :
#
#
# Convention : Reuss Voigt Hill
#
# Bulk Modulus (GPa) = 38.86258 41.13827 40.00043
# Shear Modulus (GPa) = 27.91402 32.78635 30.35019
#
# Velocity S-wave (km/s) = 3.56736 3.86618 3.71977
# Velocity P-wave (km/s) = 5.88945 6.21971 6.05683
#
# Compressibility (1/GPa) = 0.02573169
#
# Stress axis : x y z
#
# Youngs Moduli (GPa) = 50.23859 62.31158 84.84066
#
# Poissons Ratio (x) = 0.53664 0.10911
# Poissons Ratio (y) = 0.43266 0.09383
# Poissons Ratio (z) = 0.06461 0.06892
#
# Static dielectric constant tensor:
#      x y z
#    x 3.695300 0.259820 -0.051000 
#    y 0.259820 3.937400 0.088850 
#    z -0.051000 0.088850 4.132210 
# 
# 
# High freq. dielectric constant tensor:
#      x y z
#    x 1.842250 0.025730 0.000750 
#    y 0.025730 1.856620 0.005250 
#    z 0.000750 0.005250 1.888000 
# 
# From -- ./inp_files/452691.got.cif
#   From: 2010.06.25/outbox.cif.g09.slc.cpg/sg2_227_cif.got.tgz:452691.got - 2010.06.27 13:26:56.
