data_PCOD8036558
_publ_section_title
;
Structure prediction by ZEFSAII (Michael W. Deem and Ramdas Pophale) SiO2 
 PCOD8036558
Probable space group: P -1
;
_chemical_formula_sum "Si O2"
_cell_formula_units_Z 14
_cell_length_a 13.630388
_cell_length_b 13.588816
_cell_length_c 12.184396
_cell_angle_alpha 71.642605
_cell_angle_beta 61.688742
_cell_angle_gamma 21.464234
_cell_volume 668.705176
_symmetry_space_group_name_H-M "P -1"
_symmetry_group_IT_number 2
_symmetry_cell_setting 'triclinic'
loop_
_space_group_symop_operation_xyz
x,y,z
-x,-y,-z
loop_
_atom_site_type_symbol
_atom_site_label
_atom_site_fract_x
_atom_site_fract_y
_atom_site_fract_z
Si Si1 0.268765 0.699130 0.155261
Si Si2 0.651809 0.841368 0.091905
Si Si3 0.566359 0.271137 0.291079
Si Si4 0.318946 0.968713 0.871198
Si Si5 0.367017 0.889125 0.275168
Si Si6 0.606948 0.597217 0.041658
Si Si7 0.634979 0.498962 0.444805
O O1 0.317886 0.558366 0.257179
O O2 0.361042 0.721780 0.165249
O O3 0.500000 0.500000 0.000000
O O4 0.913686 0.017294 0.190680
O O5 0.651247 0.938581 0.142169
O O6 0.443300 0.942901 0.242125
O O7 0.000000 0.500000 0.000000
O O8 0.500000 0.000000 0.000000
O O9 0.462732 0.358654 0.441305
O O10 0.572489 0.152141 0.269937
O O11 0.958093 0.247076 0.977160
O O12 0.533917 0.707898 0.923006
O O13 0.554522 0.727601 0.116717
O O14 0.516988 0.675656 0.350437
O O15 0.006910 0.173055 0.355055
O O16 0.500000 0.500000 0.500000
#
# Coordination Sequence:
#
# PCOD8036558 Si02
#       7
#     2   2   2   2   2   2   2
#     4  12  21  37  60  96 129 164 209 262 332 394
#     4  12  23  43  67  99 131 165 213 280 335 383
#     4  12  24  41  61  92 135 171 213 268 319 380
#     4  12  22  39  62  97 127 159 206 273 328 380
#     4  12  24  43  67  94 126 176 221 262 325 383
#     4  12  22  36  64  95 130 159 209 264 329 381
#     4  12  26  46  65  91 134 179 222 258 308 401
#
# _framework density 20.935981000000002
#
# number of rings (size 3 to 8) (size 9 to 14) (size 15 to 20)
#    0.000    0.000    5.714    6.000    0.000    0.000 
#    0.000    1.429    0.000    0.000    0.000    0.000 
#    0.000    0.000    0.000    0.000    0.000    0.000 
#
# Total GULP energy -173529.769431 kJ/mol
# GULP energy per Si atom -12394.983531 kJ/mol
# Density = 2.088833 g / cm^3
# Si number density = 20.935981 Si / 1000 Ang^3
#
#
#
# Elastic Constant Matrix: (Units=GPa)
#
#
# Indices 1 2 3 4 5 6 
#
# 1 150.2398 37.8022 45.9548 -11.5526 3.6619 12.8944
# 2 37.8022 123.6946 42.3174 -15.7523 -7.0580 -8.9470
# 3 45.9548 42.3174 99.4792 -1.9871 8.4454 -3.0329
# 4 -11.5526 -15.7523 -1.9871 24.8039 9.5877 1.7866
# 5 3.6619 -7.0580 8.4454 9.5877 45.6191 -3.0660
# 6 12.8944 -8.9470 -3.0329 1.7866 -3.0660 27.4949
#
#
#
# Elastic Compliance Matrix: (Units=1/GPa)
#
#
# Indices 1 2 3 4 5 6 
#
# 1 0.008890 -0.001537 -0.003415 0.003864 -0.001498 -0.005464
# 2 -0.001537 0.010866 -0.003847 0.004942 0.001727 0.003704
# 3 -0.003415 -0.003847 0.013464 -0.002217 -0.002231 0.001730
# 4 0.003864 0.004942 -0.002217 0.049204 -0.009795 -0.004738
# 5 -0.001498 0.001727 -0.002231 -0.009795 0.025079 0.004452
# 6 -0.005464 0.003704 0.001730 -0.004738 0.004452 0.041133
#
#
# Mechanical properties :
#
#
# Convention : Reuss Voigt Hill
#
# Bulk Modulus (GPa) = 64.01388 69.50693 66.76041
# Shear Modulus (GPa) = 29.16418 36.07286 32.61852
#
# Velocity S-wave (km/s) = 3.73636 4.15542 3.95145
# Velocity P-wave (km/s) = 7.01828 7.50301 7.26469
#
# Compressibility (1/GPa) = 0.01562161
#
# Stress axis : x y z
#
# Youngs Moduli (GPa) = 112.48621 92.02796 74.26987
#
# Poissons Ratio (x) = 0.14147 0.25363
# Poissons Ratio (y) = 0.17292 0.28573
# Poissons Ratio (z) = 0.38414 0.35405
#
# Static dielectric constant tensor:
#      x y z
#    x 4.667600 -0.141610 0.107510 
#    y -0.141610 4.045270 0.115850 
#    z 0.107510 0.115850 3.639160 
# 
# 
# High freq. dielectric constant tensor:
#      x y z
#    x 1.839590 -0.004320 0.014200 
#    y -0.004320 1.840530 0.004460 
#    z 0.014200 0.004460 1.792790 
# 
# From -- ./inp_files/63317.got.cif
#   From: 2010.06.25/outbox.cif.g09.slc.cpg/sg2_32_cif.got.tgz:63317.got - 2010.06.27 13:26:56.
