data_PCOD8036323
_publ_section_title
;
Structure prediction by ZEFSAII (Michael W. Deem and Ramdas Pophale) SiO2 
 PCOD8036323
Probable space group: P -1
;
_chemical_formula_sum "Si O2"
_cell_formula_units_Z 14
_cell_length_a 9.288519
_cell_length_b 8.594944
_cell_length_c 12.533739
_cell_angle_alpha 73.080188
_cell_angle_beta 142.128757
_cell_angle_gamma 108.154062
_cell_volume 581.948450
_symmetry_space_group_name_H-M "P -1"
_symmetry_group_IT_number 2
_symmetry_cell_setting 'triclinic'
loop_
_space_group_symop_operation_xyz
x,y,z
-x,-y,-z
loop_
_atom_site_type_symbol
_atom_site_label
_atom_site_fract_x
_atom_site_fract_y
_atom_site_fract_z
Si Si1 0.976184 0.676333 0.352786
Si Si2 0.023394 0.014282 0.844956
Si Si3 0.499671 0.525494 0.188490
Si Si4 0.180708 0.870397 0.617010
Si Si5 0.644910 0.859404 0.799941
Si Si6 0.847924 0.263569 0.156257
Si Si7 0.697680 0.551623 0.518198
O O1 0.981824 0.862903 0.280793
O O2 0.059211 0.701526 0.520417
O O3 0.159484 0.596632 0.402929
O O4 0.716113 0.569107 0.221986
O O5 0.758575 0.935572 0.741575
O O6 0.162715 0.867635 0.918552
O O7 0.156503 0.114173 0.998936
O O8 0.439402 0.334618 0.218207
O O9 0.573114 0.615653 0.326726
O O10 0.269095 0.585289 0.989354
O O11 0.413932 0.947801 0.671860
O O12 0.287917 0.817902 0.802962
O O13 0.000000 0.000000 0.500000
O O14 0.117571 0.309322 0.345756
O O15 0.500000 0.500000 0.500000
#
# Coordination Sequence:
#
# PCOD8036323 Si02
#       7
#     2   2   2   2   2   2   2
#     4  12  25  49  76 108 147 194 251 306 369 436
#     4  11  27  47  73 107 148 196 247 305 370 441
#     4  12  26  50  77 110 151 195 246 310 367 442
#     4  12  25  45  75 108 149 192 251 307 365 438
#     4  11  26  48  72 105 150 196 243 303 377 439
#     4  12  27  45  77 111 149 194 253 305 368 440
#     4  12  27  47  75 111 149 197 247 305 373 444
#
# _framework density 24.057113999999999
#
# number of rings (size 3 to 8) (size 9 to 14) (size 15 to 20)
#    0.000    0.286    4.286    3.857    2.000    9.143 
#    0.000    0.000    0.000    0.000    0.000    0.000 
#    0.000    0.000    0.000    0.000    0.000    0.000 
#
# Total GULP energy -173603.241337 kJ/mol
# GULP energy per Si atom -12400.231524 kJ/mol
# Density = 2.400236 g / cm^3
# Si number density = 24.057114 Si / 1000 Ang^3
#
#
#
# Elastic Constant Matrix: (Units=GPa)
#
#
# Indices 1 2 3 4 5 6 
#
# 1 144.9455 43.0550 32.5776 0.6773 10.5318 12.7161
# 2 43.0550 90.6349 23.9664 -0.1392 6.5596 12.8824
# 3 32.5776 23.9664 109.7084 -3.6540 -1.4909 9.5915
# 4 0.6773 -0.1392 -3.6540 41.9181 0.4872 0.0376
# 5 10.5318 6.5596 -1.4909 0.4872 33.4962 3.4618
# 6 12.7161 12.8824 9.5915 0.0376 3.4618 42.5770
#
#
#
# Elastic Compliance Matrix: (Units=1/GPa)
#
#
# Indices 1 2 3 4 5 6 
#
# 1 0.008505 -0.003291 -0.001757 -0.000277 -0.002002 -0.000986
# 2 -0.003291 0.013538 -0.001774 -0.000038 -0.001426 -0.002598
# 3 -0.001757 -0.001774 0.010193 0.000895 0.001481 -0.001356
# 4 -0.000277 -0.000038 0.000895 0.023941 -0.000202 -0.000112
# 5 -0.002002 -0.001426 0.001481 -0.000202 0.031020 -0.001826
# 6 -0.000986 -0.002598 -0.001356 -0.000112 -0.001826 0.025021
#
#
# Mechanical properties :
#
#
# Convention : Reuss Voigt Hill
#
# Bulk Modulus (GPa) = 53.78528 60.49853 57.14190
# Shear Modulus (GPa) = 37.86196 39.97757 38.91977
#
# Velocity S-wave (km/s) = 3.97146 4.08091 4.02656
# Velocity P-wave (km/s) = 6.59059 6.88532 6.73957
#
# Compressibility (1/GPa) = 0.01859245
#
# Stress axis : x y z
#
# Youngs Moduli (GPa) = 117.58076 73.86585 98.10928
#
# Poissons Ratio (x) = 0.24309 0.17236
# Poissons Ratio (y) = 0.38696 0.17402
# Poissons Ratio (z) = 0.20657 0.13102
#
# Static dielectric constant tensor:
#      x y z
#    x 4.640370 0.140400 -0.090340 
#    y 0.140400 4.251700 0.157270 
#    z -0.090340 0.157270 4.450470 
# 
# 
# High freq. dielectric constant tensor:
#      x y z
#    x 1.968340 0.000700 -0.002160 
#    y 0.000700 1.949750 0.012060 
#    z -0.002160 0.012060 1.958640 
# 
# From -- ./inp_files/382156.got.cif
#   From: 2010.06.25/outbox.cif.g09.slc.cpg/sg2_192_cif.got.tgz:382156.got - 2010.06.27 13:26:56.
