data_PCOD8036659
_publ_section_title
;
Structure prediction by ZEFSAII (Michael W. Deem and Ramdas Pophale) SiO2 
 PCOD8036659
Probable space group: P -1
;
_chemical_formula_sum "Si O2"
_cell_formula_units_Z 16
_cell_length_a 12.423321
_cell_length_b 13.550639
_cell_length_c 9.502328
_cell_angle_alpha 76.760835
_cell_angle_beta 67.676410
_cell_angle_gamma 30.137886
_cell_volume 725.726763
_symmetry_space_group_name_H-M "P -1"
_symmetry_group_IT_number 2
_symmetry_cell_setting 'triclinic'
loop_
_space_group_symop_operation_xyz
x,y,z
-x,-y,-z
loop_
_atom_site_type_symbol
_atom_site_label
_atom_site_fract_x
_atom_site_fract_y
_atom_site_fract_z
Si Si1 0.398219 0.377460 0.962542
Si Si2 0.571644 0.653378 0.527538
Si Si3 0.840594 0.166892 0.408767
Si Si4 0.131173 0.872322 0.115950
Si Si5 0.865794 0.365659 0.256653
Si Si6 0.392203 0.987218 0.138452
Si Si7 0.643705 0.975912 0.517501
Si Si8 0.143639 0.627262 0.267780
O O1 0.606803 0.285384 0.955052
O O2 0.279248 0.531431 0.848009
O O3 0.471081 0.215007 0.914539
O O4 0.207894 0.509721 0.138330
O O5 0.402971 0.704917 0.510546
O O6 0.778574 0.520038 0.356001
O O7 0.440279 0.855421 0.561655
O O8 0.649964 0.542524 0.668847
O O9 0.813868 0.306574 0.399463
O O10 0.000000 0.000000 0.500000
O O11 0.977498 0.053116 0.235654
O O12 0.123345 0.759181 0.189440
O O13 0.000000 0.000000 0.000000
O O14 0.132442 0.176842 0.149279
O O15 0.396009 0.997747 0.302565
O O16 0.500000 0.000000 0.000000
O O17 0.500000 0.000000 0.500000
O O18 0.911330 0.761088 0.413268
#
# Coordination Sequence:
#
# PCOD8036659 Si02
#       8
#     2   2   2   2   2   2   2   2
#     4  12  27  46  74 109 147 194 239 291 365 430
#     4  12  24  46  73 107 147 187 238 295 364 436
#     4  12  22  40  76 105 145 187 233 292 363 427
#     4  12  24  44  72 107 154 194 230 291 362 430
#     4  12  24  46  73 107 147 187 238 295 364 436
#     4  12  29  51  76 105 143 190 247 306 361 424
#     4  12  29  51  76 105 143 190 247 306 361 424
#     4  12  27  46  74 109 147 194 239 291 365 430
#
# _framework density 22.046865
#
# number of rings (size 3 to 8) (size 9 to 14) (size 15 to 20)
#    0.000    0.000    5.000    5.250    3.500    2.000 
#    0.000    0.000    0.000    0.000    0.000    0.000 
#    0.000    0.000    0.000    0.000    0.000    0.000 
#
# Total GULP energy -198386.759420 kJ/mol
# GULP energy per Si atom -12399.172464 kJ/mol
# Density = 2.199668 g / cm^3
# Si number density = 22.046865 Si / 1000 Ang^3
#
#
#
# Elastic Constant Matrix: (Units=GPa)
#
#
# Indices 1 2 3 4 5 6 
#
# 1 116.7846 52.6759 48.1479 -0.2775 -10.2347 -16.3631
# 2 52.6759 147.6003 62.5788 -19.6575 -1.1857 -14.7743
# 3 48.1479 62.5788 145.4953 -7.2296 12.0300 -1.3871
# 4 -0.2775 -19.6575 -7.2296 53.7016 0.8763 17.7055
# 5 -10.2347 -1.1857 12.0300 0.8763 41.7427 -2.2744
# 6 -16.3631 -14.7743 -1.3871 17.7055 -2.2744 18.6991
#
#
#
# Elastic Compliance Matrix: (Units=1/GPa)
#
#
# Indices 1 2 3 4 5 6 
#
# 1 0.014591 -0.002426 -0.004479 -0.007590 0.005963 0.018430
# 2 -0.002426 0.009647 -0.003283 0.001890 0.000780 0.003561
# 3 -0.004479 -0.003283 0.010235 0.003369 -0.004731 -0.009520
# 4 -0.007590 0.001890 0.003369 0.031469 -0.005365 -0.035348
# 5 0.005963 0.000780 -0.004731 -0.005365 0.027675 0.013929
# 6 0.018430 0.003561 -0.009520 -0.035348 0.013929 0.106878
#
#
# Mechanical properties :
#
#
# Convention : Reuss Voigt Hill
#
# Bulk Modulus (GPa) = 70.94164 81.85392 76.39778
# Shear Modulus (GPa) = 22.16591 39.26052 30.71322
#
# Velocity S-wave (km/s) = 3.17424 4.22450 3.73646
# Velocity P-wave (km/s) = 6.75884 7.81045 7.30360
#
# Compressibility (1/GPa) = 0.01409609
#
# Stress axis : x y z
#
# Youngs Moduli (GPa) = 68.53681 103.65617 97.70095
#
# Poissons Ratio (x) = 0.25148 0.43764
# Poissons Ratio (y) = 0.16627 0.32077
# Poissons Ratio (z) = 0.30700 0.34032
#
# Static dielectric constant tensor:
#      x y z
#    x 3.880280 0.025070 0.117650 
#    y 0.025070 4.370430 0.149080 
#    z 0.117650 0.149080 4.050730 
# 
# 
# High freq. dielectric constant tensor:
#      x y z
#    x 1.853280 0.002190 0.014690 
#    y 0.002190 1.897720 0.004880 
#    z 0.014690 0.004880 1.884080 
# 
# From -- ./inp_files/272851.got.cif
#   From: 2010.06.25/outbox.cif.g09.slc.cpg/sg2_137_cif.got.tgz:272851.got - 2010.06.27 13:26:56.
