data_PCOD8036621
_publ_section_title
;
Structure prediction by ZEFSAII (Michael W. Deem and Ramdas Pophale) SiO2 
 PCOD8036621
Probable space group: P -1
;
_chemical_formula_sum "Si O2"
_cell_formula_units_Z 16
_cell_length_a 22.907025
_cell_length_b 14.996811
_cell_length_c 8.112825
_cell_angle_alpha 49.707618
_cell_angle_beta 130.163133
_cell_angle_gamma 159.394285
_cell_volume 739.940783
_symmetry_space_group_name_H-M "P -1"
_symmetry_group_IT_number 2
_symmetry_cell_setting 'triclinic'
loop_
_space_group_symop_operation_xyz
x,y,z
-x,-y,-z
loop_
_atom_site_type_symbol
_atom_site_label
_atom_site_fract_x
_atom_site_fract_y
_atom_site_fract_z
Si Si1 0.438833 0.910205 0.306952
Si Si2 0.668463 0.663431 0.162851
Si Si3 0.119762 0.450078 0.442480
Si Si4 0.509698 0.768610 0.093170
Si Si5 0.868055 0.305552 0.637489
Si Si6 0.537667 0.803608 0.475885
Si Si7 0.172186 0.266875 0.908894
Si Si8 0.822516 0.085948 0.110021
O O1 0.237268 0.625408 0.286798
O O2 0.505553 0.895605 0.336905
O O3 0.500000 0.000000 0.500000
O O4 0.495611 0.099946 0.084389
O O5 0.614750 0.479271 0.393249
O O6 0.781758 0.770322 0.093339
O O7 0.790563 0.913591 0.188149
O O8 0.500000 0.500000 0.000000
O O9 0.175176 0.620842 0.476295
O O10 0.148905 0.361835 0.673413
O O11 0.930861 0.217692 0.315924
O O12 0.559996 0.800328 0.330226
O O13 0.643752 0.900584 0.049866
O O14 0.323597 0.469559 0.073147
O O15 0.000000 0.500000 0.500000
O O16 0.712239 0.016485 0.632186
O O17 0.922971 0.305455 0.899290
O O18 0.000000 0.000000 0.000000
#
# Coordination Sequence:
#
# PCOD8036621 Si02
#       8
#     2   2   2   2   2   2   2   2
#     4  12  21  46  72  99 143 181 230 288 357 416
#     4  12  25  50  74  99 142 196 241 286 361 428
#     4  12  26  45  74 104 141 184 234 297 353 416
#     4  12  25  46  73 105 140 189 238 290 358 425
#     4  12  25  44  70 107 145 181 232 296 359 419
#     4  12  25  43  74 105 135 188 239 287 351 432
#     4  12  28  48  73 104 145 190 239 300 356 421
#     4  12  27  46  74 102 144 189 236 294 354 429
#
# _framework density 21.623351
#
# number of rings (size 3 to 8) (size 9 to 14) (size 15 to 20)
#    0.000    0.000    7.500    1.500    5.250    3.000 
#    0.000    0.000    0.000    0.000    0.000    0.000 
#    0.000    0.000    0.000    0.000    0.000    0.000 
#
# Total GULP energy -198421.825820 kJ/mol
# GULP energy per Si atom -12401.364114 kJ/mol
# Density = 2.157414 g / cm^3
# Si number density = 21.623351 Si / 1000 Ang^3
#
#
#
# Elastic Constant Matrix: (Units=GPa)
#
#
# Indices 1 2 3 4 5 6 
#
# 1 120.0090 40.2422 43.5044 -13.8631 -6.6680 -3.3016
# 2 40.2422 108.7563 30.3778 -5.8010 -6.3594 1.2467
# 3 43.5044 30.3778 67.0248 8.5908 -7.2418 -7.1107
# 4 -13.8631 -5.8010 8.5908 37.1998 1.2203 0.3123
# 5 -6.6680 -6.3594 -7.2418 1.2203 35.9128 -6.3475
# 6 -3.3016 1.2467 -7.1107 0.3123 -6.3475 41.0705
#
#
#
# Elastic Compliance Matrix: (Units=1/GPa)
#
#
# Indices 1 2 3 4 5 6 
#
# 1 0.012701 -0.002083 -0.008137 0.006288 0.000071 -0.000361
# 2 -0.002083 0.011243 -0.004053 0.001905 0.000520 -0.001145
# 3 -0.008137 -0.004053 0.024096 -0.009387 0.003707 0.004285
# 4 0.006288 0.001905 -0.009387 0.031762 -0.001766 -0.001692
# 5 0.000071 0.000520 0.003707 -0.001766 0.029683 0.005233
# 6 -0.000361 -0.001145 0.004285 -0.001692 0.005233 0.025918
#
#
# Mechanical properties :
#
#
# Convention : Reuss Voigt Hill
#
# Bulk Modulus (GPa) = 51.29540 58.22655 54.76097
# Shear Modulus (GPa) = 29.33464 34.94767 32.14115
#
# Velocity S-wave (km/s) = 3.68723 4.02456 3.85958
# Velocity P-wave (km/s) = 6.47312 6.97009 6.72620
#
# Compressibility (1/GPa) = 0.01949493
#
# Stress axis : x y z
#
# Youngs Moduli (GPa) = 78.73215 88.94462 41.50025
#
# Poissons Ratio (x) = 0.18530 0.33767
# Poissons Ratio (y) = 0.16403 0.16820
# Poissons Ratio (z) = 0.64061 0.36048
#
# Static dielectric constant tensor:
#      x y z
#    x 3.885570 -0.014040 0.063070 
#    y -0.014040 4.227760 -0.104480 
#    z 0.063070 -0.104480 3.859530 
# 
# 
# High freq. dielectric constant tensor:
#      x y z
#    x 1.858240 -0.004150 0.004840 
#    y -0.004150 1.860220 -0.006190 
#    z 0.004840 -0.006190 1.844630 
# 
# From -- ./inp_files/354521.got.cif
#   From: 2010.06.25/outbox.cif.g09.slc.cpg/sg2_178_cif.got.tgz:354521.got - 2010.06.27 13:26:56.
