data_PCOD8036639
_publ_section_title
;
Structure prediction by ZEFSAII (Michael W. Deem and Ramdas Pophale) SiO2 
 PCOD8036639
Probable space group: P -1
;
_chemical_formula_sum "Si O2"
_cell_formula_units_Z 16
_cell_length_a 25.253784
_cell_length_b 9.025935
_cell_length_c 25.818537
_cell_angle_alpha 39.438112
_cell_angle_beta 168.701250
_cell_angle_gamma 141.699371
_cell_volume 714.448635
_symmetry_space_group_name_H-M "P -1"
_symmetry_group_IT_number 2
_symmetry_cell_setting 'triclinic'
loop_
_space_group_symop_operation_xyz
x,y,z
-x,-y,-z
loop_
_atom_site_type_symbol
_atom_site_label
_atom_site_fract_x
_atom_site_fract_y
_atom_site_fract_z
Si Si1 0.952001 0.065849 0.232092
Si Si2 0.393406 0.264213 0.926900
Si Si3 0.047994 0.777428 0.572541
Si Si4 0.305646 0.092485 0.248106
Si Si5 0.999693 0.298665 0.713876
Si Si6 0.401099 0.103374 0.221810
Si Si7 0.546897 0.392383 0.724140
Si Si8 0.306705 0.582771 0.251669
O O1 0.232363 0.250736 0.465862
O O2 0.823490 0.930363 0.196733
O O3 0.741141 0.212970 0.969099
O O4 0.004328 0.879568 0.289754
O O5 0.217556 0.318248 0.693711
O O6 0.500000 0.500000 0.000000
O O7 0.659670 0.156484 0.196045
O O8 0.086971 0.568299 0.704955
O O9 0.000000 0.000000 0.500000
O O10 0.321674 0.993556 0.232311
O O11 0.395202 0.377827 0.245196
O O12 0.500000 0.000000 0.500000
O O13 0.000000 0.000000 0.000000
O O14 0.705270 0.266103 0.467411
O O15 0.202041 0.259295 0.964481
O O16 0.384973 0.864407 0.237561
O O17 0.631805 0.527930 0.714098
O O18 0.500000 0.500000 0.500000
O O19 0.000000 0.500000 0.000000
#
# Coordination Sequence:
#
# PCOD8036639 Si02
#       8
#     2   2   2   2   2   2   2   2
#     4  12  24  44  72 103 141 178 242 298 348 415
#     4  12  26  46  78 106 146 203 247 294 370 441
#     4  12  28  48  74 111 152 192 247 303 367 439
#     4  12  26  48  69  97 143 183 229 288 354 431
#     4  12  24  45  72 100 145 179 232 300 354 418
#     4  12  25  43  70 100 133 187 227 279 370 418
#     4  12  25  43  68 102 134 179 230 294 346 416
#     4  12  22  38  63  95 128 167 225 278 338 414
#
# _framework density 22.394891000000001
#
# number of rings (size 3 to 8) (size 9 to 14) (size 15 to 20)
#    0.000    0.000    3.750    6.750    1.750    3.000 
#    0.000    0.000    0.000    0.000    0.000    0.000 
#    0.000    0.000    0.000    0.000    0.000    0.000 
#
# Total GULP energy -198437.492694 kJ/mol
# GULP energy per Si atom -12402.343293 kJ/mol
# Density = 2.234392 g / cm^3
# Si number density = 22.394891 Si / 1000 Ang^3
#
#
#
# Elastic Constant Matrix: (Units=GPa)
#
#
# Indices 1 2 3 4 5 6 
#
# 1 109.3715 29.9278 59.3024 -2.0186 7.9292 12.3712
# 2 29.9278 134.9402 59.4725 -8.1046 7.5738 5.4938
# 3 59.3024 59.4725 206.5477 -7.0668 8.2882 10.0217
# 4 -2.0186 -8.1046 -7.0668 59.9168 7.9981 3.6705
# 5 7.9292 7.5738 8.2882 7.9981 55.6441 0.8039
# 6 12.3712 5.4938 10.0217 3.6705 0.8039 38.8679
#
#
#
# Elastic Compliance Matrix: (Units=1/GPa)
#
#
# Indices 1 2 3 4 5 6 
#
# 1 0.011329 -0.001118 -0.002749 0.000213 -0.001044 -0.002738
# 2 -0.001118 0.008710 -0.002097 0.001033 -0.000856 -0.000414
# 3 -0.002749 -0.002097 0.006286 0.000437 -0.000315 -0.000484
# 4 0.000213 0.001033 0.000437 0.017366 -0.002705 -0.001911
# 5 -0.001044 -0.000856 -0.000315 -0.002705 0.018666 0.000404
# 6 -0.002738 -0.000414 -0.000484 -0.001911 0.000404 0.026955
#
#
# Mechanical properties :
#
#
# Convention : Reuss Voigt Hill
#
# Bulk Modulus (GPa) = 69.46219 83.14051 76.30135
# Shear Modulus (GPa) = 47.15268 51.02955 49.09112
#
# Velocity S-wave (km/s) = 4.59356 4.77867 4.68703
# Velocity P-wave (km/s) = 7.69537 8.22514 7.96466
#
# Compressibility (1/GPa) = 0.01439632
#
# Stress axis : x y z
#
# Youngs Moduli (GPa) = 88.27101 114.81194 159.09540
#
# Poissons Ratio (x) = 0.12839 0.43729
# Poissons Ratio (y) = 0.09871 0.33363
# Poissons Ratio (z) = 0.24262 0.24076
#
# Static dielectric constant tensor:
#      x y z
#    x 4.225670 -0.007300 -0.005420 
#    y -0.007300 4.099670 -0.015850 
#    z -0.005420 -0.015850 4.075390 
# 
# 
# High freq. dielectric constant tensor:
#      x y z
#    x 1.895490 0.004690 0.003830 
#    y 0.004690 1.886530 -0.000610 
#    z 0.003830 -0.000610 1.902720 
# 
# From -- ./inp_files/621150.got.cif
#   From: 2010.06.25/outbox.cif.g09.slc.cpg/sg2_311_cif.got.tgz:621150.got - 2010.06.27 13:26:56.
