data_PCOD8036997
_publ_section_title
;
Structure prediction by ZEFSAII (Michael W. Deem and Ramdas Pophale) SiO2 
 PCOD8036997
Probable space group: P -1
;
_chemical_formula_sum "Si O2"
_cell_formula_units_Z 16
_cell_length_a 12.788831
_cell_length_b 11.400062
_cell_length_c 11.851209
_cell_angle_alpha 45.012561
_cell_angle_beta 112.537936
_cell_angle_gamma 76.234503
_cell_volume 707.630178
_symmetry_space_group_name_H-M "P -1"
_symmetry_group_IT_number 2
_symmetry_cell_setting 'triclinic'
loop_
_space_group_symop_operation_xyz
x,y,z
-x,-y,-z
loop_
_atom_site_type_symbol
_atom_site_label
_atom_site_fract_x
_atom_site_fract_y
_atom_site_fract_z
Si Si1 0.083239 0.877159 0.897341
Si Si2 0.372269 0.815761 0.046585
Si Si3 0.239723 0.127889 0.556021
Si Si4 0.571054 0.854873 0.748110
Si Si5 0.067727 0.746697 0.746991
Si Si6 0.287702 0.129277 0.006355
Si Si7 0.752929 0.471367 0.389783
Si Si8 0.080193 0.619929 0.251398
O O1 0.101031 0.725226 0.908389
O O2 0.273544 0.755839 0.074962
O O3 0.029111 0.845572 0.011096
O O4 0.920197 0.189244 0.591542
O O5 0.575177 0.556272 0.260510
O O6 0.390545 0.906564 0.105163
O O7 0.255674 0.037713 0.750184
O O8 0.185598 0.381604 0.370911
O O9 0.086977 0.209364 0.367803
O O10 0.421679 0.908804 0.708058
O O11 0.611045 0.974730 0.759700
O O12 0.500000 0.000000 0.500000
O O13 0.745751 0.535974 0.033584
O O14 0.000000 0.000000 0.500000
O O15 0.283300 0.325068 0.835838
O O16 0.092224 0.273401 0.840362
O O17 0.790005 0.480935 0.525628
#
# Coordination Sequence:
#
# PCOD8036997 Si02
#       8
#     2   2   2   2   2   2   2   2
#     4  12  28  46  65 107 151 186 237 295 370 429
#     4  12  25  45  75 108 138 187 243 305 349 431
#     4  12  25  48  77 103 139 191 249 294 360 427
#     4  12  28  47  74 112 145 186 245 302 360 430
#     4  12  27  48  74 102 148 197 241 294 361 438
#     4  12  23  46  77 105 141 188 245 295 361 433
#     4  12  24  46  73 105 139 190 239 297 361 431
#     4  12  25  45  74 106 145 187 233 306 369 425
#
# _framework density 22.610678
#
# number of rings (size 3 to 8) (size 9 to 14) (size 15 to 20)
#    0.000    0.000    6.250    4.125    1.750    3.000 
#    2.250    0.000    0.000    0.000    0.000    0.000 
#    0.000    0.000    0.000    0.000    0.000    0.000 
#
# Total GULP energy -198449.335654 kJ/mol
# GULP energy per Si atom -12403.083478 kJ/mol
# Density = 2.255922 g / cm^3
# Si number density = 22.610678 Si / 1000 Ang^3
#
#
#
# Elastic Constant Matrix: (Units=GPa)
#
#
# Indices 1 2 3 4 5 6 
#
# 1 -26.1085 96.8837 46.7195 -22.9175 62.7030 -45.7477
# 2 96.8837 95.6559 22.1979 28.5001 -10.3495 12.1391
# 3 46.7195 22.1979 72.0972 14.2809 11.0113 1.3576
# 4 -22.9175 28.5001 14.2809 31.8579 -3.5424 2.4509
# 5 62.7030 -10.3495 11.0113 -3.5424 32.8936 6.1980
# 6 -45.7477 12.1391 1.3576 2.4509 6.1980 20.3506
#
#
#
# Elastic Compliance Matrix: (Units=1/GPa)
#
#
# Indices 1 2 3 4 5 6 
#
# 1 -0.001317 0.003554 -0.000209 -0.003065 0.004513 -0.006072
# 2 0.003554 0.007450 -0.003254 -0.003618 -0.004798 0.005661
# 3 -0.000209 -0.003254 0.017339 -0.006134 -0.007733 0.003409
# 4 -0.003065 -0.003618 -0.006134 0.037634 0.013238 -0.012886
# 5 0.004513 -0.004798 -0.007733 0.013238 0.023398 0.004803
# 6 -0.006072 0.005661 0.003409 -0.012886 0.004803 0.031973
#
#
# Mechanical properties :
#
#
# Convention : Reuss Voigt Hill
#
# Bulk Modulus (GPa) = 42.27436 52.58297 47.42867
# Shear Modulus (GPa) = 40.26444 15.40998 27.83721
#
# Velocity S-wave (km/s) = 4.22450 2.61346 3.51259
# Velocity P-wave (km/s) = 6.52169 5.69326 6.12150
#
# Compressibility (1/GPa) = 0.02365500
#
# Stress axis : x y z
#
# Youngs Moduli (GPa) = -759.27476 134.23405 57.67275
#
# Poissons Ratio (x) = -0.47712 0.01204
# Poissons Ratio (y) = 2.69875 0.18767
# Poissons Ratio (z) = -0.15851 0.43680
#
# Static dielectric constant tensor:
#      x y z
#    x 4.099970 0.026270 0.116880 
#    y 0.026270 4.485250 0.172260 
#    z 0.116880 0.172260 4.052970 
# 
# 
# High freq. dielectric constant tensor:
#      x y z
#    x 1.900790 -0.006730 0.012420 
#    y -0.006730 1.904370 0.012610 
#    z 0.012420 0.012610 1.889680 
# 
# From -- ./inp_files/273812.got.cif
#   From: 2010.06.25/outbox.cif.g09.slc.cpg/sg2_137_cif.got.tgz:273812.got - 2010.06.27 13:26:56.
