data_PCOD8036776
_publ_section_title
;
Structure prediction by ZEFSAII (Michael W. Deem and Ramdas Pophale) SiO2 
 PCOD8036776
Probable space group: P -1
;
_chemical_formula_sum "Si O2"
_cell_formula_units_Z 12
_cell_length_a 12.719634
_cell_length_b 10.929735
_cell_length_c 9.914039
_cell_angle_alpha 81.463207
_cell_angle_beta 105.763987
_cell_angle_gamma 34.255290
_cell_volume 541.444380
_symmetry_space_group_name_H-M "P -1"
_symmetry_group_IT_number 2
_symmetry_cell_setting 'triclinic'
loop_
_space_group_symop_operation_xyz
x,y,z
-x,-y,-z
loop_
_atom_site_type_symbol
_atom_site_label
_atom_site_fract_x
_atom_site_fract_y
_atom_site_fract_z
Si Si1 0.579165 0.779054 0.037609
Si Si2 0.836615 0.953117 0.278144
Si Si3 0.664920 0.268061 0.427413
Si Si4 0.084575 0.157246 0.206452
Si Si5 0.911460 0.216943 0.871549
Si Si6 0.608084 0.622443 0.349326
O O1 0.527094 0.746601 0.152487
O O2 0.890690 0.455275 0.161716
O O3 0.500000 0.000000 0.000000
O O4 0.392913 0.913365 0.833341
O O5 0.889460 0.961453 0.151675
O O6 0.112762 0.603370 0.476286
O O7 0.758283 0.137830 0.330328
O O8 0.391374 0.479469 0.333412
O O9 0.627458 0.453259 0.393656
O O10 0.880988 0.998714 0.657448
O O11 0.376957 0.910786 0.321043
O O12 0.944678 0.278568 0.994604
O O13 0.000000 0.000000 0.000000
#
# Coordination Sequence:
#
# PCOD8036776 Si02
#       6
#     2   2   2   2   2   2
#     4  12  29  48  67  96 137 186 238 282 324 388
#     4  12  25  43  69 103 137 178 225 275 341 405
#     4  12  24  40  72 110 142 170 213 279 355 415
#     4  12  24  44  69 100 141 177 218 282 338 403
#     4  12  23  38  67 106 145 174 214 272 349 419
#     4  12  25  43  71 105 138 174 223 278 346 411
#
# _framework density 22.162941
#
# number of rings (size 3 to 8) (size 9 to 14) (size 15 to 20)
#    0.000    0.000    8.333    2.000    2.333    2.667 
#    0.000    0.833    0.000    0.000    0.000    0.000 
#    0.000    0.000    0.000    0.000    0.000    0.000 
#
# Total GULP energy -148755.647495 kJ/mol
# GULP energy per Si atom -12396.303958 kJ/mol
# Density = 2.211250 g / cm^3
# Si number density = 22.162941 Si / 1000 Ang^3
#
#
#
# Elastic Constant Matrix: (Units=GPa)
#
#
# Indices 1 2 3 4 5 6 
#
# 1 43.2532 52.9828 33.6213 -8.1467 10.5395 -9.1146
# 2 52.9828 177.4436 48.2871 -15.5633 -6.4406 -19.7752
# 3 33.6213 48.2871 116.7969 -5.0571 10.9563 -2.2537
# 4 -8.1467 -15.5633 -5.0571 46.6707 -13.5264 0.4246
# 5 10.5395 -6.4406 10.9563 -13.5264 20.5755 -4.8478
# 6 -9.1146 -19.7752 -2.2537 0.4246 -4.8478 29.4775
#
#
#
# Elastic Compliance Matrix: (Units=1/GPa)
#
#
# Indices 1 2 3 4 5 6 
#
# 1 0.055760 -0.016884 -0.006075 -0.006721 -0.035084 -0.000223
# 2 -0.016884 0.013370 -0.002126 0.007081 0.020225 0.006810
# 3 -0.006075 -0.002126 0.011589 -0.002215 -0.005975 -0.003370
# 4 -0.006721 0.007081 -0.002215 0.030584 0.028536 0.006755
# 5 -0.035084 0.020225 -0.005975 0.028536 0.099123 0.018154
# 6 -0.000223 0.006810 -0.003370 0.006755 0.018154 0.041055
#
#
# Mechanical properties :
#
#
# Convention : Reuss Voigt Hill
#
# Bulk Modulus (GPa) = 32.73543 67.47513 50.10528
# Shear Modulus (GPa) = 16.03421 32.85156 24.44289
#
# Velocity S-wave (km/s) = 2.69266 3.85421 3.32455
# Velocity P-wave (km/s) = 4.94668 7.09350 6.11503
#
# Compressibility (1/GPa) = 0.03054794
#
# Stress axis : x y z
#
# Youngs Moduli (GPa) = 17.93412 74.79586 86.28593
#
# Poissons Ratio (x) = 1.26284 0.52419
# Poissons Ratio (y) = 0.30280 0.18349
# Poissons Ratio (z) = 0.10895 0.15905
#
# Static dielectric constant tensor:
#      x y z
#    x 3.256300 -0.525660 -0.921570 
#    y -0.525660 4.121310 -0.295890 
#    z -0.921570 -0.295890 1.027790 
# 
# 
# High freq. dielectric constant tensor:
#      x y z
#    x 1.828430 -0.040690 0.004440 
#    y -0.040690 1.879510 0.000870 
#    z 0.004440 0.000870 1.897930 
# 
# From -- ./inp_files/261879.got.cif
#   From: 2010.06.25/outbox.cif.g09.slc.cpg/sg2_131_cif.got.tgz:261879.got - 2010.06.27 13:26:56.
