data_PCOD8036591
_publ_section_title
;
Structure prediction by ZEFSAII (Michael W. Deem and Ramdas Pophale) SiO2 
 PCOD8036591
Probable space group: P -1
;
_chemical_formula_sum "Si O2"
_cell_formula_units_Z 16
_cell_length_a 9.650204
_cell_length_b 11.266973
_cell_length_c 26.407098
_cell_angle_alpha 32.603838
_cell_angle_beta 151.362399
_cell_angle_gamma 139.042567
_cell_volume 740.072712
_symmetry_space_group_name_H-M "P -1"
_symmetry_group_IT_number 2
_symmetry_cell_setting 'triclinic'
loop_
_space_group_symop_operation_xyz
x,y,z
-x,-y,-z
loop_
_atom_site_type_symbol
_atom_site_label
_atom_site_fract_x
_atom_site_fract_y
_atom_site_fract_z
Si Si1 0.215273 0.100779 0.184703
Si Si2 0.275017 0.549246 0.785737
Si Si3 0.278721 0.446934 0.578402
Si Si4 0.713187 0.042562 0.210863
Si Si5 0.852714 0.824684 0.978217
Si Si6 0.655166 0.141576 0.043976
Si Si7 0.088575 0.402304 0.246374
Si Si8 0.784603 0.402132 0.606798
O O1 0.526930 0.230083 0.241234
O O2 0.106108 0.082006 0.098636
O O3 0.976047 0.218331 0.099371
O O4 0.244212 0.859621 0.303021
O O5 0.080954 0.575330 0.763502
O O6 0.068211 0.505674 0.687867
O O7 0.485391 0.351090 0.930600
O O8 0.568213 0.585869 0.638711
O O9 0.181407 0.522797 0.465884
O O10 0.000000 0.500000 0.500000
O O11 0.333045 0.188602 0.691841
O O12 0.481550 0.204864 0.101592
O O13 0.682070 0.002078 0.154916
O O14 0.017339 0.169464 0.278516
O O15 0.003237 0.594941 0.111774
O O16 0.000000 0.000000 0.000000
O O17 0.500000 0.000000 0.000000
O O18 0.500000 0.500000 0.500000
#
# Coordination Sequence:
#
# PCOD8036591 Si02
#       8
#     2   2   2   2   2   2   2   2
#     4  12  26  43  70 106 143 176 230 290 351 406
#     4  12  25  45  74 105 139 184 229 287 352 413
#     4  12  29  47  71 100 139 190 237 282 341 404
#     4  12  25  46  74 102 142 181 228 285 350 415
#     4  12  21  41  74 105 136 180 223 281 355 417
#     4  12  25  45  72 109 146 177 219 289 363 423
#     4  12  25  45  75 106 138 179 235 288 342 420
#     4  12  26  46  70  99 139 190 243 281 329 411
#
# _framework density 21.619496999999999
#
# number of rings (size 3 to 8) (size 9 to 14) (size 15 to 20)
#    0.000    0.000    6.250    4.500    0.000    3.000 
#    0.000    0.000    0.000    0.000    0.000    0.000 
#    0.000    0.000    0.000    0.000    0.000    0.000 
#
# Total GULP energy -198446.249866 kJ/mol
# GULP energy per Si atom -12402.890617 kJ/mol
# Density = 2.157029 g / cm^3
# Si number density = 21.619497 Si / 1000 Ang^3
#
#
#
# Elastic Constant Matrix: (Units=GPa)
#
#
# Indices 1 2 3 4 5 6 
#
# 1 148.6811 38.8318 65.2610 2.9960 -11.6492 17.9639
# 2 38.8318 151.5728 60.8380 11.3825 -17.3439 2.0801
# 3 65.2610 60.8380 113.1949 16.0285 -15.9643 6.6801
# 4 2.9960 11.3825 16.0285 25.1899 13.9318 5.6173
# 5 -11.6492 -17.3439 -15.9643 13.9318 49.7734 5.8738
# 6 17.9639 2.0801 6.6801 5.6173 5.8738 29.2235
#
#
#
# Elastic Compliance Matrix: (Units=1/GPa)
#
#
# Indices 1 2 3 4 5 6 
#
# 1 0.009942 -0.000488 -0.005732 0.003996 -0.000151 -0.005504
# 2 -0.000488 0.008696 -0.003627 -0.003107 0.002552 0.000595
# 3 -0.005732 -0.003627 0.016491 -0.011627 0.005811 0.001079
# 4 0.003996 -0.003107 -0.011627 0.060707 -0.020016 -0.007223
# 5 -0.000151 0.002552 0.005811 -0.020016 0.028808 -0.003360
# 6 -0.005504 0.000595 0.001079 -0.007223 -0.003360 0.039377
#
#
# Mechanical properties :
#
#
# Convention : Reuss Voigt Hill
#
# Bulk Modulus (GPa) = 64.79363 82.59004 73.69183
# Shear Modulus (GPa) = 26.47477 37.40523 31.94000
#
# Velocity S-wave (km/s) = 3.50319 4.16403 3.84783
# Velocity P-wave (km/s) = 6.81162 7.83604 7.34172
#
# Compressibility (1/GPa) = 0.01543362
#
# Stress axis : x y z
#
# Youngs Moduli (GPa) = 100.58489 114.99964 60.64063
#
# Poissons Ratio (x) = 0.05615 0.34757
# Poissons Ratio (y) = 0.04911 0.21996
# Poissons Ratio (z) = 0.57652 0.41714
#
# Static dielectric constant tensor:
#      x y z
#    x 3.163870 -0.738030 0.791440 
#    y -0.738030 3.313130 0.943120 
#    z 0.791440 0.943120 3.466140 
# 
# 
# High freq. dielectric constant tensor:
#      x y z
#    x 1.863680 0.006580 -0.004150 
#    y 0.006580 1.857980 0.009700 
#    z -0.004150 0.009700 1.852260 
# 
# From -- ./inp_files/285897.got.cif
#   From: 2010.06.25/outbox.cif.g09.slc.cpg/sg2_143_cif.got.tgz:285897.got - 2010.06.27 13:26:56.
