data_PCOD8036554
_publ_section_title
;
Structure prediction by ZEFSAII (Michael W. Deem and Ramdas Pophale) SiO2 
 PCOD8036554
Probable space group: P -1
;
_chemical_formula_sum "Si O2"
_cell_formula_units_Z 14
_cell_length_a 28.795161
_cell_length_b 11.697564
_cell_length_c 14.276899
_cell_angle_alpha 150.049792
_cell_angle_beta 159.092635
_cell_angle_gamma 20.724913
_cell_volume 606.297048
_symmetry_space_group_name_H-M "P -1"
_symmetry_group_IT_number 2
_symmetry_cell_setting 'triclinic'
loop_
_space_group_symop_operation_xyz
x,y,z
-x,-y,-z
loop_
_atom_site_type_symbol
_atom_site_label
_atom_site_fract_x
_atom_site_fract_y
_atom_site_fract_z
Si Si1 0.100643 0.213616 0.558850
Si Si2 0.012270 0.491702 0.791390
Si Si3 0.078981 0.906891 0.979646
Si Si4 0.466573 0.297810 0.250307
Si Si5 0.576271 0.852378 0.639996
Si Si6 0.518509 0.384904 0.201937
Si Si7 0.667658 0.690825 0.325731
O O1 0.026481 0.351057 0.619187
O O2 0.000000 0.500000 0.500000
O O3 0.062281 0.001833 0.301249
O O4 0.319554 0.957466 0.787466
O O5 0.885312 0.476532 0.604206
O O6 0.214505 0.311711 0.080616
O O7 0.880965 0.878349 0.814300
O O8 0.252034 0.518895 0.026527
O O9 0.000000 0.000000 0.000000
O O10 0.500000 0.500000 0.500000
O O11 0.492803 0.282466 0.177688
O O12 0.595483 0.948569 0.290775
O O13 0.557349 0.604518 0.448417
O O14 0.500000 0.000000 0.500000
O O15 0.449734 0.143242 0.682722
O O16 0.351957 0.538883 0.923001
#
# Coordination Sequence:
#
# PCOD8036554 Si02
#       7
#     2   2   2   2   2   2   2
#     4  12  22  35  65 102 138 179 217 263 343 426
#     4  12  24  43  67  98 136 179 230 284 340 406
#     4  12  21  36  60  94 143 185 221 264 333 418
#     4  12  21  38  66 103 145 184 213 272 351 425
#     4  12  28  51  73  95 132 188 246 297 339 390
#     4  12  24  44  68 102 145 179 225 284 345 415
#     4  12  25  45  69 105 141 177 230 284 349 419
#
# _framework density 23.090990999999999
#
# number of rings (size 3 to 8) (size 9 to 14) (size 15 to 20)
#    0.000    0.000    7.143    4.714    0.000    1.143 
#    0.000    0.714    0.000    0.000    0.000    0.000 
#    0.000    0.000    0.000    0.000    0.000    0.000 
#
# Total GULP energy -173468.868828 kJ/mol
# GULP energy per Si atom -12390.633488 kJ/mol
# Density = 2.303843 g / cm^3
# Si number density = 23.090991 Si / 1000 Ang^3
#
#
#
# Elastic Constant Matrix: (Units=GPa)
#
#
# Indices 1 2 3 4 5 6 
#
# 1 105.9949 23.2503 40.2904 -10.3355 -11.4796 -16.6573
# 2 23.2503 39.7714 19.3038 -2.6110 -1.0865 -19.2809
# 3 40.2904 19.3038 162.8764 -3.1401 -1.2474 -17.8825
# 4 -10.3355 -2.6110 -3.1401 35.8646 -16.5896 -2.3629
# 5 -11.4796 -1.0865 -1.2474 -16.5896 38.1301 -3.2164
# 6 -16.6573 -19.2809 -17.8825 -2.3629 -3.2164 31.8591
#
#
#
# Elastic Compliance Matrix: (Units=1/GPa)
#
#
# Indices 1 2 3 4 5 6 
#
# 1 0.013294 -0.003786 -0.002129 0.007053 0.007292 0.004724
# 2 -0.003786 0.038823 -0.001169 0.004841 0.003857 0.021608
# 3 -0.002129 -0.001169 0.007030 -0.000087 -0.000306 0.002088
# 4 0.007053 0.004841 -0.000087 0.040730 0.020967 0.011706
# 5 0.007292 0.003857 -0.000306 0.020967 0.038607 0.011427
# 6 0.004724 0.021608 0.002088 0.011706 0.011427 0.050128
#
#
# Mechanical properties :
#
#
# Convention : Reuss Voigt Hill
#
# Bulk Modulus (GPa) = 22.23326 52.70353 37.46839
# Shear Modulus (GPa) = 22.95949 36.22397 29.59173
#
# Velocity S-wave (km/s) = 3.15668 3.96504 3.58373
# Velocity P-wave (km/s) = 4.78912 6.62087 5.77804
#
# Compressibility (1/GPa) = 0.04497767
#
# Stress axis : x y z
#
# Youngs Moduli (GPa) = 75.22118 25.75785 142.24483
#
# Poissons Ratio (x) = 0.09752 0.30290
# Poissons Ratio (y) = 0.28479 0.16635
# Poissons Ratio (z) = 0.16018 0.03012
#
# Static dielectric constant tensor:
#      x y z
#    x 3.577470 0.342990 -1.368950 
#    y 0.342990 2.961990 2.516320 
#    z -1.368950 2.516320 -0.430320 
# 
# 
# High freq. dielectric constant tensor:
#      x y z
#    x 1.889880 -0.038740 0.004320 
#    y -0.038740 1.893720 0.013620 
#    z 0.004320 0.013620 1.953940 
# 
# From -- ./inp_files/267339.got.cif
#   From: 2010.06.25/outbox.cif.g09.slc.cpg/sg2_134_cif.got.tgz:267339.got - 2010.06.27 13:26:56.
