data_PCOD8036343
_publ_section_title
;
Structure prediction by ZEFSAII (Michael W. Deem and Ramdas Pophale) SiO2 
 PCOD8036343
Probable space group: P -1
;
_chemical_formula_sum "Si O2"
_cell_formula_units_Z 16
_cell_length_a 13.150921
_cell_length_b 9.221144
_cell_length_c 8.466051
_cell_angle_alpha 86.731118
_cell_angle_beta 46.449668
_cell_angle_gamma 73.670934
_cell_volume 700.143937
_symmetry_space_group_name_H-M "P -1"
_symmetry_group_IT_number 2
_symmetry_cell_setting 'triclinic'
loop_
_space_group_symop_operation_xyz
x,y,z
-x,-y,-z
loop_
_atom_site_type_symbol
_atom_site_label
_atom_site_fract_x
_atom_site_fract_y
_atom_site_fract_z
Si Si1 0.436972 0.877003 0.142559
Si Si2 0.401069 0.411881 0.177063
Si Si3 0.890876 0.124205 0.498528
Si Si4 0.594498 0.857160 0.298488
Si Si5 0.884060 0.417349 0.672749
Si Si6 0.123374 0.062680 0.989768
Si Si7 0.893910 0.256707 0.005386
Si Si8 0.643409 0.532191 0.413577
O O1 0.260327 0.916832 0.346395
O O2 0.502231 0.830311 0.250301
O O3 0.495076 0.762054 0.941536
O O4 0.500000 0.000000 0.000000
O O5 0.267989 0.440699 0.190953
O O6 0.354089 0.464174 0.401079
O O7 0.500000 0.500000 0.000000
O O8 0.868576 0.295402 0.568891
O O9 0.000000 0.000000 0.500000
O O10 0.969368 0.108474 0.247619
O O11 0.743045 0.891274 0.079908
O O12 0.647153 0.697385 0.345753
O O13 0.500000 0.000000 0.500000
O O14 0.000000 0.500000 0.500000
O O15 0.912179 0.335249 0.816522
O O16 0.183655 0.876163 0.916753
O O17 0.063328 0.167439 0.890716
O O18 0.792468 0.394275 0.214796
O O19 0.500000 0.500000 0.500000
#
# Coordination Sequence:
#
# PCOD8036343 Si02
#       8
#     2   2   2   2   2   2   2   2
#     4  12  28  47  77 108 153 200 260 312 381 460
#     4  12  26  50  72 107 146 200 251 318 380 455
#     4  12  26  48  75 109 154 203 252 317 387 459
#     4  12  28  47  77 112 152 204 260 316 391 464
#     4  12  28  45  79 108 155 197 262 311 388 462
#     4  11  27  47  77 107 156 199 258 317 389 465
#     4  11  26  48  75 109 149 201 254 318 392 452
#     4  12  27  46  77 107 153 195 256 320 390 458
#
# _framework density 22.852443999999998
#
# number of rings (size 3 to 8) (size 9 to 14) (size 15 to 20)
#    0.000    0.250    2.500    5.250   12.250    0.500 
#    0.000    0.000    0.000    0.000    0.000    0.000 
#    0.000    0.000    0.000    0.000    0.000    0.000 
#
# Total GULP energy -198271.845375 kJ/mol
# GULP energy per Si atom -12391.990336 kJ/mol
# Density = 2.280043 g / cm^3
# Si number density = 22.852444 Si / 1000 Ang^3
#
#
#
# Elastic Constant Matrix: (Units=GPa)
#
#
# Indices 1 2 3 4 5 6 
#
# 1 140.1782 44.2177 65.9399 -17.9549 -17.2621 -5.1465
# 2 44.2177 153.8911 76.4810 -7.4261 -3.9891 6.0403
# 3 65.9399 76.4810 150.3468 -4.7332 -4.6542 3.6705
# 4 -17.9549 -7.4261 -4.7332 46.4375 6.9196 3.4458
# 5 -17.2621 -3.9891 -4.6542 6.9196 57.0100 -7.4102
# 6 -5.1465 6.0403 3.6705 3.4458 -7.4102 45.1341
#
#
#
# Elastic Compliance Matrix: (Units=1/GPa)
#
#
# Indices 1 2 3 4 5 6 
#
# 1 0.009920 -0.000826 -0.003807 0.002810 0.002522 0.001751
# 2 -0.000826 0.008843 -0.004092 0.000784 -0.000195 -0.001037
# 3 -0.003807 -0.004092 0.010374 -0.000927 -0.000578 -0.000754
# 4 0.002810 0.000784 -0.000927 0.023118 -0.002215 -0.001838
# 5 0.002522 -0.000195 -0.000578 -0.002215 0.018986 0.003647
# 6 0.001751 -0.001037 -0.000754 -0.001838 0.003647 0.023295
#
#
# Mechanical properties :
#
#
# Convention : Reuss Voigt Hill
#
# Bulk Modulus (GPa) = 85.56831 90.85482 88.21157
# Shear Modulus (GPa) = 43.14814 46.90149 45.02482
#
# Velocity S-wave (km/s) = 4.34996 4.53522 4.44355
# Velocity P-wave (km/s) = 7.92179 8.20169 8.06295
#
# Compressibility (1/GPa) = 0.01168657
#
# Stress axis : x y z
#
# Youngs Moduli (GPa) = 100.80972 113.08996 96.39791
#
# Poissons Ratio (x) = 0.09344 0.36694
# Poissons Ratio (y) = 0.08329 0.39445
# Poissons Ratio (z) = 0.38374 0.46275
#
# Static dielectric constant tensor:
#      x y z
#    x 4.162570 0.056920 -0.428740 
#    y 0.056920 4.364460 0.364400 
#    z -0.428740 0.364400 3.206640 
# 
# 
# High freq. dielectric constant tensor:
#      x y z
#    x 1.912670 -0.003120 0.000940 
#    y -0.003120 1.928230 0.000050 
#    z 0.000940 0.000050 1.908880 
# 
# From -- ./inp_files/298105.got.cif
#   From: 2010.06.25/outbox.cif.g09.slc.cpg/sg2_150_cif.got.tgz:298105.got - 2010.06.27 13:26:56.
