data_PCOD8036141
_publ_section_title
;
Structure prediction by ZEFSAII (Michael W. Deem and Ramdas Pophale) SiO2 
 PCOD8036141
Probable space group: P -1
;
_chemical_formula_sum "Si O2"
_cell_formula_units_Z 16
_cell_length_a 11.104897
_cell_length_b 12.891761
_cell_length_c 9.471960
_cell_angle_alpha 137.353161
_cell_angle_beta 49.944733
_cell_angle_gamma 115.622874
_cell_volume 700.985173
_symmetry_space_group_name_H-M "P -1"
_symmetry_group_IT_number 2
_symmetry_cell_setting 'triclinic'
loop_
_space_group_symop_operation_xyz
x,y,z
-x,-y,-z
loop_
_atom_site_type_symbol
_atom_site_label
_atom_site_fract_x
_atom_site_fract_y
_atom_site_fract_z
Si Si1 0.925108 0.351156 0.849851
Si Si2 0.928548 0.850193 0.696384
Si Si3 0.593687 0.880845 0.611972
Si Si4 0.945638 0.838434 0.193069
Si Si5 0.579448 0.817627 0.868967
Si Si6 0.953159 0.335120 0.322668
Si Si7 0.401875 0.694709 0.380228
Si Si8 0.415221 0.610897 0.977319
O O1 0.015597 0.298185 0.586703
O O2 0.945223 0.209712 0.803238
O O3 0.742171 0.391381 0.997570
O O4 0.000000 0.500000 0.000000
O O5 0.741787 0.885281 0.859713
O O6 0.976630 0.805023 0.773523
O O7 0.010268 0.000619 0.740050
O O8 0.764514 0.852173 0.387417
O O9 0.580346 0.778257 0.661672
O O10 0.462350 0.844654 0.559102
O O11 0.564228 0.057615 0.858718
O O12 0.973304 0.700924 0.922143
O O13 0.552448 0.666820 0.829315
O O14 0.764826 0.339299 0.462719
O O15 0.000000 0.500000 0.500000
O O16 0.534868 0.559706 0.180103
O O17 0.388326 0.718560 0.244908
#
# Coordination Sequence:
#
# PCOD8036141 Si02
#       8
#     2   2   2   2   2   2   2   2
#     4  12  25  46  74 105 140 190 240 293 353 420
#     4  12  25  48  72 106 144 187 240 292 356 424
#     4  11  26  45  72 103 144 183 235 288 357 418
#     4  12  27  46  77 104 143 191 238 297 354 424
#     4  11  26  46  71 106 141 184 234 295 349 421
#     4  12  27  48  75 105 145 187 239 293 354 427
#     4  11  26  48  69 105 142 187 233 290 354 425
#     4  11  26  45  74 100 145 185 234 289 355 422
#
# _framework density 22.825019000000001
#
# number of rings (size 3 to 8) (size 9 to 14) (size 15 to 20)
#    0.000    0.500    2.500    4.500   10.500    1.000 
#    0.000    0.000    0.000    0.000    0.000    0.000 
#    0.000    0.000    0.000    0.000    0.000    0.000 
#
# Total GULP energy -198518.467783 kJ/mol
# GULP energy per Si atom -12407.404236 kJ/mol
# Density = 2.277307 g / cm^3
# Si number density = 22.825019 Si / 1000 Ang^3
#
#
#
# Elastic Constant Matrix: (Units=GPa)
#
#
# Indices 1 2 3 4 5 6 
#
# 1 146.8037 33.6032 37.1197 -11.1610 -5.5143 9.8249
# 2 33.6032 94.3169 11.4019 -13.4442 -1.9566 9.6510
# 3 37.1197 11.4019 107.4858 -22.3075 -8.2492 20.2811
# 4 -11.1610 -13.4442 -22.3075 37.7277 1.1957 -0.2781
# 5 -5.5143 -1.9566 -8.2492 1.1957 33.8586 4.3678
# 6 9.8249 9.6510 20.2811 -0.2781 4.3678 36.8390
#
#
#
# Elastic Compliance Matrix: (Units=1/GPa)
#
#
# Indices 1 2 3 4 5 6 
#
# 1 0.008042 -0.002534 -0.002414 0.000028 0.000603 -0.000223
# 2 -0.002534 0.012325 0.001128 0.004259 0.000842 -0.003242
# 3 -0.002414 0.001128 0.013182 0.007316 0.003564 -0.007276
# 4 0.000028 0.004259 0.007316 0.032270 0.001550 -0.005091
# 5 0.000603 0.000842 0.003564 0.001550 0.031274 -0.006040
# 6 -0.000223 -0.003242 -0.007276 -0.005091 -0.006040 0.032737
#
#
# Mechanical properties :
#
#
# Convention : Reuss Voigt Hill
#
# Bulk Modulus (GPa) = 38.59725 56.98399 47.79062
# Shear Modulus (GPa) = 34.22101 39.45049 36.83575
#
# Velocity S-wave (km/s) = 3.87625 4.16190 4.02161
# Velocity P-wave (km/s) = 6.08116 6.93650 6.52286
#
# Compressibility (1/GPa) = 0.02590858
#
# Stress axis : x y z
#
# Youngs Moduli (GPa) = 124.34693 81.13406 75.85860
#
# Poissons Ratio (x) = 0.20560 0.18315
# Poissons Ratio (y) = 0.31510 -0.08556
# Poissons Ratio (z) = 0.30022 -0.09151
#
# Static dielectric constant tensor:
#      x y z
#    x 4.246460 -0.249180 0.121150 
#    y -0.249180 4.167320 -0.239690 
#    z 0.121150 -0.239690 4.284400 
# 
# 
# High freq. dielectric constant tensor:
#      x y z
#    x 1.913790 -0.007660 -0.000040 
#    y -0.007660 1.899790 -0.007640 
#    z -0.000040 -0.007640 1.912260 
# 
# From -- ./inp_files/263292.got.cif
#   From: 2010.06.25/outbox.cif.g09.slc.cpg/sg2_132_cif.got.tgz:263292.got - 2010.06.27 13:26:56.
