data_PCOD8036063
_publ_section_title
;
Structure prediction by ZEFSAII (Michael W. Deem and Ramdas Pophale) SiO2 
 PCOD8036063
Probable space group: P -1
;
_chemical_formula_sum "Si O2"
_cell_formula_units_Z 14
_cell_length_a 8.737483
_cell_length_b 13.545767
_cell_length_c 11.442073
_cell_angle_alpha 146.200800
_cell_angle_beta 128.712133
_cell_angle_gamma 63.303220
_cell_volume 580.038163
_symmetry_space_group_name_H-M "P -1"
_symmetry_group_IT_number 2
_symmetry_cell_setting 'triclinic'
loop_
_space_group_symop_operation_xyz
x,y,z
-x,-y,-z
loop_
_atom_site_type_symbol
_atom_site_label
_atom_site_fract_x
_atom_site_fract_y
_atom_site_fract_z
Si Si1 0.164570 0.445076 0.729606
Si Si2 0.626489 0.045955 0.439218
Si Si3 0.209006 0.057462 0.347807
Si Si4 0.780956 0.445478 0.889656
Si Si5 0.388654 0.520973 0.683390
Si Si6 0.118707 0.283015 0.155489
Si Si7 0.432115 0.138760 0.011289
O O1 0.108727 0.236170 0.460386
O O2 0.306657 0.553757 0.805834
O O3 0.970957 0.538962 0.746014
O O4 0.268150 0.458101 0.918454
O O5 0.395418 0.064483 0.357461
O O6 0.764479 0.236287 0.701322
O O7 0.706552 0.934985 0.472450
O O8 0.659234 0.960317 0.245959
O O9 0.050949 0.886169 0.065303
O O10 0.615697 0.486259 0.759296
O O11 0.000000 0.500000 0.000000
O O12 0.254521 0.342523 0.391890
O O13 0.387599 0.700826 0.780879
O O14 0.253881 0.230098 0.065034
O O15 0.500000 0.000000 0.000000
#
# Coordination Sequence:
#
# PCOD8036063 Si02
#       7
#     2   2   2   2   2   2   2
#     4  12  26  49  81 118 157 210 263 325 396 472
#     4  11  25  51  78 119 155 208 267 331 390 471
#     4  11  26  48  84 114 161 202 271 326 394 468
#     4  12  26  48  81 117 159 204 267 329 394 466
#     4  12  27  51  76 116 163 206 265 326 393 478
#     4  12  28  50  76 118 160 206 263 321 401 475
#     4  12  29  49  78 111 164 211 260 328 402 463
#
# _framework density 24.136343
#
# number of rings (size 3 to 8) (size 9 to 14) (size 15 to 20)
#    0.000    0.286    2.857    4.714    6.000    1.143 
#    0.000    0.000    0.000    0.000    0.000    0.000 
#    0.000    0.000    0.000    0.000    0.000    0.000 
#
# Total GULP energy -173614.875390 kJ/mol
# GULP energy per Si atom -12401.062528 kJ/mol
# Density = 2.408141 g / cm^3
# Si number density = 24.136343 Si / 1000 Ang^3
#
#
#
# Elastic Constant Matrix: (Units=GPa)
#
#
# Indices 1 2 3 4 5 6 
#
# 1 151.9159 63.3488 75.3531 4.6392 -2.7938 3.9809
# 2 63.3488 132.8535 47.8685 17.0754 3.0638 -10.9761
# 3 75.3531 47.8685 159.9605 6.1292 11.2888 -0.6657
# 4 4.6392 17.0754 6.1292 45.9459 1.2695 -0.9050
# 5 -2.7938 3.0638 11.2888 1.2695 43.5978 2.6087
# 6 3.9809 -10.9761 -0.6657 -0.9050 2.6087 43.1337
#
#
#
# Elastic Compliance Matrix: (Units=1/GPa)
#
#
# Indices 1 2 3 4 5 6 
#
# 1 0.010112 -0.003764 -0.003817 0.000791 0.002001 -0.002054
# 2 -0.003764 0.010418 -0.001154 -0.003259 -0.000757 0.002958
# 3 -0.003817 -0.001154 0.008575 -0.000257 -0.002396 0.000331
# 4 0.000791 -0.003259 -0.000257 0.022930 -0.000297 -0.000407
# 5 0.002001 -0.000757 -0.002396 -0.000297 0.023859 -0.001863
# 6 -0.002054 0.002958 0.000331 -0.000407 -0.001863 0.024235
#
#
# Mechanical properties :
#
#
# Convention : Reuss Voigt Hill
#
# Bulk Modulus (GPa) = 85.94464 90.87452 88.40958
# Shear Modulus (GPa) = 41.15929 43.74610 42.45270
#
# Velocity S-wave (km/s) = 4.13399 4.26192 4.19844
# Velocity P-wave (km/s) = 7.64668 7.87088 7.75959
#
# Compressibility (1/GPa) = 0.01163540
#
# Stress axis : x y z
#
# Youngs Moduli (GPa) = 98.89228 95.98453 116.61257
#
# Poissons Ratio (x) = 0.36128 0.44513
# Poissons Ratio (y) = 0.37222 0.13458
# Poissons Ratio (z) = 0.37749 0.11077
#
# Static dielectric constant tensor:
#      x y z
#    x 4.321890 0.113890 -0.065990 
#    y 0.113890 4.410240 0.089670 
#    z -0.065990 0.089670 4.469120 
# 
# 
# High freq. dielectric constant tensor:
#      x y z
#    x 1.963310 0.004610 -0.005570 
#    y 0.004610 1.963730 0.006850 
#    z -0.005570 0.006850 1.966800 
# 
# From -- ./inp_files/259223.got.cif
#   From: 2010.06.25/outbox.cif.g09.slc.cpg/sg2_130_cif.got.tgz:259223.got - 2010.06.27 13:26:56.
