data_PCOD8036314
_publ_section_title
;
Structure prediction by ZEFSAII (Michael W. Deem and Ramdas Pophale) SiO2 
 PCOD8036314
Probable space group: P -1
;
_chemical_formula_sum "Si O2"
_cell_formula_units_Z 16
_cell_length_a 17.603229
_cell_length_b 24.258135
_cell_length_c 14.068830
_cell_angle_alpha 29.887111
_cell_angle_beta 21.415651
_cell_angle_gamma 19.878588
_cell_volume 744.143783
_symmetry_space_group_name_H-M "P -1"
_symmetry_group_IT_number 2
_symmetry_cell_setting 'triclinic'
loop_
_space_group_symop_operation_xyz
x,y,z
-x,-y,-z
loop_
_atom_site_type_symbol
_atom_site_label
_atom_site_fract_x
_atom_site_fract_y
_atom_site_fract_z
Si Si1 0.727333 0.353054 0.027312
Si Si2 0.720994 0.920957 0.705586
Si Si3 0.154067 0.820776 0.187155
Si Si4 0.646922 0.141199 0.730059
Si Si5 0.777864 0.452123 0.011683
Si Si6 0.824770 0.930162 0.210335
Si Si7 0.724047 0.333408 0.430533
Si Si8 0.414820 0.263911 0.613429
O O1 0.825531 0.400120 0.924450
O O2 0.575010 0.309278 0.320454
O O3 0.500000 0.500000 0.000000
O O4 0.029461 0.195657 0.856932
O O5 0.914494 0.852700 0.486361
O O6 0.937439 0.799853 0.721091
O O7 0.564110 0.098761 0.639176
O O8 0.454456 0.932878 0.989897
O O9 0.482693 0.641016 0.087847
O O10 0.042478 0.838906 0.184362
O O11 0.196457 0.932681 0.996937
O O12 0.593838 0.259007 0.693284
O O13 0.435632 0.248144 0.725906
O O14 0.000000 0.000000 0.500000
O O15 0.753370 0.355607 0.253105
O O16 0.063818 0.413807 0.768408
O O17 0.500000 0.000000 0.500000
O O18 0.500000 0.500000 0.500000
#
# Coordination Sequence:
#
# PCOD8036314 Si02
#       8
#     2   2   2   2   2   2   2   2
#     4  12  27  48  72 108 140 184 245 299 362 427
#     4  12  25  45  73 107 147 194 238 292 367 430
#     4  11  26  48  70 105 146 184 239 299 359 432
#     4  12  25  44  74 104 144 193 246 289 352 439
#     4  12  26  45  72 103 146 186 238 298 358 426
#     4  11  27  49  75 103 140 189 242 296 364 429
#     4  12  25  45  68 109 149 186 237 299 354 427
#     4  12  26  44  74 105 144 191 241 297 359 425
#
# _framework density 21.50122
#
# number of rings (size 3 to 8) (size 9 to 14) (size 15 to 20)
#    0.000    0.250    7.500    1.125    3.500    2.000 
#    2.250    0.000    0.000    0.000    0.000    0.000 
#    0.000    0.000    0.000    0.000    0.000    0.000 
#
# Total GULP energy -198477.051051 kJ/mol
# GULP energy per Si atom -12404.815691 kJ/mol
# Density = 2.145228 g / cm^3
# Si number density = 21.501220 Si / 1000 Ang^3
#
#
#
# Elastic Constant Matrix: (Units=GPa)
#
#
# Indices 1 2 3 4 5 6 
#
# 1 59.6030 -5.8242 30.9120 -14.9792 6.6943 8.8971
# 2 -5.8242 62.2049 33.5444 -8.2573 2.3502 5.1819
# 3 30.9120 33.5444 132.6817 8.5634 -2.7305 2.1180
# 4 -14.9792 -8.2573 8.5634 28.0291 -0.8335 1.9481
# 5 6.6943 2.3502 -2.7305 -0.8335 36.3089 0.0004
# 6 8.8971 5.1819 2.1180 1.9481 0.0004 43.1738
#
#
#
# Elastic Compliance Matrix: (Units=1/GPa)
#
#
# Indices 1 2 3 4 5 6 
#
# 1 0.034744 0.015482 -0.013809 0.027782 -0.007808 -0.009594
# 2 0.015482 0.027350 -0.011825 0.020267 -0.005049 -0.006807
# 3 -0.013809 -0.011825 0.014763 -0.015548 0.004065 0.004242
# 4 0.027782 0.020267 -0.015548 0.061769 -0.006185 -0.010182
# 5 -0.007808 -0.005049 0.004065 -0.006185 0.029472 0.002294
# 6 -0.009594 -0.006807 0.004242 -0.010182 0.002294 0.026208
#
#
# Mechanical properties :
#
#
# Convention : Reuss Voigt Hill
#
# Bulk Modulus (GPa) = 17.68270 41.30599 29.49435
# Shear Modulus (GPa) = 21.41692 34.55952 27.98822
#
# Velocity S-wave (km/s) = 3.15950 4.01350 3.61183
# Velocity P-wave (km/s) = 4.64239 6.38203 5.58041
#
# Compressibility (1/GPa) = 0.05655244
#
# Stress axis : x y z
#
# Youngs Moduli (GPa) = 28.78221 36.56281 67.73670
#
# Poissons Ratio (x) = -0.56606 0.93539
# Poissons Ratio (y) = -0.44560 0.80098
# Poissons Ratio (z) = 0.39746 0.43235
#
# Static dielectric constant tensor:
#      x y z
#    x 4.199440 -0.079740 -0.056800 
#    y -0.079740 4.006690 -0.047750 
#    z -0.056800 -0.047750 4.037120 
# 
# 
# High freq. dielectric constant tensor:
#      x y z
#    x 1.854130 -0.003660 -0.001350 
#    y -0.003660 1.856960 -0.001600 
#    z -0.001350 -0.001600 1.850570 
# 
# From -- ./inp_files/47427.got.cif
#   From: 2010.06.25/outbox.cif.g09.slc.cpg/sg2_24_cif.got.tgz:47427.got - 2010.06.27 13:26:56.
