data_PCOD8036159
_publ_section_title
;
Structure prediction by ZEFSAII (Michael W. Deem and Ramdas Pophale) SiO2 
 PCOD8036159
Probable space group: P -1
;
_chemical_formula_sum "Si O2"
_cell_formula_units_Z 16
_cell_length_a 11.430367
_cell_length_b 9.946507
_cell_length_c 9.562814
_cell_angle_alpha 116.448143
_cell_angle_beta 50.267956
_cell_angle_gamma 124.204963
_cell_volume 685.135436
_symmetry_space_group_name_H-M "P -1"
_symmetry_group_IT_number 2
_symmetry_cell_setting 'triclinic'
loop_
_space_group_symop_operation_xyz
x,y,z
-x,-y,-z
loop_
_atom_site_type_symbol
_atom_site_label
_atom_site_fract_x
_atom_site_fract_y
_atom_site_fract_z
Si Si1 0.298332 0.737397 0.836979
Si Si2 0.503697 0.326679 0.930789
Si Si3 0.882094 0.156999 0.209203
Si Si4 0.773126 0.636240 0.330716
Si Si5 0.368524 0.196101 0.274789
Si Si6 0.852108 0.332715 0.575381
Si Si7 0.126896 0.829860 0.244909
Si Si8 0.223178 0.210185 0.878672
O O1 0.224469 0.837878 0.842296
O O2 0.236081 0.548131 0.747351
O O3 0.499223 0.827605 0.730136
O O4 0.243294 0.754446 0.044820
O O5 0.686031 0.345641 0.760169
O O6 0.364790 0.212211 0.877757
O O7 0.500000 0.500000 0.000000
O O8 0.459837 0.262237 0.090796
O O9 0.807447 0.224390 0.421481
O O10 0.862104 0.977840 0.190020
O O11 0.080452 0.261053 0.079744
O O12 0.680710 0.665344 0.551279
O O13 0.697011 0.670699 0.259945
O O14 0.960740 0.773814 0.253569
O O15 0.211295 0.026430 0.289842
O O16 0.921362 0.249692 0.602725
O O17 0.000000 0.500000 0.500000
#
# Coordination Sequence:
#
# PCOD8036159 Si02
#       8
#     2   2   2   2   2   2   2   2
#     4  12  25  48  76 107 146 196 252 305 365 439
#     4  12  28  46  73 106 152 192 242 307 373 436
#     4  11  26  45  74 104 149 194 240 302 370 444
#     4  12  27  46  76 110 149 196 248 305 371 446
#     4  12  28  48  77 110 149 194 250 311 370 437
#     4  12  28  47  74 108 146 195 247 301 369 447
#     4  12  26  49  77 106 147 197 251 306 366 443
#     4  11  26  47  71 108 150 190 240 303 377 437
#
# _framework density 23.353048000000001
#
# number of rings (size 3 to 8) (size 9 to 14) (size 15 to 20)
#    0.000    0.250    2.500    5.250   12.250    0.500 
#    0.000    0.000    0.000    0.000    0.000    0.000 
#    0.000    0.000    0.000    0.000    0.000    0.000 
#
# Total GULP energy -198424.598613 kJ/mol
# GULP energy per Si atom -12401.537413 kJ/mol
# Density = 2.329990 g / cm^3
# Si number density = 23.353048 Si / 1000 Ang^3
#
#
#
# Elastic Constant Matrix: (Units=GPa)
#
#
# Indices 1 2 3 4 5 6 
#
# 1 86.7412 13.1411 12.0139 -3.2767 2.8353 -6.5397
# 2 13.1411 84.6422 31.7347 0.7460 5.2650 -9.8161
# 3 12.0139 31.7347 128.1914 4.1148 3.8479 -10.5111
# 4 -3.2767 0.7460 4.1148 32.1134 0.0529 3.5673
# 5 2.8353 5.2650 3.8479 0.0529 33.6207 -2.5387
# 6 -6.5397 -9.8161 -10.5111 3.5673 -2.5387 36.9321
#
#
#
# Elastic Compliance Matrix: (Units=1/GPa)
#
#
# Indices 1 2 3 4 5 6 
#
# 1 0.012008 -0.001420 -0.000679 0.001191 -0.000609 0.001399
# 2 -0.001420 0.013521 -0.002959 -0.000348 -0.001475 0.002432
# 3 -0.000679 -0.002959 0.008789 -0.001315 -0.000355 0.001697
# 4 0.001191 -0.000348 -0.001315 0.031809 -0.000198 -0.003342
# 5 -0.000609 -0.001475 -0.000355 -0.000198 0.030180 0.001493
# 6 0.001399 0.002432 0.001697 -0.003342 0.001493 0.028879
#
#
# Mechanical properties :
#
#
# Convention : Reuss Voigt Hill
#
# Bulk Modulus (GPa) = 41.31990 45.92826 43.62408
# Shear Modulus (GPa) = 34.87457 36.71223 35.79340
#
# Velocity S-wave (km/s) = 3.86860 3.96921 3.91923
# Velocity P-wave (km/s) = 6.13895 6.38090 6.26109
#
# Compressibility (1/GPa) = 0.02420141
#
# Stress axis : x y z
#
# Youngs Moduli (GPa) = 83.27722 73.95713 113.77724
#
# Poissons Ratio (x) = 0.10503 0.07726
# Poissons Ratio (y) = 0.11826 0.33671
# Poissons Ratio (z) = 0.05655 0.21887
#
# Static dielectric constant tensor:
#      x y z
#    x 4.031270 -0.102250 -0.262020 
#    y -0.102250 4.007930 -0.016830 
#    z -0.262020 -0.016830 4.566300 
# 
# 
# High freq. dielectric constant tensor:
#      x y z
#    x 1.935610 0.004050 0.000500 
#    y 0.004050 1.923460 0.003990 
#    z 0.000500 0.003990 1.936990 
# 
# From -- ./inp_files/262983.got.cif
#   From: 2010.06.25/outbox.cif.g09.slc.cpg/sg2_132_cif.got.tgz:262983.got - 2010.06.27 13:26:56.
