data_PCOD8036410
_publ_section_title
;
Structure prediction by ZEFSAII (Michael W. Deem and Ramdas Pophale) SiO2 
 PCOD8036410
Probable space group: P -1
;
_chemical_formula_sum "Si O2"
_cell_formula_units_Z 16
_cell_length_a 8.560864
_cell_length_b 17.370851
_cell_length_c 6.588025
_cell_angle_alpha 77.270117
_cell_angle_beta 55.387893
_cell_angle_gamma 59.316086
_cell_volume 690.072046
_symmetry_space_group_name_H-M "P -1"
_symmetry_group_IT_number 2
_symmetry_cell_setting 'triclinic'
loop_
_space_group_symop_operation_xyz
x,y,z
-x,-y,-z
loop_
_atom_site_type_symbol
_atom_site_label
_atom_site_fract_x
_atom_site_fract_y
_atom_site_fract_z
Si Si1 0.027927 0.413226 0.909269
Si Si2 0.297193 0.503210 0.253761
Si Si3 0.359527 0.226186 0.664782
Si Si4 0.990240 0.958631 0.242567
Si Si5 0.044618 0.768222 0.250073
Si Si6 0.365778 0.955418 0.230102
Si Si7 0.570124 0.315965 0.286920
Si Si8 0.201888 0.642398 0.575073
O O1 0.929747 0.360294 0.133601
O O2 0.918806 0.445817 0.749656
O O3 0.000000 0.500000 0.000000
O O4 0.268734 0.329741 0.752668
O O5 0.349257 0.401084 0.317649
O O6 0.285780 0.548413 0.452444
O O7 0.500000 0.500000 0.000000
O O8 0.470667 0.150798 0.799582
O O9 0.538252 0.226631 0.375354
O O10 0.184533 0.206877 0.694663
O O11 0.071807 0.854418 0.215552
O O12 0.161815 0.973175 0.236952
O O13 0.746521 0.002339 0.493463
O O14 0.000000 0.000000 0.000000
O O15 0.056620 0.723080 0.483992
O O16 0.237860 0.701060 0.001164
O O17 0.500000 0.000000 0.000000
O O18 0.615321 0.339704 0.468140
#
# Coordination Sequence:
#
# PCOD8036410 Si02
#       8
#     2   2   2   2   2   2   2   2
#     4  12  28  44  67 104 145 190 245 299 353 423
#     4  12  23  44  65 100 138 191 247 293 354 422
#     4  12  26  48  70 107 144 188 238 296 357 429
#     4  11  26  50  76 109 147 188 236 305 370 441
#     4  12  26  46  71 106 146 184 244 297 356 435
#     4  11  27  49  78 112 147 187 243 299 372 447
#     4  12  26  44  71 100 144 191 244 294 356 424
#     4  12  23  45  67  96 143 194 232 305 355 414
#
# _framework density 23.185986
#
# number of rings (size 3 to 8) (size 9 to 14) (size 15 to 20)
#    0.000    0.250    5.000    3.375    5.250    7.000 
#    0.000    0.000    0.000    0.000    0.000    0.000 
#    0.000    0.000    0.000    0.000    0.000    0.000 
#
# Total GULP energy -198298.384432 kJ/mol
# GULP energy per Si atom -12393.649027 kJ/mol
# Density = 2.313321 g / cm^3
# Si number density = 23.185986 Si / 1000 Ang^3
#
#
#
# Elastic Constant Matrix: (Units=GPa)
#
#
# Indices 1 2 3 4 5 6 
#
# 1 94.2935 28.4196 47.3599 -3.0618 -10.0641 -5.7418
# 2 28.4196 138.7740 48.7174 -20.6692 -0.2801 -6.2778
# 3 47.3599 48.7174 119.6594 -21.6163 0.9488 -5.1032
# 4 -3.0618 -20.6692 -21.6163 47.0410 7.9928 1.6913
# 5 -10.0641 -0.2801 0.9488 7.9928 33.2564 -4.6558
# 6 -5.7418 -6.2778 -5.1032 1.6913 -4.6558 42.7994
#
#
#
# Elastic Compliance Matrix: (Units=1/GPa)
#
#
# Indices 1 2 3 4 5 6 
#
# 1 0.014501 -0.001349 -0.005755 -0.003308 0.005588 0.001800
# 2 -0.001349 0.008802 -0.002522 0.002741 -0.000836 0.000610
# 3 -0.005755 -0.002522 0.012557 0.004858 -0.003316 -0.000197
# 4 -0.003308 0.002741 0.004858 0.025800 -0.007499 -0.001298
# 5 0.005588 -0.000836 -0.003316 -0.007499 0.034246 0.004253
# 6 0.001800 0.000610 -0.000197 -0.001298 0.004253 0.024186
#
#
# Mechanical properties :
#
#
# Convention : Reuss Voigt Hill
#
# Bulk Modulus (GPa) = 60.21332 66.85785 63.53558
# Shear Modulus (GPa) = 34.51129 39.83469 37.17299
#
# Velocity S-wave (km/s) = 3.86224 4.14943 4.00841
# Velocity P-wave (km/s) = 6.77608 7.20105 6.99179
#
# Compressibility (1/GPa) = 0.01660762
#
# Stress axis : x y z
#
# Youngs Moduli (GPa) = 68.96052 113.61495 79.63666
#
# Poissons Ratio (x) = 0.15330 0.45832
# Poissons Ratio (y) = 0.09305 0.20082
# Poissons Ratio (z) = 0.39688 0.28650
#
# Static dielectric constant tensor:
#      x y z
#    x 4.240900 -0.059410 -0.049420 
#    y -0.059410 4.274180 -0.298180 
#    z -0.049420 -0.298180 4.179990 
# 
# 
# High freq. dielectric constant tensor:
#      x y z
#    x 1.918370 0.002660 -0.009720 
#    y 0.002660 1.925630 -0.016390 
#    z -0.009720 -0.016390 1.933010 
# 
# From -- ./inp_files/47351.got.cif
#   From: 2010.06.25/outbox.cif.g09.slc.cpg/sg2_24_cif.got.tgz:47351.got - 2010.06.27 13:26:56.
