data_PCOD8036894
_publ_section_title
;
Structure prediction by ZEFSAII (Michael W. Deem and Ramdas Pophale) SiO2 
 PCOD8036894
Probable space group: P -1
;
_chemical_formula_sum "Si O2"
_cell_formula_units_Z 14
_cell_length_a 9.099354
_cell_length_b 22.039972
_cell_length_c 8.166543
_cell_angle_alpha 126.892753
_cell_angle_beta 147.675992
_cell_angle_gamma 42.960770
_cell_volume 596.078308
_symmetry_space_group_name_H-M "P -1"
_symmetry_group_IT_number 2
_symmetry_cell_setting 'triclinic'
loop_
_space_group_symop_operation_xyz
x,y,z
-x,-y,-z
loop_
_atom_site_type_symbol
_atom_site_label
_atom_site_fract_x
_atom_site_fract_y
_atom_site_fract_z
Si Si1 0.557797 0.164437 0.669223
Si Si2 0.636942 0.911881 0.089377
Si Si3 0.362690 0.800547 0.550283
Si Si4 0.930070 0.660699 0.328093
Si Si5 0.524685 0.634885 0.647731
Si Si6 0.242258 0.513313 0.642929
Si Si7 0.721342 0.954574 0.784043
O O1 0.644678 0.206799 0.666015
O O2 0.349740 0.239026 0.729361
O O3 0.372652 0.115988 0.349803
O O4 0.895870 0.094183 0.961577
O O5 0.615333 0.830595 0.869613
O O6 0.014329 0.873036 0.412076
O O7 0.500000 0.000000 0.000000
O O8 0.400364 0.953357 0.086167
O O9 0.498727 0.706411 0.610460
O O10 0.196112 0.667809 0.488489
O O11 0.065901 0.610266 0.548232
O O12 0.793952 0.613852 0.005740
O O13 0.611837 0.550257 0.481119
O O14 0.000000 0.500000 0.500000
O O15 0.500000 0.500000 0.000000
O O16 0.500000 0.000000 0.500000
#
# Coordination Sequence:
#
# PCOD8036894 Si02
#       7
#     2   2   2   2   2   2   2
#     4  12  25  46  66 101 139 187 236 295 352 425
#     4  12  23  44  68  96 135 185 243 295 353 409
#     4  12  25  43  71  99 138 185 241 293 351 427
#     4  12  27  47  74 108 152 184 236 299 359 426
#     4  12  27  47  74 111 145 188 237 297 360 424
#     4  12  26  50  82 110 146 192 235 287 357 440
#     4  12  27  42  67  97 139 184 241 297 359 414
#
# _framework density 23.486844999999999
#
# number of rings (size 3 to 8) (size 9 to 14) (size 15 to 20)
#    0.000    0.000    2.857    6.857    6.000    2.286 
#    0.000    0.000    0.000    0.000    0.000    0.000 
#    0.000    0.000    0.000    0.000    0.000    0.000 
#
# Total GULP energy -173506.839099 kJ/mol
# GULP energy per Si atom -12393.345650 kJ/mol
# Density = 2.343339 g / cm^3
# Si number density = 23.486845 Si / 1000 Ang^3
#
#
#
# Elastic Constant Matrix: (Units=GPa)
#
#
# Indices 1 2 3 4 5 6 
#
# 1 103.1317 22.8997 28.7484 -5.3111 6.5939 -10.8556
# 2 22.8997 69.4657 12.9076 -1.8907 0.1673 -10.6898
# 3 28.7484 12.9076 136.7603 -1.4541 0.4140 -8.5245
# 4 -5.3111 -1.8907 -1.4541 36.9505 1.3867 -0.4744
# 5 6.5939 0.1673 0.4140 1.3867 46.7463 -2.0900
# 6 -10.8556 -10.6898 -8.5245 -0.4744 -2.0900 38.3121
#
#
#
# Elastic Compliance Matrix: (Units=1/GPa)
#
#
# Indices 1 2 3 4 5 6 
#
# 1 0.011280 -0.003027 -0.001950 0.001471 -0.001524 0.001853
# 2 -0.003027 0.016066 -0.000658 0.000387 0.000521 0.003511
# 3 -0.001950 -0.000658 0.007847 -0.000002 0.000254 0.001024
# 4 0.001471 0.000387 -0.000002 0.027342 -0.000984 0.000809
# 5 -0.001524 0.000521 0.000254 -0.000984 0.021674 0.000940
# 6 0.001853 0.003511 0.001024 0.000809 0.000940 0.027895
#
#
# Mechanical properties :
#
#
# Convention : Reuss Voigt Hill
#
# Bulk Modulus (GPa) = 41.80334 48.71878 45.26106
# Shear Modulus (GPa) = 38.06644 40.72191 39.39418
#
# Velocity S-wave (km/s) = 4.03023 4.16843 4.09991
# Velocity P-wave (km/s) = 6.28444 6.62992 6.45949
#
# Compressibility (1/GPa) = 0.02392154
#
# Stress axis : x y z
#
# Youngs Moduli (GPa) = 88.65040 62.24473 127.43583
#
# Poissons Ratio (x) = 0.18845 0.24847
# Poissons Ratio (y) = 0.26839 0.08391
# Poissons Ratio (z) = 0.17285 0.04099
#
# Static dielectric constant tensor:
#      x y z
#    x 4.555740 0.060220 0.036940 
#    y 0.060220 4.358070 0.001600 
#    z 0.036940 0.001600 4.282380 
# 
# 
# High freq. dielectric constant tensor:
#      x y z
#    x 1.950540 0.001100 0.000320 
#    y 0.001100 1.930930 -0.003650 
#    z 0.000320 -0.003650 1.940270 
# 
# From -- ./inp_files/218464.got.cif
#   From: 2010.06.25/outbox.cif.g09.slc.cpg/sg2_110_cif.got.tgz:218464.got - 2010.06.27 13:26:56.
