data_PCOD8036183
_publ_section_title
;
Structure prediction by ZEFSAII (Michael W. Deem and Ramdas Pophale) SiO2 
 PCOD8036183
Probable space group: P -1
;
_chemical_formula_sum "Si O2"
_cell_formula_units_Z 16
_cell_length_a 9.843567
_cell_length_b 14.202677
_cell_length_c 8.699214
_cell_angle_alpha 139.296409
_cell_angle_beta 78.535046
_cell_angle_gamma 116.812986
_cell_volume 686.103963
_symmetry_space_group_name_H-M "P -1"
_symmetry_group_IT_number 2
_symmetry_cell_setting 'triclinic'
loop_
_space_group_symop_operation_xyz
x,y,z
-x,-y,-z
loop_
_atom_site_type_symbol
_atom_site_label
_atom_site_fract_x
_atom_site_fract_y
_atom_site_fract_z
Si Si1 0.692333 0.723185 0.522127
Si Si2 0.214657 0.511632 0.941693
Si Si3 0.280012 0.255230 0.100385
Si Si4 0.076054 0.920682 0.104522
Si Si5 0.665548 0.120430 0.188798
Si Si6 0.895670 0.244960 0.806882
Si Si7 0.362192 0.009200 0.634909
Si Si8 0.643764 0.405789 0.650509
O O1 0.662342 0.722295 0.709663
O O2 0.543224 0.712528 0.451255
O O3 0.843752 0.887171 0.630074
O O4 0.698183 0.557305 0.274030
O O5 0.210051 0.661390 0.036204
O O6 0.298364 0.573895 0.162943
O O7 0.043176 0.361591 0.817320
O O8 0.309051 0.422298 0.224686
O O9 0.093771 0.129491 0.990649
O O10 0.381020 0.187549 0.895924
O O11 0.053638 0.797042 0.094802
O O12 0.192648 0.905673 0.937434
O O13 0.652295 0.090948 0.334871
O O14 0.712279 0.312820 0.409041
O O15 0.500000 0.000000 0.000000
O O16 0.797583 0.074978 0.531019
O O17 0.500000 0.000000 0.500000
#
# Coordination Sequence:
#
# PCOD8036183 Si02
#       8
#     2   2   2   2   2   2   2   2
#     4  12  27  45  75 104 151 191 242 312 362 439
#     4  11  26  46  70 107 150 190 248 304 367 433
#     4  12  28  48  73 114 145 195 245 300 379 433
#     4  12  26  47  79 106 149 196 246 304 365 442
#     4  12  25  49  73 111 147 193 247 301 369 432
#     4  11  26  46  70 108 147 196 246 302 365 439
#     4  12  27  46  76 105 149 194 245 303 366 442
#     4  12  26  48  72 108 147 194 245 301 366 447
#
# _framework density 23.320080000000001
#
# number of rings (size 3 to 8) (size 9 to 14) (size 15 to 20)
#    0.000    0.250    5.000    2.625    7.000    1.500 
#    0.000    0.000    0.000    0.000    0.000    0.000 
#    0.000    0.000    0.000    0.000    0.000    0.000 
#
# Total GULP energy -198414.786086 kJ/mol
# GULP energy per Si atom -12400.924130 kJ/mol
# Density = 2.326700 g / cm^3
# Si number density = 23.320080 Si / 1000 Ang^3
#
#
#
# Elastic Constant Matrix: (Units=GPa)
#
#
# Indices 1 2 3 4 5 6 
#
# 1 94.5654 -8.2901 42.6156 -4.7313 1.1213 -0.4424
# 2 -8.2901 54.3359 16.0277 3.7481 -6.1004 -8.3841
# 3 42.6156 16.0277 150.8590 10.5974 -18.6317 -2.7174
# 4 -4.7313 3.7481 10.5974 41.0544 -1.4702 -3.5789
# 5 1.1213 -6.1004 -18.6317 -1.4702 48.1098 7.1447
# 6 -0.4424 -8.3841 -2.7174 -3.5789 7.1447 35.4016
#
#
#
# Elastic Compliance Matrix: (Units=1/GPa)
#
#
# Indices 1 2 3 4 5 6 
#
# 1 0.012943 0.003077 -0.004337 0.002369 -0.001688 0.001138
# 2 0.003077 0.020516 -0.002850 -0.000365 0.000748 0.004491
# 3 -0.004337 -0.002850 0.008705 -0.002456 0.003177 -0.000950
# 4 0.002369 -0.000365 -0.002456 0.025490 -0.000639 0.002461
# 5 -0.001688 0.000748 0.003177 -0.000639 0.022763 -0.004259
# 6 0.001138 0.004491 -0.000950 0.002461 -0.004259 0.030360
#
#
# Mechanical properties :
#
#
# Convention : Reuss Voigt Hill
#
# Bulk Modulus (GPa) = 29.46178 44.49631 36.97905
# Shear Modulus (GPa) = 35.63480 41.54031 38.58756
#
# Velocity S-wave (km/s) = 3.91330 4.22514 4.07220
# Velocity P-wave (km/s) = 5.75149 6.55168 6.16458
#
# Compressibility (1/GPa) = 0.03394228
#
# Stress axis : x y z
#
# Youngs Moduli (GPa) = 77.26215 48.74206 114.88302
#
# Poissons Ratio (x) = -0.14997 0.49830
# Poissons Ratio (y) = -0.23772 0.32741
# Poissons Ratio (z) = 0.33512 0.13891
#
# Static dielectric constant tensor:
#      x y z
#    x 4.501450 -0.108790 -0.066380 
#    y -0.108790 4.091210 0.265260 
#    z -0.066380 0.265260 4.459590 
# 
# 
# High freq. dielectric constant tensor:
#      x y z
#    x 1.937040 -0.011130 -0.000350 
#    y -0.011130 1.915660 0.013380 
#    z -0.000350 0.013380 1.942590 
# 
# From -- ./inp_files/209286.got.cif
#   From: 2010.06.25/outbox.cif.g09.slc.cpg/sg2_105_cif.got.tgz:209286.got - 2010.06.27 13:26:56.
