data_PCOD8036259
_publ_section_title
;
Structure prediction by ZEFSAII (Michael W. Deem and Ramdas Pophale) SiO2 
 PCOD8036259
Probable space group: P -1
;
_chemical_formula_sum "Si O2"
_cell_formula_units_Z 12
_cell_length_a 9.865936
_cell_length_b 17.048779
_cell_length_c 5.322219
_cell_angle_alpha 82.963660
_cell_angle_beta 85.965512
_cell_angle_gamma 143.968298
_cell_volume 500.134234
_symmetry_space_group_name_H-M "P -1"
_symmetry_group_IT_number 2
_symmetry_cell_setting 'triclinic'
loop_
_space_group_symop_operation_xyz
x,y,z
-x,-y,-z
loop_
_atom_site_type_symbol
_atom_site_label
_atom_site_fract_x
_atom_site_fract_y
_atom_site_fract_z
Si Si1 0.491555 0.548142 0.235811
Si Si2 0.720364 0.903053 0.810669
Si Si3 0.058553 0.141898 0.072637
Si Si4 0.175325 0.655167 0.971816
Si Si5 0.245920 0.918654 0.522149
Si Si6 0.971054 0.332413 0.502156
O O1 0.500000 0.500000 0.500000
O O2 0.242038 0.476112 0.314383
O O3 0.500000 0.500000 0.000000
O O4 0.706795 0.714927 0.162795
O O5 0.842432 0.877103 0.730863
O O6 0.732486 0.977880 0.575514
O O7 0.441023 0.752639 0.968047
O O8 0.855608 0.000848 0.996395
O O9 0.933912 0.162063 0.185850
O O10 0.071538 0.647027 0.236036
O O11 0.192180 0.717141 0.693672
O O12 0.000000 0.500000 0.000000
O O13 0.102083 0.795077 0.389677
O O14 0.500000 0.000000 0.500000
#
# Coordination Sequence:
#
# PCOD8036259 Si02
#       6
#     2   2   2   2   2   2
#     4  12  25  46  75 111 155 199 251 314 381 452
#     4  11  26  47  73 107 154 202 255 310 389 451
#     4  11  26  47  72 110 153 203 250 318 380 459
#     4  12  27  50  75 108 151 198 252 315 381 454
#     4  12  24  44  75 108 149 194 253 316 374 451
#     4  12  26  46  78 110 146 197 259 311 377 447
#
# _framework density 23.993556999999999
#
# number of rings (size 3 to 8) (size 9 to 14) (size 15 to 20)
#    0.000    0.333    3.333    5.000    2.333    1.333 
#    3.000    0.000    0.000    0.000    0.000    0.000 
#    0.000    0.000    0.000    0.000    0.000    0.000 
#
# Total GULP energy -148676.428463 kJ/mol
# GULP energy per Si atom -12389.702372 kJ/mol
# Density = 2.393895 g / cm^3
# Si number density = 23.993557 Si / 1000 Ang^3
#
#
#
# Elastic Constant Matrix: (Units=GPa)
#
#
# Indices 1 2 3 4 5 6 
#
# 1 146.2853 58.8512 46.1052 -2.0412 -15.5638 12.6912
# 2 58.8512 182.7377 39.8642 -10.3052 -15.8474 10.6729
# 3 46.1052 39.8642 115.6878 18.7400 -4.2754 -4.3594
# 4 -2.0412 -10.3052 18.7400 42.5522 -6.9201 -4.5219
# 5 -15.5638 -15.8474 -4.2754 -6.9201 48.8427 -1.4015
# 6 12.6912 10.6729 -4.3594 -4.5219 -1.4015 41.3158
#
#
#
# Elastic Compliance Matrix: (Units=1/GPa)
#
#
# Indices 1 2 3 4 5 6 
#
# 1 0.009039 -0.001789 -0.003244 0.001524 0.002163 -0.002417
# 2 -0.001789 0.006870 -0.002060 0.002666 0.001825 -0.001089
# 3 -0.003244 -0.002060 0.011608 -0.005781 -0.001446 0.002072
# 4 0.001524 0.002666 -0.005781 0.027699 0.004810 0.001428
# 5 0.002163 0.001825 -0.001446 0.004810 0.022310 -0.000005
# 6 -0.002417 -0.001089 0.002072 0.001428 -0.000005 0.025602
#
#
# Mechanical properties :
#
#
# Convention : Reuss Voigt Hill
#
# Bulk Modulus (GPa) = 75.01002 81.59466 78.30234
# Shear Modulus (GPa) = 41.06529 46.53483 43.80006
#
# Velocity S-wave (km/s) = 4.14153 4.40872 4.27721
# Velocity P-wave (km/s) = 7.36208 7.74574 7.55634
#
# Compressibility (1/GPa) = 0.01333155
#
# Stress axis : x y z
#
# Youngs Moduli (GPa) = 110.63206 145.56028 86.14948
#
# Poissons Ratio (x) = 0.26037 0.27946
# Poissons Ratio (y) = 0.19789 0.17746
# Poissons Ratio (z) = 0.35888 0.29984
#
# Static dielectric constant tensor:
#      x y z
#    x 5.277170 -0.286980 0.257020 
#    y -0.286980 5.089720 -0.533440 
#    z 0.257020 -0.533440 4.357890 
# 
# 
# High freq. dielectric constant tensor:
#      x y z
#    x 1.970780 0.006480 -0.005410 
#    y 0.006480 1.975700 -0.014480 
#    z -0.005410 -0.014480 1.938340 
# 
# From -- ./inp_files/21371.got.cif
#   From: 2010.06.25/outbox.cif.g09.slc.cpg/sg2_11_cif.got.tgz:21371.got - 2010.06.27 13:26:56.
