data_PCOD8036377
_publ_section_title
;
Structure prediction by ZEFSAII (Michael W. Deem and Ramdas Pophale) SiO2 
 PCOD8036377
Probable space group: P -1
;
_chemical_formula_sum "Si O2"
_cell_formula_units_Z 14
_cell_length_a 8.581942
_cell_length_b 17.779916
_cell_length_c 6.650899
_cell_angle_alpha 113.103185
_cell_angle_beta 54.707337
_cell_angle_gamma 78.334781
_cell_volume 625.319188
_symmetry_space_group_name_H-M "P -1"
_symmetry_group_IT_number 2
_symmetry_cell_setting 'triclinic'
loop_
_space_group_symop_operation_xyz
x,y,z
-x,-y,-z
loop_
_atom_site_type_symbol
_atom_site_label
_atom_site_fract_x
_atom_site_fract_y
_atom_site_fract_z
Si Si1 0.514780 0.447921 0.139937
Si Si2 0.067079 0.139855 0.056243
Si Si3 0.840099 0.101126 0.842110
Si Si4 0.350822 0.767774 0.250134
Si Si5 0.231205 0.243804 0.858237
Si Si6 0.455877 0.955471 0.791807
Si Si7 0.878673 0.451767 0.147809
O O1 0.691138 0.457115 0.149815
O O2 0.263195 0.493731 0.483228
O O3 0.500000 0.500000 0.000000
O O4 0.621455 0.334913 0.893714
O O5 0.887566 0.154649 0.374897
O O6 0.076700 0.237585 0.141550
O O7 0.995091 0.126458 0.875554
O O8 0.320426 0.042214 0.819144
O O9 0.666455 0.190520 0.914930
O O10 0.688206 0.089958 0.101666
O O11 0.000000 0.000000 0.500000
O O12 0.564004 0.754002 0.196701
O O13 0.310940 0.141242 0.574054
O O14 0.083196 0.338035 0.923604
O O15 0.500000 0.000000 0.000000
O O16 0.000000 0.500000 0.000000
#
# Coordination Sequence:
#
# PCOD8036377 Si02
#       7
#     2   2   2   2   2   2   2
#     4  11  26  49  74 103 140 186 237 293 361 420
#     4  12  25  46  67 101 144 183 234 284 340 419
#     4  12  23  43  69  97 141 188 230 282 343 410
#     4  12  26  44  73 102 139 189 230 285 352 412
#     4  12  26  45  70 104 141 181 233 289 345 415
#     4  12  25  43  69 102 142 184 232 284 345 413
#     4  11  27  48  74 106 143 181 239 299 351 425
#
# _framework density 22.388567999999999
#
# number of rings (size 3 to 8) (size 9 to 14) (size 15 to 20)
#    0.000    0.286    2.857    6.000    4.000    5.714 
#    0.000    0.000    0.000    0.000    0.000    0.000 
#    0.000    0.000    0.000    0.000    0.000    0.000 
#
# Total GULP energy -173595.504325 kJ/mol
# GULP energy per Si atom -12399.678880 kJ/mol
# Density = 2.233761 g / cm^3
# Si number density = 22.388568 Si / 1000 Ang^3
#
#
#
# Elastic Constant Matrix: (Units=GPa)
#
#
# Indices 1 2 3 4 5 6 
#
# 1 91.0143 38.3150 38.1362 -2.6929 -11.4262 1.8731
# 2 38.3150 181.4000 34.5543 -0.3782 -11.2434 -5.1988
# 3 38.1362 34.5543 85.2964 -1.1276 -0.9477 -2.5490
# 4 -2.6929 -0.3782 -1.1276 38.3134 5.9765 -7.6327
# 5 -11.4262 -11.2434 -0.9477 5.9765 34.5775 -3.4329
# 6 1.8731 -5.1988 -2.5490 -7.6327 -3.4329 49.3783
#
#
#
# Elastic Compliance Matrix: (Units=1/GPa)
#
#
# Indices 1 2 3 4 5 6 
#
# 1 0.014699 -0.001765 -0.005834 0.000064 0.004038 -0.000754
# 2 -0.001765 0.006332 -0.001741 -0.000209 0.001536 0.000718
# 3 -0.005834 -0.001741 0.015043 0.000490 -0.002092 0.000745
# 4 0.000064 -0.000209 0.000490 0.027594 -0.004410 0.003960
# 5 0.004038 0.001536 -0.002092 -0.004410 0.031600 0.001416
# 6 -0.000754 0.000718 0.000745 0.003960 0.001416 0.021105
#
#
# Mechanical properties :
#
#
# Convention : Reuss Voigt Hill
#
# Bulk Modulus (GPa) = 57.48478 64.41352 60.94915
# Shear Modulus (GPa) = 35.49893 40.90085 38.19989
#
# Velocity S-wave (km/s) = 3.98626 4.27882 4.13513
# Velocity P-wave (km/s) = 6.84972 7.29686 7.07683
#
# Compressibility (1/GPa) = 0.01739591
#
# Stress axis : x y z
#
# Youngs Moduli (GPa) = 68.03219 157.92102 66.47716
#
# Poissons Ratio (x) = 0.27867 0.38782
# Poissons Ratio (y) = 0.12005 0.11571
# Poissons Ratio (z) = 0.39689 0.27487
#
# Static dielectric constant tensor:
#      x y z
#    x 4.076390 0.001490 -0.046070 
#    y 0.001490 4.074170 -0.058110 
#    z -0.046070 -0.058110 4.249040 
# 
# 
# High freq. dielectric constant tensor:
#      x y z
#    x 1.896810 0.007270 -0.007750 
#    y 0.007270 1.903860 -0.011280 
#    z -0.007750 -0.011280 1.885980 
# 
# From -- ./inp_files/47223.got.cif
#   From: 2010.06.25/outbox.cif.g09.slc.cpg/sg2_24_cif.got.tgz:47223.got - 2010.06.27 13:26:56.
