data_PCOD8036859
_publ_section_title
;
Structure prediction by ZEFSAII (Michael W. Deem and Ramdas Pophale) SiO2 
 PCOD8036859
Probable space group: P -1
;
_chemical_formula_sum "Si O2"
_cell_formula_units_Z 16
_cell_length_a 18.567878
_cell_length_b 9.515545
_cell_length_c 11.246704
_cell_angle_alpha 83.071409
_cell_angle_beta 46.274989
_cell_angle_gamma 45.508755
_cell_volume 725.875588
_symmetry_space_group_name_H-M "P -1"
_symmetry_group_IT_number 2
_symmetry_cell_setting 'triclinic'
loop_
_space_group_symop_operation_xyz
x,y,z
-x,-y,-z
loop_
_atom_site_type_symbol
_atom_site_label
_atom_site_fract_x
_atom_site_fract_y
_atom_site_fract_z
Si Si1 0.507107 0.219215 0.847831
Si Si2 0.788642 0.135060 0.494182
Si Si3 0.764952 0.664140 0.541454
Si Si4 0.074546 0.440821 0.052535
Si Si5 0.327051 0.613024 0.644450
Si Si6 0.814788 0.320294 0.636386
Si Si7 0.826935 0.378135 0.989172
Si Si8 0.501602 0.876850 0.608630
O O1 0.660490 0.157543 0.668259
O O2 0.632478 0.922011 0.756183
O O3 0.359243 0.444028 0.096568
O O4 0.389532 0.337243 0.847474
O O5 0.785166 0.170372 0.354082
O O6 0.719518 0.350333 0.631997
O O7 0.023011 0.822249 0.273740
O O8 0.875595 0.403465 0.514267
O O9 0.627962 0.761818 0.589768
O O10 0.923943 0.571176 0.309634
O O11 0.107251 0.568566 0.013111
O O12 0.000000 0.500000 0.000000
O O13 0.279911 0.111937 0.876942
O O14 0.500000 0.500000 0.500000
O O15 0.413172 0.362886 0.525770
O O16 0.180797 0.753511 0.905803
O O17 0.000000 0.000000 0.500000
O O18 0.500000 0.000000 0.500000
#
# Coordination Sequence:
#
# PCOD8036859 Si02
#       8
#     2   2   2   2   2   2   2   2
#     4  12  25  49  76 101 143 193 246 299 359 430
#     4  12  26  47  73 103 146 194 237 299 373 428
#     4  12  25  48  73 108 142 193 245 294 366 430
#     4  12  25  40  74 107 148 187 230 293 362 441
#     4  12  25  42  71 109 147 190 234 291 370 443
#     4  12  28  52  75 105 147 190 252 313 356 424
#     4  12  24  44  70 108 148 184 237 297 358 438
#     4  12  23  43  68 104 149 186 231 288 359 440
#
# _framework density 22.042345999999998
#
# number of rings (size 3 to 8) (size 9 to 14) (size 15 to 20)
#    0.000    0.000    8.750    1.125    1.750    2.000 
#    2.250    1.250    0.000    0.000    0.000    0.000 
#    0.000    0.000    0.000    0.000    0.000    0.000 
#
# Total GULP energy -198373.997013 kJ/mol
# GULP energy per Si atom -12398.374813 kJ/mol
# Density = 2.199218 g / cm^3
# Si number density = 22.042346 Si / 1000 Ang^3
#
#
#
# Elastic Constant Matrix: (Units=GPa)
#
#
# Indices 1 2 3 4 5 6 
#
# 1 91.9468 18.6305 45.2626 -7.6655 -2.1225 22.1301
# 2 18.6305 108.3234 40.8596 -6.3417 1.0839 14.2627
# 3 45.2626 40.8596 149.3943 -3.7254 -1.9419 9.9440
# 4 -7.6655 -6.3417 -3.7254 37.3963 6.3233 -0.1261
# 5 -2.1225 1.0839 -1.9419 6.3233 39.2659 1.7326
# 6 22.1301 14.2627 9.9440 -0.1261 1.7326 36.7871
#
#
#
# Elastic Compliance Matrix: (Units=1/GPa)
#
#
# Indices 1 2 3 4 5 6 
#
# 1 0.014950 0.000119 -0.003959 0.002571 0.000547 -0.007986
# 2 0.000119 0.010801 -0.002723 0.001664 -0.000540 -0.003492
# 3 -0.003959 -0.002723 0.008557 -0.000470 0.000311 0.001108
# 4 0.002571 0.001664 -0.000470 0.028241 -0.004400 -0.001761
# 5 0.000547 -0.000540 0.000311 -0.004400 0.026300 -0.001458
# 6 -0.007986 -0.003492 0.001108 -0.001761 -0.001458 0.033105
#
#
# Mechanical properties :
#
#
# Convention : Reuss Voigt Hill
#
# Bulk Modulus (GPa) = 47.21371 62.13000 54.67185
# Shear Modulus (GPa) = 35.17647 39.01730 37.09688
#
# Velocity S-wave (km/s) = 3.99915 4.21183 4.10687
# Velocity P-wave (km/s) = 6.54143 7.20420 6.88080
#
# Compressibility (1/GPa) = 0.02118029
#
# Stress axis : x y z
#
# Youngs Moduli (GPa) = 66.89036 92.58426 116.86970
#
# Poissons Ratio (x) = -0.01099 0.46270
# Poissons Ratio (y) = -0.00794 0.31825
# Poissons Ratio (z) = 0.26482 0.25212
#
# Static dielectric constant tensor:
#      x y z
#    x 4.112160 0.004400 -0.015230 
#    y 0.004400 4.055730 0.197900 
#    z -0.015230 0.197900 4.425700 
# 
# 
# High freq. dielectric constant tensor:
#      x y z
#    x 1.878240 0.011440 0.000080 
#    y 0.011440 1.864020 0.006370 
#    z 0.000080 0.006370 1.883180 
# 
# From -- ./inp_files/447624.got.cif
#   From: 2010.06.25/outbox.cif.g09.slc.cpg/sg2_224_cif.got.tgz:447624.got - 2010.06.27 13:26:56.
