data_PCOD8036337
_publ_section_title
;
Structure prediction by ZEFSAII (Michael W. Deem and Ramdas Pophale) SiO2 
 PCOD8036337
Probable space group: P -1
;
_chemical_formula_sum "Si O2"
_cell_formula_units_Z 12
_cell_length_a 18.080963
_cell_length_b 5.121336
_cell_length_c 8.811094
_cell_angle_alpha 55.493237
_cell_angle_beta 45.037335
_cell_angle_gamma 59.311193
_cell_volume 467.179015
_symmetry_space_group_name_H-M "P -1"
_symmetry_group_IT_number 2
_symmetry_cell_setting 'triclinic'
loop_
_space_group_symop_operation_xyz
x,y,z
-x,-y,-z
loop_
_atom_site_type_symbol
_atom_site_label
_atom_site_fract_x
_atom_site_fract_y
_atom_site_fract_z
Si Si1 0.403639 0.361709 0.620403
Si Si2 0.090667 0.109363 0.133878
Si Si3 0.853853 0.375677 0.349798
Si Si4 0.464861 0.238650 0.246889
Si Si5 0.787870 0.565065 0.926876
Si Si6 0.270213 0.150797 0.391561
O O1 0.500000 0.500000 0.500000
O O2 0.393617 0.400869 0.439631
O O3 0.430057 0.984036 0.759949
O O4 0.292256 0.531293 0.799047
O O5 0.145172 0.175463 0.191831
O O6 0.964241 0.165408 0.319498
O O7 0.129232 0.747620 0.140602
O O8 0.124783 0.346933 0.883244
O O9 0.789720 0.536787 0.534289
O O10 0.792886 0.142003 0.418876
O O11 0.388794 0.038678 0.328472
O O12 0.500000 0.500000 0.000000
O O13 0.716374 0.733112 0.837360
#
# Coordination Sequence:
#
# PCOD8036337 Si02
#       6
#     2   2   2   2   2   2
#     4  11  28  48  75 109 149 198 246 310 370 440
#     4  11  26  48  74 105 149 194 247 309 367 445
#     4  11  26  48  74 107 145 196 250 303 374 435
#     4  11  28  50  76 109 152 196 251 305 371 446
#     4  12  27  45  74 109 149 193 246 306 372 436
#     4  12  27  45  75 110 146 195 245 308 367 445
#
# _framework density 25.686088000000002
#
# number of rings (size 3 to 8) (size 9 to 14) (size 15 to 20)
#    0.000    0.667    0.000    5.000   16.333    8.000 
#    0.000    0.000    0.000    0.000    0.000    0.000 
#    0.000    0.000    0.000    0.000    0.000    0.000 
#
# Total GULP energy -148876.389714 kJ/mol
# GULP energy per Si atom -12406.365809 kJ/mol
# Density = 2.562763 g / cm^3
# Si number density = 25.686088 Si / 1000 Ang^3
#
#
#
# Elastic Constant Matrix: (Units=GPa)
#
#
# Indices 1 2 3 4 5 6 
#
# 1 164.0932 26.3431 48.8878 8.6818 8.1008 15.8818
# 2 26.3431 103.0702 23.8946 19.0123 6.8281 10.9887
# 3 48.8878 23.8946 105.9947 1.5298 14.5094 1.9363
# 4 8.6818 19.0123 1.5298 36.7132 4.2450 -0.9228
# 5 8.1008 6.8281 14.5094 4.2450 47.2253 -6.1279
# 6 15.8818 10.9887 1.9363 -0.9228 -6.1279 48.0570
#
#
#
# Elastic Compliance Matrix: (Units=1/GPa)
#
#
# Indices 1 2 3 4 5 6 
#
# 1 0.007453 -0.000663 -0.003176 -0.001299 -0.000383 -0.002257
# 2 -0.000663 0.011762 -0.002111 -0.005824 -0.000751 -0.002593
# 3 -0.003176 -0.002111 0.011722 0.001699 -0.002809 0.000734
# 4 -0.001299 -0.005824 0.001699 0.030768 -0.001959 0.002034
# 5 -0.000383 -0.000751 -0.002809 -0.001959 0.022814 0.003283
# 6 -0.002257 -0.002593 0.000734 0.002034 0.003283 0.022576
#
#
# Mechanical properties :
#
#
# Convention : Reuss Voigt Hill
#
# Bulk Modulus (GPa) = 52.53178 63.48989 58.01083
# Shear Modulus (GPa) = 39.89165 44.66795 42.27980
#
# Velocity S-wave (km/s) = 3.94514 4.17465 4.06152
# Velocity P-wave (km/s) = 6.42247 6.92879 6.68043
#
# Compressibility (1/GPa) = 0.01903610
#
# Stress axis : x y z
#
# Youngs Moduli (GPa) = 134.17934 85.02232 85.31248
#
# Poissons Ratio (x) = 0.05637 0.27091
# Poissons Ratio (y) = 0.08895 0.18013
# Poissons Ratio (z) = 0.42609 0.17952
#
# Static dielectric constant tensor:
#      x y z
#    x 5.105500 -0.240100 0.134140 
#    y -0.240100 5.162260 -0.002460 
#    z 0.134140 -0.002460 4.573740 
# 
# 
# High freq. dielectric constant tensor:
#      x y z
#    x 2.046210 -0.003680 0.010600 
#    y -0.003680 2.036620 -0.003020 
#    z 0.010600 -0.003020 2.030560 
# 
# From -- ./inp_files/323244.got.cif
#   From: 2010.06.25/outbox.cif.g09.slc.cpg/sg2_162_cif.got.tgz:323244.got - 2010.06.27 13:26:56.
