data_PCOD8036312
_publ_section_title
;
Structure prediction by ZEFSAII (Michael W. Deem and Ramdas Pophale) SiO2 
 PCOD8036312
Probable space group: P -1
;
_chemical_formula_sum "Si O2"
_cell_formula_units_Z 14
_cell_length_a 11.774383
_cell_length_b 11.903163
_cell_length_c 6.581138
_cell_angle_alpha 114.249280
_cell_angle_beta 71.540291
_cell_angle_gamma 132.369148
_cell_volume 620.242504
_symmetry_space_group_name_H-M "P -1"
_symmetry_group_IT_number 2
_symmetry_cell_setting 'triclinic'
loop_
_space_group_symop_operation_xyz
x,y,z
-x,-y,-z
loop_
_atom_site_type_symbol
_atom_site_label
_atom_site_fract_x
_atom_site_fract_y
_atom_site_fract_z
Si Si1 0.542005 0.726858 0.649671
Si Si2 0.141855 0.813718 0.624758
Si Si3 0.875525 0.028689 0.613954
Si Si4 0.142332 0.611802 0.144036
Si Si5 0.912505 0.693872 0.006548
Si Si6 0.636087 0.155218 0.146322
Si Si7 0.410294 0.456098 0.817029
O O1 0.435131 0.768173 0.655836
O O2 0.457765 0.619769 0.819101
O O3 0.531522 0.614600 0.408912
O O4 0.720342 0.882492 0.707724
O O5 0.180703 0.953135 0.557998
O O6 0.106352 0.667611 0.407801
O O7 0.279156 0.870805 0.747861
O O8 0.990091 0.761443 0.792480
O O9 0.954159 0.193363 0.816413
O O10 0.000000 0.000000 0.500000
O O11 0.177043 0.494257 0.097777
O O12 0.265509 0.755925 0.042049
O O13 0.000000 0.500000 0.000000
O O14 0.770037 0.689053 0.141848
O O15 0.500000 0.000000 0.000000
O O16 0.500000 0.500000 0.000000
#
# Coordination Sequence:
#
# PCOD8036312 Si02
#       7
#     2   2   2   2   2   2   2
#     4  11  26  48  70 103 147 187 232 305 354 420
#     4  12  27  44  79 106 144 195 243 295 371 425
#     4  12  27  49  73 104 149 190 245 296 358 435
#     4  12  24  45  70 108 144 182 240 298 357 429
#     4  12  25  47  72 108 142 188 243 300 354 434
#     4  12  27  47  73 106 151 189 241 301 362 434
#     4  11  27  45  73 105 140 189 242 289 365 425
#
# _framework density 22.571815999999998
#
# number of rings (size 3 to 8) (size 9 to 14) (size 15 to 20)
#    0.000    0.286    5.714    2.143    4.000    5.143 
#    0.000    0.000    0.000    0.000    0.000    0.000 
#    0.000    0.000    0.000    0.000    0.000    0.000 
#
# Total GULP energy -173460.983347 kJ/mol
# GULP energy per Si atom -12390.070239 kJ/mol
# Density = 2.252044 g / cm^3
# Si number density = 22.571816 Si / 1000 Ang^3
#
#
#
# Elastic Constant Matrix: (Units=GPa)
#
#
# Indices 1 2 3 4 5 6 
#
# 1 118.0826 47.7120 48.2084 -11.3163 -0.8084 0.4326
# 2 47.7120 137.8886 52.8407 -8.2626 6.8328 17.2675
# 3 48.2084 52.8407 120.4522 -8.2626 4.3743 6.1531
# 4 -11.3163 -8.2626 -8.2626 26.9352 8.5040 -8.6919
# 5 -0.8084 6.8328 4.3743 8.5040 41.0233 0.3167
# 6 0.4326 17.2675 6.1531 -8.6919 0.3167 45.1733
#
#
#
# Elastic Compliance Matrix: (Units=1/GPa)
#
#
# Indices 1 2 3 4 5 6 
#
# 1 0.011183 -0.002719 -0.003159 0.003462 0.000277 0.002027
# 2 -0.002719 0.009835 -0.002984 0.000361 -0.001423 -0.003248
# 3 -0.003159 -0.002984 0.011015 0.001451 -0.001040 -0.000043
# 4 0.003462 0.000361 0.001451 0.044822 -0.009502 0.008322
# 5 0.000277 -0.001423 -0.001040 -0.009502 0.026710 -0.001333
# 6 0.002027 -0.003248 -0.000043 0.008322 -0.001333 0.024976
#
#
# Mechanical properties :
#
#
# Convention : Reuss Voigt Hill
#
# Bulk Modulus (GPa) = 69.88561 74.88286 72.38424
# Shear Modulus (GPa) = 33.10479 37.80384 35.45431
#
# Velocity S-wave (km/s) = 3.83383 4.09690 3.96755
# Velocity P-wave (km/s) = 7.11522 7.45834 7.28880
#
# Compressibility (1/GPa) = 0.01430910
#
# Stress axis : x y z
#
# Youngs Moduli (GPa) = 89.41899 101.67276 90.78513
#
# Poissons Ratio (x) = 0.27646 0.28681
# Poissons Ratio (y) = 0.24314 0.27091
# Poissons Ratio (z) = 0.28249 0.30340
#
# Static dielectric constant tensor:
#      x y z
#    x 1.739910 0.634340 2.249900 
#    y 0.634340 3.736490 -0.740140 
#    z 2.249900 -0.740140 1.607830 
# 
# 
# High freq. dielectric constant tensor:
#      x y z
#    x 1.893120 0.002070 -0.019000 
#    y 0.002070 1.901370 0.000950 
#    z -0.019000 0.000950 1.899100 
# 
# From -- ./inp_files/69068.got.cif
#   From: 2010.06.25/outbox.cif.g09.slc.cpg/sg2_35_cif.got.tgz:69068.got - 2010.06.27 13:26:56.
