data_PCOD8036731
_publ_section_title
;
Structure prediction by ZEFSAII (Michael W. Deem and Ramdas Pophale) SiO2 
 PCOD8036731
Probable space group: P -1
;
_chemical_formula_sum "Si O2"
_cell_formula_units_Z 16
_cell_length_a 8.603810
_cell_length_b 26.359072
_cell_length_c 26.265681
_cell_angle_alpha 10.525352
_cell_angle_beta 40.585452
_cell_angle_gamma 40.359305
_cell_volume 701.990694
_symmetry_space_group_name_H-M "P -1"
_symmetry_group_IT_number 2
_symmetry_cell_setting 'triclinic'
loop_
_space_group_symop_operation_xyz
x,y,z
-x,-y,-z
loop_
_atom_site_type_symbol
_atom_site_label
_atom_site_fract_x
_atom_site_fract_y
_atom_site_fract_z
Si Si1 0.231197 0.537842 0.936744
Si Si2 0.188257 0.854976 0.055269
Si Si3 0.506652 0.703599 0.438728
Si Si4 0.351916 0.840949 0.233869
Si Si5 0.967084 0.642930 0.217272
Si Si6 0.244866 0.063318 0.475415
Si Si7 0.025440 0.062691 0.633288
Si Si8 0.749197 0.464265 0.844152
O O1 0.470573 0.415901 0.965726
O O2 0.221024 0.864607 0.629228
O O3 0.220200 0.379535 0.149349
O O4 0.000000 0.500000 0.000000
O O5 0.377021 0.615484 0.269812
O O6 0.062101 0.728969 0.163305
O O7 0.344972 0.098496 0.759021
O O8 0.000000 0.000000 0.000000
O O9 0.525324 0.776509 0.302480
O O10 0.228014 0.751891 0.474806
O O11 0.243389 0.557385 0.522640
O O12 0.500000 0.000000 0.000000
O O13 0.126772 0.076867 0.067983
O O14 0.179456 0.502897 0.265657
O O15 0.040711 0.023438 0.607350
O O16 0.500000 0.000000 0.500000
O O17 0.232901 0.240837 0.424255
O O18 0.068476 0.767386 0.942815
#
# Coordination Sequence:
#
# PCOD8036731 Si02
#       8
#     2   2   2   2   2   2   2   2
#     4  12  26  43  69 109 149 187 239 290 351 422
#     4  12  28  48  71 102 147 183 224 296 365 425
#     4  12  25  47  71 105 135 181 239 291 345 420
#     4  12  25  45  73 104 133 178 240 292 338 425
#     4  12  25  46  70 102 139 188 231 283 373 418
#     4  12  23  44  71 104 141 197 240 283 351 419
#     4  12  24  42  76 102 140 183 244 300 341 407
#     4  12  22  44  71 101 143 186 229 305 351 408
#
# _framework density 22.792323
#
# number of rings (size 3 to 8) (size 9 to 14) (size 15 to 20)
#    0.000    0.000    5.000    5.250    0.000    4.000 
#    0.000    0.000    0.000    0.000    0.000    0.000 
#    0.000    0.000    0.000    0.000    0.000    0.000 
#
# Total GULP energy -198402.178563 kJ/mol
# GULP energy per Si atom -12400.136160 kJ/mol
# Density = 2.274045 g / cm^3
# Si number density = 22.792323 Si / 1000 Ang^3
#
#
#
# Elastic Constant Matrix: (Units=GPa)
#
#
# Indices 1 2 3 4 5 6 
#
# 1 97.7198 44.8544 22.7613 0.3399 -22.6060 -0.0786
# 2 44.8544 115.9451 16.6660 4.8787 0.0827 5.3359
# 3 22.7613 16.6660 101.3485 -4.7752 -13.4343 0.0279
# 4 0.3399 4.8787 -4.7752 38.7104 -2.1198 2.7708
# 5 -22.6060 0.0827 -13.4343 -2.1198 41.6853 -0.3427
# 6 -0.0786 5.3359 0.0279 2.7708 -0.3427 37.7581
#
#
#
# Elastic Compliance Matrix: (Units=1/GPa)
#
#
# Indices 1 2 3 4 5 6 
#
# 1 0.014930 -0.005657 -0.001364 0.000776 0.007715 0.000845
# 2 -0.005657 0.011109 -0.001099 -0.001572 -0.003536 -0.001498
# 3 -0.001364 -0.001099 0.010806 0.001635 0.002829 0.000050
# 4 0.000776 -0.001572 0.001635 0.026472 0.002283 -0.001699
# 5 0.007715 -0.003536 0.002829 0.002283 0.029213 0.000611
# 6 0.000845 -0.001498 0.000050 -0.001699 0.000611 0.026828
#
#
# Mechanical properties :
#
#
# Convention : Reuss Voigt Hill
#
# Bulk Modulus (GPa) = 48.52989 53.73077 51.13033
# Shear Modulus (GPa) = 35.09618 39.01287 37.05452
#
# Velocity S-wave (km/s) = 3.92832 4.14172 4.03643
# Velocity P-wave (km/s) = 6.47410 6.81887 6.64872
#
# Compressibility (1/GPa) = 0.02060586
#
# Stress axis : x y z
#
# Youngs Moduli (GPa) = 66.97807 90.01944 92.54207
#
# Poissons Ratio (x) = 0.50923 0.12622
# Poissons Ratio (y) = 0.37889 0.10168
# Poissons Ratio (z) = 0.09135 0.09891
#
# Static dielectric constant tensor:
#      x y z
#    x 4.194920 0.088990 -0.154340 
#    y 0.088990 4.624000 -0.389450 
#    z -0.154340 -0.389450 4.407700 
# 
# 
# High freq. dielectric constant tensor:
#      x y z
#    x 1.888020 -0.002660 -0.003380 
#    y -0.002660 1.910030 -0.004550 
#    z -0.003380 -0.004550 1.919550 
# 
# From -- ./inp_files/617658.got.cif
#   From: 2010.06.25/outbox.cif.g09.slc.cpg/sg2_309_cif.got.tgz:617658.got - 2010.06.27 13:26:56.
