data_PCOD8036471
_publ_section_title
;
Structure prediction by ZEFSAII (Michael W. Deem and Ramdas Pophale) SiO2 
 PCOD8036471
Probable space group: P -1
;
_chemical_formula_sum "Si O2"
_cell_formula_units_Z 14
_cell_length_a 10.838526
_cell_length_b 9.484659
_cell_length_c 15.738255
_cell_angle_alpha 104.915018
_cell_angle_beta 157.375544
_cell_angle_gamma 77.063210
_cell_volume 601.006631
_symmetry_space_group_name_H-M "P -1"
_symmetry_group_IT_number 2
_symmetry_cell_setting 'triclinic'
loop_
_space_group_symop_operation_xyz
x,y,z
-x,-y,-z
loop_
_atom_site_type_symbol
_atom_site_label
_atom_site_fract_x
_atom_site_fract_y
_atom_site_fract_z
Si Si1 0.221069 0.632139 0.632339
Si Si2 0.788187 0.902028 0.409424
Si Si3 0.832512 0.113268 0.091936
Si Si4 0.421262 0.281470 0.439349
Si Si5 0.994133 0.117216 0.709445
Si Si6 0.658302 0.530750 0.743800
Si Si7 0.502083 0.662558 0.988137
O O1 0.410065 0.611246 0.660982
O O2 0.000000 0.500000 0.500000
O O3 0.951719 0.749783 0.482500
O O4 0.494290 0.658054 0.880735
O O5 0.800788 0.981517 0.521217
O O6 0.417363 0.890169 0.144862
O O7 0.000000 0.000000 0.500000
O O8 0.190494 0.139399 0.287624
O O9 0.796090 0.258422 0.148579
O O10 0.786371 0.962468 0.092642
O O11 0.766180 0.224720 0.628362
O O12 0.474165 0.382564 0.572099
O O13 0.273402 0.368786 0.279633
O O14 0.194829 0.221700 0.785572
O O15 0.000000 0.500000 0.000000
O O16 0.500000 0.500000 0.000000
#
# Coordination Sequence:
#
# PCOD8036471 Si02
#       7
#     2   2   2   2   2   2   2
#     4  12  26  45  75 111 143 190 251 304 362 436
#     4  12  25  45  74 107 146 188 244 309 367 431
#     4  12  26  47  76 108 150 195 246 302 373 444
#     4  11  28  47  74 107 151 202 245 302 373 445
#     4  12  26  50  71 110 150 192 248 307 370 440
#     4  11  27  49  73 107 156 194 248 307 368 438
#     4  12  26  45  78 109 147 193 248 311 371 434
#
# _framework density 23.294250999999999
#
# number of rings (size 3 to 8) (size 9 to 14) (size 15 to 20)
#    0.000    0.286    2.857    5.143   10.000    1.714 
#    0.000    0.000    0.000    0.000    0.000    0.000 
#    0.000    0.000    0.000    0.000    0.000    0.000 
#
# Total GULP energy -173521.389814 kJ/mol
# GULP energy per Si atom -12394.384987 kJ/mol
# Density = 2.324123 g / cm^3
# Si number density = 23.294251 Si / 1000 Ang^3
#
#
#
# Elastic Constant Matrix: (Units=GPa)
#
#
# Indices 1 2 3 4 5 6 
#
# 1 76.1180 25.1930 36.7021 5.9841 -15.3269 -2.7267
# 2 25.1930 152.1825 47.8975 -5.7604 -6.4420 16.0224
# 3 36.7021 47.8975 124.6142 0.8996 -14.2839 5.9928
# 4 5.9841 -5.7604 0.8996 40.0926 6.9211 2.6442
# 5 -15.3269 -6.4420 -14.2839 6.9211 41.1686 8.3173
# 6 -2.7267 16.0224 5.9928 2.6442 8.3173 46.9025
#
#
#
# Elastic Compliance Matrix: (Units=1/GPa)
#
#
# Indices 1 2 3 4 5 6 
#
# 1 0.016864 -0.001665 -0.003787 -0.003630 0.005043 0.001344
# 2 -0.001665 0.007953 -0.002450 0.001613 0.000028 -0.002597
# 3 -0.003787 -0.002450 0.010372 -0.000307 0.002071 -0.001058
# 4 -0.003630 0.001613 -0.000307 0.026746 -0.005447 -0.001265
# 5 0.005043 0.000028 0.002071 -0.005447 0.028771 -0.004776
# 6 0.001344 -0.002597 -0.001058 -0.001265 -0.004776 0.023339
#
#
# Mechanical properties :
#
#
# Convention : Reuss Voigt Hill
#
# Bulk Modulus (GPa) = 51.58736 63.61109 57.59922
# Shear Modulus (GPa) = 36.68029 41.84088 39.26058
#
# Velocity S-wave (km/s) = 3.97249 4.24274 4.10984
# Velocity P-wave (km/s) = 6.57533 7.16715 6.87761
#
# Compressibility (1/GPa) = 0.01938459
#
# Stress axis : x y z
#
# Youngs Moduli (GPa) = 59.29941 125.73097 96.40919
#
# Poissons Ratio (x) = 0.20936 0.36512
# Poissons Ratio (y) = 0.09874 0.23622
# Poissons Ratio (z) = 0.22458 0.30806
#
# Static dielectric constant tensor:
#      x y z
#    x 4.042760 0.346010 0.167770 
#    y 0.346010 3.618780 -0.623120 
#    z 0.167770 -0.623120 3.501870 
# 
# 
# High freq. dielectric constant tensor:
#      x y z
#    x 1.923260 -0.002530 -0.007190 
#    y -0.002530 1.939420 0.002330 
#    z -0.007190 0.002330 1.926520 
# 
# From -- ./inp_files/566833.got.cif
#   From: 2010.06.25/outbox.cif.g09.slc.cpg/sg2_284_cif.got.tgz:566833.got - 2010.06.27 13:26:56.
