data_PCOD8036236
_publ_section_title
;
Structure prediction by ZEFSAII (Michael W. Deem and Ramdas Pophale) SiO2 
 PCOD8036236
Probable space group: P -1
;
_chemical_formula_sum "Si O2"
_cell_formula_units_Z 14
_cell_length_a 17.410610
_cell_length_b 12.269077
_cell_length_c 5.429704
_cell_angle_alpha 84.403911
_cell_angle_beta 92.056652
_cell_angle_gamma 148.912167
_cell_volume 593.471497
_symmetry_space_group_name_H-M "P -1"
_symmetry_group_IT_number 2
_symmetry_cell_setting 'triclinic'
loop_
_space_group_symop_operation_xyz
x,y,z
-x,-y,-z
loop_
_atom_site_type_symbol
_atom_site_label
_atom_site_fract_x
_atom_site_fract_y
_atom_site_fract_z
Si Si1 0.664690 0.941339 0.791824
Si Si2 0.618467 0.445238 0.424330
Si Si3 0.835068 0.765256 0.966432
Si Si4 0.813583 0.923086 0.542392
Si Si5 0.567086 0.656340 0.198874
Si Si6 0.088284 0.581334 0.242432
Si Si7 0.864147 0.615620 0.680255
O O1 0.524583 0.796855 0.633962
O O2 0.765486 0.967373 0.689342
O O3 0.758418 0.164797 0.797354
O O4 0.599007 0.817847 0.068801
O O5 0.556302 0.473909 0.571866
O O6 0.719467 0.474214 0.541642
O O7 0.709122 0.624802 0.189756
O O8 0.785287 0.774269 0.718332
O O9 0.841131 0.642825 0.937515
O O10 0.000000 0.000000 0.000000
O O11 0.726427 0.811314 0.296456
O O12 0.989561 0.151811 0.473066
O O13 0.500000 0.500000 0.000000
O O14 0.128577 0.504007 0.262231
O O15 0.000000 0.500000 0.500000
O O16 0.000000 0.500000 0.000000
#
# Coordination Sequence:
#
# PCOD8036236 Si02
#       7
#     2   2   2   2   2   2   2
#     4  11  27  48  78 113 158 204 263 326 396 464
#     4  11  28  50  73 118 160 205 260 323 404 463
#     4  12  28  45  77 118 164 201 257 329 399 468
#     4  11  26  46  78 114 157 210 257 321 397 477
#     4  11  28  48  76 113 164 212 260 317 396 482
#     4  12  29  55  85 117 155 206 278 334 392 481
#     4  12  27  47  81 115 154 206 264 325 399 470
#
# _framework density 23.590012999999999
#
# number of rings (size 3 to 8) (size 9 to 14) (size 15 to 20)
#    0.000    0.571    2.857    2.143   14.000    3.429 
#    0.000    2.857    0.000    0.000    0.000    0.000 
#    0.000    0.000    0.000    0.000    0.000    0.000 
#
# Total GULP energy -173536.669986 kJ/mol
# GULP energy per Si atom -12395.476428 kJ/mol
# Density = 2.353632 g / cm^3
# Si number density = 23.590013 Si / 1000 Ang^3
#
#
#
# Elastic Constant Matrix: (Units=GPa)
#
#
# Indices 1 2 3 4 5 6 
#
# 1 172.1031 76.0608 60.1499 13.6722 11.5942 -10.5093
# 2 76.0608 189.6543 65.4547 12.8933 3.2701 -0.5009
# 3 60.1499 65.4547 119.3374 15.8133 -2.6131 1.2407
# 4 13.6722 12.8933 15.8133 45.1428 10.9580 7.6818
# 5 11.5942 3.2701 -2.6131 10.9580 45.9530 -0.4818
# 6 -10.5093 -0.5009 1.2407 7.6818 -0.4818 59.4546
#
#
#
# Elastic Compliance Matrix: (Units=1/GPa)
#
#
# Indices 1 2 3 4 5 6 
#
# 1 0.008025 -0.002162 -0.002833 -0.000627 -0.001866 0.001525
# 2 -0.002162 0.007119 -0.002765 -0.000365 -0.000034 -0.000218
# 3 -0.002833 -0.002765 0.011771 -0.002968 0.002285 -0.000368
# 4 -0.000627 -0.000365 -0.002968 0.025548 -0.006113 -0.003403
# 5 -0.001866 -0.000034 0.002285 -0.006113 0.023829 0.000605
# 6 0.001525 -0.000218 -0.000368 -0.003403 0.000605 0.017540
#
#
# Mechanical properties :
#
#
# Convention : Reuss Voigt Hill
#
# Bulk Modulus (GPa) = 87.75386 98.26954 93.01170
# Shear Modulus (GPa) = 44.18982 48.73870 46.46426
#
# Velocity S-wave (km/s) = 4.33279 4.55034 4.44290
# Velocity P-wave (km/s) = 7.89374 8.32797 8.11376
#
# Compressibility (1/GPa) = 0.01139551
#
# Stress axis : x y z
#
# Youngs Moduli (GPa) = 124.61775 140.47201 84.95455
#
# Poissons Ratio (x) = 0.30367 0.24064
# Poissons Ratio (y) = 0.26940 0.23491
# Poissons Ratio (z) = 0.35298 0.38842
#
# Static dielectric constant tensor:
#      x y z
#    x 4.474800 0.281110 0.089160 
#    y 0.281110 4.468980 0.029330 
#    z 0.089160 0.029330 4.991730 
# 
# 
# High freq. dielectric constant tensor:
#      x y z
#    x 1.942520 0.022580 -0.003010 
#    y 0.022580 1.947740 0.010270 
#    z -0.003010 0.010270 1.949270 
# 
# From -- ./inp_files/90604.got.cif
#   From: 2010.06.25/outbox.cif.g09.slc.cpg/sg2_46_cif.got.tgz:90604.got - 2010.06.27 13:26:56.
