data_PCOD8036133
_publ_section_title
;
Structure prediction by ZEFSAII (Michael W. Deem and Ramdas Pophale) SiO2 
 PCOD8036133
Probable space group: P -1
;
_chemical_formula_sum "Si O2"
_cell_formula_units_Z 16
_cell_length_a 14.404080
_cell_length_b 8.527844
_cell_length_c 12.051110
_cell_angle_alpha 50.425543
_cell_angle_beta 64.436226
_cell_angle_gamma 103.954677
_cell_volume 689.854990
_symmetry_space_group_name_H-M "P -1"
_symmetry_group_IT_number 2
_symmetry_cell_setting 'triclinic'
loop_
_space_group_symop_operation_xyz
x,y,z
-x,-y,-z
loop_
_atom_site_type_symbol
_atom_site_label
_atom_site_fract_x
_atom_site_fract_y
_atom_site_fract_z
Si Si1 0.713118 0.272406 0.870983
Si Si2 0.534602 0.788049 0.999240
Si Si3 0.964551 0.242054 0.563454
Si Si4 0.762031 0.108009 0.555074
Si Si5 0.780453 0.191678 0.095715
Si Si6 0.573910 0.765111 0.593602
Si Si7 0.234143 0.418162 0.956177
Si Si8 0.062179 0.297478 0.883519
O O1 0.596048 0.274437 0.966570
O O2 0.871616 0.620972 0.603957
O O3 0.727834 0.117762 0.027010
O O4 0.657744 0.100323 0.860718
O O5 0.468305 0.532045 0.236661
O O6 0.622323 0.827824 0.830230
O O7 0.906821 0.195458 0.487928
O O8 0.000000 0.500000 0.500000
O O9 0.844227 0.915894 0.831884
O O10 0.821644 0.429368 0.388592
O O11 0.713545 0.006628 0.498667
O O12 0.640787 0.904573 0.373892
O O13 0.811548 0.476170 0.978399
O O14 0.927413 0.259767 0.003593
O O15 0.419893 0.671408 0.737807
O O16 0.168920 0.405755 0.882167
O O17 0.000000 0.000000 0.000000
#
# Coordination Sequence:
#
# PCOD8036133 Si02
#       8
#     2   2   2   2   2   2   2   2
#     4  11  26  45  71 107 145 190 245 306 367 433
#     4  11  26  45  73 105 146 193 243 305 365 437
#     4  12  24  46  76 105 144 192 249 303 362 433
#     4  12  24  47  75 102 147 187 250 300 361 443
#     4  12  28  48  71 110 152 189 251 298 369 447
#     4  12  27  47  72 109 149 197 242 300 376 440
#     4  12  27  48  75 107 151 199 244 304 367 438
#     4  12  29  47  76 108 148 198 247 306 374 435
#
# _framework density 23.193280999999999
#
# number of rings (size 3 to 8) (size 9 to 14) (size 15 to 20)
#    0.000    0.250    5.000    2.625    7.000    2.000 
#    0.000    0.000    0.000    0.000    0.000    0.000 
#    0.000    0.000    0.000    0.000    0.000    0.000 
#
# Total GULP energy -198243.204300 kJ/mol
# GULP energy per Si atom -12390.200269 kJ/mol
# Density = 2.314049 g / cm^3
# Si number density = 23.193281 Si / 1000 Ang^3
#
#
#
# Elastic Constant Matrix: (Units=GPa)
#
#
# Indices 1 2 3 4 5 6 
#
# 1 150.5383 36.2271 40.8675 -9.2279 -6.7344 25.1812
# 2 36.2271 50.7401 25.9876 -1.6098 -16.2776 -2.2964
# 3 40.8675 25.9876 142.0656 -6.8284 1.6368 -0.2520
# 4 -9.2279 -1.6098 -6.8284 31.7781 9.7090 13.1483
# 5 -6.7344 -16.2776 1.6368 9.7090 29.2483 -16.7234
# 6 25.1812 -2.2964 -0.2520 13.1483 -16.7234 31.2742
#
#
#
# Elastic Compliance Matrix: (Units=1/GPa)
#
#
# Indices 1 2 3 4 5 6 
#
# 1 -0.003035 0.018592 -0.004361 -0.029561 0.041726 0.038514
# 2 0.018592 -0.020430 0.002077 0.061828 -0.074900 -0.082499
# 3 -0.004361 0.002077 0.007535 -0.006367 0.007928 0.010641
# 4 -0.029561 0.061828 -0.006367 -0.052440 0.106803 0.107448
# 5 0.041726 -0.074900 0.007928 0.106803 -0.117790 -0.146921
# 6 0.038514 -0.082499 0.010641 0.107448 -0.146921 -0.128745
#
#
# Mechanical properties :
#
#
# Convention : Reuss Voigt Hill
#
# Bulk Modulus (GPa) = 59.93067 61.05651 60.49359
# Shear Modulus (GPa) = -14.62162 34.47756 9.92797
#
# Velocity S-wave (km/s) = -2.51355 3.85974 2.07119
# Velocity P-wave (km/s) = 4.17993 6.80042 5.64436
#
# Compressibility (1/GPa) = 0.01668595
#
# Stress axis : x y z
#
# Youngs Moduli (GPa) = -329.46725 -48.94722 132.71365
#
# Poissons Ratio (x) = 0.91002 0.57878
# Poissons Ratio (y) = 6.12539 -0.27570
# Poissons Ratio (z) = -1.43684 0.10168
#
# Static dielectric constant tensor:
#      x y z
#    x 5.419450 -8.513930 4.743450 
#    y -8.513930 99.082340 -52.446450 
#    z 4.743450 -52.446450 33.282380 
# 
# 
# High freq. dielectric constant tensor:
#      x y z
#    x 1.939470 0.020180 -0.001430 
#    y 0.020180 1.900830 -0.006190 
#    z -0.001430 -0.006190 1.932880 
# 
# From -- ./inp_files/187481.got.cif
#   From: 2010.06.25/outbox.cif.g09.slc.cpg/sg2_94_cif.got.tgz:187481.got - 2010.06.27 13:26:56.
