data_PCOD8036646
_publ_section_title
;
Structure prediction by ZEFSAII (Michael W. Deem and Ramdas Pophale) SiO2 
 PCOD8036646
Probable space group: P -1
;
_chemical_formula_sum "Si O2"
_cell_formula_units_Z 16
_cell_length_a 24.707541
_cell_length_b 14.510929
_cell_length_c 17.232874
_cell_angle_alpha 156.999542
_cell_angle_beta 159.322991
_cell_angle_gamma 21.342953
_cell_volume 733.814120
_symmetry_space_group_name_H-M "P -1"
_symmetry_group_IT_number 2
_symmetry_cell_setting 'triclinic'
loop_
_space_group_symop_operation_xyz
x,y,z
-x,-y,-z
loop_
_atom_site_type_symbol
_atom_site_label
_atom_site_fract_x
_atom_site_fract_y
_atom_site_fract_z
Si Si1 0.204057 0.877735 0.454253
Si Si2 0.965407 0.477696 0.648021
Si Si3 0.831547 0.222091 0.844650
Si Si4 0.823987 0.495024 0.770352
Si Si5 0.565947 0.085511 0.939363
Si Si6 0.170402 0.729510 0.554380
Si Si7 0.495203 0.243836 0.138465
Si Si8 0.166833 0.294701 0.511917
O O1 0.233736 0.827562 0.363979
O O2 0.089617 0.763338 0.253082
O O3 0.387499 0.673524 0.587496
O O4 0.137247 0.192066 0.629708
O O5 0.880037 0.425863 0.569085
O O6 0.835719 0.580680 0.479342
O O7 0.007588 0.720736 0.911028
O O8 0.694290 0.485098 0.913500
O O9 0.863931 0.963760 0.739413
O O10 0.747192 0.462940 0.559896
O O11 0.000000 0.500000 0.000000
O O12 0.661843 0.768163 0.801161
O O13 0.681989 0.216823 0.164088
O O14 0.584959 0.114883 0.078207
O O15 0.357331 0.231377 0.751112
O O16 0.000000 0.000000 0.500000
O O17 0.500000 0.000000 0.000000
O O18 0.000000 0.500000 0.500000
#
# Coordination Sequence:
#
# PCOD8036646 Si02
#       8
#     2   2   2   2   2   2   2   2
#     4  12  22  39  66 106 139 176 233 291 372 427
#     4  12  25  46  70 102 140 193 244 292 354 428
#     4  12  25  44  72 102 143 191 238 302 369 420
#     4  12  23  41  71 106 145 181 232 296 368 430
#     4  12  26  46  72 104 151 190 239 300 361 428
#     4  12  24  46  73 107 145 186 235 305 369 431
#     4  12  22  40  69 105 145 173 231 301 366 436
#     4  12  27  51  72 101 146 198 252 294 345 428
#
# _framework density 21.803885000000001
#
# number of rings (size 3 to 8) (size 9 to 14) (size 15 to 20)
#    0.000    0.000    6.250    4.500    0.000    0.500 
#    0.000    0.625    0.000    0.000    0.000    0.000 
#    0.000    0.000    0.000    0.000    0.000    0.000 
#
# Total GULP energy -198220.203273 kJ/mol
# GULP energy per Si atom -12388.762705 kJ/mol
# Density = 2.175426 g / cm^3
# Si number density = 21.803885 Si / 1000 Ang^3
#
#
#
# Elastic Constant Matrix: (Units=GPa)
#
#
# Indices 1 2 3 4 5 6 
#
# 1 118.0002 38.3487 24.8825 12.8942 -4.3908 10.0963
# 2 38.3487 102.4447 43.8254 8.5228 8.8557 -1.6202
# 3 24.8825 43.8254 121.2129 3.2710 10.8631 -2.3602
# 4 12.8942 8.5228 3.2710 41.9112 -0.8297 0.5158
# 5 -4.3908 8.8557 10.8631 -0.8297 43.9297 7.8194
# 6 10.0963 -1.6202 -2.3602 0.5158 7.8194 39.6428
#
#
#
# Elastic Compliance Matrix: (Units=1/GPa)
#
#
# Indices 1 2 3 4 5 6 
#
# 1 0.010498 -0.003538 -0.001111 -0.002331 0.002592 -0.003365
# 2 -0.003538 0.013011 -0.003694 -0.001337 -0.002391 0.001702
# 3 -0.001111 -0.003694 0.010011 0.000257 -0.002038 0.001126
# 4 -0.002331 -0.001337 0.000257 0.024835 0.000415 0.000149
# 5 0.002592 -0.002391 -0.002038 0.000415 0.025054 -0.005826
# 6 -0.003365 0.001702 0.001126 0.000149 -0.005826 0.027366
#
#
# Mechanical properties :
#
#
# Convention : Reuss Voigt Hill
#
# Bulk Modulus (GPa) = 59.40405 61.75231 60.57818
# Shear Modulus (GPa) = 37.57352 40.73684 39.15518
#
# Velocity S-wave (km/s) = 4.15571 4.32711 4.24227
# Velocity P-wave (km/s) = 7.09439 7.30399 7.19996
#
# Compressibility (1/GPa) = 0.01683387
#
# Stress axis : x y z
#
# Youngs Moduli (GPa) = 95.25965 76.85771 99.88694
#
# Poissons Ratio (x) = 0.27191 0.11095
# Poissons Ratio (y) = 0.33701 0.36903
# Poissons Ratio (z) = 0.10581 0.28395
#
# Static dielectric constant tensor:
#      x y z
#    x 3.965400 0.331980 0.007970 
#    y 0.331980 3.571120 0.417390 
#    z 0.007970 0.417390 4.490580 
# 
# 
# High freq. dielectric constant tensor:
#      x y z
#    x 1.866440 0.000970 0.005960 
#    y 0.000970 1.836040 0.013950 
#    z 0.005960 0.013950 1.880910 
# 
# From -- ./inp_files/579910.got.cif
#   From: 2010.06.25/outbox.cif.g09.slc.cpg/sg2_290_cif.got.tgz:579910.got - 2010.06.27 13:26:56.
