data_PCOD8036673
_publ_section_title
;
Structure prediction by ZEFSAII (Michael W. Deem and Ramdas Pophale) SiO2 
 PCOD8036673
Probable space group: P -1
;
_chemical_formula_sum "Si O2"
_cell_formula_units_Z 14
_cell_length_a 21.574733
_cell_length_b 8.046298
_cell_length_c 5.052433
_cell_angle_alpha 123.103324
_cell_angle_beta 113.817036
_cell_angle_gamma 42.232238
_cell_volume 493.834785
_symmetry_space_group_name_H-M "P -1"
_symmetry_group_IT_number 2
_symmetry_cell_setting 'triclinic'
loop_
_space_group_symop_operation_xyz
x,y,z
-x,-y,-z
loop_
_atom_site_type_symbol
_atom_site_label
_atom_site_fract_x
_atom_site_fract_y
_atom_site_fract_z
Si Si1 0.631086 0.393451 0.722924
Si Si2 0.939549 0.344083 0.253429
Si Si3 0.959352 0.797527 0.192658
Si Si4 0.479668 0.716077 0.352112
Si Si5 0.244856 0.384682 0.031253
Si Si6 0.653076 0.690386 0.374984
Si Si7 0.189421 0.074425 0.632597
O O1 0.569752 0.618335 0.581240
O O2 0.595304 0.238680 0.540422
O O3 0.740129 0.188795 0.660271
O O4 0.617900 0.536464 0.108169
O O5 0.897158 0.656598 0.449135
O O6 0.976777 0.210510 0.490453
O O7 0.857527 0.359563 0.031945
O O8 0.025217 0.140126 0.017951
O O9 0.852380 0.989978 0.270075
O O10 0.000000 0.500000 0.000000
O O11 0.430041 0.006907 0.394332
O O12 0.500000 0.500000 0.000000
O O13 0.267548 0.469368 0.404420
O O14 0.315600 0.287315 0.834771
O O15 0.246499 0.147440 0.919111
#
# Coordination Sequence:
#
# PCOD8036673 Si02
#       7
#     2   2   2   2   2   2   2
#     4  11  25  44  66 100 128 171 218 269 326 389
#     4   9  19  33  60  94 125 170 218 261 315 379
#     4  10  17  31  58  99 121 166 224 260 313 379
#     4  11  25  45  71  95 130 170 218 269 326 392
#     4  10  23  39  67  92 135 172 216 263 324 379
#     4  12  25  45  66  98 135 173 212 268 327 386
#     4   9  19  37  63  93 130 167 221 264 319 382
#
# _framework density 28.349563
#
# number of rings (size 3 to 8) (size 9 to 14) (size 15 to 20)
#    0.857    0.857    1.429    3.857    4.000    0.571 
#    5.143    0.000    0.000    5.143    0.000    0.000 
#    0.000    0.000    0.000    0.000    0.000    0.000 
#
# Total GULP energy -173507.130104 kJ/mol
# GULP energy per Si atom -12393.366436 kJ/mol
# Density = 2.828504 g / cm^3
# Si number density = 28.349563 Si / 1000 Ang^3
#
#
#
# Elastic Constant Matrix: (Units=GPa)
#
#
# Indices 1 2 3 4 5 6 
#
# 1 76.9166 25.1014 22.3317 -16.4233 2.5545 -29.1967
# 2 25.1014 92.6722 61.1487 4.2978 -4.3144 -10.9632
# 3 22.3317 61.1487 172.9933 -24.2128 4.9425 -12.7180
# 4 -16.4233 4.2978 -24.2128 60.7858 -2.1232 -5.1683
# 5 2.5545 -4.3144 4.9425 -2.1232 44.2507 -5.4164
# 6 -29.1967 -10.9632 -12.7180 -5.1683 -5.4164 28.1372
#
#
#
# Elastic Compliance Matrix: (Units=1/GPa)
#
#
# Indices 1 2 3 4 5 6 
#
# 1 0.028348 -0.006036 0.002305 0.011670 0.001823 0.030600
# 2 -0.006036 0.016387 -0.006065 -0.005411 0.001968 -0.003234
# 3 0.002305 -0.006065 0.008678 0.004875 -0.000887 0.004676
# 4 0.011670 -0.005411 0.004875 0.023405 0.001431 0.016778
# 5 0.001823 0.001968 -0.000887 0.001431 0.023720 0.007087
# 6 0.030600 -0.003234 0.004676 0.016778 0.007087 0.072592
#
#
# Mechanical properties :
#
#
# Convention : Reuss Voigt Hill
#
# Bulk Modulus (GPa) = 29.56587 62.19396 45.87992
# Shear Modulus (GPa) = 24.51022 42.23476 33.37249
#
# Velocity S-wave (km/s) = 2.94355 3.86396 3.43473
# Velocity P-wave (km/s) = 4.69088 6.47246 5.65231
#
# Compressibility (1/GPa) = 0.03382278
#
# Stress axis : x y z
#
# Youngs Moduli (GPa) = 35.27547 61.02301 115.23159
#
# Poissons Ratio (x) = 0.36831 -0.26559
# Poissons Ratio (y) = 0.21291 0.69885
# Poissons Ratio (z) = -0.08130 0.37009
#
# Static dielectric constant tensor:
#      x y z
#    x 6.260740 -0.258240 0.013830 
#    y -0.258240 4.721750 0.062050 
#    z 0.013830 0.062050 5.106450 
# 
# 
# High freq. dielectric constant tensor:
#      x y z
#    x 2.164920 -0.013150 0.006130 
#    y -0.013150 2.126260 0.008390 
#    z 0.006130 0.008390 2.146580 
# 
# From -- ./inp_files/128457.got.cif
#   From: 2010.06.25/outbox.cif.g09.slc.cpg/sg2_65_cif.got.tgz:128457.got - 2010.06.27 13:26:56.
