data_PCOD8036408
_publ_section_title
;
Structure prediction by ZEFSAII (Michael W. Deem and Ramdas Pophale) SiO2 
 PCOD8036408
Probable space group: P -1
;
_chemical_formula_sum "Si O2"
_cell_formula_units_Z 14
_cell_length_a 14.742781
_cell_length_b 8.639826
_cell_length_c 7.792819
_cell_angle_alpha 77.301121
_cell_angle_beta 144.141434
_cell_angle_gamma 108.065610
_cell_volume 551.908084
_symmetry_space_group_name_H-M "P -1"
_symmetry_group_IT_number 2
_symmetry_cell_setting 'triclinic'
loop_
_space_group_symop_operation_xyz
x,y,z
-x,-y,-z
loop_
_atom_site_type_symbol
_atom_site_label
_atom_site_fract_x
_atom_site_fract_y
_atom_site_fract_z
Si Si1 0.898270 0.836274 0.092002
Si Si2 0.029382 0.357877 0.457533
Si Si3 0.731476 0.136167 0.385973
Si Si4 0.530738 0.083230 0.777925
Si Si5 0.788264 0.161818 0.902313
Si Si6 0.394140 0.380164 0.499131
Si Si7 0.242305 0.565907 0.474953
O O1 0.780487 0.713155 0.814138
O O2 0.866733 0.015588 0.999144
O O3 0.870324 0.751082 0.257553
O O4 0.081997 0.857074 0.313521
O O5 0.107884 0.418349 0.380337
O O6 0.000000 0.500000 0.500000
O O7 0.698795 0.318945 0.296926
O O8 0.640192 0.049530 0.441858
O O9 0.649257 0.039023 0.116659
O O10 0.862496 0.238387 0.179571
O O11 0.604646 0.088698 0.698577
O O12 0.495698 0.253634 0.738762
O O13 0.820141 0.311276 0.779922
O O14 0.500000 0.500000 0.500000
O O15 0.374682 0.488927 0.607868
#
# Coordination Sequence:
#
# PCOD8036408 Si02
#       7
#     2   2   2   2   2   2   2
#     4  12  28  49  79 111 154 201 255 309 377 459
#     4  12  25  48  75 113 149 195 250 316 368 448
#     4  11  27  48  77 110 150 203 248 316 373 463
#     4  11  26  50  74 109 158 194 252 315 381 447
#     4  12  26  47  78 113 153 201 250 312 381 454
#     4  12  29  48  74 112 154 196 252 319 379 446
#     4  12  27  45  77 109 152 198 251 311 389 438
#
# _framework density 25.366541999999999
#
# number of rings (size 3 to 8) (size 9 to 14) (size 15 to 20)
#    0.000    0.286    4.286    2.571    8.000    4.000 
#    0.000    0.000    0.000    0.000    0.000    0.000 
#    0.000    0.000    0.000    0.000    0.000    0.000 
#
# Total GULP energy -173515.325467 kJ/mol
# GULP energy per Si atom -12393.951819 kJ/mol
# Density = 2.530881 g / cm^3
# Si number density = 25.366542 Si / 1000 Ang^3
#
#
#
# Elastic Constant Matrix: (Units=GPa)
#
#
# Indices 1 2 3 4 5 6 
#
# 1 173.2652 45.6544 29.4890 -4.2153 30.0801 24.3083
# 2 45.6544 94.2236 10.3364 -7.7391 18.5913 6.7429
# 3 29.4890 10.3364 83.4825 5.2271 7.2620 14.0381
# 4 -4.2153 -7.7391 5.2271 49.2702 3.5212 -1.2169
# 5 30.0801 18.5913 7.2620 3.5212 36.4079 -6.4751
# 6 24.3083 6.7429 14.0381 -1.2169 -6.4751 54.8534
#
#
#
# Elastic Compliance Matrix: (Units=1/GPa)
#
#
# Indices 1 2 3 4 5 6 
#
# 1 0.008221 -0.002289 -0.001531 0.000848 -0.006052 -0.003665
# 2 -0.002289 0.013021 -0.000322 0.002222 -0.005096 -0.001056
# 3 -0.001531 -0.000322 0.013282 -0.001549 -0.001587 -0.002903
# 4 0.000848 0.002222 -0.001549 0.021135 -0.003608 -0.000210
# 5 -0.006052 -0.005096 -0.001587 -0.003608 0.037161 0.008021
# 6 -0.003665 -0.001056 -0.002903 -0.000210 0.008021 0.021670
#
#
# Mechanical properties :
#
#
# Convention : Reuss Voigt Hill
#
# Bulk Modulus (GPa) = 38.10894 57.99234 48.05064
# Shear Modulus (GPa) = 38.01717 45.80573 41.91145
#
# Velocity S-wave (km/s) = 3.87552 4.25403 4.06918
# Velocity P-wave (km/s) = 5.92302 6.85860 6.40791
#
# Compressibility (1/GPa) = 0.02624056
#
# Stress axis : x y z
#
# Youngs Moduli (GPa) = 121.64420 76.79789 75.28834
#
# Poissons Ratio (x) = 0.17581 0.11525
# Poissons Ratio (y) = 0.27848 0.02423
# Poissons Ratio (z) = 0.18620 0.02471
#
# Static dielectric constant tensor:
#      x y z
#    x 2.327120 4.349840 -1.912350 
#    y 4.349840 -2.178580 3.291270 
#    z -1.912350 3.291270 3.143050 
# 
# 
# High freq. dielectric constant tensor:
#      x y z
#    x 2.028250 0.012330 -0.011500 
#    y 0.012330 2.031520 0.013670 
#    z -0.011500 0.013670 2.010380 
# 
# From -- ./inp_files/298043.got.cif
#   From: 2010.06.25/outbox.cif.g09.slc.cpg/sg2_150_cif.got.tgz:298043.got - 2010.06.27 13:26:56.
