data_PCOD8036333
_publ_section_title
;
Structure prediction by ZEFSAII (Michael W. Deem and Ramdas Pophale) SiO2 
 PCOD8036333
Probable space group: P -1
;
_chemical_formula_sum "Si O2"
_cell_formula_units_Z 14
_cell_length_a 8.892921
_cell_length_b 11.783878
_cell_length_c 9.228436
_cell_angle_alpha 104.607048
_cell_angle_beta 45.553657
_cell_angle_gamma 89.069614
_cell_volume 641.533290
_symmetry_space_group_name_H-M "P -1"
_symmetry_group_IT_number 2
_symmetry_cell_setting 'triclinic'
loop_
_space_group_symop_operation_xyz
x,y,z
-x,-y,-z
loop_
_atom_site_type_symbol
_atom_site_label
_atom_site_fract_x
_atom_site_fract_y
_atom_site_fract_z
Si Si1 0.173543 0.453834 0.737208
Si Si2 0.610707 0.871768 0.964103
Si Si3 0.976313 0.868700 0.950510
Si Si4 0.757768 0.181148 0.608391
Si Si5 0.727290 0.948752 0.406221
Si Si6 0.837280 0.768785 0.510498
Si Si7 0.669758 0.345412 0.460313
O O1 0.093963 0.360229 0.659061
O O2 0.412155 0.390978 0.620906
O O3 0.196083 0.559576 0.646219
O O4 0.000000 0.500000 0.000000
O O5 0.823544 0.869379 0.914987
O O6 0.699834 0.766642 0.748796
O O7 0.445716 0.827581 0.161679
O O8 0.500000 0.000000 0.000000
O O9 0.216380 0.774680 0.748300
O O10 0.873054 0.845266 0.166744
O O11 0.000000 0.000000 0.000000
O O12 0.699621 0.307591 0.597015
O O13 0.949923 0.184771 0.588745
O O14 0.826726 0.062264 0.416865
O O15 0.684078 0.877088 0.552759
O O16 0.500000 0.000000 0.500000
#
# Coordination Sequence:
#
# PCOD8036333 Si02
#       7
#     2   2   2   2   2   2   2
#     4  11  28  52  78 100 142 194 255 305 354 442
#     4  12  26  43  68 110 154 189 229 295 368 438
#     4  12  24  41  73 107 147 188 237 300 363 435
#     4  12  25  42  70 108 149 184 239 296 365 431
#     4  12  22  40  68 104 147 195 233 287 356 433
#     4  12  26  45  70 104 145 189 241 303 364 426
#     4  11  26  48  73 108 141 188 251 302 363 433
#
# _framework density 21.822717000000001
#
# number of rings (size 3 to 8) (size 9 to 14) (size 15 to 20)
#    0.000    0.286    5.714    2.143    6.000    2.857 
#    0.000    1.429    0.000    0.000    0.000    0.000 
#    0.000    0.000    0.000    0.000    0.000    0.000 
#
# Total GULP energy -173536.063340 kJ/mol
# GULP energy per Si atom -12395.433096 kJ/mol
# Density = 2.177305 g / cm^3
# Si number density = 21.822717 Si / 1000 Ang^3
#
#
#
# Elastic Constant Matrix: (Units=GPa)
#
#
# Indices 1 2 3 4 5 6 
#
# 1 107.5812 58.5163 69.0479 3.0509 7.3044 4.3748
# 2 58.5163 133.3705 62.1633 -2.3504 8.5601 -2.5366
# 3 69.0479 62.1633 178.4696 2.9965 3.4603 -2.5774
# 4 3.0509 -2.3504 2.9965 43.1034 0.3614 10.5980
# 5 7.3044 8.5601 3.4603 0.3614 41.8328 2.0804
# 6 4.3748 -2.5366 -2.5774 10.5980 2.0804 37.6650
#
#
#
# Elastic Compliance Matrix: (Units=1/GPa)
#
#
# Indices 1 2 3 4 5 6 
#
# 1 0.014492 -0.004438 -0.004060 -0.000468 -0.001180 -0.002063
# 2 -0.004438 0.010441 -0.001895 0.000796 -0.001258 0.000934
# 3 -0.004060 -0.001895 0.007852 -0.000619 0.000401 0.001033
# 4 -0.000468 0.000796 -0.000619 0.025036 0.000101 -0.006985
# 5 -0.001180 -0.001258 0.000401 0.000101 0.024399 -0.001296
# 6 -0.002063 0.000934 0.001033 -0.006985 -0.001296 0.028960
#
#
# Mechanical properties :
#
#
# Convention : Reuss Voigt Hill
#
# Bulk Modulus (GPa) = 83.34431 88.76402 86.05417
# Shear Modulus (GPa) = 36.77395 39.83317 38.30356
#
# Velocity S-wave (km/s) = 4.10948 4.27700 4.19407
# Velocity P-wave (km/s) = 7.79689 8.07178 7.93553
#
# Compressibility (1/GPa) = 0.01199842
#
# Stress axis : x y z
#
# Youngs Moduli (GPa) = 69.00169 95.77692 127.36045
#
# Poissons Ratio (x) = 0.42504 0.51711
# Poissons Ratio (y) = 0.30622 0.24138
# Poissons Ratio (z) = 0.28016 0.18152
#
# Static dielectric constant tensor:
#      x y z
#    x 3.784590 -0.094510 -0.440250 
#    y -0.094510 3.996850 -0.449320 
#    z -0.440250 -0.449320 0.706000 
# 
# 
# High freq. dielectric constant tensor:
#      x y z
#    x 1.862290 -0.005540 0.004810 
#    y -0.005540 1.851200 -0.015100 
#    z 0.004810 -0.015100 1.881910 
# 
# From -- ./inp_files/181019.got.cif
#   From: 2010.06.25/outbox.cif.g09.slc.cpg/sg2_91_cif.got.tgz:181019.got - 2010.06.27 13:26:56.
