data_PCOD8036438
_publ_section_title
;
Structure prediction by ZEFSAII (Michael W. Deem and Ramdas Pophale) SiO2 
 PCOD8036438
Probable space group: P -1
;
_chemical_formula_sum "Si O2"
_cell_formula_units_Z 12
_cell_length_a 12.240421
_cell_length_b 9.116412
_cell_length_c 14.265770
_cell_angle_alpha 66.229577
_cell_angle_beta 159.352975
_cell_angle_gamma 116.036838
_cell_volume 504.203732
_symmetry_space_group_name_H-M "P -1"
_symmetry_group_IT_number 2
_symmetry_cell_setting 'triclinic'
loop_
_space_group_symop_operation_xyz
x,y,z
-x,-y,-z
loop_
_atom_site_type_symbol
_atom_site_label
_atom_site_fract_x
_atom_site_fract_y
_atom_site_fract_z
Si Si1 0.140368 0.520410 0.710085
Si Si2 0.767000 0.250449 0.618903
Si Si3 0.856561 0.479784 0.788511
Si Si4 0.104386 0.082851 0.159057
Si Si5 0.995492 0.840878 0.598261
Si Si6 0.725786 0.204038 0.982038
O O1 0.000000 0.500000 0.500000
O O2 0.921179 0.382567 0.632510
O O3 0.146555 0.704317 0.702228
O O4 0.500000 0.500000 0.000000
O O5 0.897610 0.312185 0.812200
O O6 0.389220 0.235682 0.330076
O O7 0.811780 0.069011 0.673856
O O8 0.500000 0.500000 0.500000
O O9 0.062171 0.625479 0.855991
O O10 0.000000 0.500000 0.000000
O O11 0.835897 0.144864 0.986120
O O12 0.000000 0.000000 0.000000
O O13 0.202058 0.903180 0.842538
O O14 0.623053 0.771051 0.329556
O O15 0.000000 0.000000 0.500000
#
# Coordination Sequence:
#
# PCOD8036438 Si02
#       6
#     2   2   2   2   2   2
#     4  12  30  51  78 110 149 205 257 317 377 454
#     4  11  27  47  72 111 155 194 259 309 386 461
#     4  12  24  43  73 109 147 191 240 306 379 456
#     4  11  27  45  76 114 153 204 245 316 388 457
#     4  12  29  50  76 111 150 202 260 311 380 448
#     4  12  26  47  77 109 152 195 252 313 379 450
#
# _framework density 23.799901999999999
#
# number of rings (size 3 to 8) (size 9 to 14) (size 15 to 20)
#    0.000    0.333    3.333    3.500   11.667    0.000 
#    0.000    0.000    0.000    0.000    0.000    0.000 
#    0.000    0.000    0.000    0.000    0.000    0.000 
#
# Total GULP energy -148715.164855 kJ/mol
# GULP energy per Si atom -12392.930405 kJ/mol
# Density = 2.374573 g / cm^3
# Si number density = 23.799902 Si / 1000 Ang^3
#
#
#
# Elastic Constant Matrix: (Units=GPa)
#
#
# Indices 1 2 3 4 5 6 
#
# 1 146.9362 51.6111 62.9108 7.1333 -7.0068 -15.8072
# 2 51.6111 132.5458 33.2615 1.6300 23.3032 -5.0068
# 3 62.9108 33.2615 156.0939 -7.5341 3.7779 -19.9141
# 4 7.1333 1.6300 -7.5341 33.5537 -9.4530 -0.0143
# 5 -7.0068 23.3032 3.7779 -9.4530 49.8045 0.3768
# 6 -15.8072 -5.0068 -19.9141 -0.0143 0.3768 47.0169
#
#
#
# Elastic Compliance Matrix: (Units=1/GPa)
#
#
# Indices 1 2 3 4 5 6 
#
# 1 0.009753 -0.003427 -0.003159 -0.001810 0.002860 0.001553
# 2 -0.003427 0.010015 -0.000737 -0.001440 -0.005383 -0.000355
# 3 -0.003159 -0.000737 0.008265 0.002488 -0.000272 0.002363
# 4 -0.001810 -0.001440 0.002488 0.032625 0.006421 0.000250
# 5 0.002860 -0.005383 -0.000272 0.006421 0.024238 0.000081
# 6 0.001553 -0.000355 0.002363 0.000250 0.000081 0.022753
#
#
# Mechanical properties :
#
#
# Convention : Reuss Voigt Hill
#
# Bulk Modulus (GPa) = 74.70572 81.23809 77.97191
# Shear Modulus (GPa) = 39.44518 45.26119 42.35318
#
# Velocity S-wave (km/s) = 4.07549 4.36562 4.22305
# Velocity P-wave (km/s) = 7.32144 7.72136 7.52406
#
# Compressibility (1/GPa) = 0.01338586
#
# Stress axis : x y z
#
# Youngs Moduli (GPa) = 102.53030 99.85423 120.99415
#
# Poissons Ratio (x) = 0.34219 0.38224
# Poissons Ratio (y) = 0.35136 0.08922
# Poissons Ratio (z) = 0.32391 0.07363
#
# Static dielectric constant tensor:
#      x y z
#    x 4.125200 0.727260 0.746040 
#    y 0.727260 4.647210 -1.490070 
#    z 0.746040 -1.490070 3.157110 
# 
# 
# High freq. dielectric constant tensor:
#      x y z
#    x 1.951830 -0.000190 -0.006850 
#    y -0.000190 1.961800 -0.000330 
#    z -0.006850 -0.000330 1.956900 
# 
# From -- ./inp_files/427506.got.cif
#   From: 2010.06.25/outbox.cif.g09.slc.cpg/sg2_214_cif.got.tgz:427506.got - 2010.06.27 13:26:56.
