data_PCOD8036020
_publ_section_title
;
Structure prediction by ZEFSAII (Michael W. Deem and Ramdas Pophale) SiO2 
 PCOD8036020
Probable space group: P -1
;
_chemical_formula_sum "Si O2"
_cell_formula_units_Z 12
_cell_length_a 8.882263
_cell_length_b 12.452297
_cell_length_c 5.472924
_cell_angle_alpha 87.833096
_cell_angle_beta 120.784690
_cell_angle_gamma 75.767554
_cell_volume 494.246482
_symmetry_space_group_name_H-M "P -1"
_symmetry_group_IT_number 2
_symmetry_cell_setting 'triclinic'
loop_
_space_group_symop_operation_xyz
x,y,z
-x,-y,-z
loop_
_atom_site_type_symbol
_atom_site_label
_atom_site_fract_x
_atom_site_fract_y
_atom_site_fract_z
Si Si1 0.617880 0.628432 0.942996
Si Si2 0.539014 0.929817 0.288479
Si Si3 0.134320 0.234662 0.636262
Si Si4 0.638080 0.227787 0.640072
Si Si5 0.970560 0.070093 0.719539
Si Si6 0.250799 0.628684 0.920974
O O1 0.556661 0.692839 0.631448
O O2 0.431873 0.634141 0.930314
O O3 0.746306 0.688011 0.181951
O O4 0.737144 0.499821 0.999232
O O5 0.750886 0.848325 0.474559
O O6 0.403633 0.852247 0.177830
O O7 0.500000 0.000000 0.500000
O O8 0.500000 0.000000 0.000000
O O9 0.103464 0.149556 0.826732
O O10 0.937173 0.314505 0.381241
O O11 0.758134 0.149764 0.531968
O O12 0.756492 0.304175 0.838689
O O13 0.000000 0.000000 0.500000
O O14 0.000000 0.000000 0.000000
#
# Coordination Sequence:
#
# PCOD8036020 Si02
#       6
#     2   2   2   2   2   2
#     4  11  25  49  76 112 154 200 256 325 390 456
#     4  12  27  47  76 115 155 203 261 319 383 465
#     4  12  25  50  80 114 148 206 259 314 386 470
#     4  12  25  48  74 108 158 202 249 318 398 448
#     4  12  27  47  76 115 155 203 261 319 383 465
#     4  11  25  49  76 112 154 200 256 325 390 456
#
# _framework density 24.279381999999998
#
# number of rings (size 3 to 8) (size 9 to 14) (size 15 to 20)
#    0.000    0.333    3.333    5.000    0.000    4.000 
#    0.000    1.667    0.000    0.000    0.000    0.000 
#    0.000    0.000    0.000    0.000    0.000    0.000 
#
# Total GULP energy -148750.288238 kJ/mol
# GULP energy per Si atom -12395.857353 kJ/mol
# Density = 2.422412 g / cm^3
# Si number density = 24.279382 Si / 1000 Ang^3
#
#
#
# Elastic Constant Matrix: (Units=GPa)
#
#
# Indices 1 2 3 4 5 6 
#
# 1 140.6298 91.5650 61.8260 -5.0129 4.8805 4.9315
# 2 91.5650 203.6628 102.7854 -11.9426 -5.9655 5.7581
# 3 61.8260 102.7854 157.9479 11.8723 -0.7804 13.1888
# 4 -5.0129 -11.9426 11.8723 16.1102 2.1206 -8.9658
# 5 4.8805 -5.9655 -0.7804 2.1206 47.2648 5.8793
# 6 4.9315 5.7581 13.1888 -8.9658 5.8793 22.5623
#
#
#
# Elastic Compliance Matrix: (Units=1/GPa)
#
#
# Indices 1 2 3 4 5 6 
#
# 1 0.010511 -0.003436 -0.002339 0.003806 -0.001974 0.001974
# 2 -0.003436 0.011730 -0.008748 0.020335 -0.000603 0.011109
# 3 -0.002339 -0.008748 0.017084 -0.031819 0.003432 -0.020781
# 4 0.003806 0.020335 -0.031819 0.144646 -0.014010 0.073708
# 5 -0.001974 -0.000603 0.003432 -0.014010 0.023605 -0.013139
# 6 0.001974 0.011109 -0.020781 0.073708 -0.013139 0.085917
#
#
# Mechanical properties :
#
#
# Convention : Reuss Voigt Hill
#
# Bulk Modulus (GPa) = 97.28088 112.73257 105.00672
# Shear Modulus (GPa) = 15.33911 33.59174 24.46543
#
# Velocity S-wave (km/s) = 2.51624 3.72365 3.17781
# Velocity P-wave (km/s) = 6.97110 8.06347 7.53710
#
# Compressibility (1/GPa) = 0.01027951
#
# Stress axis : x y z
#
# Youngs Moduli (GPa) = 95.13656 85.25005 58.53590
#
# Poissons Ratio (x) = 0.29288 0.13694
# Poissons Ratio (y) = 0.32684 0.51206
# Poissons Ratio (z) = 0.22256 0.74575
#
# Static dielectric constant tensor:
#      x y z
#    x 5.027270 0.011380 0.139010 
#    y 0.011380 4.924480 -0.213420 
#    z 0.139010 -0.213420 4.128590 
# 
# 
# High freq. dielectric constant tensor:
#      x y z
#    x 1.980980 0.002020 0.006650 
#    y 0.002020 1.988980 -0.009650 
#    z 0.006650 -0.009650 1.950350 
# 
# From -- ./inp_files/27984.got.cif
#   From: 2010.06.25/outbox.cif.g09.slc.cpg/sg2_14_cif.got.tgz:27984.got - 2010.06.27 13:26:56.
