data_PCOD8036833
_publ_section_title
;
Structure prediction by ZEFSAII (Michael W. Deem and Ramdas Pophale) SiO2 
 PCOD8036833
Probable space group: P -1
;
_chemical_formula_sum "Si O2"
_cell_formula_units_Z 14
_cell_length_a 10.609402
_cell_length_b 26.712171
_cell_length_c 13.284499
_cell_angle_alpha 23.312706
_cell_angle_beta 36.523009
_cell_angle_gamma 24.442557
_cell_volume 604.289540
_symmetry_space_group_name_H-M "P -1"
_symmetry_group_IT_number 2
_symmetry_cell_setting 'triclinic'
loop_
_space_group_symop_operation_xyz
x,y,z
-x,-y,-z
loop_
_atom_site_type_symbol
_atom_site_label
_atom_site_fract_x
_atom_site_fract_y
_atom_site_fract_z
Si Si1 0.693053 0.477565 0.331831
Si Si2 0.321213 0.038032 0.141820
Si Si3 0.170917 0.835532 0.273085
Si Si4 0.242910 0.066641 0.466409
Si Si5 0.223383 0.363693 0.328860
Si Si6 0.320965 0.781650 0.845429
Si Si7 0.809694 0.701280 0.093892
O O1 0.500000 0.500000 0.500000
O O2 0.866195 0.293099 0.499725
O O3 0.940088 0.465047 0.245272
O O4 0.428121 0.661212 0.097603
O O5 0.175885 0.218826 0.963773
O O6 0.034801 0.079025 0.214203
O O7 0.579115 0.849636 0.386631
O O8 0.500000 0.000000 0.000000
O O9 0.029335 0.889615 0.377252
O O10 0.519399 0.735071 0.233496
O O11 0.000000 0.000000 0.000000
O O12 0.161781 0.226194 0.159079
O O13 0.500000 0.000000 0.500000
O O14 0.374739 0.907287 0.597525
O O15 0.457093 0.357308 0.133197
O O16 0.102511 0.477740 0.301201
#
# Coordination Sequence:
#
# PCOD8036833 Si02
#       7
#     2   2   2   2   2   2   2
#     4  12  23  44  72 108 146 187 247 308 369 437
#     4  12  28  52  74 104 153 200 248 307 371 448
#     4  12  23  42  71 108 151 194 244 305 374 441
#     4  12  23  44  74 108 150 192 244 308 373 440
#     4  12  25  48  75 109 147 190 253 307 370 446
#     4  12  26  48  74 105 152 198 243 309 375 436
#     4  12  26  47  75 108 147 198 252 303 372 448
#
# _framework density 23.167702999999999
#
# number of rings (size 3 to 8) (size 9 to 14) (size 15 to 20)
#    0.000    0.000    4.286    6.857    0.000    1.143 
#    2.571    0.000    0.000    0.000    0.000    0.000 
#    0.000    0.000    0.000    0.000    0.000    0.000 
#
# Total GULP energy -173508.647926 kJ/mol
# GULP energy per Si atom -12393.474852 kJ/mol
# Density = 2.311497 g / cm^3
# Si number density = 23.167703 Si / 1000 Ang^3
#
#
#
# Elastic Constant Matrix: (Units=GPa)
#
#
# Indices 1 2 3 4 5 6 
#
# 1 108.3945 47.3362 23.3225 -8.6172 -16.4954 6.7074
# 2 47.3362 160.6424 38.3713 20.3348 0.7526 12.7271
# 3 23.3225 38.3713 74.8515 5.0486 -7.4106 5.0900
# 4 -8.6172 20.3348 5.0486 51.0220 13.0073 0.8946
# 5 -16.4954 0.7526 -7.4106 13.0073 40.8587 -1.5450
# 6 6.7074 12.7271 5.0900 0.8946 -1.5450 43.4320
#
#
#
# Elastic Compliance Matrix: (Units=1/GPa)
#
#
# Indices 1 2 3 4 5 6 
#
# 1 0.011883 -0.003388 -0.001736 0.002596 0.003697 -0.000561
# 2 -0.003388 0.008515 -0.003082 -0.003359 -0.001074 -0.001580
# 3 -0.001736 -0.003082 0.015866 -0.001294 0.002624 -0.000568
# 4 0.002596 -0.003359 -0.001294 0.023161 -0.006497 0.000027
# 5 0.003697 -0.001074 0.002624 -0.006497 0.028553 0.000586
# 6 -0.000561 -0.001580 -0.000568 0.000027 0.000586 0.023661
#
#
# Mechanical properties :
#
#
# Convention : Reuss Voigt Hill
#
# Bulk Modulus (GPa) = 50.37500 62.43872 56.40686
# Shear Modulus (GPa) = 37.12831 42.71974 39.92403
#
# Velocity S-wave (km/s) = 4.00758 4.29877 4.15572
# Velocity P-wave (km/s) = 6.57306 7.18669 6.88671
#
# Compressibility (1/GPa) = 0.01985112
#
# Stress axis : x y z
#
# Youngs Moduli (GPa) = 84.15734 117.44078 63.02668
#
# Poissons Ratio (x) = 0.39791 0.10944
# Poissons Ratio (y) = 0.28514 0.19423
# Poissons Ratio (z) = 0.14614 0.36191
#
# Static dielectric constant tensor:
#      x y z
#    x 4.024840 0.642910 -0.419690 
#    y 0.642910 5.764800 -0.681680 
#    z -0.419690 -0.681680 5.830290 
# 
# 
# High freq. dielectric constant tensor:
#      x y z
#    x 1.910040 0.017110 -0.003740 
#    y 0.017110 1.940170 0.008840 
#    z -0.003740 0.008840 1.921510 
# 
# From -- ./inp_files/333897.got.cif
#   From: 2010.06.25/outbox.cif.g09.slc.cpg/sg2_167_cif.got.tgz:333897.got - 2010.06.27 13:26:56.
