data_PCOD8036185
_publ_section_title
;
Structure prediction by ZEFSAII (Michael W. Deem and Ramdas Pophale) SiO2 
 PCOD8036185
Probable space group: P -1
;
_chemical_formula_sum "Si O2"
_cell_formula_units_Z 14
_cell_length_a 12.103958
_cell_length_b 9.281797
_cell_length_c 14.175735
_cell_angle_alpha 63.389479
_cell_angle_beta 30.460903
_cell_angle_gamma 52.251766
_cell_volume 625.622046
_symmetry_space_group_name_H-M "P -1"
_symmetry_group_IT_number 2
_symmetry_cell_setting 'triclinic'
loop_
_space_group_symop_operation_xyz
x,y,z
-x,-y,-z
loop_
_atom_site_type_symbol
_atom_site_label
_atom_site_fract_x
_atom_site_fract_y
_atom_site_fract_z
Si Si1 0.356838 0.317161 0.742967
Si Si2 0.466048 0.830525 0.542231
Si Si3 0.234065 0.805112 0.363287
Si Si4 0.809526 0.537483 0.512402
Si Si5 0.367429 0.398340 0.176315
Si Si6 0.351060 0.935307 0.062197
Si Si7 0.054300 0.745762 0.853722
O O1 0.528981 0.192047 0.567633
O O2 0.520409 0.247713 0.738621
O O3 0.252415 0.535828 0.734621
O O4 0.128287 0.273936 0.931553
O O5 0.702240 0.653908 0.463405
O O6 0.206840 0.837759 0.763768
O O7 0.500000 0.000000 0.500000
O O8 0.133703 0.665470 0.496582
O O9 0.292556 0.802360 0.209762
O O10 0.000000 0.000000 0.500000
O O11 0.606226 0.623301 0.722917
O O12 0.070239 0.531217 0.341252
O O13 0.500000 0.500000 0.000000
O O14 0.482192 0.189986 0.111378
O O15 0.101706 0.119852 0.157178
O O16 0.500000 0.000000 0.000000
#
# Coordination Sequence:
#
# PCOD8036185 Si02
#       7
#     2   2   2   2   2   2   2
#     4  11  26  48  73 102 142 190 239 295 354 430
#     4  12  29  45  71 102 146 193 238 288 363 421
#     4  12  24  44  76 108 141 184 241 298 362 422
#     4  11  27  47  70 104 144 190 233 302 358 422
#     4  11  26  46  71 101 142 181 239 288 355 430
#     4  12  25  43  75 107 138 183 238 298 355 418
#     4  11  26  47  72 104 143 184 246 294 351 429
#
# _framework density 22.377727
#
# number of rings (size 3 to 8) (size 9 to 14) (size 15 to 20)
#    0.000    0.571    4.286    2.143    8.000    2.857 
#    0.000    0.000    0.000    0.000    0.000    0.000 
#    0.000    0.000    0.000    0.000    0.000    0.000 
#
# Total GULP energy -173587.870755 kJ/mol
# GULP energy per Si atom -12399.133625 kJ/mol
# Density = 2.232679 g / cm^3
# Si number density = 22.377727 Si / 1000 Ang^3
#
#
#
# Elastic Constant Matrix: (Units=GPa)
#
#
# Indices 1 2 3 4 5 6 
#
# 1 100.7672 58.1313 36.7774 3.6906 -5.3974 -3.8582
# 2 58.1313 148.7236 44.5886 -3.1239 -8.8601 -1.3034
# 3 36.7774 44.5886 114.9674 -9.4493 -11.5438 10.9709
# 4 3.6906 -3.1239 -9.4493 42.8091 8.6326 -5.8991
# 5 -5.3974 -8.8601 -11.5438 8.6326 43.7944 -1.3284
# 6 -3.8582 -1.3034 10.9709 -5.8991 -1.3284 48.1378
#
#
#
# Elastic Compliance Matrix: (Units=1/GPa)
#
#
# Indices 1 2 3 4 5 6 
#
# 1 0.013734 -0.004501 -0.002904 -0.002054 0.000464 0.001402
# 2 -0.004501 0.009149 -0.002040 0.000531 0.000667 0.000435
# 3 -0.002904 -0.002040 0.010979 0.001838 0.001685 -0.002518
# 4 -0.002054 0.000531 0.001838 0.025231 -0.004562 0.002397
# 5 0.000464 0.000667 0.001685 -0.004562 0.024363 -0.000215
# 6 0.001402 0.000435 -0.002518 0.002397 -0.000215 0.021760
#
#
# Mechanical properties :
#
#
# Convention : Reuss Voigt Hill
#
# Bulk Modulus (GPa) = 66.78475 71.49474 69.13975
# Shear Modulus (GPa) = 38.73121 41.94567 40.33844
#
# Velocity S-wave (km/s) = 4.16479 4.33418 4.25033
# Velocity P-wave (km/s) = 7.28261 7.55415 7.41962
#
# Compressibility (1/GPa) = 0.01497348
#
# Stress axis : x y z
#
# Youngs Moduli (GPa) = 72.81277 109.29820 91.08634
#
# Poissons Ratio (x) = 0.49192 0.26450
# Poissons Ratio (y) = 0.32771 0.18578
# Poissons Ratio (z) = 0.21143 0.22292
#
# Static dielectric constant tensor:
#      x y z
#    x 4.317590 -0.196030 0.209460 
#    y -0.196030 4.084390 -0.233750 
#    z 0.209460 -0.233750 4.435180 
# 
# 
# High freq. dielectric constant tensor:
#      x y z
#    x 1.880320 -0.004230 -0.006720 
#    y -0.004230 1.891930 -0.011370 
#    z -0.006720 -0.011370 1.889230 
# 
# From -- ./inp_files/515161.got.cif
#   From: 2010.06.25/outbox.cif.g09.slc.cpg/sg2_258_cif.got.tgz:515161.got - 2010.06.27 13:26:56.
