data_PCOD8036149
_publ_section_title
;
Structure prediction by ZEFSAII (Michael W. Deem and Ramdas Pophale) SiO2 
 PCOD8036149
Probable space group: P -1
;
_chemical_formula_sum "Si O2"
_cell_formula_units_Z 14
_cell_length_a 5.138511
_cell_length_b 10.222409
_cell_length_c 11.891535
_cell_angle_alpha 100.682847
_cell_angle_beta 98.485901
_cell_angle_gamma 89.428978
_cell_volume 606.995011
_symmetry_space_group_name_H-M "P -1"
_symmetry_group_IT_number 2
_symmetry_cell_setting 'triclinic'
loop_
_space_group_symop_operation_xyz
x,y,z
-x,-y,-z
loop_
_atom_site_type_symbol
_atom_site_label
_atom_site_fract_x
_atom_site_fract_y
_atom_site_fract_z
Si Si1 0.558165 0.065900 0.721464
Si Si2 0.450148 0.668352 0.898257
Si Si3 0.960252 0.654649 0.532542
Si Si4 0.022431 0.214895 0.685645
Si Si5 0.506970 0.752938 0.670942
Si Si6 0.168077 0.414202 0.912187
Si Si7 0.742661 0.082398 0.979642
O O1 0.262459 0.116536 0.706186
O O2 0.701105 0.111654 0.851486
O O3 0.746535 0.131709 0.648170
O O4 0.558972 0.908580 0.683575
O O5 0.581713 0.703987 0.792971
O O6 0.341761 0.516915 0.864343
O O7 0.660037 0.683406 0.015603
O O8 0.227285 0.776982 0.929877
O O9 0.931871 0.714734 0.417644
O O10 0.688610 0.675333 0.583816
O O11 0.000000 0.500000 0.500000
O O12 0.200510 0.721852 0.625915
O O13 0.000592 0.324928 0.800645
O O14 0.000000 0.500000 0.000000
O O15 0.500000 0.000000 0.000000
O O16 0.000000 0.000000 0.000000
#
# Coordination Sequence:
#
# PCOD8036149 Si02
#       7
#     2   2   2   2   2   2   2
#     4  12  26  46  74 111 142 189 241 297 372 421
#     4  11  26  45  72 111 147 190 247 299 365 438
#     4  12  29  52  75 105 143 193 245 297 361 426
#     4  12  27  49  75 103 149 188 242 303 357 433
#     4  12  28  47  77 107 144 190 244 298 358 434
#     4  11  26  45  74 107 146 195 240 302 366 432
#     4  12  25  43  71 108 153 191 232 298 363 435
#
# _framework density 23.064439
#
# number of rings (size 3 to 8) (size 9 to 14) (size 15 to 20)
#    0.000    0.286    2.857    4.714   10.000    3.429 
#    0.000    0.000    0.000    0.000    0.000    0.000 
#    0.000    0.000    0.000    0.000    0.000    0.000 
#
# Total GULP energy -173678.951759 kJ/mol
# GULP energy per Si atom -12405.639411 kJ/mol
# Density = 2.301194 g / cm^3
# Si number density = 23.064439 Si / 1000 Ang^3
#
#
#
# Elastic Constant Matrix: (Units=GPa)
#
#
# Indices 1 2 3 4 5 6 
#
# 1 103.6875 31.8393 16.4284 3.3911 -8.5263 -12.2740
# 2 31.8393 142.5772 55.7130 0.2809 -12.2586 -4.3913
# 3 16.4284 55.7130 100.9463 -0.9179 -12.6880 -3.8055
# 4 3.3911 0.2809 -0.9179 30.8022 -0.9980 1.5933
# 5 -8.5263 -12.2586 -12.6880 -0.9980 37.2275 9.0847
# 6 -12.2740 -4.3913 -3.8055 1.5933 9.0847 39.1416
#
#
#
# Elastic Compliance Matrix: (Units=1/GPa)
#
#
# Indices 1 2 3 4 5 6 
#
# 1 0.010816 -0.002090 -0.000394 -0.001308 0.000896 0.002964
# 2 -0.002090 0.009412 -0.004729 0.000055 0.001087 -0.000314
# 3 -0.000394 -0.004729 0.012934 0.000566 0.002792 -0.000068
# 4 -0.001308 0.000055 0.000566 0.032769 0.001273 -0.001978
# 5 0.000896 0.001087 0.002792 0.001273 0.029955 -0.006330
# 6 0.002964 -0.000314 -0.000068 -0.001978 -0.006330 0.027986
#
#
# Mechanical properties :
#
#
# Convention : Reuss Voigt Hill
#
# Bulk Modulus (GPa) = 53.37624 61.68584 57.53104
# Shear Modulus (GPa) = 34.59135 37.64963 36.12049
#
# Velocity S-wave (km/s) = 3.87689 4.04464 3.96165
# Velocity P-wave (km/s) = 6.57517 6.97246 6.77673
#
# Compressibility (1/GPa) = 0.01873493
#
# Stress axis : x y z
#
# Youngs Moduli (GPa) = 92.45524 106.24505 77.31546
#
# Poissons Ratio (x) = 0.22210 0.03046
# Poissons Ratio (y) = 0.19328 0.36564
# Poissons Ratio (z) = 0.03643 0.50245
#
# Static dielectric constant tensor:
#      x y z
#    x 4.121160 0.025340 -0.133370 
#    y 0.025340 4.477700 -0.099590 
#    z -0.133370 -0.099590 4.228970 
# 
# 
# High freq. dielectric constant tensor:
#      x y z
#    x 1.916730 0.002240 -0.008960 
#    y 0.002240 1.935410 -0.005900 
#    z -0.008960 -0.005900 1.914380 
# 
# From -- ./inp_files/94589.got.cif
#   From: 2010.06.25/outbox.cif.g09.slc.cpg/sg2_48_cif.got.tgz:94589.got - 2010.06.27 13:26:56.
