data_PCOD8036677
_publ_section_title
;
Structure prediction by ZEFSAII (Michael W. Deem and Ramdas Pophale) SiO2 
 PCOD8036677
Probable space group: P -1
;
_chemical_formula_sum "Si O2"
_cell_formula_units_Z 14
_cell_length_a 10.179772
_cell_length_b 12.042783
_cell_length_c 11.654208
_cell_angle_alpha 23.930265
_cell_angle_beta 82.354016
_cell_angle_gamma 83.099751
_cell_volume 574.368150
_symmetry_space_group_name_H-M "P -1"
_symmetry_group_IT_number 2
_symmetry_cell_setting 'triclinic'
loop_
_space_group_symop_operation_xyz
x,y,z
-x,-y,-z
loop_
_atom_site_type_symbol
_atom_site_label
_atom_site_fract_x
_atom_site_fract_y
_atom_site_fract_z
Si Si1 0.421596 0.318476 0.455467
Si Si2 0.355228 0.934003 0.469782
Si Si3 0.056906 0.575820 0.126750
Si Si4 0.908651 0.256575 0.786662
Si Si5 0.615973 0.128548 0.944686
Si Si6 0.684908 0.504774 0.941307
Si Si7 0.930557 0.045775 0.584539
O O1 0.550157 0.144485 0.570855
O O2 0.452592 0.597539 0.256245
O O3 0.345489 0.403267 0.270110
O O4 0.341991 0.101545 0.748665
O O5 0.214571 0.840021 0.527562
O O6 0.350024 0.256072 0.191253
O O7 0.392291 0.762151 0.745357
O O8 0.124285 0.685656 0.130844
O O9 0.160706 0.574651 0.008821
O O10 0.005429 0.269873 0.441821
O O11 0.935032 0.768150 0.920603
O O12 0.759450 0.213366 0.789406
O O13 0.000000 0.500000 0.500000
O O14 0.000000 0.000000 0.000000
O O15 0.500000 0.000000 0.000000
O O16 0.000000 0.000000 0.500000
#
# Coordination Sequence:
#
# PCOD8036677 Si02
#       7
#     2   2   2   2   2   2   2
#     4  12  26  46  72 107 146 191 244 297 364 438
#     4  12  25  40  68 106 149 189 238 288 350 439
#     4  12  24  42  71  97 138 191 232 290 361 428
#     4  12  28  50  78 108 139 187 254 313 370 440
#     4  12  28  51  79 106 147 195 246 314 380 432
#     4  12  22  42  70 100 144 191 237 280 357 435
#     4  12  23  40  64 103 143 191 233 286 350 424
#
# _framework density 24.374610000000001
#
# number of rings (size 3 to 8) (size 9 to 14) (size 15 to 20)
#    0.000    0.000    4.286    6.000    2.000    3.429 
#    0.000    0.000    0.000    0.000    0.000    0.000 
#    0.000    0.000    0.000    0.000    0.000    0.000 
#
# Total GULP energy -173523.389109 kJ/mol
# GULP energy per Si atom -12394.527794 kJ/mol
# Density = 2.431913 g / cm^3
# Si number density = 24.374610 Si / 1000 Ang^3
#
#
#
# Elastic Constant Matrix: (Units=GPa)
#
#
# Indices 1 2 3 4 5 6 
#
# 1 125.3538 41.3328 16.2846 -5.3929 -6.0104 -7.1985
# 2 41.3328 92.2459 29.0126 -33.3619 6.1070 -8.8428
# 3 16.2846 29.0126 135.4257 -8.7486 5.0413 -9.6692
# 4 -5.3929 -33.3619 -8.7486 49.1139 -5.4300 4.7916
# 5 -6.0104 6.1070 5.0413 -5.4300 25.4472 -3.1389
# 6 -7.1985 -8.8428 -9.6692 4.7916 -3.1389 33.9586
#
#
#
# Elastic Compliance Matrix: (Units=1/GPa)
#
#
# Indices 1 2 3 4 5 6 
#
# 1 0.009884 -0.005284 -0.000237 -0.002305 0.003316 0.001283
# 2 -0.005284 0.018205 -0.002375 0.010955 -0.002667 0.001152
# 3 -0.000237 -0.002375 0.008042 -0.000472 -0.000983 0.001597
# 4 -0.002305 0.010955 -0.000472 0.027906 0.002695 -0.001459
# 5 0.003316 -0.002667 -0.000983 0.002695 0.041887 0.003220
# 6 0.001283 0.001152 0.001597 -0.001459 0.003220 0.030978
#
#
# Mechanical properties :
#
#
# Convention : Reuss Voigt Hill
#
# Bulk Modulus (GPa) = 49.17259 58.47613 53.82436
# Shear Modulus (GPa) = 31.35314 39.46362 35.40838
#
# Velocity S-wave (km/s) = 3.59040 4.02810 3.81553
# Velocity P-wave (km/s) = 6.11600 6.75846 6.44524
#
# Compressibility (1/GPa) = 0.02033653
#
# Stress axis : x y z
#
# Youngs Moduli (GPa) = 101.17166 54.93126 124.35270
#
# Poissons Ratio (x) = 0.29028 0.02949
# Poissons Ratio (y) = 0.53463 0.29538
# Poissons Ratio (z) = 0.02400 0.13048
#
# Static dielectric constant tensor:
#      x y z
#    x 4.531420 -0.172420 0.164450 
#    y -0.172420 4.408360 -0.115430 
#    z 0.164450 -0.115430 4.522220 
# 
# 
# High freq. dielectric constant tensor:
#      x y z
#    x 1.973510 -0.009050 0.006990 
#    y -0.009050 1.958870 -0.017600 
#    z 0.006990 -0.017600 1.987250 
# 
# From -- ./inp_files/424756.got.cif
#   From: 2010.06.25/outbox.cif.g09.slc.cpg/sg2_213_cif.got.tgz:424756.got - 2010.06.27 13:26:56.
