data_PCOD8036155
_publ_section_title
;
Structure prediction by ZEFSAII (Michael W. Deem and Ramdas Pophale) SiO2 
 PCOD8036155
Probable space group: P -1
;
_chemical_formula_sum "Si O2"
_cell_formula_units_Z 14
_cell_length_a 9.206849
_cell_length_b 15.194675
_cell_length_c 5.245493
_cell_angle_alpha 124.782177
_cell_angle_beta 83.509191
_cell_angle_gamma 91.680074
_cell_volume 598.285183
_symmetry_space_group_name_H-M "P -1"
_symmetry_group_IT_number 2
_symmetry_cell_setting 'triclinic'
loop_
_space_group_symop_operation_xyz
x,y,z
-x,-y,-z
loop_
_atom_site_type_symbol
_atom_site_label
_atom_site_fract_x
_atom_site_fract_y
_atom_site_fract_z
Si Si1 0.083408 0.029107 0.278441
Si Si2 0.392423 0.965095 0.173947
Si Si3 0.038273 0.266977 0.584495
Si Si4 0.341929 0.552565 0.566152
Si Si5 0.185800 0.342456 0.164987
Si Si6 0.458447 0.181504 0.750292
Si Si7 0.700455 0.307969 0.695458
O O1 0.228421 0.953752 0.095326
O O2 0.114180 0.154658 0.474611
O O3 0.000000 0.000000 0.500000
O O4 0.000000 0.000000 0.000000
O O5 0.384778 0.067186 0.536874
O O6 0.441367 0.846919 0.070003
O O7 0.500000 0.000000 0.000000
O O8 0.101850 0.298051 0.350581
O O9 0.084538 0.345784 0.935389
O O10 0.864895 0.256791 0.563594
O O11 0.500000 0.500000 0.500000
O O12 0.221015 0.463873 0.420621
O O13 0.660304 0.383841 0.592720
O O14 0.303401 0.628259 0.934418
O O15 0.337576 0.274726 0.979224
O O16 0.575552 0.218475 0.575133
#
# Coordination Sequence:
#
# PCOD8036155 Si02
#       7
#     2   2   2   2   2   2   2
#     4  12  27  46  71 102 149 189 236 290 353 421
#     4  11  26  45  73 106 143 193 243 289 352 421
#     4  12  27  47  72 107 144 190 234 293 363 416
#     4  12  27  47  76 108 140 186 240 299 360 418
#     4  12  26  48  75 101 147 186 241 293 355 426
#     4  11  26  45  73 106 143 191 240 295 349 427
#     4  12  28  47  75 107 145 184 241 298 356 424
#
# _framework density 23.400213000000001
#
# number of rings (size 3 to 8) (size 9 to 14) (size 15 to 20)
#    0.000    0.286    2.857    4.714   10.000    3.429 
#    0.000    0.000    0.000    0.000    0.000    0.000 
#    0.000    0.000    0.000    0.000    0.000    0.000 
#
# Total GULP energy -173573.693861 kJ/mol
# GULP energy per Si atom -12398.120990 kJ/mol
# Density = 2.334695 g / cm^3
# Si number density = 23.400213 Si / 1000 Ang^3
#
#
#
# Elastic Constant Matrix: (Units=GPa)
#
#
# Indices 1 2 3 4 5 6 
#
# 1 141.3983 37.9321 21.4494 -25.6472 -12.2473 -8.7257
# 2 37.9321 133.1593 17.1367 -33.3401 -7.2542 0.3666
# 3 21.4494 17.1367 59.5845 -31.5926 3.2412 7.2084
# 4 -25.6472 -33.3401 -31.5926 49.1614 8.9476 -1.6221
# 5 -12.2473 -7.2542 3.2412 8.9476 44.0453 0.6096
# 6 -8.7257 0.3666 7.2084 -1.6221 0.6096 34.4756
#
#
#
# Elastic Compliance Matrix: (Units=1/GPa)
#
#
# Indices 1 2 3 4 5 6 
#
# 1 0.008459 -0.001615 -0.002085 0.001728 0.001852 0.002642
# 2 -0.001615 0.009393 0.001377 0.006452 -0.000307 -0.000487
# 3 -0.002085 0.001377 0.028138 0.018875 -0.006183 -0.005428
# 4 0.001728 0.006452 0.018875 0.039109 -0.007768 -0.001600
# 5 0.001852 -0.000307 -0.006183 -0.007768 0.025188 0.000954
# 6 0.002642 -0.000487 -0.005428 -0.001600 0.000954 0.030723
#
#
# Mechanical properties :
#
#
# Convention : Reuss Voigt Hill
#
# Bulk Modulus (GPa) = 24.18784 54.13095 39.15940
# Shear Modulus (GPa) = 31.36055 42.71137 37.03596
#
# Velocity S-wave (km/s) = 3.66482 4.27694 3.98266
# Velocity P-wave (km/s) = 5.31666 6.89728 6.15790
#
# Compressibility (1/GPa) = 0.04134308
#
# Stress axis : x y z
#
# Youngs Moduli (GPa) = 118.22297 106.46576 35.53914
#
# Poissons Ratio (x) = 0.17194 0.07409
# Poissons Ratio (y) = 0.19093 -0.04892
# Poissons Ratio (z) = 0.24645 -0.14655
#
# Static dielectric constant tensor:
#      x y z
#    x 5.052230 1.637910 2.262260 
#    y 1.637910 9.421250 6.726440 
#    z 2.262260 6.726440 13.199540 
# 
# 
# High freq. dielectric constant tensor:
#      x y z
#    x 1.946600 -0.002270 0.004540 
#    y -0.002270 1.939800 -0.003130 
#    z 0.004540 -0.003130 1.933230 
# 
# From -- ./inp_files/45935.got.cif
#   From: 2010.06.25/outbox.cif.g09.slc.cpg/sg2_23_cif.got.tgz:45935.got - 2010.06.27 13:26:56.
