data_PCOD8036908
_publ_section_title
;
Structure prediction by ZEFSAII (Michael W. Deem and Ramdas Pophale) SiO2 
 PCOD8036908
Probable space group: P -1
;
_chemical_formula_sum "Si O2"
_cell_formula_units_Z 10
_cell_length_a 9.333513
_cell_length_b 15.078107
_cell_length_c 15.399393
_cell_angle_alpha 161.461962
_cell_angle_beta 138.905421
_cell_angle_gamma 49.174576
_cell_volume 433.327781
_symmetry_space_group_name_H-M "P -1"
_symmetry_group_IT_number 2
_symmetry_cell_setting 'triclinic'
loop_
_space_group_symop_operation_xyz
x,y,z
-x,-y,-z
loop_
_atom_site_type_symbol
_atom_site_label
_atom_site_fract_x
_atom_site_fract_y
_atom_site_fract_z
Si Si1 0.786637 0.237249 0.182668
Si Si2 0.894010 0.550520 0.844706
Si Si3 0.579441 0.318553 0.794116
Si Si4 0.474905 0.330602 0.561549
Si Si5 0.234654 0.915187 0.784665
O O1 0.583457 0.385917 0.240835
O O2 0.867418 0.111834 0.190526
O O3 0.000000 0.500000 0.500000
O O4 0.707047 0.972930 0.832429
O O5 0.728225 0.360356 0.667229
O O6 0.832731 0.396752 0.581549
O O7 0.153395 0.572973 0.005312
O O8 0.861351 0.869611 0.117392
O O9 0.460408 0.338284 0.666303
O O10 0.500000 0.000000 0.500000
O O11 0.500000 0.500000 0.000000
O O12 0.500000 0.000000 0.000000
#
# Coordination Sequence:
#
# PCOD8036908 Si02
#       5
#     2   2   2   2   2
#     4  12  27  42  71 107 145 180 223 291 347 414
#     4  12  25  46  75 100 140 187 231 286 341 420
#     4  12  29  48  71 103 138 184 238 295 345 402
#     4  12  25  49  70 102 141 186 235 280 347 417
#     4  12  23  44  72 106 140 177 233 280 348 419
#
# _framework density 23.077218999999999
#
# number of rings (size 3 to 8) (size 9 to 14) (size 15 to 20)
#    0.000    0.000    4.000    5.400    8.400    0.000 
#    0.000    6.000    0.000    0.000    0.000    0.000 
#    0.000    0.000    0.000    0.000    0.000    0.000 
#
# Total GULP energy -123989.963011 kJ/mol
# GULP energy per Si atom -12398.996301 kJ/mol
# Density = 2.302469 g / cm^3
# Si number density = 23.077219 Si / 1000 Ang^3
#
#
#
# Elastic Constant Matrix: (Units=GPa)
#
#
# Indices 1 2 3 4 5 6 
#
# 1 123.1774 37.0920 45.9069 -9.3393 -12.7622 23.7401
# 2 37.0920 77.8031 24.2554 7.5541 -7.6439 8.7985
# 3 45.9069 24.2554 116.7248 2.8116 -17.9079 13.6651
# 4 -9.3393 7.5541 2.8116 37.4650 -4.0283 -2.4799
# 5 -12.7622 -7.6439 -17.9079 -4.0283 45.9783 0.2102
# 6 23.7401 8.7985 13.6651 -2.4799 0.2102 46.3620
#
#
#
# Elastic Compliance Matrix: (Units=1/GPa)
#
#
# Indices 1 2 3 4 5 6 
#
# 1 0.011893 -0.004457 -0.003101 0.004008 0.001723 -0.004124
# 2 -0.004457 0.015910 -0.001302 -0.004202 0.000535 -0.000581
# 3 -0.003101 -0.001302 0.010707 -0.001083 0.003005 -0.001393
# 4 0.004008 -0.004202 -0.001083 0.028930 0.002524 0.000600
# 5 0.001723 0.000535 0.003005 0.002524 0.023716 -0.001842
# 6 -0.004124 -0.000581 -0.001393 0.000600 -0.001842 0.024242
#
#
# Mechanical properties :
#
#
# Convention : Reuss Voigt Hill
#
# Bulk Modulus (GPa) = 48.09749 59.13488 53.61619
# Shear Modulus (GPa) = 35.70176 39.99113 37.84645
#
# Velocity S-wave (km/s) = 3.93753 4.16736 4.05407
# Velocity P-wave (km/s) = 6.44666 6.98830 6.72293
#
# Compressibility (1/GPa) = 0.02079111
#
# Stress axis : x y z
#
# Youngs Moduli (GPa) = 84.08109 62.85412 93.39375
#
# Poissons Ratio (x) = 0.28014 0.28961
# Poissons Ratio (y) = 0.37474 0.12159
# Poissons Ratio (z) = 0.26073 0.08183
#
# Static dielectric constant tensor:
#      x y z
#    x 4.203350 -0.315550 -0.002410 
#    y -0.315550 3.707200 -0.233970 
#    z -0.002410 -0.233970 4.042550 
# 
# 
# High freq. dielectric constant tensor:
#      x y z
#    x 1.926170 -0.000690 0.002620 
#    y -0.000690 1.909190 0.002390 
#    z 0.002620 0.002390 1.928860 
# 
# From -- ./inp_files/16063.got.cif
#   From: 2010.06.25/outbox.cif.g09.slc.cpg/sg2_9_cif.got.tgz:16063.got - 2010.06.27 13:26:56.
