data_PCOD8036715
_publ_section_title
;
Structure prediction by ZEFSAII (Michael W. Deem and Ramdas Pophale) SiO2 
 PCOD8036715
Probable space group: P -1
;
_chemical_formula_sum "Si O2"
_cell_formula_units_Z 14
_cell_length_a 13.881598
_cell_length_b 11.703339
_cell_length_c 9.827644
_cell_angle_alpha 50.600209
_cell_angle_beta 118.151457
_cell_angle_gamma 150.493519
_cell_volume 593.870046
_symmetry_space_group_name_H-M "P -1"
_symmetry_group_IT_number 2
_symmetry_cell_setting 'triclinic'
loop_
_space_group_symop_operation_xyz
x,y,z
-x,-y,-z
loop_
_atom_site_type_symbol
_atom_site_label
_atom_site_fract_x
_atom_site_fract_y
_atom_site_fract_z
Si Si1 0.243890 0.415830 0.165008
Si Si2 0.416562 0.148537 0.140206
Si Si3 0.144430 0.585713 0.424466
Si Si4 0.629058 0.444382 0.334690
Si Si5 0.093664 0.997369 0.955809
Si Si6 0.010425 0.369222 0.202129
Si Si7 0.660383 0.769021 0.492877
O O1 0.223342 0.223205 0.346972
O O2 0.204995 0.489688 0.204128
O O3 0.462269 0.694314 0.037919
O O4 0.075727 0.260860 0.058274
O O5 0.546931 0.358690 0.191565
O O6 0.356595 0.910579 0.303729
O O7 0.202619 0.986904 0.112484
O O8 0.207131 0.497451 0.587900
O O9 0.000000 0.500000 0.500000
O O10 0.026932 0.440411 0.314210
O O11 0.740735 0.724987 0.229358
O O12 0.447405 0.232294 0.480820
O O13 0.000000 0.000000 0.000000
O O14 0.815817 0.041977 0.301339
O O15 0.000000 0.500000 0.000000
O O16 0.500000 0.500000 0.500000
#
# Coordination Sequence:
#
# PCOD8036715 Si02
#       7
#     2   2   2   2   2   2   2
#     4  12  26  47  76 109 154 192 251 307 376 446
#     4  12  26  44  75 112 145 197 246 308 371 440
#     4  12  28  49  73 105 154 197 249 310 375 441
#     4  12  24  45  74 108 147 193 250 303 373 443
#     4  12  22  43  73 110 149 189 246 306 367 440
#     4  12  29  48  77 109 149 202 248 306 379 443
#     4  12  26  48  75 108 149 195 250 309 375 445
#
# _framework density 23.574180999999999
#
# number of rings (size 3 to 8) (size 9 to 14) (size 15 to 20)
#    0.000    0.000    2.857    7.286    6.000    0.571 
#    0.000    0.000    0.000    0.000    0.000    0.000 
#    0.000    0.000    0.000    0.000    0.000    0.000 
#
# Total GULP energy -173687.879531 kJ/mol
# GULP energy per Si atom -12406.277109 kJ/mol
# Density = 2.352052 g / cm^3
# Si number density = 23.574181 Si / 1000 Ang^3
#
#
#
# Elastic Constant Matrix: (Units=GPa)
#
#
# Indices 1 2 3 4 5 6 
#
# 1 152.2749 24.7574 45.1755 11.2801 -14.0063 4.0881
# 2 24.7574 108.3099 41.0709 1.4760 -0.9154 -2.9657
# 3 45.1755 41.0709 117.2187 -4.2624 1.8681 4.3117
# 4 11.2801 1.4760 -4.2624 54.2564 5.3406 3.4076
# 5 -14.0063 -0.9154 1.8681 5.3406 42.2598 2.6439
# 6 4.0881 -2.9657 4.3117 3.4076 2.6439 33.5609
#
#
#
# Elastic Compliance Matrix: (Units=1/GPa)
#
#
# Indices 1 2 3 4 5 6 
#
# 1 0.008014 -0.000675 -0.002954 -0.002141 0.003085 -0.000682
# 2 -0.000675 0.010805 -0.003605 -0.000548 0.000142 0.001545
# 3 -0.002954 -0.003605 0.011079 0.001839 -0.001689 -0.001436
# 4 -0.002141 -0.000548 0.001839 0.019456 -0.003152 -0.001751
# 5 0.003085 0.000142 -0.001689 -0.003152 0.025275 -0.001817
# 6 -0.000682 0.001545 -0.001436 -0.001751 -0.001817 0.030522
#
#
# Mechanical properties :
#
#
# Convention : Reuss Voigt Hill
#
# Bulk Modulus (GPa) = 64.80639 66.64569 65.72604
# Shear Modulus (GPa) = 40.07660 43.80209 41.93935
#
# Velocity S-wave (km/s) = 4.12760 4.31519 4.22244
# Velocity P-wave (km/s) = 7.08987 7.29108 7.19118
#
# Compressibility (1/GPa) = 0.01543058
#
# Stress axis : x y z
#
# Youngs Moduli (GPa) = 124.78443 92.55055 90.26044
#
# Poissons Ratio (x) = 0.06248 0.26662
# Poissons Ratio (y) = 0.08425 0.32535
# Poissons Ratio (z) = 0.36860 0.33361
#
# Static dielectric constant tensor:
#      x y z
#    x 4.461770 0.006380 -0.070730 
#    y 0.006380 4.294710 -0.162730 
#    z -0.070730 -0.162730 4.405370 
# 
# 
# High freq. dielectric constant tensor:
#      x y z
#    x 1.949120 0.004250 -0.003850 
#    y 0.004250 1.932430 -0.004090 
#    z -0.003850 -0.004090 1.942350 
# 
# From -- ./inp_files/84886.got.cif
#   From: 2010.06.25/outbox.cif.g09.slc.cpg/sg2_43_cif.got.tgz:84886.got - 2010.06.27 13:26:56.
