data_PCOD8036745
_publ_section_title
;
Structure prediction by ZEFSAII (Michael W. Deem and Ramdas Pophale) SiO2 
 PCOD8036745
Probable space group: P -1
;
_chemical_formula_sum "Si O2"
_cell_formula_units_Z 14
_cell_length_a 8.052731
_cell_length_b 11.441097
_cell_length_c 19.966102
_cell_angle_alpha 38.944788
_cell_angle_beta 79.293230
_cell_angle_gamma 48.872240
_cell_volume 632.007437
_symmetry_space_group_name_H-M "P -1"
_symmetry_group_IT_number 2
_symmetry_cell_setting 'triclinic'
loop_
_space_group_symop_operation_xyz
x,y,z
-x,-y,-z
loop_
_atom_site_type_symbol
_atom_site_label
_atom_site_fract_x
_atom_site_fract_y
_atom_site_fract_z
Si Si1 0.713362 0.629312 0.655211
Si Si2 0.729945 0.770427 0.286027
Si Si3 0.514909 0.133349 0.881338
Si Si4 0.782348 0.223187 0.356599
Si Si5 0.387861 0.763198 0.841931
Si Si6 0.829396 0.291610 0.561674
Si Si7 0.091725 0.726867 0.077782
O O1 0.520828 0.616746 0.676778
O O2 0.907852 0.444869 0.792012
O O3 0.946831 0.428444 0.665901
O O4 0.500000 0.000000 0.500000
O O5 0.564140 0.860065 0.190302
O O6 0.782823 0.548969 0.430101
O O7 0.533999 0.107805 0.188005
O O8 0.293911 0.491764 0.766825
O O9 0.500000 0.000000 0.000000
O O10 0.860837 0.893874 0.960285
O O11 0.000000 0.000000 0.500000
O O12 0.967738 0.999207 0.377522
O O13 0.570654 0.567247 0.846501
O O14 0.500000 0.500000 0.000000
O O15 0.026028 0.092200 0.704477
O O16 0.500000 0.500000 0.500000
O O17 0.000000 0.000000 0.000000
#
# Coordination Sequence:
#
# PCOD8036745 Si02
#       7
#     2   2   2   2   2   2   2
#     4  12  22  44  76 103 140 187 249 296 356 432
#     4  12  27  48  71 109 147 195 242 299 373 436
#     4  12  26  43  74 112 144 183 245 305 359 435
#     4  12  25  46  76 108 141 189 247 302 361 427
#     4  12  29  48  72 107 150 195 244 299 373 437
#     4  12  28  50  73 106 152 192 241 304 368 441
#     4  12  24  47  74 102 144 192 241 301 363 433
#
# _framework density 22.151638999999999
#
# number of rings (size 3 to 8) (size 9 to 14) (size 15 to 20)
#    0.000    0.000    7.143    1.286    6.000    1.714 
#    0.000    0.000    0.000    0.000    0.000    0.000 
#    0.000    0.000    0.000    0.000    0.000    0.000 
#
# Total GULP energy -173552.046156 kJ/mol
# GULP energy per Si atom -12396.574725 kJ/mol
# Density = 2.210122 g / cm^3
# Si number density = 22.151639 Si / 1000 Ang^3
#
#
#
# Elastic Constant Matrix: (Units=GPa)
#
#
# Indices 1 2 3 4 5 6 
#
# 1 126.7588 62.4635 72.5098 -8.5526 0.5984 6.9023
# 2 62.4635 106.7042 47.6592 -13.4805 -13.2941 -2.2171
# 3 72.5098 47.6592 199.2721 4.2908 -16.9039 10.7220
# 4 -8.5526 -13.4805 4.2908 36.4256 0.0320 -5.7044
# 5 0.5984 -13.2941 -16.9039 0.0320 53.8585 -5.2344
# 6 6.9023 -2.2171 10.7220 -5.7044 -5.2344 47.4263
#
#
#
# Elastic Compliance Matrix: (Units=1/GPa)
#
#
# Indices 1 2 3 4 5 6 
#
# 1 0.013225 -0.006508 -0.003437 0.000841 -0.002996 -0.001681
# 2 -0.006508 0.014755 -0.001101 0.004502 0.003641 0.002829
# 3 -0.003437 -0.001101 0.006793 -0.002197 0.001788 -0.001154
# 4 0.000841 0.004502 -0.002197 0.030250 0.000814 0.004313
# 5 -0.002996 0.003641 0.001788 0.000814 0.020307 0.002541
# 6 -0.001681 0.002829 -0.001154 0.004313 0.002541 0.022522
#
#
# Mechanical properties :
#
#
# Convention : Reuss Voigt Hill
#
# Bulk Modulus (GPa) = 78.86771 88.66670 83.76720
# Shear Modulus (GPa) = 37.26558 44.21557 40.74058
#
# Velocity S-wave (km/s) = 4.10603 4.47255 4.29320
# Velocity P-wave (km/s) = 7.62628 8.17225 7.90398
#
# Compressibility (1/GPa) = 0.01267946
#
# Stress axis : x y z
#
# Youngs Moduli (GPa) = 75.61486 67.77590 147.20233
#
# Poissons Ratio (x) = 0.44112 0.50599
# Poissons Ratio (y) = 0.49214 0.16205
# Poissons Ratio (z) = 0.25992 0.07461
#
# Static dielectric constant tensor:
#      x y z
#    x 4.302620 -0.017870 0.126210 
#    y -0.017870 4.149140 -0.105610 
#    z 0.126210 -0.105610 4.777710 
# 
# 
# High freq. dielectric constant tensor:
#      x y z
#    x 1.877050 0.003130 0.005220 
#    y 0.003130 1.865900 -0.002170 
#    z 0.005220 -0.002170 1.905410 
# 
# From -- ./inp_files/559668.got.cif
#   From: 2010.06.25/outbox.cif.g09.slc.cpg/sg2_280_cif.got.tgz:559668.got - 2010.06.27 13:26:56.
