data_PCOD8036384
_publ_section_title
;
Structure prediction by ZEFSAII (Michael W. Deem and Ramdas Pophale) SiO2 
 PCOD8036384
Probable space group: P -1
;
_chemical_formula_sum "Si O2"
_cell_formula_units_Z 16
_cell_length_a 15.189686
_cell_length_b 13.991477
_cell_length_c 11.324974
_cell_angle_alpha 67.368659
_cell_angle_beta 37.663340
_cell_angle_gamma 97.810597
_cell_volume 847.585811
_symmetry_space_group_name_H-M "P -1"
_symmetry_group_IT_number 2
_symmetry_cell_setting 'triclinic'
loop_
_space_group_symop_operation_xyz
x,y,z
-x,-y,-z
loop_
_atom_site_type_symbol
_atom_site_label
_atom_site_fract_x
_atom_site_fract_y
_atom_site_fract_z
Si Si1 0.116931 0.974596 0.715943
Si Si2 0.882617 0.043428 0.831440
Si Si3 0.822754 0.145138 0.493830
Si Si4 0.494388 0.841385 0.162367
Si Si5 0.514444 0.664403 0.831101
Si Si6 0.929406 0.773665 0.239473
Si Si7 0.613211 0.425702 0.720099
Si Si8 0.788950 0.647932 0.838579
O O1 0.146436 0.886863 0.652295
O O2 0.368483 0.158141 0.405156
O O3 0.988443 0.988618 0.766307
O O4 0.963865 0.863571 0.045536
O O5 0.856633 0.091538 0.960924
O O6 0.045216 0.199931 0.499019
O O7 0.631446 0.891228 0.112907
O O8 0.704551 0.189365 0.581166
O O9 0.071491 0.301929 0.215296
O O10 0.666476 0.980747 0.814598
O O11 0.374545 0.671650 0.321133
O O12 0.711126 0.688516 0.590958
O O13 0.436632 0.624613 0.067182
O O14 0.300419 0.511350 0.047438
O O15 0.868024 0.621161 0.343401
O O16 0.421308 0.394571 0.883076
#
# Coordination Sequence:
#
# PCOD8036384 Si02
#       8
#     2   2   2   2   2   2   2   2
#     4  11  20  34  56  81 111 138 172 215 270 316
#     4  10  17  33  55  82 105 137 175 218 266 310
#     4  10  21  36  51  80 110 139 177 223 260 304
#     4  10  21  35  55  77 107 141 183 219 255 310
#     4  10  17  32  55  84 106 132 175 219 264 309
#     4  10  20  33  53  86 111 133 169 225 266 312
#     4  11  17  34  57  83 103 138 179 215 265 309
#     4  10  17  31  57  82 106 132 176 225 261 306
#
# _framework density 18.877144000000001
#
# number of rings (size 3 to 8) (size 9 to 14) (size 15 to 20)
#    0.000    1.750    5.000    3.000    0.000    2.000 
#    0.000   10.000    0.000    0.000    0.000    0.000 
#    0.000    0.000    0.000    0.000    0.000    0.000 
#
# Total GULP energy -198319.749667 kJ/mol
# GULP energy per Si atom -12394.984354 kJ/mol
# Density = 1.883418 g / cm^3
# Si number density = 18.877144 Si / 1000 Ang^3
#
#
#
# Elastic Constant Matrix: (Units=GPa)
#
#
# Indices 1 2 3 4 5 6 
#
# 1 62.6324 68.4168 25.6295 -1.7522 1.0498 13.1473
# 2 68.4168 161.4131 47.5866 -14.2744 -15.5623 26.4925
# 3 25.6295 47.5866 38.7132 -11.0124 3.6128 0.3362
# 4 -1.7522 -14.2744 -11.0124 25.6127 -3.7221 -5.2958
# 5 1.0498 -15.5623 3.6128 -3.7221 17.7688 -5.1911
# 6 13.1473 26.4925 0.3362 -5.2958 -5.1911 22.8252
#
#
#
# Elastic Compliance Matrix: (Units=1/GPa)
#
#
# Indices 1 2 3 4 5 6 
#
# 1 0.038727 -0.014477 -0.010275 -0.015554 -0.020089 -0.013529
# 2 -0.014477 0.021855 -0.017949 0.004324 0.021367 -0.010900
# 3 -0.010275 -0.017949 0.061307 0.018853 -0.015853 0.026617
# 4 -0.015554 0.004324 0.018853 0.055484 0.018559 0.020757
# 5 -0.020089 0.021367 -0.015853 0.018559 0.086498 0.010983
# 6 -0.013529 -0.010900 0.026617 0.020757 0.010983 0.071177
#
#
# Mechanical properties :
#
#
# Convention : Reuss Voigt Hill
#
# Bulk Modulus (GPa) = 27.40730 60.66940 44.03835
# Shear Modulus (GPa) = 11.55770 21.31640 16.43705
#
# Velocity S-wave (km/s) = 2.47707 3.36403 2.95403
# Velocity P-wave (km/s) = 4.76775 6.87734 5.91731
#
# Compressibility (1/GPa) = 0.03648663
#
# Stress axis : x y z
#
# Youngs Moduli (GPa) = 25.82195 45.75692 16.31123
#
# Poissons Ratio (x) = 0.66244 0.16760
# Poissons Ratio (y) = 0.37383 0.29277
# Poissons Ratio (z) = 0.26532 0.82128
#
# Static dielectric constant tensor:
#      x y z
#    x 3.478920 0.362800 -0.185450 
#    y 0.362800 3.677420 -0.352540 
#    z -0.185450 -0.352540 3.288310 
# 
# 
# High freq. dielectric constant tensor:
#      x y z
#    x 1.717800 0.027060 0.001920 
#    y 0.027060 1.738940 -0.023090 
#    z 0.001920 -0.023090 1.703050 
# 
# From -- ./inp_files/239985.got.cif
#   From: 2010.06.25/outbox.cif.g09.slc.cpg/sg2_120_cif.got.tgz:239985.got - 2010.06.27 13:26:56.
