data_PCOD8036546
_publ_section_title
;
Structure prediction by ZEFSAII (Michael W. Deem and Ramdas Pophale) SiO2 
 PCOD8036546
Probable space group: P -1
;
_chemical_formula_sum "Si O2"
_cell_formula_units_Z 16
_cell_length_a 8.435519
_cell_length_b 19.428559
_cell_length_c 10.840676
_cell_angle_alpha 45.196231
_cell_angle_beta 42.665355
_cell_angle_gamma 75.849211
_cell_volume 702.435891
_symmetry_space_group_name_H-M "P -1"
_symmetry_group_IT_number 2
_symmetry_cell_setting 'triclinic'
loop_
_space_group_symop_operation_xyz
x,y,z
-x,-y,-z
loop_
_atom_site_type_symbol
_atom_site_label
_atom_site_fract_x
_atom_site_fract_y
_atom_site_fract_z
Si Si1 0.710900 0.348266 0.600279
Si Si2 0.717360 0.031409 0.724930
Si Si3 0.219892 0.156126 0.970002
Si Si4 0.736211 0.706579 0.891172
Si Si5 0.383668 0.923984 0.537991
Si Si6 0.430542 0.215759 0.514433
Si Si7 0.959337 0.569978 0.039390
Si Si8 0.725746 0.637740 0.719921
O O1 0.514085 0.277875 0.683948
O O2 0.840138 0.486382 0.333773
O O3 0.956819 0.327260 0.497576
O O4 0.522350 0.296148 0.896261
O O5 0.567857 0.005246 0.708261
O O6 0.969193 0.168413 0.416228
O O7 0.500000 0.000000 0.000000
O O8 0.837152 0.951248 0.776155
O O9 0.249535 0.133010 0.838743
O O10 0.957229 0.167323 0.131051
O O11 0.647485 0.676173 0.839504
O O12 0.742208 0.600762 0.080244
O O13 0.552556 0.861804 0.504747
O O14 0.500000 0.000000 0.500000
O O15 0.284106 0.282547 0.479108
O O16 0.752654 0.308536 0.249109
O O17 0.000000 0.500000 0.000000
O O18 0.500000 0.500000 0.000000
#
# Coordination Sequence:
#
# PCOD8036546 Si02
#       8
#     2   2   2   2   2   2   2   2
#     4  12  25  45  77 109 143 195 250 306 363 457
#     4  12  24  49  80 105 147 199 255 305 367 449
#     4  12  26  47  79 108 141 199 256 302 370 449
#     4  12  26  45  75 108 143 199 252 304 369 449
#     4  12  29  49  75 113 151 193 251 320 379 435
#     4  12  25  49  71 108 155 193 243 311 381 442
#     4  12  20  45  77 106 144 189 250 304 368 449
#     4  12  27  47  71 110 156 193 240 310 385 445
#
# _framework density 22.77788
#
# number of rings (size 3 to 8) (size 9 to 14) (size 15 to 20)
#    0.000    0.000    7.500    1.500    1.750    4.000 
#    0.000    0.000    0.000    0.000    0.000    0.000 
#    0.000    0.000    0.000    0.000    0.000    0.000 
#
# Total GULP energy -198412.788299 kJ/mol
# GULP energy per Si atom -12400.799269 kJ/mol
# Density = 2.272604 g / cm^3
# Si number density = 22.777880 Si / 1000 Ang^3
#
#
#
# Elastic Constant Matrix: (Units=GPa)
#
#
# Indices 1 2 3 4 5 6 
#
# 1 106.7690 31.9927 36.6811 4.7120 13.1422 3.8803
# 2 31.9927 111.0139 45.3004 11.9817 9.6923 10.3935
# 3 36.6811 45.3004 110.4474 18.5704 11.5425 0.0007
# 4 4.7120 11.9817 18.5704 44.1771 -7.8454 5.8383
# 5 13.1422 9.6923 11.5425 -7.8454 35.8852 1.3787
# 6 3.8803 10.3935 0.0007 5.8383 1.3787 50.7110
#
#
#
# Elastic Compliance Matrix: (Units=1/GPa)
#
#
# Indices 1 2 3 4 5 6 
#
# 1 0.011190 -0.001861 -0.002669 0.000003 -0.002721 -0.000401
# 2 -0.001861 0.011529 -0.003732 -0.001349 -0.001449 -0.002026
# 3 -0.002669 -0.003732 0.012607 -0.004779 -0.003176 0.001606
# 4 0.000003 -0.001349 -0.004779 0.026809 0.007878 -0.003024
# 5 -0.002721 -0.001449 -0.003176 0.007878 0.032047 -0.001273
# 6 -0.000401 -0.002026 0.001606 -0.003024 -0.001273 0.020548
#
#
# Mechanical properties :
#
#
# Convention : Reuss Voigt Hill
#
# Bulk Modulus (GPa) = 53.18922 61.79763 57.49342
# Shear Modulus (GPa) = 36.35780 40.43840 38.39810
#
# Velocity S-wave (km/s) = 3.99957 4.21805 4.11026
# Velocity P-wave (km/s) = 6.68810 7.13526 6.91530
#
# Compressibility (1/GPa) = 0.01880080
#
# Stress axis : x y z
#
# Youngs Moduli (GPa) = 89.36550 86.73822 79.32253
#
# Poissons Ratio (x) = 0.16140 0.21174
# Poissons Ratio (y) = 0.16629 0.29606
# Poissons Ratio (z) = 0.23854 0.32374
#
# Static dielectric constant tensor:
#      x y z
#    x 4.262670 -0.031930 0.213750 
#    y -0.031930 4.077660 -0.039540 
#    z 0.213750 -0.039540 4.233780 
# 
# 
# High freq. dielectric constant tensor:
#      x y z
#    x 1.896930 -0.003580 0.006260 
#    y -0.003580 1.911240 0.008300 
#    z 0.006260 0.008300 1.902840 
# 
# From -- ./inp_files/405374.got.cif
#   From: 2010.06.25/outbox.cif.g09.slc.cpg/sg2_203_cif.got.tgz:405374.got - 2010.06.27 13:26:56.
