data_PCOD8036335
_publ_section_title
;
Structure prediction by ZEFSAII (Michael W. Deem and Ramdas Pophale) SiO2 
 PCOD8036335
Probable space group: P -1
;
_chemical_formula_sum "Si O2"
_cell_formula_units_Z 16
_cell_length_a 9.917843
_cell_length_b 10.957232
_cell_length_c 18.577070
_cell_angle_alpha 135.706385
_cell_angle_beta 42.098222
_cell_angle_gamma 102.593926
_cell_volume 702.747825
_symmetry_space_group_name_H-M "P -1"
_symmetry_group_IT_number 2
_symmetry_cell_setting 'triclinic'
loop_
_space_group_symop_operation_xyz
x,y,z
-x,-y,-z
loop_
_atom_site_type_symbol
_atom_site_label
_atom_site_fract_x
_atom_site_fract_y
_atom_site_fract_z
Si Si1 0.461919 0.966477 0.325652
Si Si2 0.665672 0.754767 0.874726
Si Si3 0.416207 0.746442 0.117186
Si Si4 0.723289 0.261229 0.219261
Si Si5 0.225316 0.447856 0.588911
Si Si6 0.497003 0.453684 0.241722
Si Si7 0.179043 0.968879 0.570586
Si Si8 0.959652 0.728644 0.112449
O O1 0.507190 0.816947 0.176273
O O2 0.745189 0.897993 0.205361
O O3 0.220441 0.246673 0.527562
O O4 0.383900 0.898798 0.396857
O O5 0.691791 0.571232 0.736378
O O6 0.970490 0.645193 0.722498
O O7 0.539889 0.761924 0.003037
O O8 0.500000 0.000000 0.000000
O O9 0.096122 0.933831 0.315548
O O10 0.500000 0.500000 0.000000
O O11 0.513161 0.305201 0.377239
O O12 0.784425 0.428515 0.283346
O O13 0.595789 0.303828 0.210739
O O14 0.000000 0.000000 0.000000
O O15 0.319847 0.722589 0.449261
O O16 0.757210 0.341536 0.042254
O O17 0.146181 0.144368 0.714499
O O18 0.000000 0.500000 0.000000
#
# Coordination Sequence:
#
# PCOD8036335 Si02
#       8
#     2   2   2   2   2   2   2   2
#     4  12  25  43  75 105 141 186 244 297 363 432
#     4  12  28  48  75 108 149 195 247 298 366 434
#     4  12  26  48  75 104 147 192 242 304 361 432
#     4  11  26  48  74 102 145 185 238 299 362 427
#     4  11  27  47  72 108 139 189 243 296 358 433
#     4  12  26  46  74 103 145 191 236 296 363 433
#     4  12  25  47  72 105 144 187 238 300 364 433
#     4  12  25  44  70 109 147 186 238 300 366 431
#
# _framework density 22.767768
#
# number of rings (size 3 to 8) (size 9 to 14) (size 15 to 20)
#    0.000    0.250    2.500    6.000    8.750    2.500 
#    0.000    0.000    0.000    0.000    0.000    0.000 
#    0.000    0.000    0.000    0.000    0.000    0.000 
#
# Total GULP energy -198432.006379 kJ/mol
# GULP energy per Si atom -12402.000399 kJ/mol
# Density = 2.271595 g / cm^3
# Si number density = 22.767768 Si / 1000 Ang^3
#
#
#
# Elastic Constant Matrix: (Units=GPa)
#
#
# Indices 1 2 3 4 5 6 
#
# 1 149.2128 19.4832 44.0762 0.9114 10.7379 -3.7632
# 2 19.4832 92.5547 35.6246 14.5202 10.2284 -11.0148
# 3 44.0762 35.6246 116.2204 13.0924 2.6558 -3.9549
# 4 0.9114 14.5202 13.0924 31.5912 -3.8620 -2.9208
# 5 10.7379 10.2284 2.6558 -3.8620 59.0011 1.7182
# 6 -3.7632 -11.0148 -3.9549 -2.9208 1.7182 37.5208
#
#
#
# Elastic Compliance Matrix: (Units=1/GPa)
#
#
# Indices 1 2 3 4 5 6 
#
# 1 0.007695 -0.000520 -0.002841 0.001099 -0.001124 0.000457
# 2 -0.000520 0.013611 -0.003252 -0.004895 -0.002536 0.003336
# 3 -0.002841 -0.003252 0.010992 -0.002960 0.000402 -0.000330
# 4 0.001099 -0.004895 -0.002960 0.035567 0.003081 0.000989
# 5 -0.001124 -0.002536 0.000402 0.003081 0.017817 -0.001391
# 6 0.000457 0.003336 -0.000330 0.000989 -0.001391 0.027783
#
#
# Mechanical properties :
#
#
# Convention : Reuss Voigt Hill
#
# Bulk Modulus (GPa) = 52.43733 61.81736 57.12735
# Shear Modulus (GPa) = 37.58035 42.87621 40.22828
#
# Velocity S-wave (km/s) = 4.06716 4.34429 4.20801
# Velocity P-wave (km/s) = 6.71841 7.23699 6.98252
#
# Compressibility (1/GPa) = 0.01907038
#
# Stress axis : x y z
#
# Youngs Moduli (GPa) = 129.95886 73.47142 90.97692
#
# Poissons Ratio (x) = 0.03821 0.25850
# Poissons Ratio (y) = 0.06759 0.29585
# Poissons Ratio (z) = 0.36927 0.23892
#
# Static dielectric constant tensor:
#      x y z
#    x 4.445600 0.009550 -0.085960 
#    y 0.009550 4.152160 0.033380 
#    z -0.085960 0.033380 4.299240 
# 
# 
# High freq. dielectric constant tensor:
#      x y z
#    x 1.919860 -0.002140 -0.003310 
#    y -0.002140 1.896450 0.008900 
#    z -0.003310 0.008900 1.912180 
# 
# From -- ./inp_files/560016.got.cif
#   From: 2010.06.25/outbox.cif.g09.slc.cpg/sg2_281_cif.got.tgz:560016.got - 2010.06.27 13:26:56.
