data_PCOD8036596
_publ_section_title
;
Structure prediction by ZEFSAII (Michael W. Deem and Ramdas Pophale) SiO2 
 PCOD8036596
Probable space group: P -1
;
_chemical_formula_sum "Si O2"
_cell_formula_units_Z 16
_cell_length_a 11.249390
_cell_length_b 12.843532
_cell_length_c 13.351903
_cell_angle_alpha 95.946988
_cell_angle_beta 34.082845
_cell_angle_gamma 119.179811
_cell_volume 745.323614
_symmetry_space_group_name_H-M "P -1"
_symmetry_group_IT_number 2
_symmetry_cell_setting 'triclinic'
loop_
_space_group_symop_operation_xyz
x,y,z
-x,-y,-z
loop_
_atom_site_type_symbol
_atom_site_label
_atom_site_fract_x
_atom_site_fract_y
_atom_site_fract_z
Si Si1 0.817828 0.185397 0.064540
Si Si2 0.632930 0.662492 0.423670
Si Si3 0.362552 0.179742 0.048249
Si Si4 0.165683 0.333537 0.204531
Si Si5 0.695576 0.141834 0.681981
Si Si6 0.965097 0.865492 0.397015
Si Si7 0.098959 0.640698 0.789237
Si Si8 0.617917 0.301436 0.089603
O O1 0.827280 0.243154 0.171145
O O2 0.794538 0.263106 0.001045
O O3 0.534504 0.004657 0.242992
O O4 0.131940 0.237143 0.823154
O O5 0.500000 0.500000 0.500000
O O6 0.798470 0.731195 0.421729
O O7 0.378045 0.660180 0.587128
O O8 0.196398 0.226056 0.131622
O O9 0.605606 0.294609 0.977222
O O10 0.538274 0.193403 0.832364
O O11 0.104526 0.010804 0.252906
O O12 0.004598 0.277547 0.420040
O O13 0.954632 0.323802 0.276021
O O14 0.500000 0.500000 0.000000
O O15 0.769410 0.102002 0.726661
O O16 0.724505 0.823734 0.641020
O O17 0.796395 0.469291 0.017153
#
# Coordination Sequence:
#
# PCOD8036596 Si02
#       8
#     2   2   2   2   2   2   2   2
#     4  12  24  44  70 105 139 178 228 287 355 406
#     4  12  25  41  71 107 143 177 225 285 352 409
#     4  12  24  44  73 104 138 175 236 291 343 408
#     4  12  28  50  69  99 138 190 234 280 345 419
#     4  12  26  44  75 103 137 183 231 291 344 406
#     4  12  22  42  72 110 137 175 228 293 351 402
#     4  12  27  46  66 100 144 187 228 280 345 416
#     4  12  21  42  73 103 141 175 224 292 350 405
#
# _framework density 21.467182999999999
#
# number of rings (size 3 to 8) (size 9 to 14) (size 15 to 20)
#    0.000    0.000    7.500    3.375    0.000    2.000 
#    0.000    1.250    0.000    0.000    0.000    0.000 
#    0.000    0.000    0.000    0.000    0.000    0.000 
#
# Total GULP energy -198507.242331 kJ/mol
# GULP energy per Si atom -12406.702646 kJ/mol
# Density = 2.141832 g / cm^3
# Si number density = 21.467183 Si / 1000 Ang^3
#
#
#
# Elastic Constant Matrix: (Units=GPa)
#
#
# Indices 1 2 3 4 5 6 
#
# 1 88.2279 45.0811 35.4229 3.8305 -8.2177 7.6101
# 2 45.0811 130.0932 66.0273 3.6180 2.9658 20.3261
# 3 35.4229 66.0273 135.9329 2.1756 3.8737 -2.9068
# 4 3.8305 3.6180 2.1756 43.2722 0.0787 -4.8227
# 5 -8.2177 2.9658 3.8737 0.0787 26.1800 -6.2173
# 6 7.6101 20.3261 -2.9068 -4.8227 -6.2173 33.5879
#
#
#
# Elastic Compliance Matrix: (Units=1/GPa)
#
#
# Indices 1 2 3 4 5 6 
#
# 1 0.014830 -0.004233 -0.001950 -0.000881 0.005404 -0.000093
# 2 -0.004233 0.013389 -0.005445 -0.001419 -0.004071 -0.008572
# 3 -0.001950 -0.005445 0.010612 0.000614 -0.000461 0.004658
# 4 -0.000881 -0.001419 0.000614 0.023796 0.000834 0.004682
# 5 0.005404 -0.004071 -0.000461 0.000834 0.042607 0.009206
# 6 -0.000093 -0.008572 0.004658 0.004682 0.009206 0.037761
#
#
# Mechanical properties :
#
#
# Convention : Reuss Voigt Hill
#
# Bulk Modulus (GPa) = 64.20737 71.92407 68.06572
# Shear Modulus (GPa) = 29.16440 34.45619 31.81030
#
# Velocity S-wave (km/s) = 3.68986 4.01067 3.85361
# Velocity P-wave (km/s) = 6.93743 7.41783 7.18165
#
# Compressibility (1/GPa) = 0.01557454
#
# Stress axis : x y z
#
# Youngs Moduli (GPa) = 67.43120 74.68955 94.22948
#
# Poissons Ratio (x) = 0.31619 0.18376
# Poissons Ratio (y) = 0.28546 0.51306
# Poissons Ratio (z) = 0.13150 0.40667
#
# Static dielectric constant tensor:
#      x y z
#    x 3.854130 0.016130 -0.209860 
#    y 0.016130 4.117620 0.047140 
#    z -0.209860 0.047140 3.988770 
# 
# 
# High freq. dielectric constant tensor:
#      x y z
#    x 1.825540 0.007270 -0.010970 
#    y 0.007270 1.856840 0.001590 
#    z -0.010970 0.001590 1.853730 
# 
# From -- ./inp_files/433647.got.cif
#   From: 2010.06.25/outbox.cif.g09.slc.cpg/sg2_217_cif.got.tgz:433647.got - 2010.06.27 13:26:56.
