data_PCOD8036583
_publ_section_title
;
Structure prediction by ZEFSAII (Michael W. Deem and Ramdas Pophale) SiO2 
 PCOD8036583
Probable space group: P -1
;
_chemical_formula_sum "Si O2"
_cell_formula_units_Z 16
_cell_length_a 10.334660
_cell_length_b 11.625997
_cell_length_c 9.593452
_cell_angle_alpha 58.449646
_cell_angle_beta 49.588738
_cell_angle_gamma 67.302910
_cell_volume 745.978914
_symmetry_space_group_name_H-M "P -1"
_symmetry_group_IT_number 2
_symmetry_cell_setting 'triclinic'
loop_
_space_group_symop_operation_xyz
x,y,z
-x,-y,-z
loop_
_atom_site_type_symbol
_atom_site_label
_atom_site_fract_x
_atom_site_fract_y
_atom_site_fract_z
Si Si1 0.189707 0.234155 0.348971
Si Si2 0.779300 0.822230 0.111891
Si Si3 0.150865 0.751496 0.867526
Si Si4 0.349079 0.490362 0.005112
Si Si5 0.821070 0.224885 0.486624
Si Si6 0.486401 0.377754 0.689362
Si Si7 0.301786 0.035279 0.637185
Si Si8 0.316683 0.039494 0.167104
O O1 0.218590 0.393545 0.231229
O O2 0.228394 0.161029 0.515029
O O3 0.322637 0.167556 0.184195
O O4 0.995539 0.220968 0.450901
O O5 0.630712 0.726810 0.237166
O O6 0.722283 0.916405 0.219556
O O7 0.809894 0.921953 0.897195
O O8 0.958551 0.737348 0.065078
O O9 0.162958 0.716354 0.717191
O O10 0.203457 0.901616 0.766358
O O11 0.264856 0.640740 0.944538
O O12 0.500000 0.500000 0.000000
O O13 0.411929 0.426930 0.856286
O O14 0.677313 0.310960 0.620756
O O15 0.761114 0.073762 0.612467
O O16 0.500000 0.500000 0.500000
O O17 0.500000 0.000000 0.500000
O O18 0.500000 0.000000 0.000000
#
# Coordination Sequence:
#
# PCOD8036583 Si02
#       8
#     2   2   2   2   2   2   2   2
#     4  12  25  44  70 104 138 183 234 289 346 412
#     4  12  26  45  72 104 139 182 239 286 347 421
#     4  12  25  46  73 103 142 187 229 292 353 414
#     4  12  28  48  70 103 144 184 232 287 354 421
#     4  12  23  43  74 104 139 183 238 289 345 416
#     4  12  26  44  71 101 137 188 232 283 348 424
#     4  12  26  46  73 103 144 185 232 290 354 409
#     4  12  21  41  69 103 135 176 234 285 337 408
#
# _framework density 21.448326999999999
#
# number of rings (size 3 to 8) (size 9 to 14) (size 15 to 20)
#    0.000    0.000    6.250    3.750    3.500    3.000 
#    0.000    1.250    0.000    0.000    0.000    0.000 
#    0.000    0.000    0.000    0.000    0.000    0.000 
#
# Total GULP energy -198447.911730 kJ/mol
# GULP energy per Si atom -12402.994483 kJ/mol
# Density = 2.139951 g / cm^3
# Si number density = 21.448327 Si / 1000 Ang^3
#
#
#
# Elastic Constant Matrix: (Units=GPa)
#
#
# Indices 1 2 3 4 5 6 
#
# 1 98.2711 24.4375 19.1292 -11.8882 -6.8828 -13.1614
# 2 24.4375 85.7500 33.7486 -9.2070 0.1092 -9.1379
# 3 19.1292 33.7486 77.0372 -24.3115 -1.3311 -3.1157
# 4 -11.8882 -9.2070 -24.3115 42.5990 -8.8829 3.4735
# 5 -6.8828 0.1092 -1.3311 -8.8829 46.1127 3.2683
# 6 -13.1614 -9.1379 -3.1157 3.4735 3.2683 40.2163
#
#
#
# Elastic Compliance Matrix: (Units=1/GPa)
#
#
# Indices 1 2 3 4 5 6 
#
# 1 0.011777 -0.002420 -0.000957 0.002401 0.001996 0.002861
# 2 -0.002420 0.014933 -0.006326 -0.001461 -0.001025 0.002321
# 3 -0.000957 -0.006326 0.019094 0.009875 0.002419 -0.001321
# 4 0.002401 -0.001461 0.009875 0.031040 0.006769 -0.002012
# 5 0.001996 -0.001025 0.002419 0.006769 0.023494 -0.001886
# 6 0.002861 0.002321 -0.001321 -0.002012 -0.001886 0.026554
#
#
# Mechanical properties :
#
#
# Convention : Reuss Voigt Hill
#
# Bulk Modulus (GPa) = 37.87886 46.18766 42.03326
# Shear Modulus (GPa) = 32.23796 38.03514 35.13655
#
# Velocity S-wave (km/s) = 3.88113 4.21567 4.05185
# Velocity P-wave (km/s) = 6.14679 6.72882 6.44438
#
# Compressibility (1/GPa) = 0.02639995
#
# Stress axis : x y z
#
# Youngs Moduli (GPa) = 84.90978 66.96666 52.37151
#
# Poissons Ratio (x) = 0.16204 0.05010
# Poissons Ratio (y) = 0.20546 0.33130
# Poissons Ratio (z) = 0.08122 0.42362
#
# Static dielectric constant tensor:
#      x y z
#    x 3.927960 -0.106470 -0.103560 
#    y -0.106470 4.088360 -0.210930 
#    z -0.103560 -0.210930 3.853540 
# 
# 
# High freq. dielectric constant tensor:
#      x y z
#    x 1.849590 -0.011060 0.000260 
#    y -0.011060 1.849120 -0.004410 
#    z 0.000260 -0.004410 1.854260 
# 
# From -- ./inp_files/184810.got.cif
#   From: 2010.06.25/outbox.cif.g09.slc.cpg/sg2_93_cif.got.tgz:184810.got - 2010.06.27 13:26:56.
