data_PCOD8036424
_publ_section_title
;
Structure prediction by ZEFSAII (Michael W. Deem and Ramdas Pophale) SiO2 
 PCOD8036424
Probable space group: P -1
;
_chemical_formula_sum "Si O2"
_cell_formula_units_Z 16
_cell_length_a 21.331563
_cell_length_b 6.558670
_cell_length_c 8.636317
_cell_angle_alpha 124.530272
_cell_angle_beta 55.496096
_cell_angle_gamma 132.895905
_cell_volume 695.803813
_symmetry_space_group_name_H-M "P -1"
_symmetry_group_IT_number 2
_symmetry_cell_setting 'triclinic'
loop_
_space_group_symop_operation_xyz
x,y,z
-x,-y,-z
loop_
_atom_site_type_symbol
_atom_site_label
_atom_site_fract_x
_atom_site_fract_y
_atom_site_fract_z
Si Si1 0.268613 0.687294 0.272728
Si Si2 0.539117 0.816924 0.288329
Si Si3 0.008600 0.265089 0.796445
Si Si4 0.912141 0.412761 0.488025
Si Si5 0.849182 0.777940 0.234891
Si Si6 0.729291 0.204837 0.324738
Si Si7 0.448161 0.152679 0.082318
Si Si8 0.178995 0.134895 0.021740
O O1 0.166611 0.575181 0.308268
O O2 0.284650 0.753102 0.459126
O O3 0.267183 0.392432 0.100370
O O4 0.343650 0.962071 0.191191
O O5 0.483597 0.468050 0.248681
O O6 0.500000 0.000000 0.500000
O O7 0.637208 0.945965 0.274362
O O8 0.541799 0.843672 0.112866
O O9 0.057162 0.375647 0.612263
O O10 0.059714 0.168703 0.797400
O O11 0.907244 0.993189 0.798407
O O12 0.000000 0.500000 0.000000
O O13 0.000000 0.500000 0.500000
O O14 0.853119 0.075966 0.380786
O O15 0.761993 0.508301 0.322222
O O16 0.840676 0.726988 0.041363
O O17 0.803898 0.121078 0.160457
O O18 0.500000 0.000000 0.000000
#
# Coordination Sequence:
#
# PCOD8036424 Si02
#       8
#     2   2   2   2   2   2   2   2
#     4  12  26  47  72 104 144 191 236 298 356 430
#     4  11  27  48  79 112 146 191 233 304 371 444
#     4  12  23  44  65 100 141 189 247 299 353 423
#     4  12  28  44  66 106 142 193 247 295 362 421
#     4  12  23  45  68  96 147 188 243 298 360 421
#     4  12  26  47  69 109 146 185 244 295 359 434
#     4  11  26  51  76 113 147 185 246 296 372 447
#     4  12  26  44  72 101 143 195 243 297 358 419
#
# _framework density 22.994987999999999
#
# number of rings (size 3 to 8) (size 9 to 14) (size 15 to 20)
#    0.000    0.250    5.000    3.375    5.250    6.000 
#    0.000    0.000    0.000    0.000    0.000    0.000 
#    0.000    0.000    0.000    0.000    0.000    0.000 
#
# Total GULP energy -198318.230197 kJ/mol
# GULP energy per Si atom -12394.889387 kJ/mol
# Density = 2.294265 g / cm^3
# Si number density = 22.994988 Si / 1000 Ang^3
#
#
#
# Elastic Constant Matrix: (Units=GPa)
#
#
# Indices 1 2 3 4 5 6 
#
# 1 104.5767 41.5439 29.0518 -3.0871 2.0014 5.2154
# 2 41.5439 192.7028 62.7182 0.4069 -0.1491 17.0838
# 3 29.0518 62.7182 108.6200 4.8433 2.4401 0.7442
# 4 -3.0871 0.4069 4.8433 39.7040 11.8778 0.4814
# 5 2.0014 -0.1491 2.4401 11.8778 31.4232 0.0830
# 6 5.2154 17.0838 0.7442 0.4814 0.0830 42.3657
#
#
#
# Elastic Compliance Matrix: (Units=1/GPa)
#
#
# Indices 1 2 3 4 5 6 
#
# 1 0.010863 -0.001639 -0.001995 0.001438 -0.001087 -0.000656
# 2 -0.001639 0.006925 -0.003558 0.000159 0.000360 -0.002531
# 3 -0.001995 -0.003558 0.011857 -0.001510 -0.000244 0.001490
# 4 0.001438 0.000159 -0.001510 0.028727 -0.010831 -0.000520
# 5 -0.001087 0.000360 -0.000244 -0.010831 0.036007 0.000045
# 6 -0.000656 -0.002531 0.001490 -0.000520 0.000045 0.024685
#
#
# Mechanical properties :
#
#
# Convention : Reuss Voigt Hill
#
# Bulk Modulus (GPa) = 65.51917 74.72527 70.12222
# Shear Modulus (GPa) = 36.09200 40.87093 38.48146
#
# Velocity S-wave (km/s) = 3.96606 4.22048 4.09525
# Velocity P-wave (km/s) = 7.03758 7.50445 7.27476
#
# Compressibility (1/GPa) = 0.01526271
#
# Stress axis : x y z
#
# Youngs Moduli (GPa) = 92.05269 144.40584 84.33848
#
# Poissons Ratio (x) = 0.23661 0.16822
# Poissons Ratio (y) = 0.15083 0.30008
# Poissons Ratio (z) = 0.18361 0.51381
#
# Static dielectric constant tensor:
#      x y z
#    x 4.092020 0.241740 0.116490 
#    y 0.241740 4.663560 -0.068920 
#    z 0.116490 -0.068920 4.309780 
# 
# 
# High freq. dielectric constant tensor:
#      x y z
#    x 1.905140 0.007680 0.003610 
#    y 0.007680 1.933120 0.013590 
#    z 0.003610 0.013590 1.920770 
# 
# From -- ./inp_files/340653.got.cif
#   From: 2010.06.25/outbox.cif.g09.slc.cpg/sg2_171_cif.got.tgz:340653.got - 2010.06.27 13:26:56.
