data_PCOD8036551
_publ_section_title
;
Structure prediction by ZEFSAII (Michael W. Deem and Ramdas Pophale) SiO2 
 PCOD8036551
Probable space group: P -1
;
_chemical_formula_sum "Si O2"
_cell_formula_units_Z 16
_cell_length_a 14.624327
_cell_length_b 19.872571
_cell_length_c 10.453844
_cell_angle_alpha 149.032058
_cell_angle_beta 137.984276
_cell_angle_gamma 30.458053
_cell_volume 792.359641
_symmetry_space_group_name_H-M "P -1"
_symmetry_group_IT_number 2
_symmetry_cell_setting 'triclinic'
loop_
_space_group_symop_operation_xyz
x,y,z
-x,-y,-z
loop_
_atom_site_type_symbol
_atom_site_label
_atom_site_fract_x
_atom_site_fract_y
_atom_site_fract_z
Si Si1 0.716930 0.380080 0.889538
Si Si2 0.131165 0.330535 0.626864
Si Si3 0.757812 0.464901 0.484887
Si Si4 0.381199 0.113488 0.292455
Si Si5 0.498193 0.573857 0.750211
Si Si6 0.968631 0.634838 0.789491
Si Si7 0.490182 0.311361 0.639421
Si Si8 0.376625 0.267383 0.994247
O O1 0.679413 0.417677 0.760467
O O2 0.679429 0.253021 0.687327
O O3 0.566592 0.567480 0.100931
O O4 0.913765 0.307192 0.016677
O O5 0.278449 0.202826 0.464737
O O6 0.226710 0.280116 0.781155
O O7 0.973534 0.319468 0.451249
O O8 0.028767 0.533178 0.821036
O O9 0.679418 0.366400 0.260471
O O10 0.666719 0.587626 0.466128
O O11 0.718591 0.577991 0.752360
O O12 0.237360 0.189120 0.149698
O O13 0.515484 0.148375 0.451879
O O14 0.494728 0.910952 0.086435
O O15 0.500000 0.500000 0.500000
O O16 0.503594 0.725639 0.973820
O O17 0.000000 0.500000 0.500000
#
# Coordination Sequence:
#
# PCOD8036551 Si02
#       8
#     2   2   2   2   2   2   2   2
#     4  10  17  31  58  81 105 147 194 230 261 326
#     4  11  19  36  57  83 108 146 195 228 269 336
#     4  10  21  36  58  80 110 148 194 231 264 337
#     4  11  21  35  56  85 118 141 180 242 288 320
#     4   9  19  36  56  81 111 149 194 224 273 336
#     4  10  17  32  54  81 109 141 186 226 265 324
#     4  10  18  32  53  83 110 141 187 230 277 323
#     4  11  22  36  56  83 115 150 181 231 292 328
#
# _framework density 20.192851000000001
#
# number of rings (size 3 to 8) (size 9 to 14) (size 15 to 20)
#    0.000    1.750    5.000    1.500    0.000    0.500 
#    0.000    1.875    0.000    6.750    0.000    0.000 
#    0.000    0.000    0.000    0.000    0.000    0.000 
#
# Total GULP energy -198272.066043 kJ/mol
# GULP energy per Si atom -12392.004128 kJ/mol
# Density = 2.014689 g / cm^3
# Si number density = 20.192851 Si / 1000 Ang^3
#
#
#
# Elastic Constant Matrix: (Units=GPa)
#
#
# Indices 1 2 3 4 5 6 
#
# 1 89.6735 23.0814 32.7317 -4.5962 33.0183 -0.6815
# 2 23.0814 82.9124 26.4864 -12.5674 16.8379 0.4135
# 3 32.7317 26.4864 56.5050 -16.2910 22.7728 -6.1453
# 4 -4.5962 -12.5674 -16.2910 33.8310 4.4294 8.4416
# 5 33.0183 16.8379 22.7728 4.4294 47.4208 -14.4455
# 6 -0.6815 0.4135 -6.1453 8.4416 -14.4455 23.3207
#
#
#
# Elastic Compliance Matrix: (Units=1/GPa)
#
#
# Indices 1 2 3 4 5 6 
#
# 1 0.018357 0.000175 -0.004571 0.005184 -0.014679 -0.011640
# 2 0.000175 0.015706 -0.003311 0.007301 -0.007327 -0.008327
# 3 -0.004571 -0.003311 0.032092 0.017305 -0.014821 -0.007063
# 4 0.005184 0.007301 0.017305 0.053437 -0.029582 -0.033085
# 5 -0.014679 -0.007327 -0.014821 -0.029582 0.056417 0.041450
# 6 -0.011640 -0.008327 -0.007063 -0.033085 0.041450 0.078478
#
#
# Mechanical properties :
#
#
# Convention : Reuss Voigt Hill
#
# Bulk Modulus (GPa) = 19.70835 43.74335 31.72585
# Shear Modulus (GPa) = 17.43279 30.70058 24.06668
#
# Velocity S-wave (km/s) = 2.94141 3.90342 3.45605
# Velocity P-wave (km/s) = 4.61704 6.48270 5.62772
#
# Compressibility (1/GPa) = 0.05073991
#
# Stress axis : x y z
#
# Youngs Moduli (GPa) = 54.47466 63.66924 31.16061
#
# Poissons Ratio (x) = -0.01112 0.14244
# Poissons Ratio (y) = -0.00952 0.10318
# Poissons Ratio (z) = 0.24901 0.21082
#
# Static dielectric constant tensor:
#      x y z
#    x 4.237720 0.147980 0.478750 
#    y 0.147980 3.664570 -0.392050 
#    z 0.478750 -0.392050 3.658410 
# 
# 
# High freq. dielectric constant tensor:
#      x y z
#    x 1.801440 0.015410 0.020950 
#    y 0.015410 1.759710 -0.048750 
#    z 0.020950 -0.048750 1.765310 
# 
# From -- ./inp_files/319204.got.cif
#   From: 2010.06.25/outbox.cif.g09.slc.cpg/sg2_160_cif.got.tgz:319204.got - 2010.06.27 13:26:56.
