data_PCOD8036967
_publ_section_title
;
Structure prediction by ZEFSAII (Michael W. Deem and Ramdas Pophale) SiO2 
 PCOD8036967
Probable space group: P -1
;
_chemical_formula_sum "Si O2"
_cell_formula_units_Z 16
_cell_length_a 25.920336
_cell_length_b 8.146378
_cell_length_c 25.868926
_cell_angle_alpha 136.340979
_cell_angle_beta 169.231762
_cell_angle_gamma 43.418213
_cell_volume 699.375953
_symmetry_space_group_name_H-M "P -1"
_symmetry_group_IT_number 2
_symmetry_cell_setting 'triclinic'
loop_
_space_group_symop_operation_xyz
x,y,z
-x,-y,-z
loop_
_atom_site_type_symbol
_atom_site_label
_atom_site_fract_x
_atom_site_fract_y
_atom_site_fract_z
Si Si1 0.938166 0.635172 0.522653
Si Si2 0.098007 0.889605 0.124797
Si Si3 0.849326 0.245351 0.431128
Si Si4 0.105906 0.873092 0.920506
Si Si5 0.412338 0.911120 0.599586
Si Si6 0.297184 0.334366 0.968815
Si Si7 0.367157 0.417646 0.402056
Si Si8 0.407848 0.959495 0.080492
O O1 0.000000 0.500000 0.500000
O O2 0.849215 0.455435 0.437280
O O3 0.687903 0.828201 0.302531
O O4 0.183825 0.771736 0.817783
O O5 0.426040 0.804947 0.423035
O O6 0.042639 0.084330 0.160463
O O7 0.936571 0.659679 0.924281
O O8 0.000000 0.000000 0.000000
O O9 0.531849 0.237528 0.135459
O O10 0.000000 0.000000 0.500000
O O11 0.002694 0.299448 0.646772
O O12 0.286618 0.614253 0.035084
O O13 0.867419 0.913175 0.650579
O O14 0.334643 0.058825 0.183704
O O15 0.336132 0.640617 0.461903
O O16 0.526205 0.967771 0.780286
O O17 0.317927 0.191832 0.010494
O O18 0.500000 0.500000 0.500000
#
# Coordination Sequence:
#
# PCOD8036967 Si02
#       8
#     2   2   2   2   2   2   2   2
#     4  12  25  46  73 100 136 177 226 276 330 403
#     4  12  26  44  69 101 139 177 232 287 349 404
#     4  12  25  46  72 101 136 179 220 274 338 406
#     4  12  24  45  67  98 136 184 225 282 347 410
#     4  12  25  43  72  96 137 181 232 282 342 407
#     4  12  26  44  68 100 139 176 224 277 342 404
#     4  12  23  46  70 100 131 183 235 282 338 414
#     4  12  26  45  67 104 135 177 227 280 335 401
#
# _framework density 22.877538000000001
#
# number of rings (size 3 to 8) (size 9 to 14) (size 15 to 20)
#    0.000    0.000    2.500    9.000    1.750    0.000 
#    2.250    0.000    0.000    0.000    0.000    0.000 
#    0.000    0.000    0.000    0.000    0.000    0.000 
#
# Total GULP energy -198451.186670 kJ/mol
# GULP energy per Si atom -12403.199167 kJ/mol
# Density = 2.282547 g / cm^3
# Si number density = 22.877538 Si / 1000 Ang^3
#
#
#
# Elastic Constant Matrix: (Units=GPa)
#
#
# Indices 1 2 3 4 5 6 
#
# 1 100.5196 35.3231 7.0779 -3.4960 -16.9927 5.4091
# 2 35.3231 110.8340 7.9519 -11.4819 -4.3583 -6.8674
# 3 7.0779 7.9519 80.4904 -3.5346 -4.6872 3.8365
# 4 -3.4960 -11.4819 -3.5346 47.6192 -1.6905 -7.9716
# 5 -16.9927 -4.3583 -4.6872 -1.6905 40.4694 4.3405
# 6 5.4091 -6.8674 3.8365 -7.9716 4.3405 64.8581
#
#
#
# Elastic Compliance Matrix: (Units=1/GPa)
#
#
# Indices 1 2 3 4 5 6 
#
# 1 0.012219 -0.003804 -0.000339 -0.000165 0.004862 -0.001748
# 2 -0.003804 0.010637 -0.000730 0.002517 -0.000628 0.001838
# 3 -0.000339 -0.000730 0.012672 0.000652 0.001361 -0.000809
# 4 -0.000165 0.002517 0.000652 0.022161 0.000891 0.002906
# 5 0.004862 -0.000628 0.001361 0.000891 0.027121 -0.002258
# 6 -0.001748 0.001838 -0.000809 0.002906 -0.002258 0.016315
#
#
# Mechanical properties :
#
#
# Convention : Reuss Voigt Hill
#
# Bulk Modulus (GPa) = 38.78776 43.61666 41.20221
# Shear Modulus (GPa) = 41.85261 46.68873 44.27067
#
# Velocity S-wave (km/s) = 4.28181 4.52243 4.40377
# Velocity P-wave (km/s) = 6.43712 6.81003 6.62620
#
# Compressibility (1/GPa) = 0.02578133
#
# Stress axis : x y z
#
# Youngs Moduli (GPa) = 81.83800 94.00986 78.91233
#
# Poissons Ratio (x) = 0.35763 0.02679
# Poissons Ratio (y) = 0.31132 0.05761
# Poissons Ratio (z) = 0.02778 0.06863
#
# Static dielectric constant tensor:
#      x y z
#    x 4.044350 0.151270 -0.057390 
#    y 0.151270 4.374440 -0.197680 
#    z -0.057390 -0.197680 5.069180 
# 
# 
# High freq. dielectric constant tensor:
#      x y z
#    x 1.905580 -0.004190 -0.005980 
#    y -0.004190 1.912410 -0.005540 
#    z -0.005980 -0.005540 1.923620 
# 
# From -- ./inp_files/621185.got.cif
#   From: 2010.06.25/outbox.cif.g09.slc.cpg/sg2_311_cif.got.tgz:621185.got - 2010.06.27 13:26:56.
