data_PCOD8036423
_publ_section_title
;
Structure prediction by ZEFSAII (Michael W. Deem and Ramdas Pophale) SiO2 
 PCOD8036423
Probable space group: P -1
;
_chemical_formula_sum "Si O2"
_cell_formula_units_Z 12
_cell_length_a 7.938147
_cell_length_b 8.669900
_cell_length_c 8.280801
_cell_angle_alpha 93.716182
_cell_angle_beta 73.978849
_cell_angle_gamma 129.438796
_cell_volume 418.333210
_symmetry_space_group_name_H-M "P -1"
_symmetry_group_IT_number 2
_symmetry_cell_setting 'triclinic'
loop_
_space_group_symop_operation_xyz
x,y,z
-x,-y,-z
loop_
_atom_site_type_symbol
_atom_site_label
_atom_site_fract_x
_atom_site_fract_y
_atom_site_fract_z
Si Si1 0.145453 0.533870 0.113157
Si Si2 0.364600 0.105934 0.114157
Si Si3 0.103850 0.914460 0.875389
Si Si4 0.810057 0.209669 0.609350
Si Si5 0.488383 0.260871 0.579608
Si Si6 0.254844 0.310087 0.363523
O O1 0.078570 0.600788 0.288219
O O2 0.073507 0.315709 0.161902
O O3 0.405353 0.690207 0.999593
O O4 0.000000 0.500000 0.000000
O O5 0.215095 0.175851 0.208622
O O6 0.376848 0.001314 0.260004
O O7 0.258732 0.938095 0.987112
O O8 0.257781 0.058000 0.696386
O O9 0.000000 0.000000 0.000000
O O10 0.672171 0.224157 0.506317
O O11 0.009850 0.208827 0.499156
O O12 0.426498 0.307565 0.432110
O O13 0.605035 0.450016 0.688388
#
# Coordination Sequence:
#
# PCOD8036423 Si02
#       6
#     2   2   2   2   2   2
#     4  12  26  46  81 113 155 203 258 324 383 457
#     4  12  26  51  78 115 158 201 257 327 385 460
#     4  12  26  47  79 117 152 203 265 314 387 463
#     4  12  25  51  79 115 153 206 260 315 390 464
#     4  11  26  51  76 111 156 206 260 313 387 465
#     4  11  28  50  78 111 159 206 254 321 391 460
#
# _framework density 28.685268000000001
#
# number of rings (size 3 to 8) (size 9 to 14) (size 15 to 20)
#    0.000    0.333    3.333    4.500    7.000    2.000 
#    3.000    0.000    0.000    0.000    0.000    0.000 
#    0.000    0.000    0.000    0.000    0.000    0.000 
#
# Total GULP energy -148784.740308 kJ/mol
# GULP energy per Si atom -12398.728359 kJ/mol
# Density = 2.861998 g / cm^3
# Si number density = 28.685268 Si / 1000 Ang^3
#
#
#
# Elastic Constant Matrix: (Units=GPa)
#
#
# Indices 1 2 3 4 5 6 
#
# 1 126.1232 25.2665 36.8578 -1.3446 -13.5452 -10.2893
# 2 25.2665 225.6259 57.4689 17.7251 -9.5167 9.1116
# 3 36.8578 57.4689 84.3611 14.7025 -23.8784 3.4473
# 4 -1.3446 17.7251 14.7025 70.7133 -5.7743 0.6530
# 5 -13.5452 -9.5167 -23.8784 -5.7743 42.6984 -7.1471
# 6 -10.2893 9.1116 3.4473 0.6530 -7.1471 45.0423
#
#
#
# Elastic Compliance Matrix: (Units=1/GPa)
#
#
# Indices 1 2 3 4 5 6 
#
# 1 0.009500 -0.000203 -0.003931 0.001136 0.001378 0.002714
# 2 -0.000203 0.005474 -0.003836 -0.000671 -0.001256 -0.001050
# 3 -0.003931 -0.003836 0.018904 -0.002379 0.008106 -0.000248
# 4 0.001136 -0.000671 -0.002379 0.014902 0.000982 0.000517
# 5 0.001378 -0.001256 0.008106 0.000982 0.029003 0.004536
# 6 0.002714 -0.001050 -0.000248 0.000517 0.004536 0.023765
#
#
# Mechanical properties :
#
#
# Convention : Reuss Voigt Hill
#
# Bulk Modulus (GPa) = 55.74985 75.03296 65.39141
# Shear Modulus (GPa) = 40.49693 52.79193 46.64443
#
# Velocity S-wave (km/s) = 3.76143 4.29462 4.03684
# Velocity P-wave (km/s) = 6.19206 7.12782 6.67636
#
# Compressibility (1/GPa) = 0.01793727
#
# Stress axis : x y z
#
# Youngs Moduli (GPa) = 105.26561 182.67937 52.89991
#
# Poissons Ratio (x) = 0.03715 0.20794
# Poissons Ratio (y) = 0.02141 0.20292
# Poissons Ratio (z) = 0.41379 0.70073
#
# Static dielectric constant tensor:
#      x y z
#    x 6.106570 -0.002680 0.668210 
#    y -0.002680 6.364140 0.554880 
#    z 0.668210 0.554880 5.649810 
# 
# 
# High freq. dielectric constant tensor:
#      x y z
#    x 2.202570 -0.010460 0.018940 
#    y -0.010460 2.192310 0.014400 
#    z 0.018940 0.014400 2.160950 
# 
# From -- ./inp_files/159170.got.cif
#   From: 2010.06.25/outbox.cif.g09.slc.cpg/sg2_80_cif.got.tgz:159170.got - 2010.06.27 13:26:56.
