data_PCOD8036722
_publ_section_title
;
Structure prediction by ZEFSAII (Michael W. Deem and Ramdas Pophale) SiO2 
 PCOD8036722
Probable space group: P -1
;
_chemical_formula_sum "Si O2"
_cell_formula_units_Z 16
_cell_length_a 6.554946
_cell_length_b 22.678182
_cell_length_c 14.135164
_cell_angle_alpha 148.617027
_cell_angle_beta 120.840464
_cell_angle_gamma 81.743264
_cell_volume 707.767343
_symmetry_space_group_name_H-M "P -1"
_symmetry_group_IT_number 2
_symmetry_cell_setting 'triclinic'
loop_
_space_group_symop_operation_xyz
x,y,z
-x,-y,-z
loop_
_atom_site_type_symbol
_atom_site_label
_atom_site_fract_x
_atom_site_fract_y
_atom_site_fract_z
Si Si1 0.473326 0.611717 0.100456
Si Si2 0.223521 0.615649 0.381428
Si Si3 0.230845 0.241455 0.821977
Si Si4 0.716508 0.573913 0.744905
Si Si5 0.491715 0.998387 0.738847
Si Si6 0.675538 0.812065 0.589176
Si Si7 0.279636 0.869209 0.840519
Si Si8 0.381625 0.855835 0.216117
O O1 0.589143 0.641958 0.061834
O O2 0.682431 0.761902 0.417160
O O3 0.500000 0.500000 0.000000
O O4 0.119086 0.545467 0.937388
O O5 0.389318 0.573079 0.426866
O O6 0.389207 0.685761 0.416284
O O7 0.172189 0.715689 0.563388
O O8 0.327825 0.140865 0.715406
O O9 0.857945 0.133336 0.564739
O O10 0.337023 0.336558 0.074577
O O11 0.500000 0.500000 0.500000
O O12 0.082960 0.695781 0.968109
O O13 0.659528 0.939566 0.739706
O O14 0.702378 0.121982 0.876848
O O15 0.516127 0.090497 0.960537
O O16 0.990707 0.865194 0.787296
O O17 0.500000 0.000000 0.000000
O O18 0.500000 0.000000 0.500000
#
# Coordination Sequence:
#
# PCOD8036722 Si02
#       8
#     2   2   2   2   2   2   2   2
#     4  12  22  43  75 102 142 188 238 302 367 435
#     4  12  26  47  71 109 147 190 251 297 371 446
#     4  12  26  51  72 110 147 192 257 305 367 443
#     4  12  30  48  77 110 148 200 246 311 376 440
#     4  12  26  45  78 103 146 199 241 309 372 434
#     4  12  25  47  72 108 146 189 243 303 374 443
#     4  12  27  47  70 112 149 192 243 305 374 440
#     4  12  27  51  76 109 146 197 257 304 366 448
#
# _framework density 22.606297999999999
#
# number of rings (size 3 to 8) (size 9 to 14) (size 15 to 20)
#    0.000    0.000    5.000    4.875    3.500    0.500 
#    0.000    0.000    0.000    0.000    0.000    0.000 
#    0.000    0.000    0.000    0.000    0.000    0.000 
#
# Total GULP energy -198361.627845 kJ/mol
# GULP energy per Si atom -12397.601740 kJ/mol
# Density = 2.255485 g / cm^3
# Si number density = 22.606298 Si / 1000 Ang^3
#
#
#
# Elastic Constant Matrix: (Units=GPa)
#
#
# Indices 1 2 3 4 5 6 
#
# 1 110.4587 45.2174 38.2027 -5.0964 -10.6481 3.5960
# 2 45.2174 136.8469 33.4956 3.7948 -17.8405 13.1891
# 3 38.2027 33.4956 96.1719 -18.8113 -12.4763 0.9093
# 4 -5.0964 3.7948 -18.8113 45.5207 10.1263 -4.9969
# 5 -10.6481 -17.8405 -12.4763 10.1263 32.5605 3.5667
# 6 3.5960 13.1891 0.9093 -4.9969 3.5667 52.0854
#
#
#
# Elastic Compliance Matrix: (Units=1/GPa)
#
#
# Indices 1 2 3 4 5 6 
#
# 1 0.011498 -0.002808 -0.003495 -0.000142 0.000938 -0.000100
# 2 -0.002808 0.009837 -0.002325 -0.003530 0.005001 -0.002938
# 3 -0.003495 -0.002325 0.013776 0.005369 0.001080 0.001031
# 4 -0.000142 -0.003530 0.005369 0.026839 -0.008707 0.003981
# 5 0.000938 0.005001 0.001080 -0.008707 0.037400 -0.004746
# 6 -0.000100 -0.002938 0.001031 0.003981 -0.004746 0.020639
#
#
# Mechanical properties :
#
#
# Convention : Reuss Voigt Hill
#
# Bulk Modulus (GPa) = 56.00096 64.14543 60.07320
# Shear Modulus (GPa) = 34.91688 41.13744 38.02716
#
# Velocity S-wave (km/s) = 3.93436 4.27046 4.10585
# Velocity P-wave (km/s) = 6.74277 7.26309 7.00776
#
# Compressibility (1/GPa) = 0.01785684
#
# Stress axis : x y z
#
# Youngs Moduli (GPa) = 86.96821 101.65432 72.58808
#
# Poissons Ratio (x) = 0.28546 0.25368
# Poissons Ratio (y) = 0.24422 0.16875
# Poissons Ratio (z) = 0.30393 0.23632
#
# Static dielectric constant tensor:
#      x y z
#    x 3.969070 -0.591150 1.025270 
#    y -0.591150 3.832030 0.988930 
#    z 1.025270 0.988930 2.164860 
# 
# 
# High freq. dielectric constant tensor:
#      x y z
#    x 1.896430 0.007650 -0.007540 
#    y 0.007650 1.909140 -0.001190 
#    z -0.007540 -0.001190 1.896270 
# 
# From -- ./inp_files/363880.got.cif
#   From: 2010.06.25/outbox.cif.g09.slc.cpg/sg2_182_cif.got.tgz:363880.got - 2010.06.27 13:26:56.
