data_PCOD8036749
_publ_section_title
;
Structure prediction by ZEFSAII (Michael W. Deem and Ramdas Pophale) SiO2 
 PCOD8036749
Probable space group: P -1
;
_chemical_formula_sum "Si O2"
_cell_formula_units_Z 16
_cell_length_a 9.139929
_cell_length_b 13.961343
_cell_length_c 11.539373
_cell_angle_alpha 148.009600
_cell_angle_beta 72.137695
_cell_angle_gamma 98.869419
_cell_volume 725.907651
_symmetry_space_group_name_H-M "P -1"
_symmetry_group_IT_number 2
_symmetry_cell_setting 'triclinic'
loop_
_space_group_symop_operation_xyz
x,y,z
-x,-y,-z
loop_
_atom_site_type_symbol
_atom_site_label
_atom_site_fract_x
_atom_site_fract_y
_atom_site_fract_z
Si Si1 0.847458 0.254267 0.145177
Si Si2 0.685607 0.934769 0.880262
Si Si3 0.828772 0.614127 0.127800
Si Si4 0.313751 0.422089 0.631902
Si Si5 0.215631 0.188509 0.021943
Si Si6 0.337613 0.621129 0.209782
Si Si7 0.316970 0.021574 0.586987
Si Si8 0.339501 0.559879 0.404554
O O1 0.806673 0.399284 0.200235
O O2 0.781091 0.323702 0.357693
O O3 0.032562 0.221150 0.074782
O O4 0.776114 0.078124 0.943255
O O5 0.724044 0.747109 0.605990
O O6 0.753207 0.920626 0.978298
O O7 0.500000 0.000000 0.000000
O O8 0.711890 0.608606 0.257723
O O9 0.799732 0.828749 0.312492
O O10 0.788325 0.502166 0.912079
O O11 0.000000 0.500000 0.000000
O O12 0.486865 0.458756 0.603401
O O13 0.291724 0.366281 0.197392
O O14 0.299896 0.066302 0.772130
O O15 0.336897 0.664533 0.390709
O O16 0.283846 0.818275 0.360359
O O17 0.500000 0.500000 0.000000
O O18 0.500000 0.000000 0.500000
#
# Coordination Sequence:
#
# PCOD8036749 Si02
#       8
#     2   2   2   2   2   2   2   2
#     4  12  26  46  70 107 142 186 232 294 364 415
#     4  12  26  44  70 105 141 183 234 288 353 428
#     4  12  28  47  71 108 148 183 239 307 361 414
#     4  12  26  45  71 101 142 190 236 287 357 428
#     4  12  26  45  74 105 144 182 236 301 355 423
#     4  12  24  47  75 105 137 192 244 297 352 427
#     4  12  25  46  77 106 136 193 247 286 354 432
#     4  12  22  45  74 100 143 190 236 290 354 434
#
# _framework density 22.041371000000002
#
# number of rings (size 3 to 8) (size 9 to 14) (size 15 to 20)
#    0.000    0.000    6.250    3.375    1.750    2.500 
#    0.000    0.000    0.000    0.000    0.000    0.000 
#    0.000    0.000    0.000    0.000    0.000    0.000 
#
# Total GULP energy -198383.013356 kJ/mol
# GULP energy per Si atom -12398.938335 kJ/mol
# Density = 2.199120 g / cm^3
# Si number density = 22.041371 Si / 1000 Ang^3
#
#
#
# Elastic Constant Matrix: (Units=GPa)
#
#
# Indices 1 2 3 4 5 6 
#
# 1 66.4244 9.0115 64.8630 9.3638 2.4066 -16.9150
# 2 9.0115 99.3614 52.2884 20.9598 6.7800 -13.0998
# 3 64.8630 52.2884 103.7362 19.2594 0.9333 10.1096
# 4 9.3638 20.9598 19.2594 55.8274 -0.4386 -3.6477
# 5 2.4066 6.7800 0.9333 -0.4386 34.1806 4.3306
# 6 -16.9150 -13.0998 10.1096 -3.6477 4.3306 34.4649
#
#
#
# Elastic Compliance Matrix: (Units=1/GPa)
#
#
# Indices 1 2 3 4 5 6 
#
# 1 -0.070909 -0.043415 0.073801 -0.002055 0.021170 -0.075828
# 2 -0.043415 -0.009800 0.036367 -0.003947 0.008671 -0.037207
# 3 0.073801 0.036367 -0.061460 -0.000377 -0.019669 0.070503
# 4 -0.002055 -0.003947 -0.000377 0.019849 0.001250 -0.000455
# 5 0.021170 0.008671 -0.019669 0.001250 0.024507 0.016508
# 6 -0.075828 -0.037207 0.070503 -0.000455 0.016508 -0.045146
#
#
# Mechanical properties :
#
#
# Convention : Reuss Voigt Hill
#
# Bulk Modulus (GPa) = -115.43328 57.98310 -28.72509
# Shear Modulus (GPa) = -17.89857 34.45183 8.27663
#
# Velocity S-wave (km/s) = -2.85273 3.95784 1.93990
# Velocity P-wave (km/s) = 7.95837 6.87383 2.83603
#
# Compressibility (1/GPa) = -0.00866301
#
# Stress axis : x y z
#
# Youngs Moduli (GPa) = -14.10267 -102.03705 -16.27070
#
# Poissons Ratio (x) = -4.42990 1.20080
# Poissons Ratio (y) = -0.61226 0.59171
# Poissons Ratio (z) = 1.04079 3.71074
#
# Static dielectric constant tensor:
#      x y z
#    x 3.761680 0.057780 0.270920 
#    y 0.057780 4.314960 0.028040 
#    z 0.270920 0.028040 4.410110 
# 
# 
# High freq. dielectric constant tensor:
#      x y z
#    x 1.871720 0.000970 0.003250 
#    y 0.000970 1.883060 0.003410 
#    z 0.003250 0.003410 1.877520 
# 
# From -- ./inp_files/273942.got.cif
#   From: 2010.06.25/outbox.cif.g09.slc.cpg/sg2_137_cif.got.tgz:273942.got - 2010.06.27 13:26:56.
