data_PCOD8036631
_publ_section_title
;
Structure prediction by ZEFSAII (Michael W. Deem and Ramdas Pophale) SiO2 
 PCOD8036631
Probable space group: P -1
;
_chemical_formula_sum "Si O2"
_cell_formula_units_Z 16
_cell_length_a 12.084111
_cell_length_b 8.784565
_cell_length_c 9.207806
_cell_angle_alpha 99.379798
_cell_angle_beta 78.077257
_cell_angle_gamma 127.056363
_cell_volume 762.285703
_symmetry_space_group_name_H-M "P -1"
_symmetry_group_IT_number 2
_symmetry_cell_setting 'triclinic'
loop_
_space_group_symop_operation_xyz
x,y,z
-x,-y,-z
loop_
_atom_site_type_symbol
_atom_site_label
_atom_site_fract_x
_atom_site_fract_y
_atom_site_fract_z
Si Si1 0.102179 0.684644 0.915745
Si Si2 0.919748 0.804193 0.067869
Si Si3 0.512172 0.346288 0.393377
Si Si4 0.603897 0.485169 0.069766
Si Si5 0.007260 0.167324 0.610323
Si Si6 0.277210 0.911761 0.385764
Si Si7 0.645430 0.174713 0.935434
Si Si8 0.793405 0.401658 0.408990
O O1 0.139471 0.631251 0.749231
O O2 0.241265 0.821770 0.994981
O O3 0.000000 0.500000 0.000000
O O4 0.999870 0.745595 0.935954
O O5 0.752386 0.690792 0.078703
O O6 0.941161 0.811977 0.236024
O O7 0.000000 0.000000 0.000000
O O8 0.500000 0.500000 0.500000
O O9 0.520448 0.387242 0.226201
O O10 0.647539 0.361938 0.405956
O O11 0.382911 0.132443 0.442137
O O12 0.500000 0.500000 0.000000
O O13 0.651600 0.363512 0.967535
O O14 0.104713 0.374740 0.535071
O O15 0.852475 0.106555 0.652264
O O16 0.000000 0.000000 0.500000
O O17 0.347878 0.862980 0.239447
O O18 0.227816 0.753475 0.496973
O O19 0.500000 0.000000 0.000000
#
# Coordination Sequence:
#
# PCOD8036631 Si02
#       8
#     2   2   2   2   2   2   2   2
#     4  12  21  47  75  95 140 188 238 296 354 409
#     4  12  28  46  74 106 142 190 239 295 363 425
#     4  12  26  49  69 100 151 191 233 296 360 428
#     4  12  28  48  72 106 142 190 239 297 361 425
#     4  12  26  47  69 107 150 186 233 297 360 426
#     4  12  27  43  74 108 136 191 242 290 358 426
#     4  12  23  45  72 101 139 184 241 298 344 417
#     4  12  25  48  71 106 143 190 242 293 355 426
#
# _framework density 20.989507
#
# number of rings (size 3 to 8) (size 9 to 14) (size 15 to 20)
#    0.000    0.000    7.500    1.500    7.000    1.000 
#    0.000    0.000    0.000    0.000    0.000    0.000 
#    0.000    0.000    0.000    0.000    0.000    0.000 
#
# Total GULP energy -198221.682221 kJ/mol
# GULP energy per Si atom -12388.855139 kJ/mol
# Density = 2.094173 g / cm^3
# Si number density = 20.989507 Si / 1000 Ang^3
#
#
#
# Elastic Constant Matrix: (Units=GPa)
#
#
# Indices 1 2 3 4 5 6 
#
# 1 141.6339 46.2311 51.1423 -1.4091 -3.0922 9.9881
# 2 46.2311 179.1322 65.3369 -11.5940 -8.6278 2.7897
# 3 51.1423 65.3369 104.9721 6.4605 -8.4606 -1.3434
# 4 -1.4091 -11.5940 6.4605 33.7756 0.3145 -5.0211
# 5 -3.0922 -8.6278 -8.4606 0.3145 18.6181 2.1601
# 6 9.9881 2.7897 -1.3434 -5.0211 2.1601 45.6801
#
#
#
# Elastic Compliance Matrix: (Units=1/GPa)
#
#
# Indices 1 2 3 4 5 6 
#
# 1 0.008870 -0.000821 -0.003907 0.000554 -0.000469 -0.001921
# 2 -0.000821 0.007733 -0.004518 0.003456 0.001348 -0.000110
# 3 -0.003907 -0.004518 0.014849 -0.004459 0.003977 0.000889
# 4 0.000554 0.003456 -0.004459 0.032146 -0.001239 0.003129
# 5 -0.000469 0.001348 0.003977 -0.001239 0.056395 -0.002666
# 6 -0.001921 -0.000110 0.000889 0.003129 -0.002666 0.022814
#
#
# Mechanical properties :
#
#
# Convention : Reuss Voigt Hill
#
# Bulk Modulus (GPa) = 77.16979 83.46210 80.31594
# Shear Modulus (GPa) = 30.18977 37.14996 33.66987
#
# Velocity S-wave (km/s) = 3.79664 4.21162 4.00950
# Velocity P-wave (km/s) = 7.48766 7.96871 7.73193
#
# Compressibility (1/GPa) = 0.01295844
#
# Stress axis : x y z
#
# Youngs Moduli (GPa) = 112.74046 129.32095 67.34671
#
# Poissons Ratio (x) = 0.10617 0.26312
# Poissons Ratio (y) = 0.09256 0.30430
# Poissons Ratio (z) = 0.44047 0.58433
#
# Static dielectric constant tensor:
#      x y z
#    x 3.926050 0.081850 -0.132460 
#    y 0.081850 4.358740 0.021290 
#    z -0.132460 0.021290 3.743140 
# 
# 
# High freq. dielectric constant tensor:
#      x y z
#    x 1.842880 0.003500 -0.011820 
#    y 0.003500 1.846410 -0.002110 
#    z -0.011820 -0.002110 1.823030 
# 
# From -- ./inp_files/226650.got.cif
#   From: 2010.06.25/outbox.cif.g09.slc.cpg/sg2_114_cif.got.tgz:226650.got - 2010.06.27 13:26:56.
