data_PCOD8036576
_publ_section_title
;
Structure prediction by ZEFSAII (Michael W. Deem and Ramdas Pophale) SiO2 
 PCOD8036576
Probable space group: P -1
;
_chemical_formula_sum "Si O2"
_cell_formula_units_Z 16
_cell_length_a 19.838980
_cell_length_b 11.966329
_cell_length_c 17.531194
_cell_angle_alpha 158.232410
_cell_angle_beta 30.235747
_cell_angle_gamma 138.598780
_cell_volume 746.143982
_symmetry_space_group_name_H-M "P -1"
_symmetry_group_IT_number 2
_symmetry_cell_setting 'triclinic'
loop_
_space_group_symop_operation_xyz
x,y,z
-x,-y,-z
loop_
_atom_site_type_symbol
_atom_site_label
_atom_site_fract_x
_atom_site_fract_y
_atom_site_fract_z
Si Si1 0.195034 0.711833 0.346917
Si Si2 0.882642 0.876943 0.734628
Si Si3 0.527352 0.340928 0.029163
Si Si4 0.141451 0.744535 0.709433
Si Si5 0.532362 0.659391 0.383118
Si Si6 0.235877 0.048565 0.939012
Si Si7 0.400976 0.767983 0.816538
Si Si8 0.324044 0.825766 0.447125
O O1 0.307360 0.807074 0.242399
O O2 0.223531 0.771222 0.444729
O O3 0.039613 0.913987 0.600932
O O4 0.210306 0.339944 0.089538
O O5 0.872910 0.597048 0.511249
O O6 0.851804 0.817969 0.815317
O O7 0.761068 0.179440 0.016438
O O8 0.448010 0.081819 0.959337
O O9 0.500796 0.574011 0.274519
O O10 0.465907 0.537365 0.136731
O O11 0.187600 0.768704 0.767618
O O12 0.251542 0.835561 0.605251
O O13 0.000000 0.000000 0.000000
O O14 0.397951 0.899238 0.706272
O O15 0.585750 0.340814 0.177576
O O16 0.649832 0.840798 0.383179
O O17 0.500000 0.500000 0.500000
#
# Coordination Sequence:
#
# PCOD8036576 Si02
#       8
#     2   2   2   2   2   2   2   2
#     4  12  24  39  68 102 141 173 226 288 351 402
#     4  12  25  45  67 101 143 186 228 284 345 414
#     4  12  24  44  69 104 137 178 231 294 340 411
#     4  12  23  38  68 104 143 175 226 284 352 410
#     4  12  25  42  71 102 135 177 237 287 342 408
#     4  12  21  40  68 102 135 180 226 286 345 401
#     4  12  25  47  71  94 136 190 236 276 343 418
#     4  12  23  41  68 107 137 178 230 287 344 411
#
# _framework density 21.443581999999999
#
# number of rings (size 3 to 8) (size 9 to 14) (size 15 to 20)
#    0.000    0.000    7.500    3.750    0.000    0.000 
#    0.000    3.125    0.000    0.000    0.000    0.000 
#    0.000    0.000    0.000    0.000    0.000    0.000 
#
# Total GULP energy -198407.456082 kJ/mol
# GULP energy per Si atom -12400.466005 kJ/mol
# Density = 2.139478 g / cm^3
# Si number density = 21.443582 Si / 1000 Ang^3
#
#
#
# Elastic Constant Matrix: (Units=GPa)
#
#
# Indices 1 2 3 4 5 6 
#
# 1 117.4983 34.0769 43.1120 6.9094 -5.1192 17.0213
# 2 34.0769 77.6328 17.5825 4.7318 -17.7747 11.9479
# 3 43.1120 17.5825 92.7280 -5.6227 -16.6135 15.4277
# 4 6.9094 4.7318 -5.6227 32.7661 13.8575 -7.9081
# 5 -5.1192 -17.7747 -16.6135 13.8575 50.0808 -0.2415
# 6 17.0213 11.9479 15.4277 -7.9081 -0.2415 31.3663
#
#
#
# Elastic Compliance Matrix: (Units=1/GPa)
#
#
# Indices 1 2 3 4 5 6 
#
# 1 0.011938 -0.003566 -0.004573 -0.003421 -0.000634 -0.003738
# 2 -0.003566 0.017546 0.000418 -0.006588 0.007793 -0.006556
# 3 -0.004573 0.000418 0.014399 0.000436 0.004315 -0.004617
# 4 -0.003421 -0.006588 0.000436 0.041708 -0.014014 0.014560
# 5 -0.000634 0.007793 0.004315 -0.014014 0.027939 -0.008065
# 6 -0.003738 -0.006556 -0.004617 0.014560 -0.008065 0.042286
#
#
# Mechanical properties :
#
#
# Convention : Reuss Voigt Hill
#
# Bulk Modulus (GPa) = 35.15962 53.04464 44.10213
# Shear Modulus (GPa) = 27.66427 35.71517 31.68972
#
# Velocity S-wave (km/s) = 3.59569 4.08553 3.84841
# Velocity P-wave (km/s) = 5.80263 6.85901 6.35281
#
# Compressibility (1/GPa) = 0.02844172
#
# Stress axis : x y z
#
# Youngs Moduli (GPa) = 83.76611 56.99173 69.45059
#
# Poissons Ratio (x) = 0.20321 0.31762
# Poissons Ratio (y) = 0.29868 -0.02904
# Poissons Ratio (z) = 0.38309 -0.02383
#
# Static dielectric constant tensor:
#      x y z
#    x 3.857420 0.030270 -0.241150 
#    y 0.030270 3.726820 -0.233770 
#    z -0.241150 -0.233770 3.803790 
# 
# 
# High freq. dielectric constant tensor:
#      x y z
#    x 1.851090 0.016860 0.009170 
#    y 0.016860 1.821500 -0.017490 
#    z 0.009170 -0.017490 1.844440 
# 
# From -- ./inp_files/333921.got.cif
#   From: 2010.06.25/outbox.cif.g09.slc.cpg/sg2_167_cif.got.tgz:333921.got - 2010.06.27 13:26:56.
