data_PCOD8036116
_publ_section_title
;
Structure prediction by ZEFSAII (Michael W. Deem and Ramdas Pophale) SiO2 
 PCOD8036116
Probable space group: P -1
;
_chemical_formula_sum "Si O2"
_cell_formula_units_Z 16
_cell_length_a 11.354793
_cell_length_b 8.902386
_cell_length_c 15.614747
_cell_angle_alpha 79.290074
_cell_angle_beta 69.536283
_cell_angle_gamma 26.833450
_cell_volume 637.150680
_symmetry_space_group_name_H-M "P -1"
_symmetry_group_IT_number 2
_symmetry_cell_setting 'triclinic'
loop_
_space_group_symop_operation_xyz
x,y,z
-x,-y,-z
loop_
_atom_site_type_symbol
_atom_site_label
_atom_site_fract_x
_atom_site_fract_y
_atom_site_fract_z
Si Si1 0.790231 0.707760 0.110783
Si Si2 0.944758 0.530713 0.278913
Si Si3 0.305470 0.432858 0.215634
Si Si4 0.563302 0.476397 0.368180
Si Si5 0.259002 0.781542 0.100969
Si Si6 0.538034 0.734978 0.622527
Si Si7 0.060870 0.748490 0.576776
Si Si8 0.359528 0.454144 0.838003
O O1 0.964836 0.481542 0.177348
O O2 0.574615 0.798935 0.141582
O O3 0.609795 0.060077 0.132308
O O4 0.000000 0.500000 0.000000
O O5 0.045043 0.266817 0.328477
O O6 0.134694 0.464473 0.264649
O O7 0.627137 0.926064 0.351130
O O8 0.156854 0.726592 0.166255
O O9 0.338801 0.464554 0.298443
O O10 0.658979 0.193443 0.366692
O O11 0.712150 0.385489 0.422938
O O12 0.646681 0.486595 0.264733
O O13 0.216593 0.855045 0.426735
O O14 0.402989 0.717595 0.149211
O O15 0.500000 0.500000 0.000000
O O16 0.976309 0.162898 0.088721
O O17 0.786656 0.500659 0.515950
#
# Coordination Sequence:
#
# PCOD8036116 Si02
#       8
#     2   2   2   2   2   2   2   2
#     4  11  26  45  69 102 139 184 233 285 346 415
#     4  11  26  45  70  99 141 183 230 285 349 414
#     4  11  26  45  70 100 141 183 229 288 349 412
#     4  12  25  47  72 103 140 182 233 287 346 410
#     4  12  27  46  74 104 138 183 235 288 350 411
#     4  11  26  45  70 102 138 182 229 290 346 410
#     4  12  27  46  73 103 139 184 236 284 345 416
#     4  12  25  47  74 100 143 182 230 291 344 412
#
# _framework density 25.111799999999999
#
# number of rings (size 3 to 8) (size 9 to 14) (size 15 to 20)
#    0.000    0.500    2.500    4.500   10.500    1.000 
#    0.000    0.000    0.000    0.000    0.000    0.000 
#    0.000    0.000    0.000    0.000    0.000    0.000 
#
# Total GULP energy -198443.187391 kJ/mol
# GULP energy per Si atom -12402.699212 kJ/mol
# Density = 2.505464 g / cm^3
# Si number density = 25.111800 Si / 1000 Ang^3
#
#
#
# Elastic Constant Matrix: (Units=GPa)
#
#
# Indices 1 2 3 4 5 6 
#
# 1 123.7756 29.3592 16.8012 -4.2370 3.4283 -2.2738
# 2 29.3592 73.6013 1.7127 -7.6109 13.8109 -3.7571
# 3 16.8012 1.7127 118.5853 10.7018 18.0535 5.4507
# 4 -4.2370 -7.6109 10.7018 29.7757 4.4721 -11.1025
# 5 3.4283 13.8109 18.0535 4.4721 32.8822 1.8149
# 6 -2.2738 -3.7571 5.4507 -11.1025 1.8149 36.5331
#
#
#
# Elastic Compliance Matrix: (Units=1/GPa)
#
#
# Indices 1 2 3 4 5 6 
#
# 1 0.009187 -0.003741 -0.001562 0.000957 0.001306 0.000646
# 2 -0.003741 0.017500 0.000823 0.006332 -0.008482 0.003790
# 3 -0.001562 0.000823 0.009837 -0.003681 -0.004953 -0.002353
# 4 0.000957 0.006332 -0.003681 0.043293 -0.007443 0.014787
# 5 0.001306 -0.008482 -0.004953 -0.007443 0.037801 -0.004192
# 6 0.000646 0.003790 -0.002353 0.014787 -0.004192 0.032855
#
#
# Mechanical properties :
#
#
# Convention : Reuss Voigt Hill
#
# Bulk Modulus (GPa) = 36.28172 45.74538 41.01355
# Shear Modulus (GPa) = 29.65212 37.71083 33.68147
#
# Velocity S-wave (km/s) = 3.44001 3.87940 3.66630
# Velocity P-wave (km/s) = 5.50070 6.19053 5.85578
#
# Compressibility (1/GPa) = 0.02756209
#
# Stress axis : x y z
#
# Youngs Moduli (GPa) = 108.84785 57.14348 101.66127
#
# Poissons Ratio (x) = 0.21379 0.15884
# Poissons Ratio (y) = 0.40723 -0.08367
# Poissons Ratio (z) = 0.17007 -0.04703
#
# Static dielectric constant tensor:
#      x y z
#    x 4.546810 0.120340 0.113940 
#    y 0.120340 4.893410 0.210960 
#    z 0.113940 0.210960 4.539620 
# 
# 
# High freq. dielectric constant tensor:
#      x y z
#    x 2.003780 0.008730 -0.000970 
#    y 0.008730 2.005720 0.010870 
#    z -0.000970 0.010870 2.014780 
# 
# From -- ./inp_files/85092.got.cif
#   From: 2010.06.25/outbox.cif.g09.slc.cpg/sg2_43_cif.got.tgz:85092.got - 2010.06.27 13:26:56.
