data_PCOD8036695
_publ_section_title
;
Structure prediction by ZEFSAII (Michael W. Deem and Ramdas Pophale) SiO2 
 PCOD8036695
Probable space group: P -1
;
_chemical_formula_sum "Si O2"
_cell_formula_units_Z 16
_cell_length_a 11.981906
_cell_length_b 11.563078
_cell_length_c 11.947523
_cell_angle_alpha 77.392101
_cell_angle_beta 107.898529
_cell_angle_gamma 38.830675
_cell_volume 633.658951
_symmetry_space_group_name_H-M "P -1"
_symmetry_group_IT_number 2
_symmetry_cell_setting 'triclinic'
loop_
_space_group_symop_operation_xyz
x,y,z
-x,-y,-z
loop_
_atom_site_type_symbol
_atom_site_label
_atom_site_fract_x
_atom_site_fract_y
_atom_site_fract_z
Si Si1 0.268581 0.088776 0.495516
Si Si2 0.725817 0.018368 0.938853
Si Si3 0.323843 0.164369 0.158474
Si Si4 0.436242 0.579130 0.260572
Si Si5 0.711398 0.505004 0.649902
Si Si6 0.729140 0.611771 0.090895
Si Si7 0.472591 0.412548 0.084982
Si Si8 0.960540 0.231794 0.558933
O O1 0.048762 0.354320 0.284918
O O2 0.064784 0.226436 0.499379
O O3 0.486278 0.981098 0.642444
O O4 0.438818 0.829283 0.538768
O O5 0.753880 0.127658 0.878395
O O6 0.469927 0.245316 0.899567
O O7 0.649471 0.000540 0.817249
O O8 0.017639 0.705828 0.149142
O O9 0.421839 0.144969 0.079752
O O10 0.000000 0.500000 0.000000
O O11 0.341677 0.589233 0.337049
O O12 0.394845 0.519938 0.163227
O O13 0.766605 0.310827 0.423585
O O14 0.772488 0.472553 0.544399
O O15 0.766978 0.459927 0.056218
O O16 0.500000 0.500000 0.000000
O O17 0.773889 0.071272 0.234872
#
# Coordination Sequence:
#
# PCOD8036695 Si02
#       8
#     2   2   2   2   2   2   2   2
#     4  12  26  52  81 112 150 202 254 314 381 450
#     4  12  25  49  73 106 149 201 253 309 376 454
#     4  12  27  51  77 107 152 195 257 325 376 443
#     4  12  25  44  72 113 153 199 251 310 379 458
#     4  12  25  46  76 110 159 196 247 313 382 450
#     4  12  26  49  80 110 146 205 257 310 385 449
#     4  12  22  42  76 104 152 200 246 306 379 448
#     4  12  24  47  72 114 156 198 252 310 375 459
#
# _framework density 25.250173
#
# number of rings (size 3 to 8) (size 9 to 14) (size 15 to 20)
#    0.000    0.000    7.500    1.500    1.750    2.000 
#    4.500    0.000    0.000    0.000    0.000    0.000 
#    0.000    0.000    0.000    0.000    0.000    0.000 
#
# Total GULP energy -198424.355289 kJ/mol
# GULP energy per Si atom -12401.522206 kJ/mol
# Density = 2.519270 g / cm^3
# Si number density = 25.250173 Si / 1000 Ang^3
#
#
#
# Elastic Constant Matrix: (Units=GPa)
#
#
# Indices 1 2 3 4 5 6 
#
# 1 60.2821 38.6553 -5.5751 5.5051 17.5482 10.4904
# 2 38.6553 118.1709 20.1654 23.6687 7.6961 7.1093
# 3 -5.5751 20.1654 129.2594 2.1284 26.8474 14.2543
# 4 5.5051 23.6687 2.1284 29.9459 10.9161 12.2251
# 5 17.5482 7.6961 26.8474 10.9161 40.7895 0.8962
# 6 10.4904 7.1093 14.2543 12.2251 0.8962 35.6601
#
#
#
# Elastic Compliance Matrix: (Units=1/GPa)
#
#
# Indices 1 2 3 4 5 6 
#
# 1 0.035716 -0.015016 0.010725 0.021111 -0.024836 -0.018413
# 2 -0.015016 0.016830 -0.006620 -0.018577 0.012399 0.009765
# 3 0.010725 -0.006620 0.013419 0.012389 -0.015270 -0.011063
# 4 0.021111 -0.018577 0.012389 0.066640 -0.030917 -0.029528
# 5 -0.024836 0.012399 -0.015270 -0.030917 0.050741 0.020262
# 6 -0.018413 0.009765 -0.011063 -0.029528 0.020262 0.045548
#
#
# Mechanical properties :
#
#
# Convention : Reuss Voigt Hill
#
# Bulk Modulus (GPa) = 22.65396 46.02264 34.33830
# Shear Modulus (GPa) = 18.83730 38.24355 28.54042
#
# Velocity S-wave (km/s) = 2.73431 3.89599 3.36565
# Velocity P-wave (km/s) = 4.35430 6.20520 5.36024
#
# Compressibility (1/GPa) = 0.04414239
#
# Stress axis : x y z
#
# Youngs Moduli (GPa) = 27.99874 59.41823 74.52010
#
# Poissons Ratio (x) = 0.89225 -0.79920
# Poissons Ratio (y) = 0.42044 0.49329
# Poissons Ratio (z) = -0.30028 0.39332
#
# Static dielectric constant tensor:
#      x y z
#    x 4.989900 -0.706030 -0.237270 
#    y -0.706030 5.690060 1.031660 
#    z -0.237270 1.031660 5.228860 
# 
# 
# High freq. dielectric constant tensor:
#      x y z
#    x 2.012080 -0.009850 0.007410 
#    y -0.009850 2.003990 0.007680 
#    z 0.007410 0.007680 2.020390 
# 
# From -- ./inp_files/428182.got.cif
#   From: 2010.06.25/outbox.cif.g09.slc.cpg/sg2_215_cif.got.tgz:428182.got - 2010.06.27 13:26:56.
