data_PCOD8036501
_publ_section_title
;
Structure prediction by ZEFSAII (Michael W. Deem and Ramdas Pophale) SiO2 
 PCOD8036501
Probable space group: P -1
;
_chemical_formula_sum "Si O2"
_cell_formula_units_Z 14
_cell_length_a 24.472506
_cell_length_b 5.286359
_cell_length_c 15.557053
_cell_angle_alpha 74.449007
_cell_angle_beta 162.788618
_cell_angle_gamma 99.789737
_cell_volume 546.961686
_symmetry_space_group_name_H-M "P -1"
_symmetry_group_IT_number 2
_symmetry_cell_setting 'triclinic'
loop_
_space_group_symop_operation_xyz
x,y,z
-x,-y,-z
loop_
_atom_site_type_symbol
_atom_site_label
_atom_site_fract_x
_atom_site_fract_y
_atom_site_fract_z
Si Si1 0.541238 0.478950 0.165728
Si Si2 0.850300 0.788279 0.229583
Si Si3 0.125902 0.290634 0.388775
Si Si4 0.831170 0.938821 0.697384
Si Si5 0.737420 0.612973 0.721556
Si Si6 0.517092 0.159818 0.425780
Si Si7 0.203137 0.939678 0.697855
O O1 0.718094 0.599054 0.435097
O O2 0.619240 0.172790 0.351191
O O3 0.500000 0.500000 0.000000
O O4 0.353562 0.643726 0.925409
O O5 0.749203 0.959581 0.146347
O O6 0.000000 0.500000 0.500000
O O7 0.696988 0.717156 0.944209
O O8 0.977952 0.949600 0.356063
O O9 0.219563 0.157400 0.630706
O O10 0.087814 0.086303 0.276955
O O11 0.916290 0.513326 0.066661
O O12 0.803485 0.650715 0.719484
O O13 0.000000 0.000000 0.000000
O O14 0.600947 0.416628 0.541965
O O15 0.639542 0.933308 0.565664
O O16 0.500000 0.000000 0.500000
#
# Coordination Sequence:
#
# PCOD8036501 Si02
#       7
#     2   2   2   2   2   2   2
#     4  12  28  48  80 118 164 215 268 333 419 507
#     4  11  30  49  81 110 159 211 281 347 407 483
#     4  12  27  48  77 118 165 208 269 336 417 509
#     4  12  27  49  76 120 166 216 266 335 421 499
#     4  12  29  48  85 117 167 213 273 346 417 503
#     4  12  30  53  83 118 159 219 284 344 415 490
#     4  11  28  51  78 117 159 220 275 340 419 493
#
# _framework density 25.595942000000001
#
# number of rings (size 3 to 8) (size 9 to 14) (size 15 to 20)
#    0.000    0.286    2.857    3.000   14.000    0.000 
#    0.000    0.000    0.000    0.000    0.000    0.000 
#    0.000    0.000    0.000    0.000    0.000    0.000 
#
# Total GULP energy -173529.858579 kJ/mol
# GULP energy per Si atom -12394.989899 kJ/mol
# Density = 2.553768 g / cm^3
# Si number density = 25.595942 Si / 1000 Ang^3
#
#
#
# Elastic Constant Matrix: (Units=GPa)
#
#
# Indices 1 2 3 4 5 6 
#
# 1 120.3489 29.7878 37.3590 6.0266 -2.6393 5.8090
# 2 29.7878 86.2543 23.1781 0.1247 1.6117 12.4848
# 3 37.3590 23.1781 156.1631 -1.9694 -10.1277 -1.3063
# 4 6.0266 0.1247 -1.9694 45.0565 2.2396 1.9709
# 5 -2.6393 1.6117 -10.1277 2.2396 37.9669 -7.5129
# 6 5.8090 12.4848 -1.3063 1.9709 -7.5129 48.9587
#
#
#
# Elastic Compliance Matrix: (Units=1/GPa)
#
#
# Indices 1 2 3 4 5 6 
#
# 1 0.009682 -0.002778 -0.001906 -0.001368 0.000286 -0.000392
# 2 -0.002778 0.013486 -0.001481 0.000514 -0.001875 -0.003457
# 3 -0.001906 -0.001481 0.007227 0.000425 0.002050 0.001094
# 4 -0.001368 0.000514 0.000425 0.022520 -0.001550 -0.001102
# 5 0.000286 -0.001875 0.002050 -0.001550 0.028039 0.004864
# 6 -0.000392 -0.003457 0.001094 -0.001102 0.004864 0.022173
#
#
# Mechanical properties :
#
#
# Convention : Reuss Voigt Hill
#
# Bulk Modulus (GPa) = 55.35721 60.37955 57.86838
# Shear Modulus (GPa) = 41.15963 44.55918 42.85940
#
# Velocity S-wave (km/s) = 4.01440 4.17690 4.09646
# Velocity P-wave (km/s) = 6.56974 6.84855 6.71060
#
# Compressibility (1/GPa) = 0.01806449
#
# Stress axis : x y z
#
# Youngs Moduli (GPa) = 103.28312 74.15240 138.37445
#
# Poissons Ratio (x) = 0.20600 0.26373
# Poissons Ratio (y) = 0.28693 0.20493
# Poissons Ratio (z) = 0.19685 0.10982
#
# Static dielectric constant tensor:
#      x y z
#    x 4.928200 0.131950 0.287360 
#    y 0.131950 4.893310 0.149640 
#    z 0.287360 0.149640 5.018610 
# 
# 
# High freq. dielectric constant tensor:
#      x y z
#    x 2.033180 0.005420 -0.001200 
#    y 0.005420 2.020360 0.000170 
#    z -0.001200 0.000170 2.042520 
# 
# From -- ./inp_files/542149.got.cif
#   From: 2010.06.25/outbox.cif.g09.slc.cpg/sg2_272_cif.got.tgz:542149.got - 2010.06.27 13:26:56.
