data_PCOD8036089
_publ_section_title
;
Structure prediction by ZEFSAII (Michael W. Deem and Ramdas Pophale) SiO2 
 PCOD8036089
Probable space group: P -1
;
_chemical_formula_sum "Si O2"
_cell_formula_units_Z 16
_cell_length_a 14.135369
_cell_length_b 9.555762
_cell_length_c 5.119190
_cell_angle_alpha 96.241321
_cell_angle_beta 105.228907
_cell_angle_gamma 92.906457
_cell_volume 660.965978
_symmetry_space_group_name_H-M "P -1"
_symmetry_group_IT_number 2
_symmetry_cell_setting 'triclinic'
loop_
_space_group_symop_operation_xyz
x,y,z
-x,-y,-z
loop_
_atom_site_type_symbol
_atom_site_label
_atom_site_fract_x
_atom_site_fract_y
_atom_site_fract_z
Si Si1 0.414397 0.901668 0.048752
Si Si2 0.099141 0.594379 0.620053
Si Si3 0.294469 0.903166 0.449770
Si Si4 0.779265 0.408644 0.783331
Si Si5 0.843836 0.901569 0.812939
Si Si6 0.329062 0.329178 0.271717
Si Si7 0.543325 0.658050 0.114312
Si Si8 0.956895 0.105676 0.294179
O O1 0.330776 0.880136 0.763325
O O2 0.452759 0.751278 0.121940
O O3 0.374187 0.968925 0.303034
O O4 0.500000 0.000000 0.000000
O O5 0.176123 0.545997 0.456045
O O6 0.082554 0.757209 0.574617
O O7 0.000000 0.500000 0.500000
O O8 0.137700 0.570158 0.932171
O O9 0.261133 0.753171 0.268187
O O10 0.209462 0.012554 0.436467
O O11 0.693051 0.511357 0.788465
O O12 0.772649 0.769390 0.830594
O O13 0.948846 0.843427 0.808248
O O14 0.864689 0.023053 0.068983
O O15 0.400454 0.278156 0.088910
O O16 0.381461 0.328585 0.588344
O O17 0.500000 0.500000 0.000000
O O18 0.000000 0.000000 0.500000
#
# Coordination Sequence:
#
# PCOD8036089 Si02
#       8
#     2   2   2   2   2   2   2   2
#     4  12  25  43  69 100 135 176 223 280 339 406
#     4  12  26  45  69  98 139 182 233 282 335 401
#     4  12  24  44  69  97 137 177 227 274 340 409
#     4  12  25  45  67 102 131 182 230 276 343 395
#     4  11  26  44  67 105 137 186 231 284 343 407
#     4  12  26  44  74 102 142 180 232 284 343 416
#     4  12  25  47  70 104 139 180 228 284 352 411
#     4  11  26  44  71  98 144 185 232 285 343 404
#
# _framework density 24.206994000000002
#
# number of rings (size 3 to 8) (size 9 to 14) (size 15 to 20)
#    0.000    0.250    1.250    7.875    7.000    0.000 
#    0.000    0.000    0.000    0.000    0.000    0.000 
#    0.000    0.000    0.000    0.000    0.000    0.000 
#
# Total GULP energy -198463.730676 kJ/mol
# GULP energy per Si atom -12403.983167 kJ/mol
# Density = 2.415190 g / cm^3
# Si number density = 24.206994 Si / 1000 Ang^3
#
#
#
# Elastic Constant Matrix: (Units=GPa)
#
#
# Indices 1 2 3 4 5 6 
#
# 1 69.0598 -2.4800 36.8527 1.4135 5.0755 1.8143
# 2 -2.4800 70.2326 24.2512 -12.9651 14.7918 -10.4431
# 3 36.8527 24.2512 114.6897 -4.3951 11.5450 3.2145
# 4 1.4135 -12.9651 -4.3951 29.9568 -1.2352 5.6379
# 5 5.0755 14.7918 11.5450 -1.2352 40.3491 -2.2027
# 6 1.8143 -10.4431 3.2145 5.6379 -2.2027 52.3264
#
#
#
# Elastic Compliance Matrix: (Units=1/GPa)
#
#
# Indices 1 2 3 4 5 6 
#
# 1 0.018098 0.003118 -0.006346 -0.000573 -0.001601 0.000379
# 2 0.003118 0.018630 -0.004204 0.006515 -0.005660 0.002928
# 3 -0.006346 -0.004204 0.011816 0.000439 -0.001106 -0.001439
# 4 -0.000573 0.006515 0.000439 0.036745 -0.001466 -0.002728
# 5 -0.001601 -0.005660 -0.001106 -0.001466 0.027348 0.000303
# 6 0.000379 0.002928 -0.001439 -0.002728 0.000303 0.020077
#
#
# Mechanical properties :
#
#
# Convention : Reuss Voigt Hill
#
# Bulk Modulus (GPa) = 29.69111 41.24773 35.46942
# Shear Modulus (GPa) = 31.48508 37.55033 34.51770
#
# Velocity S-wave (km/s) = 3.61038 3.94282 3.78026
# Velocity P-wave (km/s) = 5.44719 6.14853 5.80846
#
# Compressibility (1/GPa) = 0.03368011
#
# Stress axis : x y z
#
# Youngs Moduli (GPa) = 55.25434 53.67635 84.63238
#
# Poissons Ratio (x) = -0.16737 0.53709
# Poissons Ratio (y) = -0.17229 0.35579
# Poissons Ratio (z) = 0.35065 0.22565
#
# Static dielectric constant tensor:
#      x y z
#    x 4.925940 -0.016850 -0.383350 
#    y -0.016850 4.220480 0.378120 
#    z -0.383350 0.378120 3.783480 
# 
# 
# High freq. dielectric constant tensor:
#      x y z
#    x 1.978110 -0.002190 0.003500 
#    y -0.002190 1.970100 -0.001990 
#    z 0.003500 -0.001990 1.966170 
# 
# From -- ./inp_files/90813.got.cif
#   From: 2010.06.25/outbox.cif.g09.slc.cpg/sg2_46_cif.got.tgz:90813.got - 2010.06.27 13:26:56.
