data_PCOD8036793
_publ_section_title
;
Structure prediction by ZEFSAII (Michael W. Deem and Ramdas Pophale) SiO2 
 PCOD8036793
Probable space group: P -1
;
_chemical_formula_sum "Si O2"
_cell_formula_units_Z 12
_cell_length_a 10.196088
_cell_length_b 15.513107
_cell_length_c 8.790315
_cell_angle_alpha 62.308891
_cell_angle_beta 149.556135
_cell_angle_gamma 119.012849
_cell_volume 612.683310
_symmetry_space_group_name_H-M "P -1"
_symmetry_group_IT_number 2
_symmetry_cell_setting 'triclinic'
loop_
_space_group_symop_operation_xyz
x,y,z
-x,-y,-z
loop_
_atom_site_type_symbol
_atom_site_label
_atom_site_fract_x
_atom_site_fract_y
_atom_site_fract_z
Si Si1 0.977979 0.955959 0.179279
Si Si2 0.518314 0.036630 0.817406
Si Si3 0.624037 0.248072 0.614927
Si Si4 0.266079 0.532157 0.332167
Si Si5 0.122962 0.245921 0.902552
Si Si6 0.773218 0.546435 0.308710
O O1 0.919295 0.838595 0.197645
O O2 0.245876 0.991428 0.505217
O O3 0.745551 0.991429 0.004890
O O4 0.000000 0.000000 0.000000
O O5 0.578152 0.156309 0.762813
O O6 0.500000 0.000000 0.000000
O O7 0.674874 0.349746 0.677665
O O8 0.871488 0.242017 0.761400
O O9 0.370535 0.242018 0.260442
O O10 0.500000 0.500000 0.500000
O O11 0.235614 0.471229 0.506906
O O12 0.000000 0.500000 0.000000
O O13 0.169365 0.338732 0.762796
O O14 0.000000 0.500000 0.500000
O O15 0.500000 0.500000 0.000000
#
# Coordination Sequence:
#
# PCOD8036793 Si02
#       6
#     2   2   2   2   2   2
#     4  12  23  42  70  99 128 173 228 267 316 392
#     4  12  26  43  67 100 140 172 214 276 333 391
#     4  12  23  43  67  94 133 179 212 270 343 379
#     4  12  26  42  66  96 134 168 215 273 332 390
#     4  12  23  40  72  98 126 173 228 270 316 388
#     4  12  23  43  68  96 125 171 224 266 316 389
#
# _framework density 19.585975999999999
#
# number of rings (size 3 to 8) (size 9 to 14) (size 15 to 20)
#    0.000    0.000    6.667    4.000    0.000    2.667 
#    0.000    0.000    0.000    0.000    0.000    0.000 
#    0.000    0.000    0.000    0.000    0.000    0.000 
#
# Total GULP energy -148832.972251 kJ/mol
# GULP energy per Si atom -12402.747688 kJ/mol
# Density = 1.954140 g / cm^3
# Si number density = 19.585976 Si / 1000 Ang^3
#
#
#
# Elastic Constant Matrix: (Units=GPa)
#
#
# Indices 1 2 3 4 5 6 
#
# 1 179.3154 81.4486 101.9623 -12.6457 -2.6313 10.5104
# 2 81.4486 215.9968 77.8504 -12.7676 -8.9525 5.3103
# 3 101.9623 77.8504 189.0708 16.2551 10.8287 2.8410
# 4 -12.6457 -12.7676 16.2551 42.9260 -1.0793 -5.6890
# 5 -2.6313 -8.9525 10.8287 -1.0793 49.1629 -12.6319
# 6 10.5104 5.3103 2.8410 -5.6890 -12.6319 41.6289
#
#
#
# Elastic Compliance Matrix: (Units=1/GPa)
#
#
# Indices 1 2 3 4 5 6 
#
# 1 0.009355 -0.001474 -0.004838 0.004054 0.001145 -0.000942
# 2 -0.001474 0.006101 -0.002015 0.002258 0.001666 0.000545
# 3 -0.004838 -0.002015 0.009413 -0.005782 -0.003052 -0.000880
# 4 0.004054 0.002258 -0.005782 0.027968 0.003538 0.003979
# 5 0.001145 0.001666 -0.003052 0.003538 0.023322 0.007267
# 6 -0.000942 0.000545 -0.000880 0.003979 0.007267 0.026999
#
#
# Mechanical properties :
#
#
# Convention : Reuss Voigt Hill
#
# Bulk Modulus (GPa) = 121.72416 122.98950 122.35683
# Shear Modulus (GPa) = 40.79978 48.28502 44.54240
#
# Velocity S-wave (km/s) = 4.56906 4.97055 4.77403
# Velocity P-wave (km/s) = 9.49309 9.79147 9.64343
#
# Compressibility (1/GPa) = 0.00821530
#
# Stress axis : x y z
#
# Youngs Moduli (GPa) = 106.89347 163.91620 106.23591
#
# Poissons Ratio (x) = 0.24155 0.51399
# Poissons Ratio (y) = 0.15752 0.21406
# Poissons Ratio (z) = 0.51717 0.33028
#
# Static dielectric constant tensor:
#      x y z
#    x 3.106770 -0.354480 0.382520 
#    y -0.354480 3.596960 0.192690 
#    z 0.382520 0.192690 3.688680 
# 
# 
# High freq. dielectric constant tensor:
#      x y z
#    x 1.769980 0.004410 0.009790 
#    y 0.004410 1.786530 -0.000770 
#    z 0.009790 -0.000770 1.790220 
# 
# From -- ./inp_files/89428.got.cif
#   From: 2010.06.25/outbox.cif.g09.slc.cpg/sg2_45_cif.got.tgz:89428.got - 2010.06.27 13:26:56.
