data_PCOD8036630
_publ_section_title
;
Structure prediction by ZEFSAII (Michael W. Deem and Ramdas Pophale) SiO2 
 PCOD8036630
Probable space group: P -1
;
_chemical_formula_sum "Si O2"
_cell_formula_units_Z 16
_cell_length_a 18.495018
_cell_length_b 13.250433
_cell_length_c 9.219661
_cell_angle_alpha 46.826632
_cell_angle_beta 73.485543
_cell_angle_gamma 35.585505
_cell_volume 735.700914
_symmetry_space_group_name_H-M "P -1"
_symmetry_group_IT_number 2
_symmetry_cell_setting 'triclinic'
loop_
_space_group_symop_operation_xyz
x,y,z
-x,-y,-z
loop_
_atom_site_type_symbol
_atom_site_label
_atom_site_fract_x
_atom_site_fract_y
_atom_site_fract_z
Si Si1 0.215173 0.206077 0.952602
Si Si2 0.619272 0.161422 0.055986
Si Si3 0.085881 0.884394 0.913851
Si Si4 0.690710 0.182876 0.496694
Si Si5 0.124466 0.140046 0.578037
Si Si6 0.655561 0.730029 0.078642
Si Si7 0.585633 0.737575 0.789532
Si Si8 0.119215 0.867562 0.446341
O O1 0.245778 0.287675 0.957351
O O2 0.028559 0.510520 0.706988
O O3 0.325390 0.026766 0.922413
O O4 0.268441 0.989292 0.230502
O O5 0.500217 0.474110 0.752084
O O6 0.528124 0.211897 0.174094
O O7 0.776684 0.977340 0.218565
O O8 0.063811 0.080164 0.685104
O O9 0.273927 0.540399 0.127317
O O10 0.993629 0.917808 0.837210
O O11 0.000000 0.000000 0.000000
O O12 0.784066 0.167770 0.502651
O O13 0.755651 0.027160 0.459022
O O14 0.756311 0.447416 0.377587
O O15 0.638466 0.710059 0.941988
O O16 0.500000 0.000000 0.000000
O O17 0.500000 0.000000 0.500000
O O18 0.000000 0.000000 0.500000
#
# Coordination Sequence:
#
# PCOD8036630 Si02
#       8
#     2   2   2   2   2   2   2   2
#     4  12  27  44  73 110 141 188 245 289 356 427
#     4  12  26  49  67 104 152 188 231 297 360 429
#     4  12  28  46  74 106 139 191 239 294 363 424
#     4  12  25  47  72 104 138 195 239 292 359 423
#     4  12  26  47  71 103 149 188 235 299 359 421
#     4  12  23  45  73 102 139 186 238 298 347 415
#     4  12  28  46  72 106 144 188 238 295 359 427
#     4  12  21  47  74  94 139 185 241 296 351 412
#
# _framework density 21.747966999999999
#
# number of rings (size 3 to 8) (size 9 to 14) (size 15 to 20)
#    0.000    0.000    7.500    1.500    7.000    1.000 
#    0.000    0.000    0.000    0.000    0.000    0.000 
#    0.000    0.000    0.000    0.000    0.000    0.000 
#
# Total GULP energy -198326.913256 kJ/mol
# GULP energy per Si atom -12395.432078 kJ/mol
# Density = 2.169847 g / cm^3
# Si number density = 21.747967 Si / 1000 Ang^3
#
#
#
# Elastic Constant Matrix: (Units=GPa)
#
#
# Indices 1 2 3 4 5 6 
#
# 1 98.1725 -1.5886 29.5883 11.7399 9.0207 7.0896
# 2 -1.5886 251.9869 90.9618 -69.9447 13.6503 -24.1049
# 3 29.5883 90.9618 177.7236 -48.8002 5.9070 -21.1384
# 4 11.7399 -69.9447 -48.8002 73.9243 -3.0185 14.8546
# 5 9.0207 13.6503 5.9070 -3.0185 36.8596 -3.2803
# 6 7.0896 -24.1049 -21.1384 14.8546 -3.2803 30.2035
#
#
#
# Elastic Compliance Matrix: (Units=1/GPa)
#
#
# Indices 1 2 3 4 5 6 
#
# 1 0.012171 0.000169 -0.003385 -0.003377 -0.003111 -0.003768
# 2 0.000169 0.005949 -0.001733 0.004135 -0.001513 0.001297
# 3 -0.003385 -0.001733 0.008533 0.003843 0.000735 0.003573
# 4 -0.003377 0.004135 0.003843 0.021253 0.000094 -0.003660
# 5 -0.003111 -0.001513 0.000735 0.000094 0.028617 0.003099
# 6 -0.003768 0.001297 0.003573 -0.003660 0.003099 0.039666
#
#
# Mechanical properties :
#
#
# Convention : Reuss Voigt Hill
#
# Bulk Modulus (GPa) = 59.68105 85.08957 72.38531
# Shear Modulus (GPa) = 37.97363 55.45891 46.71627
#
# Velocity S-wave (km/s) = 4.18314 5.05530 4.63976
# Velocity P-wave (km/s) = 7.12975 8.56067 7.87776
#
# Compressibility (1/GPa) = 0.01675574
#
# Stress axis : x y z
#
# Youngs Moduli (GPa) = 82.16353 168.09597 117.19286
#
# Poissons Ratio (x) = -0.02846 0.39669
# Poissons Ratio (y) = -0.01391 0.20308
# Poissons Ratio (z) = 0.27812 0.29129
#
# Static dielectric constant tensor:
#      x y z
#    x 3.983730 0.009070 0.220130 
#    y 0.009070 4.099340 -0.538840 
#    z 0.220130 -0.538840 3.985230 
# 
# 
# High freq. dielectric constant tensor:
#      x y z
#    x 1.857860 0.007770 0.011130 
#    y 0.007770 1.869510 -0.011490 
#    z 0.011130 -0.011490 1.861610 
# 
# From -- ./inp_files/207721.got.cif
#   From: 2010.06.25/outbox.cif.g09.slc.cpg/sg2_104_cif.got.tgz:207721.got - 2010.06.27 13:26:56.
