data_PCOD8036426
_publ_section_title
;
Structure prediction by ZEFSAII (Michael W. Deem and Ramdas Pophale) SiO2 
 PCOD8036426
Probable space group: P -1
;
_chemical_formula_sum "Si O2"
_cell_formula_units_Z 12
_cell_length_a 8.271463
_cell_length_b 9.142938
_cell_length_c 10.786842
_cell_angle_alpha 115.272166
_cell_angle_beta 139.340559
_cell_angle_gamma 86.280173
_cell_volume 431.726096
_symmetry_space_group_name_H-M "P -1"
_symmetry_group_IT_number 2
_symmetry_cell_setting 'triclinic'
loop_
_space_group_symop_operation_xyz
x,y,z
-x,-y,-z
loop_
_atom_site_type_symbol
_atom_site_label
_atom_site_fract_x
_atom_site_fract_y
_atom_site_fract_z
Si Si1 0.913715 0.415671 0.242436
Si Si2 0.187658 0.005391 0.434558
Si Si3 0.094781 0.386977 0.924725
Si Si4 0.210297 0.177741 0.257084
Si Si5 0.589235 0.932995 0.151617
Si Si6 0.449222 0.709620 0.733085
O O1 0.814782 0.515960 0.119657
O O2 0.065197 0.309069 0.227912
O O3 0.128153 0.569393 0.514197
O O4 0.636974 0.269039 0.099194
O O5 0.159220 0.810543 0.308804
O O6 0.892767 0.987724 0.299266
O O7 0.295227 0.138678 0.428457
O O8 0.409483 0.079694 0.701992
O O9 0.358357 0.367636 0.120984
O O10 0.000000 0.500000 0.000000
O O11 0.488578 0.274088 0.372805
O O12 0.000000 0.000000 0.000000
O O13 0.486692 0.085822 0.107512
#
# Coordination Sequence:
#
# PCOD8036426 Si02
#       6
#     2   2   2   2   2   2
#     4  12  26  45  76 113 152 197 253 311 379 452
#     4  11  26  51  79 109 155 203 254 312 379 455
#     4  12  25  45  77 114 152 192 253 323 372 444
#     4  12  23  46  76 109 148 196 252 313 370 442
#     4  11  27  52  76 110 156 205 250 308 383 458
#     4  12  26  48  77 115 150 197 258 309 384 450
#
# _framework density 27.795400999999998
#
# number of rings (size 3 to 8) (size 9 to 14) (size 15 to 20)
#    0.000    0.333    6.667    0.500    2.333    4.000 
#    0.000    1.667    0.000    0.000    0.000    0.000 
#    0.000    0.000    0.000    0.000    0.000    0.000 
#
# Total GULP energy -148892.347317 kJ/mol
# GULP energy per Si atom -12407.695610 kJ/mol
# Density = 2.773214 g / cm^3
# Si number density = 27.795401 Si / 1000 Ang^3
#
#
#
# Elastic Constant Matrix: (Units=GPa)
#
#
# Indices 1 2 3 4 5 6 
#
# 1 100.7239 59.2660 27.3489 -2.0838 6.7858 9.6552
# 2 59.2660 212.5306 78.4725 -21.5569 -7.2067 8.2003
# 3 27.3489 78.4725 181.8160 -0.8873 -7.5068 15.7180
# 4 -2.0838 -21.5569 -0.8873 49.2704 2.2592 -13.9672
# 5 6.7858 -7.2067 -7.5068 2.2592 44.4767 5.6352
# 6 9.6552 8.2003 15.7180 -13.9672 5.6352 64.8325
#
#
#
# Elastic Compliance Matrix: (Units=1/GPa)
#
#
# Indices 1 2 3 4 5 6 
#
# 1 0.012317 -0.003464 -0.000336 -0.001294 -0.002254 -0.001397
# 2 -0.003464 0.006889 -0.002467 0.003007 0.000974 0.000806
# 3 -0.000336 -0.002467 0.006801 -0.001505 0.001092 -0.001706
# 4 -0.001294 0.003007 -0.001505 0.023090 -0.001410 0.005274
# 5 -0.002254 0.000974 0.001092 -0.001410 0.023546 -0.002403
# 6 -0.001397 0.000806 -0.001706 0.005274 -0.002403 0.017289
#
#
# Mechanical properties :
#
#
# Convention : Reuss Voigt Hill
#
# Bulk Modulus (GPa) = 74.22997 91.69393 82.96195
# Shear Modulus (GPa) = 46.74793 53.71477 50.23135
#
# Velocity S-wave (km/s) = 4.10550 4.40080 4.25571
# Velocity P-wave (km/s) = 7.01693 7.67354 7.35257
#
# Compressibility (1/GPa) = 0.01347165
#
# Stress axis : x y z
#
# Youngs Moduli (GPa) = 81.18947 145.15736 147.04581
#
# Poissons Ratio (x) = 0.50287 0.04942
# Poissons Ratio (y) = 0.28127 0.36277
# Poissons Ratio (z) = 0.02729 0.35811
#
# Static dielectric constant tensor:
#      x y z
#    x 5.595630 0.200330 -0.447590 
#    y 0.200330 5.492690 0.065400 
#    z -0.447590 0.065400 5.430740 
# 
# 
# High freq. dielectric constant tensor:
#      x y z
#    x 2.148100 0.011730 -0.022570 
#    y 0.011730 2.148780 -0.009630 
#    z -0.022570 -0.009630 2.134340 
# 
# From -- ./inp_files/243933.got.cif
#   From: 2010.06.25/outbox.cif.g09.slc.cpg/sg2_122_cif.got.tgz:243933.got - 2010.06.27 13:26:56.
