data_PCOD8036367
_publ_section_title
;
Structure prediction by ZEFSAII (Michael W. Deem and Ramdas Pophale) SiO2 
 PCOD8036367
Probable space group: P -1
;
_chemical_formula_sum "Si O2"
_cell_formula_units_Z 12
_cell_length_a 6.721533
_cell_length_b 15.351114
_cell_length_c 13.440533
_cell_angle_alpha 27.400708
_cell_angle_beta 62.532818
_cell_angle_gamma 72.138186
_cell_volume 548.061844
_symmetry_space_group_name_H-M "P -1"
_symmetry_group_IT_number 2
_symmetry_cell_setting 'triclinic'
loop_
_space_group_symop_operation_xyz
x,y,z
-x,-y,-z
loop_
_atom_site_type_symbol
_atom_site_label
_atom_site_fract_x
_atom_site_fract_y
_atom_site_fract_z
Si Si1 0.436012 0.426064 0.479538
Si Si2 0.497178 0.199623 0.014090
Si Si3 0.130439 0.431709 0.129879
Si Si4 0.058395 0.802692 0.214499
Si Si5 0.779942 0.186407 0.611853
Si Si6 0.501558 0.201615 0.239652
O O1 0.500000 0.500000 0.500000
O O2 0.531789 0.237316 0.627298
O O3 0.159022 0.375608 0.582834
O O4 0.560916 0.591808 0.202525
O O5 0.556757 0.168793 0.145461
O O6 0.276337 0.030083 0.202216
O O7 0.716917 0.214679 0.877935
O O8 0.258787 0.263360 0.240336
O O9 0.946373 0.342145 0.346479
O O10 0.302638 0.625212 0.935587
O O11 0.000000 0.500000 0.000000
O O12 0.095101 0.804827 0.321330
O O13 0.000000 0.000000 0.000000
O O14 0.500000 0.000000 0.500000
#
# Coordination Sequence:
#
# PCOD8036367 Si02
#       6
#     2   2   2   2   2   2
#     4  12  25  43  67 101 138 178 227 270 339 407
#     4  12  25  45  70 101 138 179 227 278 339 406
#     4  11  26  49  71 100 139 178 233 288 341 404
#     4  12  25  44  68 101 142 178 220 280 340 401
#     4  12  26  45  70 101 139 179 224 282 336 405
#     4  11  27  47  72 102 135 182 233 285 343 405
#
# _framework density 21.895337999999999
#
# number of rings (size 3 to 8) (size 9 to 14) (size 15 to 20)
#    0.000    0.333    3.333    5.000    4.667    6.667 
#    0.000    0.000    0.000    0.000    0.000    0.000 
#    0.000    0.000    0.000    0.000    0.000    0.000 
#
# Total GULP energy -148848.503508 kJ/mol
# GULP energy per Si atom -12404.041959 kJ/mol
# Density = 2.184550 g / cm^3
# Si number density = 21.895338 Si / 1000 Ang^3
#
#
#
# Elastic Constant Matrix: (Units=GPa)
#
#
# Indices 1 2 3 4 5 6 
#
# 1 127.0707 46.8851 55.6957 5.8400 9.6006 22.1492
# 2 46.8851 107.3529 54.5275 14.1199 7.7581 31.0851
# 3 55.6957 54.5275 159.2097 8.9258 19.0634 18.6468
# 4 5.8400 14.1199 8.9258 49.1922 7.9914 6.1535
# 5 9.6006 7.7581 19.0634 7.9914 38.3776 4.3130
# 6 22.1492 31.0851 18.6468 6.1535 4.3130 41.5198
#
#
#
# Elastic Compliance Matrix: (Units=1/GPa)
#
#
# Indices 1 2 3 4 5 6 
#
# 1 0.010334 -0.002582 -0.002378 0.000368 -0.000678 -0.002496
# 2 -0.002582 0.014564 -0.003106 -0.002433 0.000632 -0.007836
# 3 -0.002378 -0.003106 0.008527 0.000113 -0.003044 0.000064
# 4 0.000368 -0.002433 0.000113 0.021775 -0.004052 -0.001232
# 5 -0.000678 0.000632 -0.003044 -0.004052 0.028580 -0.001113
# 6 -0.002496 -0.007836 0.000064 -0.001232 -0.001113 0.031553
#
#
# Mechanical properties :
#
#
# Convention : Reuss Voigt Hill
#
# Bulk Modulus (GPa) = 57.82767 78.65000 68.23884
# Shear Modulus (GPa) = 36.43549 41.58626 39.01088
#
# Velocity S-wave (km/s) = 4.08373 4.36285 4.22560
# Velocity P-wave (km/s) = 6.97883 7.83442 7.41897
#
# Compressibility (1/GPa) = 0.01729276
#
# Stress axis : x y z
#
# Youngs Moduli (GPa) = 96.76841 68.66302 117.27026
#
# Poissons Ratio (x) = 0.17730 0.27885
# Poissons Ratio (y) = 0.24988 0.36426
# Poissons Ratio (z) = 0.23010 0.21328
#
# Static dielectric constant tensor:
#      x y z
#    x 2.508260 0.459340 -1.445860 
#    y 0.459340 3.867250 0.364540 
#    z -1.445860 0.364540 2.883760 
# 
# 
# High freq. dielectric constant tensor:
#      x y z
#    x 1.870820 0.005920 0.006680 
#    y 0.005920 1.866980 -0.005400 
#    z 0.006680 -0.005400 1.887690 
# 
# From -- ./inp_files/22038.got.cif
#   From: 2010.06.25/outbox.cif.g09.slc.cpg/sg2_12_cif.got.tgz:22038.got - 2010.06.27 13:26:56.
