data_PCOD8036575
_publ_section_title
;
Structure prediction by ZEFSAII (Michael W. Deem and Ramdas Pophale) SiO2 
 PCOD8036575
Probable space group: P -1
;
_chemical_formula_sum "Si O2"
_cell_formula_units_Z 12
_cell_length_a 11.585748
_cell_length_b 20.209926
_cell_length_c 17.717348
_cell_angle_alpha 166.580711
_cell_angle_beta 33.661892
_cell_angle_gamma 146.193378
_cell_volume 526.266004
_symmetry_space_group_name_H-M "P -1"
_symmetry_group_IT_number 2
_symmetry_cell_setting 'triclinic'
loop_
_space_group_symop_operation_xyz
x,y,z
-x,-y,-z
loop_
_atom_site_type_symbol
_atom_site_label
_atom_site_fract_x
_atom_site_fract_y
_atom_site_fract_z
Si Si1 0.753036 0.519172 0.878006
Si Si2 0.597913 0.829820 0.820963
Si Si3 0.546970 0.009029 0.764551
Si Si4 0.796490 0.605512 0.254931
Si Si5 0.017875 0.852335 0.557091
Si Si6 0.882725 0.277207 0.379060
O O1 0.821627 0.351685 0.727739
O O2 0.865912 0.416730 0.626980
O O3 0.500000 0.500000 0.000000
O O4 0.842339 0.851084 0.214203
O O5 0.500000 0.500000 0.500000
O O6 0.852273 0.887282 0.751657
O O7 0.543056 0.973858 0.085785
O O8 0.500000 0.000000 0.000000
O O9 0.742000 0.835543 0.478083
O O10 0.366186 0.820255 0.605151
O O11 0.611059 0.327038 0.047404
O O12 0.852328 0.731054 0.446756
O O13 0.000000 0.500000 0.000000
O O14 0.000000 0.500000 0.500000
O O15 0.000000 0.000000 0.000000
#
# Coordination Sequence:
#
# PCOD8036575 Si02
#       6
#     2   2   2   2   2   2
#     4  12  28  47  74 103 138 192 237 288 344 415
#     4  12  21  40  66 102 132 167 218 274 348 404
#     4  12  24  45  71 102 137 177 230 285 345 418
#     4  12  27  43  70 104 138 183 223 287 354 409
#     4  12  25  46  72 102 140 176 232 290 347 418
#     4  12  27  49  73 103 144 189 237 287 346 415
#
# _framework density 22.802154999999999
#
# number of rings (size 3 to 8) (size 9 to 14) (size 15 to 20)
#    0.000    0.000    3.333    7.000    4.667    0.000 
#    0.000    0.000    0.000    0.000    0.000    0.000 
#    0.000    0.000    0.000    0.000    0.000    0.000 
#
# Total GULP energy -148700.779253 kJ/mol
# GULP energy per Si atom -12391.731604 kJ/mol
# Density = 2.275026 g / cm^3
# Si number density = 22.802155 Si / 1000 Ang^3
#
#
#
# Elastic Constant Matrix: (Units=GPa)
#
#
# Indices 1 2 3 4 5 6 
#
# 1 76.8882 5.7240 36.2296 12.8597 -15.4991 17.2524
# 2 5.7240 108.6632 42.9710 7.4990 -0.6900 20.1262
# 3 36.2296 42.9710 128.6228 19.5485 -31.2267 6.4471
# 4 12.8597 7.4990 19.5485 56.3333 6.2116 -0.0155
# 5 -15.4991 -0.6900 -31.2267 6.2116 41.3094 -5.5441
# 6 17.2524 20.1262 6.4471 -0.0155 -5.5441 42.7312
#
#
#
# Elastic Compliance Matrix: (Units=1/GPa)
#
#
# Indices 1 2 3 4 5 6 
#
# 1 0.017522 0.002264 -0.004111 -0.003211 0.003031 -0.007128
# 2 0.002264 0.012389 -0.005433 0.000152 -0.003938 -0.006440
# 3 -0.004111 -0.005433 0.013553 -0.004109 0.009690 0.003429
# 4 -0.003211 0.000152 -0.004109 0.020695 -0.007299 0.000905
# 5 0.003031 -0.003938 0.009690 -0.007299 0.034185 0.003602
# 6 -0.007128 -0.006440 0.003429 0.000905 0.003602 0.029264
#
#
# Mechanical properties :
#
#
# Convention : Reuss Voigt Hill
#
# Bulk Modulus (GPa) = 34.59739 53.78038 44.18889
# Shear Modulus (GPa) = 32.93777 43.35810 38.14794
#
# Velocity S-wave (km/s) = 3.80478 4.36534 4.09467
# Velocity P-wave (km/s) = 5.87432 7.00322 6.46347
#
# Compressibility (1/GPa) = 0.02890391
#
# Stress axis : x y z
#
# Youngs Moduli (GPa) = 57.07221 80.71436 73.78638
#
# Poissons Ratio (x) = -0.18271 0.30330
# Poissons Ratio (y) = -0.12919 0.40088
# Poissons Ratio (z) = 0.23460 0.43852
#
# Static dielectric constant tensor:
#      x y z
#    x 4.108800 -0.079150 -0.581500 
#    y -0.079150 4.477770 -0.103660 
#    z -0.581500 -0.103660 4.199050 
# 
# 
# High freq. dielectric constant tensor:
#      x y z
#    x 1.903660 0.004420 -0.005330 
#    y 0.004420 1.918080 -0.003190 
#    z -0.005330 -0.003190 1.920070 
# 
# From -- ./inp_files/83556.got.cif
#   From: 2010.06.25/outbox.cif.g09.slc.cpg/sg2_42_cif.got.tgz:83556.got - 2010.06.27 13:26:56.
