data_PCOD8036733
_publ_section_title
;
Structure prediction by ZEFSAII (Michael W. Deem and Ramdas Pophale) SiO2 
 PCOD8036733
Probable space group: P -1
;
_chemical_formula_sum "Si O2"
_cell_formula_units_Z 16
_cell_length_a 11.862784
_cell_length_b 11.264479
_cell_length_c 10.896368
_cell_angle_alpha 65.806130
_cell_angle_beta 127.316763
_cell_angle_gamma 73.665554
_cell_volume 721.733313
_symmetry_space_group_name_H-M "P -1"
_symmetry_group_IT_number 2
_symmetry_cell_setting 'triclinic'
loop_
_space_group_symop_operation_xyz
x,y,z
-x,-y,-z
loop_
_atom_site_type_symbol
_atom_site_label
_atom_site_fract_x
_atom_site_fract_y
_atom_site_fract_z
Si Si1 0.554384 0.329876 0.037542
Si Si2 0.441286 0.169124 0.671487
Si Si3 0.486182 0.388034 0.442708
Si Si4 0.848550 0.274424 0.083193
Si Si5 0.818192 0.529957 0.413624
Si Si6 0.851596 0.886511 0.199164
Si Si7 0.790835 0.924813 0.427241
Si Si8 0.078534 0.953138 0.208941
O O1 0.688763 0.270805 0.029252
O O2 0.685529 0.138359 0.289148
O O3 0.500000 0.500000 0.000000
O O4 0.344575 0.396732 0.831664
O O5 0.480661 0.250452 0.559552
O O6 0.297340 0.330411 0.608841
O O7 0.336258 0.107100 0.577709
O O8 0.656665 0.975733 0.951811
O O9 0.500000 0.500000 0.500000
O O10 0.686769 0.254034 0.542972
O O11 0.290955 0.526658 0.164366
O O12 0.972408 0.242099 0.297799
O O13 0.035239 0.120579 0.173196
O O14 0.000000 0.500000 0.500000
O O15 0.940567 0.321102 0.627630
O O16 0.799258 0.889275 0.303322
O O17 0.913256 0.993072 0.172213
O O18 0.000000 0.000000 0.000000
#
# Coordination Sequence:
#
# PCOD8036733 Si02
#       8
#     2   2   2   2   2   2   2   2
#     4  12  26  46  74 108 148 192 242 308 376 438
#     4  12  25  47  71 105 152 191 244 305 359 442
#     4  12  25  46  72 105 141 192 250 293 354 440
#     4  12  27  45  70 108 146 189 244 301 365 435
#     4  12  24  40  71 108 138 187 241 297 370 434
#     4  12  22  44  72 105 142 181 244 302 364 427
#     4  12  26  46  71 107 150 191 234 308 381 433
#     4  12  23  43  73 102 135 188 244 295 355 424
#
# _framework density 22.168854
#
# number of rings (size 3 to 8) (size 9 to 14) (size 15 to 20)
#    0.000    0.000    6.250    4.500    3.500    0.500 
#    0.000    0.625    0.000    0.000    0.000    0.000 
#    0.000    0.000    0.000    0.000    0.000    0.000 
#
# Total GULP energy -198286.411184 kJ/mol
# GULP energy per Si atom -12392.900699 kJ/mol
# Density = 2.211840 g / cm^3
# Si number density = 22.168854 Si / 1000 Ang^3
#
#
#
# Elastic Constant Matrix: (Units=GPa)
#
#
# Indices 1 2 3 4 5 6 
#
# 1 101.8034 30.9033 30.5300 9.2385 9.1262 8.3642
# 2 30.9033 88.0411 35.4256 -16.8302 5.5326 0.7514
# 3 30.5300 35.4256 179.4918 3.1373 10.8455 5.7565
# 4 9.2385 -16.8302 3.1373 35.7685 -1.8029 13.4602
# 5 9.1262 5.5326 10.8455 -1.8029 40.0849 -4.6122
# 6 8.3642 0.7514 5.7565 13.4602 -4.6122 33.3266
#
#
#
# Elastic Compliance Matrix: (Units=1/GPa)
#
#
# Indices 1 2 3 4 5 6 
#
# 1 0.012286 -0.004767 -0.000890 -0.005038 -0.002252 -0.001099
# 2 -0.004767 0.015955 -0.002401 0.009998 -0.000344 -0.002834
# 3 -0.000890 -0.002401 0.006312 -0.001351 -0.001286 -0.000445
# 4 -0.005038 0.009998 -0.001351 0.039625 0.000223 -0.014701
# 5 -0.002252 -0.000344 -0.001286 0.000223 0.026366 0.004354
# 6 -0.001099 -0.002834 -0.000445 -0.014701 0.004354 0.036963
#
#
# Mechanical properties :
#
#
# Convention : Reuss Voigt Hill
#
# Bulk Modulus (GPa) = 54.23668 62.56158 58.39913
# Shear Modulus (GPa) = 31.29538 40.00116 35.64827
#
# Velocity S-wave (km/s) = 3.76131 4.25241 4.01438
# Velocity P-wave (km/s) = 6.58648 7.23826 6.92005
#
# Compressibility (1/GPa) = 0.01843771
#
# Stress axis : x y z
#
# Youngs Moduli (GPa) = 81.39367 62.67704 158.42565
#
# Poissons Ratio (x) = 0.29877 0.14093
# Poissons Ratio (y) = 0.38798 0.38042
# Poissons Ratio (z) = 0.07241 0.15050
#
# Static dielectric constant tensor:
#      x y z
#    x 4.488600 -0.225920 0.379340 
#    y -0.225920 4.256420 -0.637430 
#    z 0.379340 -0.637430 4.604620 
# 
# 
# High freq. dielectric constant tensor:
#      x y z
#    x 1.872640 -0.000250 0.012140 
#    y -0.000250 1.863680 -0.019980 
#    z 0.012140 -0.019980 1.888960 
# 
# From -- ./inp_files/308062.got.cif
#   From: 2010.06.25/outbox.cif.g09.slc.cpg/sg2_155_cif.got.tgz:308062.got - 2010.06.27 13:26:56.
