data_PCOD8036231
_publ_section_title
;
Structure prediction by ZEFSAII (Michael W. Deem and Ramdas Pophale) SiO2 
 PCOD8036231
Probable space group: P -1
;
_chemical_formula_sum "Si O2"
_cell_formula_units_Z 10
_cell_length_a 15.958644
_cell_length_b 13.156348
_cell_length_c 10.993111
_cell_angle_alpha 25.370465
_cell_angle_beta 146.982407
_cell_angle_gamma 155.601982
_cell_volume 406.908720
_symmetry_space_group_name_H-M "P -1"
_symmetry_group_IT_number 2
_symmetry_cell_setting 'triclinic'
loop_
_space_group_symop_operation_xyz
x,y,z
-x,-y,-z
loop_
_atom_site_type_symbol
_atom_site_label
_atom_site_fract_x
_atom_site_fract_y
_atom_site_fract_z
Si Si1 0.726654 0.195029 0.722108
Si Si2 0.373920 0.154944 0.268022
Si Si3 0.905680 0.087156 0.598712
Si Si4 0.508313 0.741602 0.337475
Si Si5 0.150809 0.122303 0.664760
O O1 0.522602 0.146134 0.543714
O O2 0.942559 0.540540 0.612604
O O3 0.716382 0.078250 0.701210
O O4 0.727971 0.005326 0.040651
O O5 0.185216 0.067001 0.212849
O O6 0.500000 0.500000 0.000000
O O7 0.029585 0.000521 0.777830
O O8 0.722314 0.961936 0.423581
O O9 0.500000 0.500000 0.500000
O O10 0.313548 0.503269 0.447117
O O11 0.500000 0.000000 0.000000
O O12 0.000000 0.000000 0.500000
#
# Coordination Sequence:
#
# PCOD8036231 Si02
#       5
#     2   2   2   2   2
#     4  11  26  46  77 107 150 196 260 317 391 460
#     4  11  26  50  74 108 151 198 258 320 390 464
#     4  12  26  44  77 106 152 199 258 318 389 458
#     4  12  28  48  76 111 160 210 259 320 391 463
#     4  12  27  48  73 111 152 201 258 315 387 466
#
# _framework density 24.575537000000001
#
# number of rings (size 3 to 8) (size 9 to 14) (size 15 to 20)
#    0.000    0.400    2.000    5.400    5.600    8.000 
#    0.000    0.000    0.000    0.000    0.000    0.000 
#    0.000    0.000    0.000    0.000    0.000    0.000 
#
# Total GULP energy -123914.510111 kJ/mol
# GULP energy per Si atom -12391.451011 kJ/mol
# Density = 2.451960 g / cm^3
# Si number density = 24.575537 Si / 1000 Ang^3
#
#
#
# Elastic Constant Matrix: (Units=GPa)
#
#
# Indices 1 2 3 4 5 6 
#
# 1 124.4344 25.0644 19.5162 -14.5143 1.9320 21.8895
# 2 25.0644 186.9315 55.6348 -8.6588 5.4497 -8.6003
# 3 19.5162 55.6348 161.1975 2.6331 4.5322 12.5963
# 4 -14.5143 -8.6588 2.6331 50.8468 5.4141 -2.3180
# 5 1.9320 5.4497 4.5322 5.4141 28.0894 -10.5003
# 6 21.8895 -8.6003 12.5963 -2.3180 -10.5003 48.9945
#
#
#
# Elastic Compliance Matrix: (Units=1/GPa)
#
#
# Indices 1 2 3 4 5 6 
#
# 1 0.009525 -0.001204 -0.000327 0.002595 -0.002676 -0.004833
# 2 -0.001204 0.006324 -0.002224 0.000965 -0.000135 0.002236
# 3 -0.000327 -0.002224 0.007258 -0.000802 -0.001485 -0.002466
# 4 0.002595 0.000965 -0.000802 0.021067 -0.004585 -0.000770
# 5 -0.002676 -0.000135 -0.001485 -0.004585 0.040694 0.010058
# 6 -0.004833 0.002236 -0.002466 -0.000770 0.010058 0.025716
#
#
# Mechanical properties :
#
#
# Convention : Reuss Voigt Hill
#
# Bulk Modulus (GPa) = 64.11159 74.77713 69.44436
# Shear Modulus (GPa) = 40.55408 50.40933 45.48171
#
# Velocity S-wave (km/s) = 4.06665 4.53393 4.30663
# Velocity P-wave (km/s) = 6.94222 7.60935 7.28343
#
# Compressibility (1/GPa) = 0.01559780
#
# Stress axis : x y z
#
# Youngs Moduli (GPa) = 104.99048 158.11972 137.77489
#
# Poissons Ratio (x) = 0.19036 0.04507
# Poissons Ratio (y) = 0.12640 0.30637
# Poissons Ratio (z) = 0.03435 0.35161
#
# Static dielectric constant tensor:
#      x y z
#    x 4.356510 0.290350 -0.262130 
#    y 0.290350 5.102990 0.152320 
#    z -0.262130 0.152320 4.251310 
# 
# 
# High freq. dielectric constant tensor:
#      x y z
#    x 1.997850 -0.003510 0.002640 
#    y -0.003510 2.009420 0.000960 
#    z 0.002640 0.000960 1.968630 
# 
# From -- ./inp_files/1543.got.cif
#   From: 2010.06.25/outbox.cif.g09.slc.cpg/sg2_1_cif.got.tgz:1543.got - 2010.06.27 13:26:56.
