data_PCOD8036600
_publ_section_title
;
Structure prediction by ZEFSAII (Michael W. Deem and Ramdas Pophale) SiO2 
 PCOD8036600
Probable space group: P -1
;
_chemical_formula_sum "Si O2"
_cell_formula_units_Z 16
_cell_length_a 14.831840
_cell_length_b 14.846849
_cell_length_c 16.037335
_cell_angle_alpha 39.900475
_cell_angle_beta 44.594203
_cell_angle_gamma 19.925725
_cell_volume 771.348207
_symmetry_space_group_name_H-M "P -1"
_symmetry_group_IT_number 2
_symmetry_cell_setting 'triclinic'
loop_
_space_group_symop_operation_xyz
x,y,z
-x,-y,-z
loop_
_atom_site_type_symbol
_atom_site_label
_atom_site_fract_x
_atom_site_fract_y
_atom_site_fract_z
Si Si1 0.423047 0.280272 0.139250
Si Si2 0.866723 0.425343 0.484419
Si Si3 0.573106 0.978196 0.558941
Si Si4 0.718921 0.469937 0.204303
Si Si5 0.207857 0.442453 0.755254
Si Si6 0.690036 0.776731 0.910602
Si Si7 0.841311 0.126373 0.755380
Si Si8 0.948110 0.943690 0.000802
O O1 0.448341 0.144642 0.290900
O O2 0.370190 0.255012 0.107242
O O3 0.190058 0.608047 0.078802
O O4 0.691869 0.105415 0.079962
O O5 0.825326 0.499141 0.362291
O O6 0.877313 0.248765 0.612451
O O7 0.134140 0.237964 0.475889
O O8 0.625715 0.715485 0.491349
O O9 0.500000 0.000000 0.500000
O O10 0.746853 0.452350 0.299673
O O11 0.458498 0.637255 0.228107
O O12 0.718911 0.635473 0.064816
O O13 0.969860 0.155415 0.221382
O O14 0.950980 0.616383 0.839207
O O15 0.452918 0.107902 0.850269
O O16 0.914201 0.053265 0.856804
O O17 0.000000 0.000000 0.000000
#
# Coordination Sequence:
#
# PCOD8036600 Si02
#       8
#     2   2   2   2   2   2   2   2
#     4  12  23  44  72  95 131 169 211 273 322 371
#     4  12  26  46  66  95 133 172 216 267 317 383
#     4  12  27  44  70  98 129 169 217 269 322 379
#     4  12  25  42  67  97 130 172 214 265 325 381
#     4  12  24  42  68  98 128 170 216 266 323 381
#     4  12  21  43  67  99 133 161 214 272 326 369
#     4  12  26  44  64  94 135 173 214 265 317 385
#     4  12  26  43  68  98 131 172 216 263 320 385
#
# _framework density 20.742902000000001
#
# number of rings (size 3 to 8) (size 9 to 14) (size 15 to 20)
#    0.000    0.000    5.000    5.250    3.500    1.000 
#    0.000    0.000    0.000    0.000    0.000    0.000 
#    0.000    0.000    0.000    0.000    0.000    0.000 
#
# Total GULP energy -198442.887648 kJ/mol
# GULP energy per Si atom -12402.680478 kJ/mol
# Density = 2.069569 g / cm^3
# Si number density = 20.742902 Si / 1000 Ang^3
#
#
#
# Elastic Constant Matrix: (Units=GPa)
#
#
# Indices 1 2 3 4 5 6 
#
# 1 141.7711 33.4655 23.3330 -1.1623 15.1446 19.3185
# 2 33.4655 138.4951 24.7092 -1.3968 -7.8653 3.1615
# 3 23.3330 24.7092 104.3418 -5.9093 -8.5651 0.8123
# 4 -1.1623 -1.3968 -5.9093 32.2523 -1.3646 -3.3930
# 5 15.1446 -7.8653 -8.5651 -1.3646 39.2738 3.6764
# 6 19.3185 3.1615 0.8123 -3.3930 3.6764 26.2838
#
#
#
# Elastic Compliance Matrix: (Units=1/GPa)
#
#
# Indices 1 2 3 4 5 6 
#
# 1 0.009019 -0.001932 -0.001871 -0.000884 -0.003748 -0.005928
# 2 -0.001932 0.008031 -0.001294 0.000152 0.002055 0.000226
# 3 -0.001871 -0.001294 0.010643 0.002057 0.002753 0.001082
# 4 -0.000884 0.000152 0.002057 0.031892 0.001509 0.004474
# 5 -0.003748 0.002055 0.002753 0.001509 0.028095 -0.001312
# 6 -0.005928 0.000226 0.001082 0.004474 -0.001312 0.043104
#
#
# Mechanical properties :
#
#
# Convention : Reuss Voigt Hill
#
# Bulk Modulus (GPa) = 57.14755 60.84705 58.99730
# Shear Modulus (GPa) = 34.05758 39.76866 36.91312
#
# Velocity S-wave (km/s) = 4.05642 4.38335 4.22305
# Velocity P-wave (km/s) = 7.03915 7.41728 7.23069
#
# Compressibility (1/GPa) = 0.01749856
#
# Stress axis : x y z
#
# Youngs Moduli (GPa) = 110.88276 124.51283 93.95990
#
# Poissons Ratio (x) = 0.24055 0.17578
# Poissons Ratio (y) = 0.21421 0.12162
# Poissons Ratio (z) = 0.20744 0.16116
#
# Static dielectric constant tensor:
#      x y z
#    x 4.212950 0.008590 0.168360 
#    y 0.008590 4.053770 0.016590 
#    z 0.168360 0.016590 3.894730 
# 
# 
# High freq. dielectric constant tensor:
#      x y z
#    x 1.838830 0.000050 0.006000 
#    y 0.000050 1.836870 0.003430 
#    z 0.006000 0.003430 1.814890 
# 
# From -- ./inp_files/90508.got.cif
#   From: 2010.06.25/outbox.cif.g09.slc.cpg/sg2_46_cif.got.tgz:90508.got - 2010.06.27 13:26:56.
