data_PCOD8036096
_publ_section_title
;
Structure prediction by ZEFSAII (Michael W. Deem and Ramdas Pophale) SiO2 
 PCOD8036096
Probable space group: P -1
;
_chemical_formula_sum "Si O2"
_cell_formula_units_Z 16
_cell_length_a 17.525069
_cell_length_b 14.402495
_cell_length_c 6.403524
_cell_angle_alpha 133.415404
_cell_angle_beta 131.645941
_cell_angle_gamma 36.543738
_cell_volume 675.070391
_symmetry_space_group_name_H-M "P -1"
_symmetry_group_IT_number 2
_symmetry_cell_setting 'triclinic'
loop_
_space_group_symop_operation_xyz
x,y,z
-x,-y,-z
loop_
_atom_site_type_symbol
_atom_site_label
_atom_site_fract_x
_atom_site_fract_y
_atom_site_fract_z
Si Si1 0.034279 0.104973 0.327820
Si Si2 0.697262 0.162915 0.368882
Si Si3 0.669045 0.926289 0.766930
Si Si4 0.075669 0.401072 0.192255
Si Si5 0.472322 0.927567 0.645715
Si Si6 0.921500 0.371611 0.205477
Si Si7 0.798083 0.311042 0.550591
Si Si8 0.483594 0.396577 0.650208
O O1 0.030205 0.214619 0.307073
O O2 0.925722 0.221957 0.493852
O O3 0.183763 0.979601 0.487308
O O4 0.000000 0.000000 0.000000
O O5 0.758527 0.194797 0.336560
O O6 0.586400 0.338423 0.556236
O O7 0.620050 0.101379 0.041802
O O8 0.812481 0.795454 0.933406
O O9 0.583407 0.871927 0.591596
O O10 0.666412 0.934021 0.518596
O O11 0.148469 0.469379 0.523598
O O12 0.972302 0.419374 0.186131
O O13 0.000000 0.500000 0.000000
O O14 0.475034 0.776035 0.461878
O O15 0.500000 0.000000 0.000000
O O16 0.826553 0.342613 0.884189
O O17 0.671478 0.488613 0.509552
O O18 0.500000 0.500000 0.000000
#
# Coordination Sequence:
#
# PCOD8036096 Si02
#       8
#     2   2   2   2   2   2   2   2
#     4  12  26  47  73 109 149 195 245 305 374 448
#     4  12  25  48  75 109 150 194 252 306 372 446
#     4  11  26  44  75 102 144 192 249 299 375 440
#     4  11  26  45  72 106 147 191 247 311 367 446
#     4  11  26  48  71 104 145 194 242 306 367 445
#     4  11  26  44  71 107 145 195 242 302 378 440
#     4  12  27  46  75 106 151 191 245 309 373 443
#     4  12  28  48  77 108 149 194 251 309 374 442
#
# _framework density 23.701231
#
# number of rings (size 3 to 8) (size 9 to 14) (size 15 to 20)
#    0.000    0.500    2.500    4.500    8.750    1.000 
#    0.000    0.000    0.000    0.000    0.000    0.000 
#    0.000    0.000    0.000    0.000    0.000    0.000 
#
# Total GULP energy -198234.937949 kJ/mol
# GULP energy per Si atom -12389.683622 kJ/mol
# Density = 2.364729 g / cm^3
# Si number density = 23.701231 Si / 1000 Ang^3
#
#
#
# Elastic Constant Matrix: (Units=GPa)
#
#
# Indices 1 2 3 4 5 6 
#
# 1 76.9934 33.4076 30.9544 -5.4527 -6.2950 16.0066
# 2 33.4076 134.9191 45.8030 -17.9440 -18.3570 7.6618
# 3 30.9544 45.8030 142.4411 11.0258 -7.8766 6.2452
# 4 -5.4527 -17.9440 11.0258 45.4522 8.3793 -0.0418
# 5 -6.2950 -18.3570 -7.8766 8.3793 34.7526 1.8954
# 6 16.0066 7.6618 6.2452 -0.0418 1.8954 51.6255
#
#
#
# Elastic Compliance Matrix: (Units=1/GPa)
#
#
# Indices 1 2 3 4 5 6 
#
# 1 0.016220 -0.002597 -0.002555 0.001372 0.000895 -0.004366
# 2 -0.002597 0.009938 -0.002712 0.003660 0.003307 -0.000460
# 3 -0.002555 -0.002712 0.008783 -0.003688 0.000980 0.000093
# 4 0.001372 0.003660 -0.003688 0.025382 -0.004756 -0.000327
# 5 0.000895 0.003307 0.000980 -0.004756 0.032166 -0.002072
# 6 -0.004366 -0.000460 0.000093 -0.000327 -0.002072 0.020857
#
#
# Mechanical properties :
#
#
# Convention : Reuss Voigt Hill
#
# Bulk Modulus (GPa) = 52.04365 63.85376 57.94870
# Shear Modulus (GPa) = 36.90638 42.64529 39.77584
#
# Velocity S-wave (km/s) = 3.95036 4.24640 4.10105
# Velocity P-wave (km/s) = 6.54316 7.14438 6.85037
#
# Compressibility (1/GPa) = 0.01921464
#
# Stress axis : x y z
#
# Youngs Moduli (GPa) = 61.65168 100.62133 113.85338
#
# Poissons Ratio (x) = 0.26129 0.29091
# Poissons Ratio (y) = 0.16010 0.30873
# Poissons Ratio (z) = 0.15753 0.27285
#
# Static dielectric constant tensor:
#      x y z
#    x 4.437400 0.381170 0.015700 
#    y 0.381170 4.757160 0.076800 
#    z 0.015700 0.076800 4.803950 
# 
# 
# High freq. dielectric constant tensor:
#      x y z
#    x 1.937020 0.022620 0.007210 
#    y 0.022620 1.942700 -0.001840 
#    z 0.007210 -0.001840 1.959240 
# 
# From -- ./inp_files/111080.got.cif
#   From: 2010.06.25/outbox.cif.g09.slc.cpg/sg2_56_cif.got.tgz:111080.got - 2010.06.27 13:26:56.
