data_PCOD8036364
_publ_section_title
;
Structure prediction by ZEFSAII (Michael W. Deem and Ramdas Pophale) SiO2 
 PCOD8036364
Probable space group: P -1
;
_chemical_formula_sum "Si O2"
_cell_formula_units_Z 14
_cell_length_a 10.746155
_cell_length_b 19.031229
_cell_length_c 13.132054
_cell_angle_alpha 24.530144
_cell_angle_beta 33.533078
_cell_angle_gamma 36.570586
_cell_volume 604.093456
_symmetry_space_group_name_H-M "P -1"
_symmetry_group_IT_number 2
_symmetry_cell_setting 'triclinic'
loop_
_space_group_symop_operation_xyz
x,y,z
-x,-y,-z
loop_
_atom_site_type_symbol
_atom_site_label
_atom_site_fract_x
_atom_site_fract_y
_atom_site_fract_z
Si Si1 0.181926 0.842599 0.630118
Si Si2 0.882160 0.579935 0.216042
Si Si3 0.976344 0.652415 0.397599
Si Si4 0.254649 0.515674 0.773444
Si Si5 0.485675 0.807239 0.291181
Si Si6 0.563986 0.234072 0.073462
Si Si7 0.461277 0.135283 0.492180
O O1 0.419716 0.809895 0.449907
O O2 0.274361 0.872162 0.640761
O O3 0.000000 0.000000 0.500000
O O4 0.082025 0.669663 0.918476
O O5 0.715714 0.545455 0.283699
O O6 0.739412 0.702040 0.237692
O O7 0.989265 0.408158 0.428626
O O8 0.723264 0.771395 0.421278
O O9 0.000000 0.500000 0.500000
O O10 0.171103 0.759122 0.095812
O O11 0.296988 0.713268 0.486856
O O12 0.439673 0.397657 0.876035
O O13 0.000000 0.500000 0.000000
O O14 0.500000 0.000000 0.000000
O O15 0.435334 0.229890 0.275159
O O16 0.564623 0.061561 0.237629
#
# Coordination Sequence:
#
# PCOD8036364 Si02
#       7
#     2   2   2   2   2   2   2
#     4  12  25  46  71 107 142 181 240 299 363 425
#     4  12  25  45  71 106 140 189 239 296 358 427
#     4  12  26  46  72 102 143 190 245 298 360 435
#     4  12  25  46  75 107 146 188 243 300 358 427
#     4  12  26  43  71 107 146 186 235 298 364 426
#     4  11  26  49  69 104 146 192 244 293 362 436
#     4  11  27  46  73 102 144 194 239 299 364 430
#
# _framework density 23.175222999999999
#
# number of rings (size 3 to 8) (size 9 to 14) (size 15 to 20)
#    0.000    0.286    4.286    4.286    0.000    1.143 
#    0.000    0.000    0.000    0.000    0.000    0.000 
#    0.000    0.000    0.000    0.000    0.000    0.000 
#
# Total GULP energy -173530.404108 kJ/mol
# GULP energy per Si atom -12395.028865 kJ/mol
# Density = 2.312248 g / cm^3
# Si number density = 23.175223 Si / 1000 Ang^3
#
#
#
# Elastic Constant Matrix: (Units=GPa)
#
#
# Indices 1 2 3 4 5 6 
#
# 1 130.1608 37.1693 42.1984 -12.2279 -14.5590 -3.5674
# 2 37.1693 117.8364 29.3432 2.3515 -1.8770 3.0559
# 3 42.1984 29.3432 156.1164 -1.6539 -27.6087 2.3755
# 4 -12.2279 2.3515 -1.6539 34.7940 4.4219 -5.2974
# 5 -14.5590 -1.8770 -27.6087 4.4219 42.9766 2.7980
# 6 -3.5674 3.0559 2.3755 -5.2974 2.7980 34.5101
#
#
#
# Elastic Compliance Matrix: (Units=1/GPa)
#
#
# Indices 1 2 3 4 5 6 
#
# 1 0.009579 -0.002662 -0.001816 0.003542 0.001482 0.001775
# 2 -0.002662 0.009696 -0.001288 -0.001705 -0.001051 -0.001222
# 3 -0.001816 -0.001288 0.007962 -0.000932 0.004613 -0.001139
# 4 0.003542 -0.001705 -0.000932 0.031303 -0.003061 0.005635
# 5 0.001482 -0.001051 0.004613 -0.003061 0.027182 -0.002745
# 6 0.001775 -0.001222 -0.001139 0.005635 -0.002745 0.030435
#
#
# Mechanical properties :
#
#
# Convention : Reuss Voigt Hill
#
# Bulk Modulus (GPa) = 63.68056 69.05949 66.37002
# Shear Modulus (GPa) = 37.61542 42.14964 39.88253
#
# Velocity S-wave (km/s) = 4.03313 4.26929 4.15289
# Velocity P-wave (km/s) = 7.01610 7.35976 7.18998
#
# Compressibility (1/GPa) = 0.01570338
#
# Stress axis : x y z
#
# Youngs Moduli (GPa) = 104.39458 103.13691 125.59953
#
# Poissons Ratio (x) = 0.27459 0.22811
# Poissons Ratio (y) = 0.27794 0.16179
# Poissons Ratio (z) = 0.18960 0.13285
#
# Static dielectric constant tensor:
#      x y z
#    x 4.232530 0.192600 -0.056830 
#    y 0.192600 4.195080 0.129660 
#    z -0.056830 0.129660 4.339500 
# 
# 
# High freq. dielectric constant tensor:
#      x y z
#    x 1.923700 0.008280 -0.008660 
#    y 0.008280 1.919830 0.013390 
#    z -0.008660 0.013390 1.928910 
# 
# From -- ./inp_files/523994.got.cif
#   From: 2010.06.25/outbox.cif.g09.slc.cpg/sg2_262_cif.got.tgz:523994.got - 2010.06.27 13:26:56.
