data_PCOD8036454
_publ_section_title
;
Structure prediction by ZEFSAII (Michael W. Deem and Ramdas Pophale) SiO2 
 PCOD8036454
Probable space group: P -1
;
_chemical_formula_sum "Si O2"
_cell_formula_units_Z 16
_cell_length_a 18.052312
_cell_length_b 11.524361
_cell_length_c 20.550526
_cell_angle_alpha 31.690460
_cell_angle_beta 158.561905
_cell_angle_gamma 136.469402
_cell_volume 769.261383
_symmetry_space_group_name_H-M "P -1"
_symmetry_group_IT_number 2
_symmetry_cell_setting 'triclinic'
loop_
_space_group_symop_operation_xyz
x,y,z
-x,-y,-z
loop_
_atom_site_type_symbol
_atom_site_label
_atom_site_fract_x
_atom_site_fract_y
_atom_site_fract_z
Si Si1 0.844215 0.403103 0.879790
Si Si2 0.014471 0.871675 0.253180
Si Si3 0.231277 0.331813 0.440156
Si Si4 0.238635 0.499525 0.009294
Si Si5 0.555776 0.832794 0.896252
Si Si6 0.816822 0.000255 0.800901
Si Si7 0.499264 0.455446 0.366855
Si Si8 0.563791 0.427281 0.191535
O O1 0.829654 0.464451 0.762428
O O2 0.608638 0.515113 0.664647
O O3 0.000000 0.500000 0.000000
O O4 0.932060 0.125853 0.097729
O O5 0.138645 0.883215 0.283657
O O6 0.189059 0.677742 0.532350
O O7 0.806342 0.797491 0.107709
O O8 0.319292 0.423441 0.533014
O O9 0.405126 0.095483 0.666889
O O10 0.003979 0.306126 0.288919
O O11 0.336875 0.575998 0.117890
O O12 0.388531 0.500120 0.070927
O O13 0.212728 0.246415 0.117064
O O14 0.476176 0.768943 0.792919
O O15 0.531508 0.665579 0.013170
O O16 0.592596 0.177766 0.561100
O O17 0.000000 0.000000 0.000000
#
# Coordination Sequence:
#
# PCOD8036454 Si02
#       8
#     2   2   2   2   2   2   2   2
#     4  12  23  39  65 103 136 172 212 271 345 399
#     4  12  23  44  68  98 135 170 220 276 330 404
#     4  12  25  42  65 100 137 173 218 271 338 400
#     4  12  25  42  65 100 137 173 218 271 338 400
#     4  11  27  47  70  95 128 181 232 278 325 388
#     4  12  23  39  65 103 136 172 212 271 345 399
#     4  12  24  40  61  98 141 176 210 268 340 408
#     4  11  27  47  70  95 128 181 232 278 325 388
#
# _framework density 20.799173
#
# number of rings (size 3 to 8) (size 9 to 14) (size 15 to 20)
#    0.000    0.250    6.250    2.625    5.250    0.500 
#    0.000    0.625    0.000    0.000    0.000    0.000 
#    0.000    0.000    0.000    0.000    0.000    0.000 
#
# Total GULP energy -198419.099601 kJ/mol
# GULP energy per Si atom -12401.193725 kJ/mol
# Density = 2.075183 g / cm^3
# Si number density = 20.799173 Si / 1000 Ang^3
#
#
#
# Elastic Constant Matrix: (Units=GPa)
#
#
# Indices 1 2 3 4 5 6 
#
# 1 91.5886 10.2471 20.9335 -2.3414 9.6379 0.3111
# 2 10.2471 49.4620 1.4047 7.6658 -13.7958 -4.5906
# 3 20.9335 1.4047 91.1706 13.9505 10.4616 1.8094
# 4 -2.3414 7.6658 13.9505 30.3496 -9.2754 0.0655
# 5 9.6379 -13.7958 10.4616 -9.2754 39.6510 6.1563
# 6 0.3111 -4.5906 1.8094 0.0655 6.1563 31.2765
#
#
#
# Elastic Compliance Matrix: (Units=1/GPa)
#
#
# Indices 1 2 3 4 5 6 
#
# 1 0.012337 -0.003660 -0.002770 0.002221 -0.003036 0.000093
# 2 -0.003660 0.023994 0.000124 -0.003969 0.007968 0.001991
# 3 -0.002770 0.000124 0.013325 -0.007793 -0.004654 0.000207
# 4 0.002221 -0.003969 -0.007793 0.040771 0.010016 -0.002211
# 5 -0.003036 0.007968 -0.004654 0.010016 0.033088 -0.005065
# 6 0.000093 0.001991 0.000207 -0.002211 -0.005065 0.033254
#
#
# Mechanical properties :
#
#
# Convention : Reuss Voigt Hill
#
# Bulk Modulus (GPa) = 26.99337 33.04353 30.01845
# Shear Modulus (GPa) = 27.51377 33.56449 30.53913
#
# Velocity S-wave (km/s) = 3.64102 4.02150 3.83598
# Velocity P-wave (km/s) = 5.53916 6.12247 5.83811
#
# Compressibility (1/GPa) = 0.03704613
#
# Stress axis : x y z
#
# Youngs Moduli (GPa) = 81.05829 41.67632 75.04785
#
# Poissons Ratio (x) = 0.15252 0.20785
# Poissons Ratio (y) = 0.29664 -0.00932
# Poissons Ratio (z) = 0.22449 -0.00517
#
# Static dielectric constant tensor:
#      x y z
#    x 3.885240 -0.073470 0.146950 
#    y -0.073470 3.742450 0.242540 
#    z 0.146950 0.242540 4.006620 
# 
# 
# High freq. dielectric constant tensor:
#      x y z
#    x 1.818670 -0.016970 0.016550 
#    y -0.016970 1.809130 0.020910 
#    z 0.016550 0.020910 1.829900 
# 
# From -- ./inp_files/272753.got.cif
#   From: 2010.06.25/outbox.cif.g09.slc.cpg/sg2_137_cif.got.tgz:272753.got - 2010.06.27 13:26:56.
