data_PCOD8036030
_publ_section_title
;
Structure prediction by ZEFSAII (Michael W. Deem and Ramdas Pophale) SiO2 
 PCOD8036030
Probable space group: P -1
;
_chemical_formula_sum "Si O2"
_cell_formula_units_Z 16
_cell_length_a 18.869446
_cell_length_b 5.256986
_cell_length_c 24.691566
_cell_angle_alpha 70.684854
_cell_angle_beta 161.395995
_cell_angle_gamma 100.086518
_cell_volume 654.947951
_symmetry_space_group_name_H-M "P -1"
_symmetry_group_IT_number 2
_symmetry_cell_setting 'triclinic'
loop_
_space_group_symop_operation_xyz
x,y,z
-x,-y,-z
loop_
_atom_site_type_symbol
_atom_site_label
_atom_site_fract_x
_atom_site_fract_y
_atom_site_fract_z
Si Si1 0.861614 0.516092 0.534196
Si Si2 0.965508 0.215834 0.010635
Si Si3 0.343449 0.423434 0.436152
Si Si4 0.534255 0.123945 0.701643
Si Si5 0.055400 0.087992 0.200321
Si Si6 0.533372 0.604548 0.793143
Si Si7 0.738833 0.019494 0.327178
Si Si8 0.568094 0.770339 0.016940
O O1 0.739384 0.739685 0.480359
O O2 0.709816 0.328302 0.424841
O O3 0.825886 0.692115 0.439484
O O4 0.139825 0.334165 0.769649
O O5 0.681463 0.305965 0.817964
O O6 0.134069 0.056031 0.195868
O O7 0.000000 0.500000 0.000000
O O8 0.000000 0.000000 0.000000
O O9 0.500000 0.500000 0.500000
O O10 0.526315 0.154841 0.628276
O O11 0.167063 0.293268 0.293277
O O12 0.180309 0.730816 0.332783
O O13 0.668806 0.778885 0.846788
O O14 0.754996 0.255579 0.983093
O O15 0.429998 0.720315 0.770650
O O16 0.000000 0.000000 0.500000
O O17 0.571475 0.058136 0.150357
O O18 0.500000 0.500000 0.000000
O O19 0.500000 0.000000 0.000000
#
# Coordination Sequence:
#
# PCOD8036030 Si02
#       8
#     2   2   2   2   2   2   2   2
#     4  11  26  47  77 108 155 204 259 320 392 464
#     4  12  24  44  75 102 138 195 252 308 376 465
#     4  12  28  48  73 108 154 197 255 327 395 461
#     4  11  26  47  70 108 151 198 254 321 391 464
#     4  12  26  46  72 110 146 194 255 312 392 464
#     4  11  26  48  77 109 153 207 263 324 392 470
#     4  11  25  49  79 114 155 205 260 324 387 469
#     4  12  28  49  78 116 155 201 256 317 391 467
#
# _framework density 24.42942
#
# number of rings (size 3 to 8) (size 9 to 14) (size 15 to 20)
#    0.000    0.500    2.500    4.875    8.750    1.000 
#    0.000    0.000    0.000    0.000    0.000    0.000 
#    0.000    0.000    0.000    0.000    0.000    0.000 
#
# Total GULP energy -198244.934005 kJ/mol
# GULP energy per Si atom -12390.308375 kJ/mol
# Density = 2.437382 g / cm^3
# Si number density = 24.429420 Si / 1000 Ang^3
#
#
#
# Elastic Constant Matrix: (Units=GPa)
#
#
# Indices 1 2 3 4 5 6 
#
# 1 118.1609 31.7819 21.6496 0.2687 -15.6500 4.4395
# 2 31.7819 138.8462 40.1695 12.8275 5.6241 -6.8306
# 3 21.6496 40.1695 126.5954 17.1751 -9.0302 -0.3168
# 4 0.2687 12.8275 17.1751 45.6016 -1.8428 -1.1616
# 5 -15.6500 5.6241 -9.0302 -1.8428 45.2258 2.6022
# 6 4.4395 -6.8306 -0.3168 -1.1616 2.6022 39.1277
#
#
#
# Elastic Compliance Matrix: (Units=1/GPa)
#
#
# Indices 1 2 3 4 5 6 
#
# 1 0.009786 -0.002331 -0.000814 0.001008 0.003655 -0.001737
# 2 -0.002331 0.008758 -0.002336 -0.001624 -0.002537 0.001895
# 3 -0.000814 -0.002336 0.009281 -0.002773 0.001774 -0.000441
# 4 0.001008 -0.001624 -0.002773 0.023468 0.000941 0.000214
# 5 0.003655 -0.002537 0.001774 0.000941 0.024224 -0.002426
# 6 -0.001737 0.001895 -0.000441 0.000214 -0.002426 0.026249
#
#
# Mechanical properties :
#
#
# Convention : Reuss Voigt Hill
#
# Bulk Modulus (GPa) = 59.30413 63.42272 61.36342
# Shear Modulus (GPa) = 42.24739 45.32445 43.78592
#
# Velocity S-wave (km/s) = 4.16308 4.31202 4.23820
# Velocity P-wave (km/s) = 6.88743 7.12806 7.00878
#
# Compressibility (1/GPa) = 0.01686223
#
# Stress axis : x y z
#
# Youngs Moduli (GPa) = 102.18387 114.18480 107.74208
#
# Poissons Ratio (x) = 0.26618 0.08774
# Poissons Ratio (y) = 0.23820 0.25170
# Poissons Ratio (z) = 0.08321 0.26675
#
# Static dielectric constant tensor:
#      x y z
#    x 4.449730 -0.189850 0.176860 
#    y -0.189850 4.229160 -0.005830 
#    z 0.176860 -0.005830 4.648240 
# 
# 
# High freq. dielectric constant tensor:
#      x y z
#    x 1.984210 -0.004750 0.007150 
#    y -0.004750 1.974430 0.006620 
#    z 0.007150 0.006620 1.984640 
# 
# From -- ./inp_files/612632.got.cif
#   From: 2010.06.25/outbox.cif.g09.slc.cpg/sg2_307_cif.got.tgz:612632.got - 2010.06.27 13:26:56.
