data_PCOD8036565
_publ_section_title
;
Structure prediction by ZEFSAII (Michael W. Deem and Ramdas Pophale) SiO2 
 PCOD8036565
Probable space group: P -1
;
_chemical_formula_sum "Si O2"
_cell_formula_units_Z 14
_cell_length_a 13.703015
_cell_length_b 19.870717
_cell_length_c 11.637409
_cell_angle_alpha 41.296752
_cell_angle_beta 21.464724
_cell_angle_gamma 33.779669
_cell_volume 640.838988
_symmetry_space_group_name_H-M "P -1"
_symmetry_group_IT_number 2
_symmetry_cell_setting 'triclinic'
loop_
_space_group_symop_operation_xyz
x,y,z
-x,-y,-z
loop_
_atom_site_type_symbol
_atom_site_label
_atom_site_fract_x
_atom_site_fract_y
_atom_site_fract_z
Si Si1 0.400974 0.257845 0.262628
Si Si2 0.655325 0.957533 0.760409
Si Si3 0.391888 0.819296 0.105968
Si Si4 0.650501 0.799191 0.357087
Si Si5 0.627571 0.584896 0.276561
Si Si6 0.665786 0.423982 0.803317
Si Si7 0.608305 0.336689 0.324935
O O1 0.447601 0.184374 0.422671
O O2 0.036924 0.340505 0.521635
O O3 0.587398 0.162818 0.076459
O O4 0.534900 0.341966 0.021584
O O5 0.027699 0.901298 0.439119
O O6 0.504095 0.068501 0.695658
O O7 0.598399 0.857185 0.902119
O O8 0.500000 0.000000 0.000000
O O9 0.547964 0.675555 0.140962
O O10 0.529823 0.724444 0.521613
O O11 0.027374 0.724672 0.027891
O O12 0.500000 0.500000 0.500000
O O13 0.440122 0.676646 0.470693
O O14 0.000000 0.500000 0.000000
O O15 0.587466 0.518377 0.665912
O O16 0.500000 0.500000 0.000000
#
# Coordination Sequence:
#
# PCOD8036565 Si02
#       7
#     2   2   2   2   2   2   2
#     4  12  24  41  63  99 131 168 211 257 326 384
#     4  12  26  47  69  92 123 170 222 267 317 370
#     4  12  26  45  68  94 133 167 207 270 321 374
#     4  12  24  41  65  94 124 165 220 261 309 377
#     4  12  24  43  65  95 129 165 209 255 319 385
#     4  12  21  39  63  96 135 169 207 252 318 382
#     4  12  23  39  65  94 127 167 211 265 311 372
#
# _framework density 21.846361000000002
#
# number of rings (size 3 to 8) (size 9 to 14) (size 15 to 20)
#    0.000    0.000    2.857    8.571    0.000    1.143 
#    0.000    0.000    0.000    0.000    0.000    0.000 
#    0.000    0.000    0.000    0.000    0.000    0.000 
#
# Total GULP energy -173704.067925 kJ/mol
# GULP energy per Si atom -12407.433423 kJ/mol
# Density = 2.179664 g / cm^3
# Si number density = 21.846361 Si / 1000 Ang^3
#
#
#
# Elastic Constant Matrix: (Units=GPa)
#
#
# Indices 1 2 3 4 5 6 
#
# 1 120.7874 36.7675 67.2046 -1.4435 8.7738 0.3884
# 2 36.7675 112.6244 31.1750 -15.8595 -3.0761 -17.7403
# 3 67.2046 31.1750 126.2106 -3.2423 -2.6703 14.9656
# 4 -1.4435 -15.8595 -3.2423 33.1069 6.2827 4.6391
# 5 8.7738 -3.0761 -2.6703 6.2827 61.1925 -2.4325
# 6 0.3884 -17.7403 14.9656 4.6391 -2.4325 37.3462
#
#
#
# Elastic Compliance Matrix: (Units=1/GPa)
#
#
# Indices 1 2 3 4 5 6 
#
# 1 0.012692 -0.002365 -0.006397 -0.000996 -0.002064 0.001297
# 2 -0.002365 0.011869 -0.002266 0.004392 0.000627 0.006066
# 3 -0.006397 -0.002266 0.012645 0.000524 0.001060 -0.006073
# 4 -0.000996 0.004392 0.000524 0.033253 -0.003125 -0.002447
# 5 -0.002064 0.000627 0.001060 -0.003125 0.017092 0.001396
# 6 0.001297 0.006066 -0.006073 -0.002447 0.001396 0.032473
#
#
# Mechanical properties :
#
#
# Convention : Reuss Voigt Hill
#
# Bulk Modulus (GPa) = 66.00240 69.99072 67.99656
# Shear Modulus (GPa) = 33.98334 41.29414 37.63874
#
# Velocity S-wave (km/s) = 3.94834 4.35237 4.15527
# Velocity P-wave (km/s) = 7.14587 7.57395 7.36302
#
# Compressibility (1/GPa) = 0.01515096
#
# Stress axis : x y z
#
# Youngs Moduli (GPa) = 78.78935 84.25017 79.08068
#
# Poissons Ratio (x) = 0.19925 0.50590
# Poissons Ratio (y) = 0.18633 0.17918
# Poissons Ratio (z) = 0.50403 0.19089
#
# Static dielectric constant tensor:
#      x y z
#    x 4.279430 -0.061270 0.192990 
#    y -0.061270 4.170430 -0.002760 
#    z 0.192990 -0.002760 4.340480 
# 
# 
# High freq. dielectric constant tensor:
#      x y z
#    x 1.881080 -0.001520 -0.000830 
#    y -0.001520 1.856400 -0.007370 
#    z -0.000830 -0.007370 1.882010 
# 
# From -- ./inp_files/457677.got.cif
#   From: 2010.06.25/outbox.cif.g09.slc.cpg/sg2_229_cif.got.tgz:457677.got - 2010.06.27 13:26:56.
