data_PCOD8036824
_publ_section_title
;
Structure prediction by ZEFSAII (Michael W. Deem and Ramdas Pophale) SiO2 
 PCOD8036824
Probable space group: P -1
;
_chemical_formula_sum "Si O2"
_cell_formula_units_Z 16
_cell_length_a 11.989860
_cell_length_b 15.929616
_cell_length_c 8.462301
_cell_angle_alpha 132.588906
_cell_angle_beta 142.290974
_cell_angle_gamma 45.875576
_cell_volume 679.814809
_symmetry_space_group_name_H-M "P -1"
_symmetry_group_IT_number 2
_symmetry_cell_setting 'triclinic'
loop_
_space_group_symop_operation_xyz
x,y,z
-x,-y,-z
loop_
_atom_site_type_symbol
_atom_site_label
_atom_site_fract_x
_atom_site_fract_y
_atom_site_fract_z
Si Si1 0.627417 0.479481 0.963856
Si Si2 0.990256 0.676825 0.659843
Si Si3 0.902152 0.126845 0.140255
Si Si4 0.556692 0.069768 0.789746
Si Si5 0.256145 0.175904 0.153515
Si Si6 0.939172 0.136770 0.548639
Si Si7 0.305408 0.325852 0.905586
Si Si8 0.515711 0.286084 0.392355
O O1 0.579688 0.383674 0.678913
O O2 0.500000 0.500000 0.000000
O O3 0.575374 0.607480 0.977887
O O4 0.854950 0.433750 0.212390
O O5 0.805553 0.748033 0.655717
O O6 0.914355 0.628335 0.354420
O O7 0.098370 0.768245 0.846699
O O8 0.997975 0.135472 0.428409
O O9 0.682034 0.142948 0.949457
O O10 0.000000 0.000000 0.000000
O O11 0.371357 0.178129 0.787334
O O12 0.500000 0.000000 0.500000
O O13 0.666805 0.970455 0.919012
O O14 0.434048 0.207717 0.318833
O O15 0.062998 0.207111 0.867467
O O16 0.705436 0.201210 0.398346
O O17 0.000000 0.000000 0.500000
O O18 0.335910 0.356384 0.160824
#
# Coordination Sequence:
#
# PCOD8036824 Si02
#       8
#     2   2   2   2   2   2   2   2
#     4  12  28  51  80 106 149 202 260 314 373 450
#     4  12  25  47  76 111 147 196 250 318 369 452
#     4  12  23  42  69 106 149 193 244 302 379 439
#     4  12  24  41  72 106 152 189 243 310 369 454
#     4  12  25  46  75 117 150 195 254 306 386 449
#     4  12  24  46  71 109 154 200 249 308 380 452
#     4  12  25  50  70 111 150 196 253 306 376 448
#     4  12  28  48  79 110 156 203 249 319 378 450
#
# _framework density 23.535820999999999
#
# number of rings (size 3 to 8) (size 9 to 14) (size 15 to 20)
#    0.000    0.000    6.250    3.000    1.750    3.000 
#    0.000    1.250    0.000    0.000    0.000    0.000 
#    0.000    0.000    0.000    0.000    0.000    0.000 
#
# Total GULP energy -198368.289997 kJ/mol
# GULP energy per Si atom -12398.018125 kJ/mol
# Density = 2.348225 g / cm^3
# Si number density = 23.535821 Si / 1000 Ang^3
#
#
#
# Elastic Constant Matrix: (Units=GPa)
#
#
# Indices 1 2 3 4 5 6 
#
# 1 105.1338 38.3822 22.5255 -0.2714 -4.0577 9.5552
# 2 38.3822 101.8864 24.8020 -4.4827 -2.6533 6.8484
# 3 22.5255 24.8020 144.7732 -26.6667 -7.3962 -4.7871
# 4 -0.2714 -4.4827 -26.6667 24.5760 7.8881 -2.9138
# 5 -4.0577 -2.6533 -7.3962 7.8881 41.1423 5.5621
# 6 9.5552 6.8484 -4.7871 -2.9138 5.5621 29.6317
#
#
#
# Elastic Compliance Matrix: (Units=1/GPa)
#
#
# Indices 1 2 3 4 5 6 
#
# 1 0.011719 -0.003809 -0.001879 -0.003643 0.001798 -0.003898
# 2 -0.003809 0.011730 -0.001411 0.000259 0.000313 -0.001744
# 3 -0.001879 -0.001411 0.009505 0.010851 -0.001155 0.003751
# 4 -0.003643 0.000259 0.010851 0.057177 -0.010776 0.010513
# 5 0.001798 0.000313 -0.001155 -0.010776 0.027311 -0.007025
# 6 -0.003898 -0.001744 0.003751 0.010513 -0.007025 0.038366
#
#
# Mechanical properties :
#
#
# Convention : Reuss Voigt Hill
#
# Bulk Modulus (GPa) = 53.31366 58.13474 55.72420
# Shear Modulus (GPa) = 28.36747 36.80891 32.58819
#
# Velocity S-wave (km/s) = 3.47549 3.95897 3.72509
# Velocity P-wave (km/s) = 6.22950 6.75664 6.49842
#
# Compressibility (1/GPa) = 0.01875692
#
# Stress axis : x y z
#
# Youngs Moduli (GPa) = 85.33109 85.25217 105.20536
#
# Poissons Ratio (x) = 0.32471 0.19768
# Poissons Ratio (y) = 0.32501 0.14842
# Poissons Ratio (z) = 0.16034 0.12027
#
# Static dielectric constant tensor:
#      x y z
#    x 4.351680 0.120590 -0.029720 
#    y 0.120590 4.548570 -0.137480 
#    z -0.029720 -0.137480 4.545420 
# 
# 
# High freq. dielectric constant tensor:
#      x y z
#    x 1.923800 0.016330 -0.002760 
#    y 0.016330 1.926460 -0.000610 
#    z -0.002760 -0.000610 1.959010 
# 
# From -- ./inp_files/274513.got.cif
#   From: 2010.06.25/outbox.cif.g09.slc.cpg/sg2_138_cif.got.tgz:274513.got - 2010.06.27 13:26:56.
