data_PCOD8036000
_publ_section_title
;
Structure prediction by ZEFSAII (Michael W. Deem and Ramdas Pophale) SiO2 
 PCOD8036000
Probable space group: P -1
;
_chemical_formula_sum "Si O2"
_cell_formula_units_Z 12
_cell_length_a 15.474663
_cell_length_b 15.930331
_cell_length_c 8.312185
_cell_angle_alpha 49.954827
_cell_angle_beta 50.854272
_cell_angle_gamma 17.983849
_cell_volume 482.697081
_symmetry_space_group_name_H-M "P -1"
_symmetry_group_IT_number 2
_symmetry_cell_setting 'triclinic'
loop_
_space_group_symop_operation_xyz
x,y,z
-x,-y,-z
loop_
_atom_site_type_symbol
_atom_site_label
_atom_site_fract_x
_atom_site_fract_y
_atom_site_fract_z
Si Si1 0.138767 0.483419 0.246960
Si Si2 0.714968 0.963209 0.377276
Si Si3 0.526414 0.562662 0.532941
Si Si4 0.084278 0.002529 0.754876
Si Si5 0.617065 0.718305 0.119579
Si Si6 0.338324 0.181404 0.765369
O O1 0.461576 0.170028 0.295161
O O2 0.906195 0.592753 0.367555
O O3 0.155893 0.508625 0.009018
O O4 0.007283 0.687788 0.276530
O O5 0.718027 0.080763 0.303509
O O6 0.643799 0.941862 0.630622
O O7 0.500000 0.500000 0.500000
O O8 0.274563 0.761777 0.705082
O O9 0.478436 0.727887 0.316323
O O10 0.819889 0.290794 0.616460
O O11 0.000000 0.000000 0.000000
O O12 0.766675 0.638192 0.198218
O O13 0.373067 0.025666 0.978651
#
# Coordination Sequence:
#
# PCOD8036000 Si02
#       6
#     2   2   2   2   2   2
#     4  12  26  44  73 109 152 202 248 302 372 456
#     4  12  27  46  75 109 155 198 252 308 376 454
#     4  12  29  53  83 111 150 198 264 319 378 449
#     4  12  29  53  80 112 151 203 255 320 384 446
#     4  11  27  46  76 111 155 196 254 311 386 441
#     4  11  25  49  73 110 161 201 250 308 382 454
#
# _framework density 24.860313000000001
#
# number of rings (size 3 to 8) (size 9 to 14) (size 15 to 20)
#    0.000    0.333    3.333    3.500    9.333    0.000 
#    0.000    0.000    0.000    0.000    0.000    0.000 
#    0.000    0.000    0.000    0.000    0.000    0.000 
#
# Total GULP energy -148769.546906 kJ/mol
# GULP energy per Si atom -12397.462242 kJ/mol
# Density = 2.480373 g / cm^3
# Si number density = 24.860313 Si / 1000 Ang^3
#
#
#
# Elastic Constant Matrix: (Units=GPa)
#
#
# Indices 1 2 3 4 5 6 
#
# 1 144.0815 41.6142 85.8881 -9.2936 -0.7400 15.1766
# 2 41.6142 116.9061 48.9172 19.9066 13.8248 9.4429
# 3 85.8881 48.9172 121.5849 8.9363 -7.8517 9.5712
# 4 -9.2936 19.9066 8.9363 40.7389 8.6512 11.6502
# 5 -0.7400 13.8248 -7.8517 8.6512 40.4410 8.8023
# 6 15.1766 9.4429 9.5712 11.6502 8.8023 46.8562
#
#
#
# Elastic Compliance Matrix: (Units=1/GPa)
#
#
# Indices 1 2 3 4 5 6 
#
# 1 0.014057 -0.001769 -0.009598 0.007647 -0.001811 -0.003797
# 2 -0.001769 0.011861 -0.003485 -0.004843 -0.003909 0.000833
# 3 -0.009598 -0.003485 0.017110 -0.005581 0.005381 0.000693
# 4 0.007647 -0.004843 -0.005581 0.033081 -0.004688 -0.007705
# 5 -0.001811 -0.003909 0.005381 -0.004688 0.028948 -0.003997
# 6 -0.003797 0.000833 0.000693 -0.007705 -0.003997 0.024929
#
#
# Mechanical properties :
#
#
# Convention : Reuss Voigt Hill
#
# Bulk Modulus (GPa) = 75.04859 81.71236 78.38048
# Shear Modulus (GPa) = 30.46343 39.35074 34.90709
#
# Velocity S-wave (km/s) = 3.50435 3.98285 3.75124
# Velocity P-wave (km/s) = 6.82844 7.35464 7.09642
#
# Compressibility (1/GPa) = 0.01332470
#
# Stress axis : x y z
#
# Youngs Moduli (GPa) = 71.13942 84.30815 58.44491
#
# Poissons Ratio (x) = 0.14912 0.56097
# Poissons Ratio (y) = 0.12583 0.20366
# Poissons Ratio (z) = 0.68282 0.29379
#
# Static dielectric constant tensor:
#      x y z
#    x 4.643460 0.064290 0.431120 
#    y 0.064290 4.934360 0.393660 
#    z 0.431120 0.393660 4.716970 
# 
# 
# High freq. dielectric constant tensor:
#      x y z
#    x 2.004090 0.004500 0.027940 
#    y 0.004500 1.996650 0.019350 
#    z 0.027940 0.019350 1.994920 
# 
# From -- ./inp_files/314561.got.cif
#   From: 2010.06.25/outbox.cif.g09.slc.cpg/sg2_158_cif.got.tgz:314561.got - 2010.06.27 13:26:56.
