data_PCOD8036853
_publ_section_title
;
Structure prediction by ZEFSAII (Michael W. Deem and Ramdas Pophale) SiO2 
 PCOD8036853
Probable space group: P -1
;
_chemical_formula_sum "Si O2"
_cell_formula_units_Z 12
_cell_length_a 10.475288
_cell_length_b 9.049075
_cell_length_c 14.212454
_cell_angle_alpha 118.610845
_cell_angle_beta 71.088900
_cell_angle_gamma 151.362156
_cell_volume 551.834522
_symmetry_space_group_name_H-M "P -1"
_symmetry_group_IT_number 2
_symmetry_cell_setting 'triclinic'
loop_
_space_group_symop_operation_xyz
x,y,z
-x,-y,-z
loop_
_atom_site_type_symbol
_atom_site_label
_atom_site_fract_x
_atom_site_fract_y
_atom_site_fract_z
Si Si1 0.583424 0.442911 0.710636
Si Si2 0.707279 0.913545 0.728116
Si Si3 0.857215 0.682595 0.400525
Si Si4 0.712879 0.595927 0.940919
Si Si5 0.008954 0.314057 0.440854
Si Si6 0.721188 0.252546 0.943980
O O1 0.686078 0.745929 0.761684
O O2 0.626709 0.447360 0.811224
O O3 0.755271 0.498667 0.625673
O O4 0.268558 0.081529 0.644363
O O5 0.462195 0.620775 0.624212
O O6 0.655815 0.044748 0.817453
O O7 0.003457 0.224666 0.702472
O O8 0.905035 0.602473 0.445929
O O9 0.000000 0.000000 0.500000
O O10 0.724399 0.442072 0.956164
O O11 0.500000 0.500000 0.000000
O O12 0.000000 0.000000 0.000000
O O13 0.000000 0.500000 0.500000
O O14 0.000000 0.500000 0.000000
O O15 0.500000 0.000000 0.000000
#
# Coordination Sequence:
#
# PCOD8036853 Si02
#       6
#     2   2   2   2   2   2
#     4  12  24  45  68  99 134 180 222 278 343 398
#     4  12  24  42  72  98 134 176 228 278 334 403
#     4  12  23  43  66  99 135 179 223 270 334 399
#     4  12  27  48  74 102 142 180 227 288 355 414
#     4  12  27  41  66  97 141 177 225 274 331 404
#     4  12  27  48  74 105 136 179 235 290 343 413
#
# _framework density 21.745649
#
# number of rings (size 3 to 8) (size 9 to 14) (size 15 to 20)
#    0.000    0.000    3.333    7.000    4.667    0.000 
#    0.000    0.000    0.000    0.000    0.000    0.000 
#    0.000    0.000    0.000    0.000    0.000    0.000 
#
# Total GULP energy -148787.030111 kJ/mol
# GULP energy per Si atom -12398.919176 kJ/mol
# Density = 2.169616 g / cm^3
# Si number density = 21.745649 Si / 1000 Ang^3
#
#
#
# Elastic Constant Matrix: (Units=GPa)
#
#
# Indices 1 2 3 4 5 6 
#
# 1 179.7576 44.2578 36.9185 -11.0127 -2.0636 -20.3264
# 2 44.2578 106.9144 28.3422 -20.0326 4.7992 11.5573
# 3 36.9185 28.3422 83.9393 -10.9122 -0.8007 -3.7811
# 4 -11.0127 -20.0326 -10.9122 35.7730 2.5855 5.3858
# 5 -2.0636 4.7992 -0.8007 2.5855 54.9819 0.7474
# 6 -20.3264 11.5573 -3.7811 5.3858 0.7474 46.6662
#
#
#
# Elastic Compliance Matrix: (Units=1/GPa)
#
#
# Indices 1 2 3 4 5 6 
#
# 1 0.007093 -0.002947 -0.002041 -0.000685 0.000475 0.003725
# 2 -0.002947 0.013150 -0.002545 0.006617 -0.001532 -0.005486
# 3 -0.002041 -0.002545 0.013974 0.002097 0.000242 0.000628
# 4 -0.000685 0.006617 0.002097 0.033072 -0.002052 -0.005551
# 5 0.000475 -0.001532 0.000242 -0.002052 0.018432 0.000548
# 6 0.003725 -0.005486 0.000628 -0.005551 0.000548 0.025093
#
#
# Mechanical properties :
#
#
# Convention : Reuss Voigt Hill
#
# Bulk Modulus (GPa) = 52.22290 65.51648 58.86969
# Shear Modulus (GPa) = 37.80354 44.89040 41.34697
#
# Velocity S-wave (km/s) = 4.17399 4.54843 4.36522
# Velocity P-wave (km/s) = 6.87728 7.60120 7.24828
#
# Compressibility (1/GPa) = 0.01914869
#
# Stress axis : x y z
#
# Youngs Moduli (GPa) = 140.99131 76.04816 71.56327
#
# Poissons Ratio (x) = 0.22414 0.14606
# Poissons Ratio (y) = 0.41555 0.18214
# Poissons Ratio (z) = 0.28777 0.19356
#
# Static dielectric constant tensor:
#      x y z
#    x 4.130210 -0.014660 -0.016650 
#    y -0.014660 4.041130 0.043610 
#    z -0.016650 0.043610 3.855960 
# 
# 
# High freq. dielectric constant tensor:
#      x y z
#    x 1.876620 0.005520 0.000710 
#    y 0.005520 1.870940 -0.000850 
#    z 0.000710 -0.000850 1.864380 
# 
# From -- ./inp_files/63033.got.cif
#   From: 2010.06.25/outbox.cif.g09.slc.cpg/sg2_32_cif.got.tgz:63033.got - 2010.06.27 13:26:56.
