data_PCOD8036880
_publ_section_title
;
Structure prediction by ZEFSAII (Michael W. Deem and Ramdas Pophale) SiO2 
 PCOD8036880
Probable space group: P -1
;
_chemical_formula_sum "Si O2"
_cell_formula_units_Z 14
_cell_length_a 18.614490
_cell_length_b 8.699668
_cell_length_c 20.931467
_cell_angle_alpha 139.582917
_cell_angle_beta 160.502230
_cell_angle_gamma 49.946737
_cell_volume 689.063971
_symmetry_space_group_name_H-M "P -1"
_symmetry_group_IT_number 2
_symmetry_cell_setting 'triclinic'
loop_
_space_group_symop_operation_xyz
x,y,z
-x,-y,-z
loop_
_atom_site_type_symbol
_atom_site_label
_atom_site_fract_x
_atom_site_fract_y
_atom_site_fract_z
Si Si1 0.405617 0.155978 0.102938
Si Si2 0.081918 0.378693 0.951237
Si Si3 0.719733 0.114980 0.951568
Si Si4 0.059456 0.775896 0.609841
Si Si5 0.251891 0.144563 0.528381
Si Si6 0.243275 0.365505 0.218378
Si Si7 0.138608 0.558087 0.485614
O O1 0.676106 0.288507 0.362532
O O2 0.355368 0.013429 0.083383
O O3 0.276193 0.364622 0.059438
O O4 0.306277 0.954753 0.899507
O O5 0.944865 0.566214 0.873368
O O6 0.213311 0.475583 0.158673
O O7 0.894568 0.096390 0.712492
O O8 0.510486 0.160430 0.755574
O O9 0.808413 0.934031 0.923669
O O10 0.916174 0.385265 0.207110
O O11 0.069279 0.757366 0.535278
O O12 0.000000 0.500000 0.500000
O O13 0.861910 0.878122 0.503081
O O14 0.249250 0.395038 0.570062
O O15 0.500000 0.500000 0.500000
#
# Coordination Sequence:
#
# PCOD8036880 Si02
#       7
#     2   2   2   2   2   2   2
#     4  10  20  38  60  81 116 149 183 231 279 330
#     4   9  18  34  56  83 109 147 186 226 280 331
#     4  11  21  37  57  84 113 147 187 235 278 327
#     4   9  17  37  61  79 111 154 183 224 281 329
#     4  10  19  36  59  82 114 148 185 231 278 328
#     4  10  17  31  61  83 105 148 191 224 277 336
#     4  11  21  39  56  82 116 150 186 228 279 334
#
# _framework density 20.317416999999999
#
# number of rings (size 3 to 8) (size 9 to 14) (size 15 to 20)
#    0.000    2.000    7.143    0.429    0.000    0.571 
#    5.143    1.429    0.000    4.286    0.000    0.000 
#    0.000    0.000    0.000    0.000    0.000    0.000 
#
# Total GULP energy -173494.125186 kJ/mol
# GULP energy per Si atom -12392.437513 kJ/mol
# Density = 2.027117 g / cm^3
# Si number density = 20.317417 Si / 1000 Ang^3
#
#
#
# Elastic Constant Matrix: (Units=GPa)
#
#
# Indices 1 2 3 4 5 6 
#
# 1 49.7401 16.6098 48.2286 9.2752 1.4555 -20.3424
# 2 16.6098 54.4240 27.8688 -10.5352 -7.1817 -17.6523
# 3 48.2286 27.8688 138.1678 -2.7305 -1.2528 -7.2530
# 4 9.2752 -10.5352 -2.7305 33.6489 -2.0120 -2.3662
# 5 1.4555 -7.1817 -1.2528 -2.0120 35.1228 4.5982
# 6 -20.3424 -17.6523 -7.2530 -2.3662 4.5982 21.4167
#
#
#
# Elastic Compliance Matrix: (Units=1/GPa)
#
#
# Indices 1 2 3 4 5 6 
#
# 1 0.069269 0.007042 -0.022597 -0.014859 -0.011570 0.064788
# 2 0.007042 0.032346 -0.007109 0.009975 0.002516 0.031504
# 3 -0.022597 -0.007109 0.015492 0.003880 0.003181 -0.022330
# 4 -0.014859 0.009975 0.003880 0.037451 0.005141 -0.001543
# 5 -0.011570 0.002516 0.003181 0.005141 0.031717 -0.014080
# 6 0.064788 0.031504 -0.022330 -0.001543 -0.014080 0.129487
#
#
# Mechanical properties :
#
#
# Convention : Reuss Voigt Hill
#
# Bulk Modulus (GPa) = 13.93140 47.52737 30.72938
# Shear Modulus (GPa) = 12.98640 28.01267 20.49954
#
# Velocity S-wave (km/s) = 2.53094 3.71718 3.17986
# Velocity P-wave (km/s) = 3.92589 6.47043 5.35159
#
# Compressibility (1/GPa) = 0.07178031
#
# Stress axis : x y z
#
# Youngs Moduli (GPa) = 14.43640 30.91531 64.54789
#
# Poissons Ratio (x) = -0.21769 1.45858
# Poissons Ratio (y) = -0.10165 0.45884
# Poissons Ratio (z) = 0.32622 0.21976
#
# Static dielectric constant tensor:
#      x y z
#    x 3.877280 -0.797470 -0.146730 
#    y -0.797470 3.933600 -0.054930 
#    z -0.146730 -0.054930 3.699190 
# 
# 
# High freq. dielectric constant tensor:
#      x y z
#    x 1.766410 -0.042010 -0.015860 
#    y -0.042010 1.782410 -0.005960 
#    z -0.015860 -0.005960 1.799570 
# 
# From -- ./inp_files/276902.got.cif
#   From: 2010.06.25/outbox.cif.g09.slc.cpg/sg2_139_cif.got.tgz:276902.got - 2010.06.27 13:26:56.
