data_PCOD8036077
_publ_section_title
;
Structure prediction by ZEFSAII (Michael W. Deem and Ramdas Pophale) SiO2 
 PCOD8036077
Probable space group: P -1
;
_chemical_formula_sum "Si O2"
_cell_formula_units_Z 14
_cell_length_a 9.555932
_cell_length_b 23.529492
_cell_length_c 5.204616
_cell_angle_alpha 90.653245
_cell_angle_beta 108.365393
_cell_angle_gamma 37.101145
_cell_volume 608.305999
_symmetry_space_group_name_H-M "P -1"
_symmetry_group_IT_number 2
_symmetry_cell_setting 'triclinic'
loop_
_space_group_symop_operation_xyz
x,y,z
-x,-y,-z
loop_
_atom_site_type_symbol
_atom_site_label
_atom_site_fract_x
_atom_site_fract_y
_atom_site_fract_z
Si Si1 0.262230 0.163815 0.082899
Si Si2 0.113853 0.026590 0.566978
Si Si3 0.473171 0.455484 0.299506
Si Si4 0.983351 0.136854 0.988999
Si Si5 0.018498 0.571020 0.706425
Si Si6 0.569522 0.633652 0.388300
Si Si7 0.024083 0.295545 0.449753
O O1 0.197909 0.218289 0.308481
O O2 0.200056 0.117537 0.088667
O O3 0.571810 0.073913 0.189386
O O4 0.093725 0.241166 0.749571
O O5 0.070786 0.067578 0.265099
O O6 0.000000 0.000000 0.500000
O O7 0.962907 0.110134 0.706688
O O8 0.500000 0.500000 0.500000
O O9 0.544255 0.373677 0.474244
O O10 0.704197 0.387734 0.210123
O O11 0.164021 0.553532 0.032448
O O12 0.686204 0.255727 0.892381
O O13 0.244357 0.456868 0.717121
O O14 0.754080 0.621459 0.637498
O O15 0.928921 0.651947 0.474616
#
# Coordination Sequence:
#
# PCOD8036077 Si02
#       7
#     2   2   2   2   2   2   2
#     4  12  26  48  76 108 141 189 241 299 361 428
#     4  12  29  50  78 105 144 180 242 306 370 429
#     4  12  23  45  68 105 147 199 241 294 345 425
#     4  12  26  50  75 108 140 192 237 299 360 435
#     4  11  26  43  68 105 155 193 236 296 350 431
#     4  11  26  44  70 105 149 193 242 289 364 422
#     4  12  25  43  76 107 146 191 241 288 354 427
#
# _framework density 23.014733
#
# number of rings (size 3 to 8) (size 9 to 14) (size 15 to 20)
#    0.000    0.286    2.857    5.571    6.000    0.000 
#    0.000    0.000    0.000    0.000    0.000    0.000 
#    0.000    0.000    0.000    0.000    0.000    0.000 
#
# Total GULP energy -173642.162174 kJ/mol
# GULP energy per Si atom -12403.011584 kJ/mol
# Density = 2.296235 g / cm^3
# Si number density = 23.014733 Si / 1000 Ang^3
#
#
#
# Elastic Constant Matrix: (Units=GPa)
#
#
# Indices 1 2 3 4 5 6 
#
# 1 163.7396 58.3566 56.8618 -5.9727 22.4940 26.6881
# 2 58.3566 91.1104 23.4485 1.4188 2.5878 4.9807
# 3 56.8618 23.4485 92.0914 5.5114 0.2580 14.3724
# 4 -5.9727 1.4188 5.5114 33.0035 -1.1702 -5.2176
# 5 22.4940 2.5878 0.2580 -1.1702 43.5701 3.1511
# 6 26.6881 4.9807 14.3724 -5.2176 3.1511 32.0848
#
#
#
# Elastic Compliance Matrix: (Units=1/GPa)
#
#
# Indices 1 2 3 4 5 6 
#
# 1 0.011553 -0.005714 -0.004901 0.002074 -0.005129 -0.005686
# 2 -0.005714 0.014598 -0.000490 -0.001144 0.001886 0.002335
# 3 -0.004901 -0.000490 0.014745 -0.003761 0.002611 -0.003321
# 4 0.002074 -0.001144 -0.003761 0.032191 -0.000508 0.005422
# 5 -0.005129 0.001886 0.002611 -0.000508 0.025442 0.000223
# 6 -0.005686 0.002335 -0.003321 0.005422 0.000223 0.037882
#
#
# Mechanical properties :
#
#
# Convention : Reuss Voigt Hill
#
# Bulk Modulus (GPa) = 53.51364 69.36390 61.43877
# Shear Modulus (GPa) = 30.33050 35.61666 32.97358
#
# Velocity S-wave (km/s) = 3.63419 3.93817 3.78923
# Velocity P-wave (km/s) = 6.39626 7.13325 6.77479
#
# Compressibility (1/GPa) = 0.01868682
#
# Stress axis : x y z
#
# Youngs Moduli (GPa) = 86.56056 68.50108 67.81754
#
# Poissons Ratio (x) = 0.39142 0.33234
# Poissons Ratio (y) = 0.49461 0.03324
# Poissons Ratio (z) = 0.42419 0.03358
#
# Static dielectric constant tensor:
#      x y z
#    x 4.538700 0.074610 0.167840 
#    y 0.074610 4.307670 -0.173230 
#    z 0.167840 -0.173230 4.132100 
# 
# 
# High freq. dielectric constant tensor:
#      x y z
#    x 1.930780 0.007890 0.003840 
#    y 0.007890 1.913400 -0.006390 
#    z 0.003840 -0.006390 1.907360 
# 
# From -- ./inp_files/27867.got.cif
#   From: 2010.06.25/outbox.cif.g09.slc.cpg/sg2_14_cif.got.tgz:27867.got - 2010.06.27 13:26:56.
