data_PCOD8036100
_publ_section_title
;
Structure prediction by ZEFSAII (Michael W. Deem and Ramdas Pophale) SiO2 
 PCOD8036100
Probable space group: P -1
;
_chemical_formula_sum "Si O2"
_cell_formula_units_Z 16
_cell_length_a 11.044415
_cell_length_b 15.707616
_cell_length_c 17.730141
_cell_angle_alpha 24.588893
_cell_angle_beta 131.911037
_cell_angle_gamma 145.824028
_cell_volume 670.546682
_symmetry_space_group_name_H-M "P -1"
_symmetry_group_IT_number 2
_symmetry_cell_setting 'triclinic'
loop_
_space_group_symop_operation_xyz
x,y,z
-x,-y,-z
loop_
_atom_site_type_symbol
_atom_site_label
_atom_site_fract_x
_atom_site_fract_y
_atom_site_fract_z
Si Si1 0.360768 0.384859 0.184895
Si Si2 0.653266 0.908608 0.726829
Si Si3 0.193860 0.612605 0.864023
Si Si4 0.392351 0.427240 0.596124
Si Si5 0.238583 0.100074 0.515054
Si Si6 0.828793 0.989086 0.891116
Si Si7 0.752153 0.139400 0.972660
Si Si8 0.075671 0.535914 0.370925
O O1 0.406299 0.311390 0.184012
O O2 0.302775 0.167838 0.398696
O O3 0.168802 0.392008 0.086187
O O4 0.579427 0.706978 0.046513
O O5 0.412146 0.775393 0.767540
O O6 0.815295 0.949125 0.826704
O O7 0.805265 0.230901 0.494555
O O8 0.233945 0.856560 0.731754
O O9 0.949133 0.427120 0.871263
O O10 0.500000 0.500000 0.500000
O O11 0.592200 0.627654 0.579194
O O12 0.223643 0.466227 0.499481
O O13 0.240358 0.094810 0.820700
O O14 0.000000 0.000000 0.500000
O O15 0.893332 0.285233 0.689451
O O16 0.000000 0.000000 0.000000
O O17 0.822459 0.242039 0.833827
O O18 0.500000 0.000000 0.000000
#
# Coordination Sequence:
#
# PCOD8036100 Si02
#       8
#     2   2   2   2   2   2   2   2
#     4  11  26  48  74 108 150 192 245 303 374 442
#     4  11  26  49  75 110 151 196 244 301 388 432
#     4  11  26  48  76 106 154 194 241 310 367 443
#     4  12  27  49  75 105 153 193 245 310 361 440
#     4  12  29  47  73 109 145 197 251 299 370 440
#     4  11  26  44  72 109 149 193 247 306 363 444
#     4  12  26  46  76 112 143 196 255 297 369 438
#     4  12  27  45  77 110 152 194 247 308 374 440
#
# _framework density 23.861127
#
# number of rings (size 3 to 8) (size 9 to 14) (size 15 to 20)
#    0.000    0.500    1.250    6.375   12.250    1.500 
#    0.000    0.000    0.000    0.000    0.000    0.000 
#    0.000    0.000    0.000    0.000    0.000    0.000 
#
# Total GULP energy -198375.396730 kJ/mol
# GULP energy per Si atom -12398.462296 kJ/mol
# Density = 2.380682 g / cm^3
# Si number density = 23.861127 Si / 1000 Ang^3
#
#
#
# Elastic Constant Matrix: (Units=GPa)
#
#
# Indices 1 2 3 4 5 6 
#
# 1 84.1659 50.4285 40.1666 3.5472 12.0659 0.5260
# 2 50.4285 120.6543 34.4244 -8.5978 -3.7116 2.7677
# 3 40.1666 34.4244 142.2206 -1.9032 11.2080 -0.3893
# 4 3.5472 -8.5978 -1.9032 44.2938 -2.1738 -3.6192
# 5 12.0659 -3.7116 11.2080 -2.1738 47.2659 1.9116
# 6 0.5260 2.7677 -0.3893 -3.6192 1.9116 38.3418
#
#
#
# Elastic Compliance Matrix: (Units=1/GPa)
#
#
# Indices 1 2 3 4 5 6 
#
# 1 0.018523 -0.007221 -0.003156 -0.003238 -0.004703 0.000164
# 2 -0.007221 0.011933 -0.001063 0.002952 0.003195 -0.000654
# 3 -0.003156 -0.001063 0.008283 0.000366 -0.001237 0.000300
# 4 -0.003238 0.002952 0.000366 0.023683 0.001981 0.001972
# 5 -0.004703 0.003195 -0.001237 0.001981 0.023039 -0.001140
# 6 0.000164 -0.000654 0.000300 0.001972 -0.001140 0.026372
#
#
# Mechanical properties :
#
#
# Convention : Reuss Voigt Hill
#
# Bulk Modulus (GPa) = 63.05150 66.34220 64.69685
# Shear Modulus (GPa) = 35.71427 40.78173 38.24800
#
# Velocity S-wave (km/s) = 3.87299 4.13865 4.00802
# Velocity P-wave (km/s) = 6.81776 7.12051 6.97078
#
# Compressibility (1/GPa) = 0.01586005
#
# Stress axis : x y z
#
# Youngs Moduli (GPa) = 53.98572 83.80061 120.72608
#
# Poissons Ratio (x) = 0.60510 0.38101
# Poissons Ratio (y) = 0.38982 0.12835
# Poissons Ratio (z) = 0.17038 0.08909
#
# Static dielectric constant tensor:
#      x y z
#    x 4.405900 -0.315650 -0.078700 
#    y -0.315650 4.798610 -0.157480 
#    z -0.078700 -0.157480 4.866710 
# 
# 
# High freq. dielectric constant tensor:
#      x y z
#    x 1.938900 -0.001110 0.001380 
#    y -0.001110 1.957340 -0.007160 
#    z 0.001380 -0.007160 1.968660 
# 
# From -- ./inp_files/595950.got.cif
#   From: 2010.06.25/outbox.cif.g09.slc.cpg/sg2_298_cif.got.tgz:595950.got - 2010.06.27 13:26:56.
