data_PCOD8036212
_publ_section_title
;
Structure prediction by ZEFSAII (Michael W. Deem and Ramdas Pophale) SiO2 
 PCOD8036212
Probable space group: P -1
;
_chemical_formula_sum "Si O2"
_cell_formula_units_Z 16
_cell_length_a 9.133990
_cell_length_b 14.968988
_cell_length_c 8.967929
_cell_angle_alpha 39.174710
_cell_angle_beta 78.587139
_cell_angle_gamma 65.156076
_cell_volume 685.166516
_symmetry_space_group_name_H-M "P -1"
_symmetry_group_IT_number 2
_symmetry_cell_setting 'triclinic'
loop_
_space_group_symop_operation_xyz
x,y,z
-x,-y,-z
loop_
_atom_site_type_symbol
_atom_site_label
_atom_site_fract_x
_atom_site_fract_y
_atom_site_fract_z
Si Si1 0.665545 0.846799 0.694039
Si Si2 0.685693 0.792173 0.368043
Si Si3 0.472421 0.135178 0.006656
Si Si4 0.079699 0.029144 0.595927
Si Si5 0.941981 0.268719 0.561791
Si Si6 0.714666 0.265196 0.878408
Si Si7 0.175989 0.492851 0.963685
Si Si8 0.625244 0.504255 0.841404
O O1 0.668569 0.797316 0.928513
O O2 0.830512 0.864424 0.605995
O O3 0.500000 0.000000 0.500000
O O4 0.683902 0.688451 0.810047
O O5 0.603501 0.676672 0.575512
O O6 0.883014 0.725613 0.442822
O O7 0.595845 0.955602 0.264732
O O8 0.636793 0.848875 0.136074
O O9 0.580109 0.234980 0.847197
O O10 0.960666 0.123350 0.637191
O O11 0.000000 0.000000 0.500000
O O12 0.208179 0.863141 0.843777
O O13 0.855972 0.264882 0.740012
O O14 0.814785 0.425238 0.299393
O O15 0.623123 0.423004 0.789974
O O16 0.201735 0.581021 0.990861
O O17 0.000000 0.500000 0.000000
O O18 0.500000 0.500000 0.000000
#
# Coordination Sequence:
#
# PCOD8036212 Si02
#       8
#     2   2   2   2   2   2   2   2
#     4  12  24  47  77 101 145 199 256 302 363 454
#     4  11  26  48  74 103 149 196 245 305 370 444
#     4  11  26  46  74 105 141 200 248 300 373 442
#     4  12  26  44  75 111 148 194 251 308 372 438
#     4  12  26  49  73 107 153 192 248 307 370 451
#     4  12  28  45  74 109 151 195 246 311 374 437
#     4  12  25  48  75 104 148 196 246 308 373 440
#     4  12  28  48  72 109 150 192 251 309 370 442
#
# _framework density 23.351989
#
# number of rings (size 3 to 8) (size 9 to 14) (size 15 to 20)
#    0.000    0.250    5.000    2.625    7.000    2.000 
#    0.000    0.000    0.000    0.000    0.000    0.000 
#    0.000    0.000    0.000    0.000    0.000    0.000 
#
# Total GULP energy -198225.509864 kJ/mol
# GULP energy per Si atom -12389.094367 kJ/mol
# Density = 2.329884 g / cm^3
# Si number density = 23.351989 Si / 1000 Ang^3
#
#
#
# Elastic Constant Matrix: (Units=GPa)
#
#
# Indices 1 2 3 4 5 6 
#
# 1 65.5141 40.8618 24.0403 1.0764 -0.7979 16.5683
# 2 40.8618 144.3117 26.7699 -1.6704 -13.4356 5.8435
# 3 24.0403 26.7699 87.7503 -16.7377 -10.6867 2.4510
# 4 1.0764 -1.6704 -16.7377 32.4171 -8.0094 -9.3208
# 5 -0.7979 -13.4356 -10.6867 -8.0094 45.6177 7.4591
# 6 16.5683 5.8435 2.4510 -9.3208 7.4591 33.8441
#
#
#
# Elastic Compliance Matrix: (Units=1/GPa)
#
#
# Indices 1 2 3 4 5 6 
#
# 1 0.024324 -0.005476 -0.006552 -0.008572 -0.002206 -0.012362
# 2 -0.005476 0.008804 -0.000707 0.001145 0.002368 0.001005
# 3 -0.006552 -0.000707 0.015896 0.010710 0.004609 0.004112
# 4 -0.008572 0.001145 0.010710 0.042482 0.008003 0.013159
# 5 -0.002206 0.002368 0.004609 0.008003 0.025571 -0.003094
# 6 -0.012362 0.001005 0.004112 0.013159 -0.003094 0.039434
#
#
# Mechanical properties :
#
#
# Convention : Reuss Voigt Hill
#
# Bulk Modulus (GPa) = 42.45478 53.43559 47.94519
# Shear Modulus (GPa) = 26.33911 36.10272 31.22092
#
# Velocity S-wave (km/s) = 3.36209 3.93622 3.66043
# Velocity P-wave (km/s) = 5.76987 6.60233 6.20009
#
# Compressibility (1/GPa) = 0.02355447
#
# Stress axis : x y z
#
# Youngs Moduli (GPa) = 41.11195 113.58286 62.90967
#
# Poissons Ratio (x) = 0.62197 0.41217
# Poissons Ratio (y) = 0.22513 0.04448
# Poissons Ratio (z) = 0.26935 0.08030
#
# Static dielectric constant tensor:
#      x y z
#    x 3.930440 0.205050 -0.327560 
#    y 0.205050 4.543170 -0.175390 
#    z -0.327560 -0.175390 4.475290 
# 
# 
# High freq. dielectric constant tensor:
#      x y z
#    x 1.918110 0.015230 0.001100 
#    y 0.015230 1.935880 0.011210 
#    z 0.001100 0.011210 1.945090 
# 
# From -- ./inp_files/205161.got.cif
#   From: 2010.06.25/outbox.cif.g09.slc.cpg/sg2_103_cif.got.tgz:205161.got - 2010.06.27 13:26:56.
