data_PCOD8036461
_publ_section_title
;
Structure prediction by ZEFSAII (Michael W. Deem and Ramdas Pophale) SiO2 
 PCOD8036461
Probable space group: P -1
;
_chemical_formula_sum "Si O2"
_cell_formula_units_Z 12
_cell_length_a 5.440126
_cell_length_b 12.519516
_cell_length_c 11.435490
_cell_angle_alpha 129.562111
_cell_angle_beta 61.950176
_cell_angle_gamma 122.627938
_cell_volume 495.942030
_symmetry_space_group_name_H-M "P -1"
_symmetry_group_IT_number 2
_symmetry_cell_setting 'triclinic'
loop_
_space_group_symop_operation_xyz
x,y,z
-x,-y,-z
loop_
_atom_site_type_symbol
_atom_site_label
_atom_site_fract_x
_atom_site_fract_y
_atom_site_fract_z
Si Si1 0.200523 0.609713 0.123258
Si Si2 0.146794 0.938124 0.030160
Si Si3 0.772728 0.082418 0.618976
Si Si4 0.238509 0.421609 0.410086
Si Si5 0.843902 0.097545 0.351065
Si Si6 0.239679 0.383778 0.126053
O O1 0.100329 0.752155 0.241850
O O2 0.162503 0.526294 0.199026
O O3 0.541403 0.655774 0.039306
O O4 0.000000 0.500000 0.000000
O O5 0.025689 0.985401 0.211935
O O6 0.057501 0.762045 0.910724
O O7 0.500000 0.000000 0.000000
O O8 0.000000 0.000000 0.000000
O O9 0.723185 0.114017 0.517244
O O10 0.483705 0.983145 0.690790
O O11 0.000000 0.000000 0.500000
O O12 0.500000 0.500000 0.500000
O O13 0.383618 0.420148 0.249049
O O14 0.000000 0.500000 0.500000
O O15 0.049246 0.254459 0.367719
#
# Coordination Sequence:
#
# PCOD8036461 Si02
#       6
#     2   2   2   2   2   2
#     4  11  27  47  78 115 157 210 270 333 405 476
#     4  12  28  48  82 115 156 202 263 331 407 480
#     4  11  27  47  78 110 158 210 269 329 399 479
#     4  12  30  49  78 113 159 207 263 328 406 480
#     4  11  27  49  73 112 152 205 266 326 400 477
#     4  11  27  49  77 114 158 207 268 336 403 482
#
# _framework density 24.196376000000001
#
# number of rings (size 3 to 8) (size 9 to 14) (size 15 to 20)
#    0.000    0.667    3.333    1.000   16.333    1.333 
#    0.000    0.000    0.000    0.000    0.000    0.000 
#    0.000    0.000    0.000    0.000    0.000    0.000 
#
# Total GULP energy -148676.711994 kJ/mol
# GULP energy per Si atom -12389.725999 kJ/mol
# Density = 2.414130 g / cm^3
# Si number density = 24.196376 Si / 1000 Ang^3
#
#
#
# Elastic Constant Matrix: (Units=GPa)
#
#
# Indices 1 2 3 4 5 6 
#
# 1 148.4773 77.1154 51.2931 20.1421 -6.1838 17.1572
# 2 77.1154 173.9564 65.0349 27.6674 7.1274 6.7003
# 3 51.2931 65.0349 128.0368 27.5909 0.0206 8.9995
# 4 20.1421 27.6674 27.5909 50.3776 -6.5207 -2.5309
# 5 -6.1838 7.1274 0.0206 -6.5207 49.6660 0.5240
# 6 17.1572 6.7003 8.9995 -2.5309 0.5240 38.3389
#
#
#
# Elastic Compliance Matrix: (Units=1/GPa)
#
#
# Indices 1 2 3 4 5 6 
#
# 1 0.009708 -0.003446 -0.001674 -0.001037 0.001604 -0.003440
# 2 -0.003446 0.008648 -0.002577 -0.002188 -0.001962 0.000518
# 3 -0.001674 -0.002577 0.010746 -0.003925 -0.000342 -0.001578
# 4 -0.001037 -0.002188 -0.003925 0.024214 0.003331 0.003321
# 5 0.001604 -0.001962 -0.000342 0.003331 0.021057 -0.000363
# 6 -0.003440 0.000518 -0.001578 0.003321 -0.000363 0.028127
#
#
# Mechanical properties :
#
#
# Convention : Reuss Voigt Hill
#
# Bulk Modulus (GPa) = 72.94233 93.03971 82.99102
# Shear Modulus (GPa) = 40.82875 44.81162 42.82019
#
# Velocity S-wave (km/s) = 4.11224 4.30815 4.21134
# Velocity P-wave (km/s) = 7.26353 7.95502 7.61712
#
# Compressibility (1/GPa) = 0.01370946
#
# Stress axis : x y z
#
# Youngs Moduli (GPa) = 103.00693 115.63317 93.05606
#
# Poissons Ratio (x) = 0.39849 0.15575
# Poissons Ratio (y) = 0.35498 0.23977
# Poissons Ratio (z) = 0.17240 0.29794
#
# Static dielectric constant tensor:
#      x y z
#    x 4.850750 -0.110560 0.178060 
#    y -0.110560 4.524440 0.600730 
#    z 0.178060 0.600730 3.225890 
# 
# 
# High freq. dielectric constant tensor:
#      x y z
#    x 1.949700 0.007830 0.001900 
#    y 0.007830 1.977890 0.000960 
#    z 0.001900 0.000960 1.979040 
# 
# From -- ./inp_files/65713.got.cif
#   From: 2010.06.25/outbox.cif.g09.slc.cpg/sg2_33_cif.got.tgz:65713.got - 2010.06.27 13:26:56.
