data_PCOD8036152
_publ_section_title
;
Structure prediction by ZEFSAII (Michael W. Deem and Ramdas Pophale) SiO2 
 PCOD8036152
Probable space group: P -1
;
_chemical_formula_sum "Si O2"
_cell_formula_units_Z 16
_cell_length_a 17.620737
_cell_length_b 9.198429
_cell_length_c 17.696751
_cell_angle_alpha 152.198986
_cell_angle_beta 147.470653
_cell_angle_gamma 42.847476
_cell_volume 718.465595
_symmetry_space_group_name_H-M "P -1"
_symmetry_group_IT_number 2
_symmetry_cell_setting 'triclinic'
loop_
_space_group_symop_operation_xyz
x,y,z
-x,-y,-z
loop_
_atom_site_type_symbol
_atom_site_label
_atom_site_fract_x
_atom_site_fract_y
_atom_site_fract_z
Si Si1 0.207735 0.287748 0.553729
Si Si2 0.702932 0.786901 0.800789
Si Si3 0.610714 0.094747 0.364673
Si Si4 0.613450 0.133550 0.214860
Si Si5 0.096461 0.965186 0.790999
Si Si6 0.892443 0.849794 0.281354
Si Si7 0.850625 0.135518 0.947957
Si Si8 0.638381 0.821824 0.519381
O O1 0.179596 0.650728 0.705256
O O2 0.320808 0.235591 0.558913
O O3 0.055465 0.104875 0.328328
O O4 0.290277 0.167313 0.640339
O O5 0.693284 0.429589 0.600724
O O6 0.545994 0.908404 0.733922
O O7 0.779151 0.013032 0.908214
O O8 0.799490 0.805510 0.966292
O O9 0.591891 0.992890 0.215089
O O10 0.608655 0.501694 0.391483
O O11 0.759949 0.059008 0.267261
O O12 0.500000 0.000000 0.000000
O O13 0.058393 0.133461 0.757140
O O14 0.858210 0.506132 0.125111
O O15 0.000000 0.000000 0.500000
O O16 0.765896 0.028629 0.754627
O O17 0.000000 0.000000 0.000000
O O18 0.500000 0.000000 0.500000
#
# Coordination Sequence:
#
# PCOD8036152 Si02
#       8
#     2   2   2   2   2   2   2   2
#     4  11  26  45  73 104 142 187 237 298 361 428
#     4  11  26  47  70 105 144 185 239 293 364 427
#     4  11  26  46  73 103 145 188 235 297 359 430
#     4  12  25  47  71 105 141 189 242 295 359 425
#     4  11  26  47  71 105 143 186 241 294 363 430
#     4  12  27  47  73 103 144 189 242 299 357 428
#     4  12  27  46  73 104 143 191 241 296 359 428
#     4  12  25  47  70 104 145 189 243 295 358 429
#
# _framework density 22.269684000000002
#
# number of rings (size 3 to 8) (size 9 to 14) (size 15 to 20)
#    0.000    0.500    2.500    4.500   10.500    1.000 
#    0.000    0.000    0.000    0.000    0.000    0.000 
#    0.000    0.000    0.000    0.000    0.000    0.000 
#
# Total GULP energy -198422.986909 kJ/mol
# GULP energy per Si atom -12401.436682 kJ/mol
# Density = 2.221900 g / cm^3
# Si number density = 22.269684 Si / 1000 Ang^3
#
#
#
# Elastic Constant Matrix: (Units=GPa)
#
#
# Indices 1 2 3 4 5 6 
#
# 1 128.0063 47.5204 34.4324 -5.6678 1.7647 8.6642
# 2 47.5204 127.7543 52.2322 -11.3341 4.5742 5.1074
# 3 34.4324 52.2322 151.1389 -17.5122 -7.8483 12.4705
# 4 -5.6678 -11.3341 -17.5122 42.2716 5.3633 4.6019
# 5 1.7647 4.5742 -7.8483 5.3633 38.2451 -7.8242
# 6 8.6642 5.1074 12.4705 4.6019 -7.8242 47.3347
#
#
#
# Elastic Compliance Matrix: (Units=1/GPa)
#
#
# Indices 1 2 3 4 5 6 
#
# 1 0.009278 -0.002954 -0.000992 0.000247 -0.000566 -0.001236
# 2 -0.002954 0.010277 -0.002782 0.001485 -0.001933 -0.000299
# 3 -0.000992 -0.002782 0.008317 0.002582 0.001368 -0.001734
# 4 0.000247 0.001485 0.002582 0.026134 -0.004166 -0.004115
# 5 -0.000566 -0.001933 0.001368 -0.004166 0.028299 0.005034
# 6 -0.001236 -0.000299 -0.001734 -0.004115 0.005034 0.023074
#
#
# Mechanical properties :
#
#
# Convention : Reuss Voigt Hill
#
# Bulk Modulus (GPa) = 69.36688 75.02995 72.19842
# Shear Modulus (GPa) = 40.44002 43.75124 42.09563
#
# Velocity S-wave (km/s) = 4.26599 4.43720 4.35244
# Velocity P-wave (km/s) = 7.44856 7.74702 7.59926
#
# Compressibility (1/GPa) = 0.01441610
#
# Stress axis : x y z
#
# Youngs Moduli (GPa) = 107.78315 97.30718 120.23353
#
# Poissons Ratio (x) = 0.28745 0.11921
# Poissons Ratio (y) = 0.31840 0.33452
# Poissons Ratio (z) = 0.10687 0.27073
#
# Static dielectric constant tensor:
#      x y z
#    x 4.087250 0.013730 0.090610 
#    y 0.013730 4.235130 0.125890 
#    z 0.090610 0.125890 4.434780 
# 
# 
# High freq. dielectric constant tensor:
#      x y z
#    x 1.889970 -0.000370 0.002680 
#    y -0.000370 1.889900 -0.008660 
#    z 0.002680 -0.008660 1.888130 
# 
# From -- ./inp_files/575627.got.cif
#   From: 2010.06.25/outbox.cif.g09.slc.cpg/sg2_288_cif.got.tgz:575627.got - 2010.06.27 13:26:56.
