data_PCOD8036544
_publ_section_title
;
Structure prediction by ZEFSAII (Michael W. Deem and Ramdas Pophale) SiO2 
 PCOD8036544
Probable space group: P -1
;
_chemical_formula_sum "Si O2"
_cell_formula_units_Z 16
_cell_length_a 11.632664
_cell_length_b 9.970805
_cell_length_c 10.021478
_cell_angle_alpha 43.158293
_cell_angle_beta 102.387244
_cell_angle_gamma 102.390328
_cell_volume 773.624152
_symmetry_space_group_name_H-M "P -1"
_symmetry_group_IT_number 2
_symmetry_cell_setting 'triclinic'
loop_
_space_group_symop_operation_xyz
x,y,z
-x,-y,-z
loop_
_atom_site_type_symbol
_atom_site_label
_atom_site_fract_x
_atom_site_fract_y
_atom_site_fract_z
Si Si1 0.988860 0.266817 0.664235
Si Si2 0.233922 0.295344 0.811733
Si Si3 0.743315 0.633905 0.728150
Si Si4 0.639204 0.020804 0.500700
Si Si5 0.002219 0.217043 0.397675
Si Si6 0.234379 0.595443 0.834086
Si Si7 0.364460 0.531337 0.439845
Si Si8 0.732299 0.088912 0.765549
O O1 0.866262 0.178488 0.761812
O O2 0.000000 0.500000 0.500000
O O3 0.098760 0.204622 0.823252
O O4 0.996919 0.188508 0.574463
O O5 0.240336 0.475673 0.785257
O O6 0.290950 0.373519 0.630664
O O7 0.300351 0.113028 0.015422
O O8 0.880536 0.658261 0.710279
O O9 0.680597 0.490920 0.706240
O O10 0.681823 0.837299 0.563203
O O11 0.728032 0.537184 0.939318
O O12 0.669877 0.217299 0.280377
O O13 0.713031 0.040822 0.640736
O O14 0.500000 0.000000 0.500000
O O15 0.895232 0.332131 0.231365
O O16 0.000000 0.000000 0.500000
O O17 0.500000 0.500000 0.500000
O O18 0.355024 0.754157 0.322279
#
# Coordination Sequence:
#
# PCOD8036544 Si02
#       8
#     2   2   2   2   2   2   2   2
#     4  12  20  43  72  97 134 183 218 273 342 408
#     4  12  25  44  75 100 133 184 227 273 341 410
#     4  12  26  44  70 104 136 177 223 283 346 391
#     4  12  25  45  70  97 134 182 231 276 328 403
#     4  12  22  41  69  99 142 172 213 281 352 394
#     4  12  25  45  72 102 136 179 227 277 339 411
#     4  12  27  47  69  99 141 177 225 287 335 390
#     4  12  24  46  71 101 134 180 232 273 332 413
#
# _framework density 20.681875999999999
#
# number of rings (size 3 to 8) (size 9 to 14) (size 15 to 20)
#    0.000    0.000    8.750    1.500    0.000    4.000 
#    0.000    0.000    0.000    0.000    0.000    0.000 
#    0.000    0.000    0.000    0.000    0.000    0.000 
#
# Total GULP energy -198499.328300 kJ/mol
# GULP energy per Si atom -12406.208019 kJ/mol
# Density = 2.063480 g / cm^3
# Si number density = 20.681876 Si / 1000 Ang^3
#
#
#
# Elastic Constant Matrix: (Units=GPa)
#
#
# Indices 1 2 3 4 5 6 
#
# 1 136.8148 15.8677 24.0630 -11.1321 -0.3284 3.1994
# 2 15.8677 97.6333 26.7537 -3.9065 -0.1419 -14.5431
# 3 24.0630 26.7537 81.9897 -8.5954 7.9550 -2.2101
# 4 -11.1321 -3.9065 -8.5954 40.4461 -5.5323 4.4328
# 5 -0.3284 -0.1419 7.9550 -5.5323 10.3463 -1.4152
# 6 3.1994 -14.5431 -2.2101 4.4328 -1.4152 35.4131
#
#
#
# Elastic Compliance Matrix: (Units=1/GPa)
#
#
# Indices 1 2 3 4 5 6 
#
# 1 0.008004 -0.000815 -0.002170 0.002209 0.002907 -0.001354
# 2 -0.000815 0.012220 -0.003986 0.000101 0.003943 0.004988
# 3 -0.002170 -0.003986 0.015317 0.000799 -0.011616 -0.001049
# 4 0.002209 0.000101 0.000799 0.027742 0.013877 -0.003026
# 5 0.002907 0.003943 -0.011616 0.013877 0.113621 0.003435
# 6 -0.001354 0.004988 -0.001049 -0.003026 0.003435 0.030860
#
#
# Mechanical properties :
#
#
# Convention : Reuss Voigt Hill
#
# Bulk Modulus (GPa) = 46.29932 49.97853 48.13893
# Shear Modulus (GPa) = 21.84322 33.89130 27.86726
#
# Velocity S-wave (km/s) = 3.25338 4.05247 3.67471
# Velocity P-wave (km/s) = 6.04546 6.79077 6.42893
#
# Compressibility (1/GPa) = 0.02159859
#
# Stress axis : x y z
#
# Youngs Moduli (GPa) = 124.94182 81.83415 65.28870
#
# Poissons Ratio (x) = 0.06671 0.14168
# Poissons Ratio (y) = 0.10185 0.26022
# Poissons Ratio (z) = 0.27112 0.32616
#
# Static dielectric constant tensor:
#      x y z
#    x 3.798700 0.040450 0.025760 
#    y 0.040450 3.895570 -0.066020 
#    z 0.025760 -0.066020 3.652480 
# 
# 
# High freq. dielectric constant tensor:
#      x y z
#    x 1.814410 -0.000680 0.004100 
#    y -0.000680 1.824820 -0.004290 
#    z 0.004100 -0.004290 1.809290 
# 
# From -- ./inp_files/187948.got.cif
#   From: 2010.06.25/outbox.cif.g09.slc.cpg/sg2_94_cif.got.tgz:187948.got - 2010.06.27 13:26:56.
