data_PCOD8036347
_publ_section_title
;
Structure prediction by ZEFSAII (Michael W. Deem and Ramdas Pophale) SiO2 
 PCOD8036347
Probable space group: P -1
;
_chemical_formula_sum "Si O2"
_cell_formula_units_Z 14
_cell_length_a 16.043305
_cell_length_b 8.901140
_cell_length_c 7.838491
_cell_angle_alpha 40.492380
_cell_angle_beta 108.704309
_cell_angle_gamma 128.765817
_cell_volume 539.350829
_symmetry_space_group_name_H-M "P -1"
_symmetry_group_IT_number 2
_symmetry_cell_setting 'triclinic'
loop_
_space_group_symop_operation_xyz
x,y,z
-x,-y,-z
loop_
_atom_site_type_symbol
_atom_site_label
_atom_site_fract_x
_atom_site_fract_y
_atom_site_fract_z
Si Si1 0.592192 0.540258 0.148609
Si Si2 0.266145 0.850480 0.112406
Si Si3 0.255685 0.608938 0.773597
Si Si4 0.712697 0.901234 0.446675
Si Si5 0.092062 0.094724 0.338006
Si Si6 0.069381 0.406945 0.554914
Si Si7 0.415555 0.687684 0.304741
O O1 0.650135 0.427472 0.176172
O O2 0.538457 0.369977 0.444514
O O3 0.500000 0.500000 0.000000
O O4 0.685118 0.889042 0.942541
O O5 0.131981 0.609565 0.252407
O O6 0.313047 0.668082 0.330873
O O7 0.300066 0.984872 0.834190
O O8 0.167653 0.471954 0.681439
O O9 0.314189 0.956288 0.543604
O O10 0.185821 0.438424 0.050446
O O11 0.839429 0.018293 0.457416
O O12 0.623356 0.546011 0.673332
O O13 0.000000 0.000000 0.500000
O O14 0.020006 0.935498 0.256460
O O15 0.000000 0.500000 0.500000
O O16 0.500000 0.000000 0.000000
#
# Coordination Sequence:
#
# PCOD8036347 Si02
#       7
#     2   2   2   2   2   2   2
#     4  11  28  52  84 113 154 206 265 331 401 459
#     4  11  26  50  74 111 157 202 259 318 385 474
#     4  12  26  49  77 116 157 202 260 326 385 469
#     4  11  26  48  76 112 157 202 255 321 388 476
#     4  12  27  43  75 117 157 211 257 307 384 475
#     4  12  24  46  75 111 157 204 252 317 386 451
#     4  11  26  54  80 111 155 207 261 330 396 468
#
# _framework density 25.957132000000001
#
# number of rings (size 3 to 8) (size 9 to 14) (size 15 to 20)
#    0.000    0.571    2.857    3.857    4.000    7.429 
#    2.571    2.857    0.000    0.000    0.000    0.000 
#    0.000    0.000    0.000    0.000    0.000    0.000 
#
# Total GULP energy -173522.142640 kJ/mol
# GULP energy per Si atom -12394.438760 kJ/mol
# Density = 2.589805 g / cm^3
# Si number density = 25.957132 Si / 1000 Ang^3
#
#
#
# Elastic Constant Matrix: (Units=GPa)
#
#
# Indices 1 2 3 4 5 6 
#
# 1 158.3829 66.3573 33.7489 -9.8808 21.6179 -7.1925
# 2 66.3573 169.9363 52.5585 -16.3765 21.9471 -1.1783
# 3 33.7489 52.5585 104.6207 -10.2662 -6.1541 -0.5296
# 4 -9.8808 -16.3765 -10.2662 52.2974 -3.1931 13.1802
# 5 21.6179 21.9471 -6.1541 -3.1931 49.2293 1.6682
# 6 -7.1925 -1.1783 -0.5296 13.1802 1.6682 47.0411
#
#
#
# Elastic Compliance Matrix: (Units=1/GPa)
#
#
# Indices 1 2 3 4 5 6 
#
# 1 0.008045 -0.002279 -0.001605 0.000007 -0.002759 0.001251
# 2 -0.002279 0.008397 -0.003525 0.001438 -0.003074 -0.000472
# 3 -0.001605 -0.003525 0.012213 0.001414 0.003920 -0.000731
# 4 0.000007 0.001438 0.001414 0.021429 0.001125 -0.005991
# 5 -0.002759 -0.003074 0.003920 0.001125 0.023513 -0.001604
# 6 0.001251 -0.000472 -0.000731 -0.005991 -0.001604 0.023165
#
#
# Mechanical properties :
#
#
# Convention : Reuss Voigt Hill
#
# Bulk Modulus (GPa) = 72.28055 82.02995 77.15525
# Shear Modulus (GPa) = 43.03199 48.39857 45.71528
#
# Velocity S-wave (km/s) = 4.07604 4.32274 4.20120
# Velocity P-wave (km/s) = 7.07522 7.52233 7.30220
#
# Compressibility (1/GPa) = 0.01383498
#
# Stress axis : x y z
#
# Youngs Moduli (GPa) = 124.30715 119.08739 81.88054
#
# Poissons Ratio (x) = 0.27140 0.13145
# Poissons Ratio (y) = 0.28330 0.28867
# Poissons Ratio (z) = 0.19956 0.41984
#
# Static dielectric constant tensor:
#      x y z
#    x 4.911550 -0.199560 0.149900 
#    y -0.199560 4.956740 -0.203930 
#    z 0.149900 -0.203930 5.030770 
# 
# 
# High freq. dielectric constant tensor:
#      x y z
#    x 2.049370 -0.000470 0.001320 
#    y -0.000470 2.054730 0.002030 
#    z 0.001320 0.002030 2.046420 
# 
# From -- ./inp_files/297312.got.cif
#   From: 2010.06.25/outbox.cif.g09.slc.cpg/sg2_149_cif.got.tgz:297312.got - 2010.06.27 13:26:56.
