data_PCOD8036539
_publ_section_title
;
Structure prediction by ZEFSAII (Michael W. Deem and Ramdas Pophale) SiO2 
 PCOD8036539
Probable space group: P -1
;
_chemical_formula_sum "Si O2"
_cell_formula_units_Z 14
_cell_length_a 21.020667
_cell_length_b 8.813169
_cell_length_c 20.683650
_cell_angle_alpha 146.853747
_cell_angle_beta 20.411171
_cell_angle_gamma 149.410122
_cell_volume 669.949832
_symmetry_space_group_name_H-M "P -1"
_symmetry_group_IT_number 2
_symmetry_cell_setting 'triclinic'
loop_
_space_group_symop_operation_xyz
x,y,z
-x,-y,-z
loop_
_atom_site_type_symbol
_atom_site_label
_atom_site_fract_x
_atom_site_fract_y
_atom_site_fract_z
Si Si1 0.124702 0.298880 0.299021
Si Si2 0.404680 0.660623 0.261237
Si Si3 0.933016 0.646563 0.425431
Si Si4 0.486758 0.652292 0.633649
Si Si5 0.853473 0.640257 0.355653
Si Si6 0.961851 0.647798 0.024535
Si Si7 0.183989 0.303443 0.094118
O O1 0.338369 0.460318 0.187746
O O2 0.147176 0.236952 0.181192
O O3 0.000000 0.500000 0.500000
O O4 0.016279 0.979143 0.322190
O O5 0.218803 0.561881 0.451178
O O6 0.474994 0.005693 0.296378
O O7 0.582637 0.607362 0.108782
O O8 0.828151 0.536180 0.416965
O O9 0.131612 0.579765 0.218511
O O10 0.000000 0.000000 0.500000
O O11 0.500000 0.500000 0.500000
O O12 0.645333 0.628647 0.524093
O O13 0.273869 0.482163 0.809783
O O14 0.926906 0.423283 0.166990
O O15 0.047776 0.007898 0.078574
O O16 0.000000 0.500000 0.000000
#
# Coordination Sequence:
#
# PCOD8036539 Si02
#       7
#     2   2   2   2   2   2   2
#     4  12  20  41  69 100 131 171 227 283 325 383
#     4  12  24  41  70 101 131 177 225 273 340 385
#     4  12  27  47  64  95 146 182 213 270 336 407
#     4  12  22  41  73 100 130 173 226 279 329 389
#     4  12  24  43  67  98 138 178 220 271 335 399
#     4  12  23  43  71 101 130 169 223 286 331 379
#     4  12  25  45  70  99 136 172 228 280 328 396
#
# _framework density 20.897088
#
# number of rings (size 3 to 8) (size 9 to 14) (size 15 to 20)
#    0.000    0.000    8.571    1.286    0.000    2.286 
#    0.000    5.000    0.000    0.000    0.000    0.000 
#    0.000    0.000    0.000    0.000    0.000    0.000 
#
# Total GULP energy -173678.981502 kJ/mol
# GULP energy per Si atom -12405.641536 kJ/mol
# Density = 2.084952 g / cm^3
# Si number density = 20.897088 Si / 1000 Ang^3
#
#
#
# Elastic Constant Matrix: (Units=GPa)
#
#
# Indices 1 2 3 4 5 6 
#
# 1 121.8142 37.5083 53.2332 5.4807 -15.3602 15.4185
# 2 37.5083 120.0439 48.9516 12.6186 -14.0054 28.7538
# 3 53.2332 48.9516 129.1363 8.2434 -22.6701 15.0572
# 4 5.4807 12.6186 8.2434 30.3874 8.0453 -2.7178
# 5 -15.3602 -14.0054 -22.6701 8.0453 44.8060 -1.0602
# 6 15.4185 28.7538 15.0572 -2.7178 -1.0602 29.1519
#
#
#
# Elastic Compliance Matrix: (Units=1/GPa)
#
#
# Indices 1 2 3 4 5 6 
#
# 1 0.010598 -0.000855 -0.003248 -0.001462 0.001910 -0.003150
# 2 -0.000855 0.013668 -0.002271 -0.007017 0.003797 -0.012371
# 3 -0.003248 -0.002271 0.011082 -0.002766 0.004236 -0.001869
# 4 -0.001462 -0.007017 -0.002766 0.040907 -0.011143 0.012532
# 5 0.001910 0.003797 0.004236 -0.011143 0.028140 -0.006959
# 6 -0.003150 -0.012371 -0.001869 0.012532 -0.006959 0.050053
#
#
# Mechanical properties :
#
#
# Convention : Reuss Voigt Hill
#
# Bulk Modulus (GPa) = 44.25373 72.26452 58.25913
# Shear Modulus (GPa) = 28.61569 36.28912 32.45240
#
# Velocity S-wave (km/s) = 3.70450 4.17173 3.94504
# Velocity P-wave (km/s) = 6.28655 7.60662 6.97787
#
# Compressibility (1/GPa) = 0.02259696
#
# Stress axis : x y z
#
# Youngs Moduli (GPa) = 94.36124 73.16524 90.23705
#
# Poissons Ratio (x) = 0.06259 0.29311
# Poissons Ratio (y) = 0.08073 0.20496
# Poissons Ratio (z) = 0.30651 0.16618
#
# Static dielectric constant tensor:
#      x y z
#    x 3.477600 0.108350 0.086200 
#    y 0.108350 3.786200 0.037140 
#    z 0.086200 0.037140 4.063290 
# 
# 
# High freq. dielectric constant tensor:
#      x y z
#    x 1.819950 0.018710 -0.004050 
#    y 0.018710 1.820560 0.007640 
#    z -0.004050 0.007640 1.830980 
# 
# From -- ./inp_files/258367.got.cif
#   From: 2010.06.25/outbox.cif.g09.slc.cpg/sg2_130_cif.got.tgz:258367.got - 2010.06.27 13:26:56.
