data_PCOD8036178
_publ_section_title
;
Structure prediction by ZEFSAII (Michael W. Deem and Ramdas Pophale) SiO2 
 PCOD8036178
Probable space group: P -1
;
_chemical_formula_sum "Si O2"
_cell_formula_units_Z 12
_cell_length_a 6.759858
_cell_length_b 9.302372
_cell_length_c 18.283814
_cell_angle_alpha 50.469249
_cell_angle_beta 99.454391
_cell_angle_gamma 133.766828
_cell_volume 556.232058
_symmetry_space_group_name_H-M "P -1"
_symmetry_group_IT_number 2
_symmetry_cell_setting 'triclinic'
loop_
_space_group_symop_operation_xyz
x,y,z
-x,-y,-z
loop_
_atom_site_type_symbol
_atom_site_label
_atom_site_fract_x
_atom_site_fract_y
_atom_site_fract_z
Si Si1 0.654562 0.614854 0.702882
Si Si2 0.634053 0.800433 0.410114
Si Si3 0.319589 0.645022 0.944454
Si Si4 0.682756 0.658902 0.075564
Si Si5 0.328473 0.695291 0.563626
Si Si6 0.356557 0.755070 0.271062
O O1 0.485672 0.509741 0.804404
O O2 0.465395 0.606121 0.637295
O O3 0.659699 0.404164 0.744627
O O4 0.009562 0.944659 0.621798
O O5 0.500000 0.500000 0.500000
O O6 0.395227 0.741265 0.466600
O O7 0.628943 0.886711 0.301217
O O8 0.248689 0.485225 0.916140
O O9 0.571280 0.989674 0.838056
O O10 0.446023 0.603259 0.028806
O O11 0.000000 0.500000 0.000000
O O12 0.000000 0.000000 0.000000
O O13 0.963753 0.458447 0.634524
O O14 0.500000 0.000000 0.500000
#
# Coordination Sequence:
#
# PCOD8036178 Si02
#       6
#     2   2   2   2   2   2
#     4  12  26  45  67 100 136 173 222 276 329 390
#     4  12  25  44  68  97 139 178 219 273 325 389
#     4  11  26  46  70 100 131 172 223 272 334 398
#     4  11  26  46  70  99 134 170 219 280 331 392
#     4  12  25  44  68  99 137 178 223 268 328 391
#     4  12  26  44  69  99 133 178 222 270 332 394
#
# _framework density 21.573730000000001
#
# number of rings (size 3 to 8) (size 9 to 14) (size 15 to 20)
#    0.000    0.333    3.333    5.000    4.667    8.000 
#    0.000    0.000    0.000    0.000    0.000    0.000 
#    0.000    0.000    0.000    0.000    0.000    0.000 
#
# Total GULP energy -148848.391900 kJ/mol
# GULP energy per Si atom -12404.032658 kJ/mol
# Density = 2.152463 g / cm^3
# Si number density = 21.573730 Si / 1000 Ang^3
#
#
#
# Elastic Constant Matrix: (Units=GPa)
#
#
# Indices 1 2 3 4 5 6 
#
# 1 111.4838 45.2503 27.5830 -4.3520 -18.0960 -21.8806
# 2 45.2503 115.8097 29.4697 -7.5709 -9.2578 -24.8459
# 3 27.5830 29.4697 98.2163 -3.0237 -12.2210 -18.3430
# 4 -4.3520 -7.5709 -3.0237 42.6042 -5.7869 7.9354
# 5 -18.0960 -9.2578 -12.2210 -5.7869 46.4299 2.4035
# 6 -21.8806 -24.8459 -18.3430 7.9354 2.4035 45.6832
#
#
#
# Elastic Compliance Matrix: (Units=1/GPa)
#
#
# Indices 1 2 3 4 5 6 
#
# 1 0.011829 -0.003323 -0.001302 0.000428 0.003499 0.003078
# 2 -0.003323 0.011240 -0.001673 0.000914 0.000430 0.003669
# 3 -0.001302 -0.001673 0.011901 0.000127 0.002146 0.003110
# 4 0.000428 0.000914 0.000127 0.024888 0.003679 -0.003764
# 5 0.003499 0.000430 0.002146 0.003679 0.023966 0.000872
# 6 0.003078 0.003669 0.003110 -0.003764 0.000872 0.027216
#
#
# Mechanical properties :
#
#
# Convention : Reuss Voigt Hill
#
# Bulk Modulus (GPa) = 44.69100 58.90173 51.79636
# Shear Modulus (GPa) = 38.14083 41.82392 39.98237
#
# Velocity S-wave (km/s) = 4.20924 4.40779 4.30966
# Velocity P-wave (km/s) = 6.66213 7.29840 6.98751
#
# Compressibility (1/GPa) = 0.02237587
#
# Stress axis : x y z
#
# Youngs Moduli (GPa) = 84.53483 88.96779 84.02694
#
# Poissons Ratio (x) = 0.29563 0.10939
# Poissons Ratio (y) = 0.28090 0.14054
# Poissons Ratio (z) = 0.11005 0.14880
#
# Static dielectric constant tensor:
#      x y z
#    x 4.101190 -0.178540 -0.125320 
#    y -0.178540 4.124300 0.092720 
#    z -0.125320 0.092720 3.775110 
# 
# 
# High freq. dielectric constant tensor:
#      x y z
#    x 1.862720 -0.008290 -0.004600 
#    y -0.008290 1.862910 -0.000460 
#    z -0.004600 -0.000460 1.859190 
# 
# From -- ./inp_files/3029.got.cif
#   From: 2010.06.25/outbox.cif.g09.slc.cpg/sg2_2_cif.got.tgz:3029.got - 2010.06.27 13:26:56.
