data_PCOD8036344
_publ_section_title
;
Structure prediction by ZEFSAII (Michael W. Deem and Ramdas Pophale) SiO2 
 PCOD8036344
Probable space group: P -1
;
_chemical_formula_sum "Si O2"
_cell_formula_units_Z 14
_cell_length_a 9.522897
_cell_length_b 8.477934
_cell_length_c 8.166360
_cell_angle_alpha 102.996839
_cell_angle_beta 112.227705
_cell_angle_gamma 79.532314
_cell_volume 591.256986
_symmetry_space_group_name_H-M "P -1"
_symmetry_group_IT_number 2
_symmetry_cell_setting 'triclinic'
loop_
_space_group_symop_operation_xyz
x,y,z
-x,-y,-z
loop_
_atom_site_type_symbol
_atom_site_label
_atom_site_fract_x
_atom_site_fract_y
_atom_site_fract_z
Si Si1 0.756400 0.191807 0.237055
Si Si2 0.513768 0.880709 0.709618
Si Si3 0.207071 0.349027 0.144017
Si Si4 0.071805 0.599875 0.412575
Si Si5 0.344834 0.572501 0.030286
Si Si6 0.325025 0.855271 0.299854
Si Si7 0.030262 0.133729 0.804863
O O1 0.591162 0.126924 0.177010
O O2 0.789760 0.310108 0.430729
O O3 0.884913 0.040991 0.244224
O O4 0.755500 0.300400 0.099515
O O5 0.635662 0.722053 0.717178
O O6 0.398221 0.896931 0.511824
O O7 0.610144 0.036003 0.790866
O O8 0.123984 0.477426 0.261574
O O9 0.243063 0.431832 0.005627
O O10 0.102076 0.207773 0.016667
O O11 0.000000 0.500000 0.500000
O O12 0.956185 0.743728 0.314652
O O13 0.378195 0.668188 0.234016
O O14 0.500000 0.500000 0.000000
O O15 0.143476 0.892174 0.239082
#
# Coordination Sequence:
#
# PCOD8036344 Si02
#       7
#     2   2   2   2   2   2   2
#     4  12  27  47  77 111 148 196 254 300 368 445
#     4  11  26  48  76 107 147 199 245 307 364 448
#     4  12  27  49  76 108 153 192 248 308 376 431
#     4  12  28  48  77 111 148 194 248 309 371 438
#     4  12  26  45  75 110 151 194 246 310 369 439
#     4  11  27  48  74 107 152 196 246 299 380 436
#     4  12  27  50  76 110 153 195 245 307 369 449
#
# _framework density 23.678370000000001
#
# number of rings (size 3 to 8) (size 9 to 14) (size 15 to 20)
#    0.000    0.286    4.286    2.571    8.000    4.571 
#    0.000    0.000    0.000    0.000    0.000    0.000 
#    0.000    0.000    0.000    0.000    0.000    0.000 
#
# Total GULP energy -173619.694532 kJ/mol
# GULP energy per Si atom -12401.406752 kJ/mol
# Density = 2.362448 g / cm^3
# Si number density = 23.678370 Si / 1000 Ang^3
#
#
#
# Elastic Constant Matrix: (Units=GPa)
#
#
# Indices 1 2 3 4 5 6 
#
# 1 147.8921 55.2363 47.8939 -6.5217 15.2213 5.6719
# 2 55.2363 113.2601 38.1688 -9.9907 17.0635 -5.7685
# 3 47.8939 38.1688 82.9229 7.8445 9.4842 0.4793
# 4 -6.5217 -9.9907 7.8445 43.2342 2.6232 -0.7004
# 5 15.2213 17.0635 9.4842 2.6232 31.2619 -1.9389
# 6 5.6719 -5.7685 0.4793 -0.7004 -1.9389 47.6901
#
#
#
# Elastic Compliance Matrix: (Units=1/GPa)
#
#
# Indices 1 2 3 4 5 6 
#
# 1 0.009495 -0.002889 -0.004064 0.001602 -0.002041 -0.001497
# 2 -0.002889 0.012657 -0.003988 0.003513 -0.004476 0.001784
# 3 -0.004064 -0.003988 0.016737 -0.004542 -0.000557 -0.000257
# 4 0.001602 0.003513 -0.004542 0.025222 -0.003404 0.000512
# 5 -0.002041 -0.004476 -0.000557 -0.003404 0.035949 0.001118
# 6 -0.001497 0.001784 -0.000257 0.000512 0.001118 0.021418
#
#
# Mechanical properties :
#
#
# Convention : Reuss Voigt Hill
#
# Bulk Modulus (GPa) = 58.79683 69.63034 64.21359
# Shear Modulus (GPa) = 33.55061 37.95564 35.75313
#
# Velocity S-wave (km/s) = 3.76830 4.00805 3.89002
# Velocity P-wave (km/s) = 6.61958 7.13371 6.88145
#
# Compressibility (1/GPa) = 0.01700772
#
# Stress axis : x y z
#
# Youngs Moduli (GPa) = 105.32292 79.00624 59.74737
#
# Poissons Ratio (x) = 0.22821 0.24280
# Poissons Ratio (y) = 0.30423 0.23830
# Poissons Ratio (z) = 0.42800 0.31511
#
# Static dielectric constant tensor:
#      x y z
#    x 4.769610 0.578380 -0.094650 
#    y 0.578380 4.654120 -0.081900 
#    z -0.094650 -0.081900 4.388790 
# 
# 
# High freq. dielectric constant tensor:
#      x y z
#    x 1.942890 0.014160 0.002120 
#    y 0.014160 1.954140 -0.001960 
#    z 0.002120 -0.001960 1.944090 
# 
# From -- ./inp_files/159397.got.cif
#   From: 2010.06.25/outbox.cif.g09.slc.cpg/sg2_80_cif.got.tgz:159397.got - 2010.06.27 13:26:56.
