data_PCOD8036256
_publ_section_title
;
Structure prediction by ZEFSAII (Michael W. Deem and Ramdas Pophale) SiO2 
 PCOD8036256
Probable space group: P -1
;
_chemical_formula_sum "Si O2"
_cell_formula_units_Z 12
_cell_length_a 9.200650
_cell_length_b 14.728782
_cell_length_c 9.019199
_cell_angle_alpha 71.059650
_cell_angle_beta 114.088966
_cell_angle_gamma 153.458721
_cell_volume 496.112251
_symmetry_space_group_name_H-M "P -1"
_symmetry_group_IT_number 2
_symmetry_cell_setting 'triclinic'
loop_
_space_group_symop_operation_xyz
x,y,z
-x,-y,-z
loop_
_atom_site_type_symbol
_atom_site_label
_atom_site_fract_x
_atom_site_fract_y
_atom_site_fract_z
Si Si1 0.184527 0.323420 0.856571
Si Si2 0.335836 0.441776 0.313197
Si Si3 0.745692 0.261123 0.610151
Si Si4 0.104916 0.627087 0.708072
Si Si5 0.121750 0.975163 0.665331
Si Si6 0.270153 0.074508 0.002784
O O1 0.352750 0.358167 0.767746
O O2 0.050045 0.355653 0.737208
O O3 0.862581 0.101911 0.915810
O O4 0.500000 0.500000 0.000000
O O5 0.500000 0.500000 0.500000
O O6 0.072058 0.387137 0.256283
O O7 0.170240 0.254284 0.282697
O O8 0.694801 0.224837 0.430394
O O9 0.830160 0.411570 0.631046
O O10 0.379589 0.044875 0.642662
O O11 0.365705 0.713068 0.882210
O O12 0.297079 0.105884 0.820751
O O13 0.000000 0.000000 0.500000
O O14 0.000000 0.000000 0.000000
#
# Coordination Sequence:
#
# PCOD8036256 Si02
#       6
#     2   2   2   2   2   2
#     4  12  26  47  73 104 148 182 233 292 352 416
#     4  12  26  46  75 107 139 190 232 288 353 423
#     4  11  26  47  72 105 144 187 231 296 347 419
#     4  11  26  47  74 105 143 184 240 285 356 416
#     4  12  28  47  73 104 144 185 238 294 352 417
#     4  12  28  46  73 107 142 187 237 292 352 419
#
# _framework density 24.188074
#
# number of rings (size 3 to 8) (size 9 to 14) (size 15 to 20)
#    0.000    0.333    3.333    4.000   11.667    3.333 
#    0.000    0.000    0.000    0.000    0.000    0.000 
#    0.000    0.000    0.000    0.000    0.000    0.000 
#
# Total GULP energy -148771.640959 kJ/mol
# GULP energy per Si atom -12397.636747 kJ/mol
# Density = 2.413302 g / cm^3
# Si number density = 24.188074 Si / 1000 Ang^3
#
#
#
# Elastic Constant Matrix: (Units=GPa)
#
#
# Indices 1 2 3 4 5 6 
#
# 1 136.1655 4.9879 46.6887 -3.4668 6.8825 26.1800
# 2 4.9879 46.5719 5.8221 -2.7567 -1.9531 12.0190
# 3 46.6887 5.8221 166.4566 12.0903 -5.5806 18.6129
# 4 -3.4668 -2.7567 12.0903 41.5019 11.2127 -2.7940
# 5 6.8825 -1.9531 -5.5806 11.2127 42.1801 -1.9655
# 6 26.1800 12.0190 18.6129 -2.7940 -1.9655 47.3751
#
#
#
# Elastic Compliance Matrix: (Units=1/GPa)
#
#
# Indices 1 2 3 4 5 6 
#
# 1 0.009104 0.000409 -0.002312 0.001841 -0.002459 -0.004220
# 2 0.000409 0.023068 -0.000339 0.001170 0.000373 -0.005861
# 3 -0.002312 -0.000339 0.007119 -0.002936 0.002013 -0.001523
# 4 0.001841 0.001170 -0.002936 0.027382 -0.007861 0.001128
# 5 -0.002459 0.000373 0.002013 -0.007861 0.026534 0.001111
# 6 -0.004220 -0.005861 -0.001523 0.001128 0.001111 0.025638
#
#
# Mechanical properties :
#
#
# Convention : Reuss Voigt Hill
#
# Bulk Modulus (GPa) = 28.72953 51.57682 40.15318
# Shear Modulus (GPa) = 37.05576 45.65777 41.35676
#
# Velocity S-wave (km/s) = 3.91830 4.34938 4.13946
# Velocity P-wave (km/s) = 5.68983 6.82586 6.28357
#
# Compressibility (1/GPa) = 0.03480739
#
# Stress axis : x y z
#
# Youngs Moduli (GPa) = 109.83752 43.34989 140.46935
#
# Poissons Ratio (x) = -0.01773 0.32480
# Poissons Ratio (y) = -0.04491 0.04757
# Poissons Ratio (z) = 0.25397 0.01468
#
# Static dielectric constant tensor:
#      x y z
#    x 3.992700 -0.056290 -0.098970 
#    y -0.056290 5.493090 -0.370420 
#    z -0.098970 -0.370420 4.563060 
# 
# 
# High freq. dielectric constant tensor:
#      x y z
#    x 1.966790 0.011620 -0.004680 
#    y 0.011620 1.959670 -0.000480 
#    z -0.004680 -0.000480 1.975260 
# 
# From -- ./inp_files/148892.got.cif
#   From: 2010.06.25/outbox.cif.g09.slc.cpg/sg2_75_cif.got.tgz:148892.got - 2010.06.27 13:26:56.
