data_PCOD8036788
_publ_section_title
;
Structure prediction by ZEFSAII (Michael W. Deem and Ramdas Pophale) SiO2 
 PCOD8036788
Probable space group: P -1
;
_chemical_formula_sum "Si O2"
_cell_formula_units_Z 16
_cell_length_a 14.266500
_cell_length_b 6.909612
_cell_length_c 17.980108
_cell_angle_alpha 114.768334
_cell_angle_beta 28.241400
_cell_angle_gamma 102.838466
_cell_volume 715.652702
_symmetry_space_group_name_H-M "P -1"
_symmetry_group_IT_number 2
_symmetry_cell_setting 'triclinic'
loop_
_space_group_symop_operation_xyz
x,y,z
-x,-y,-z
loop_
_atom_site_type_symbol
_atom_site_label
_atom_site_fract_x
_atom_site_fract_y
_atom_site_fract_z
Si Si1 0.010675 0.425745 0.803259
Si Si2 0.580773 0.949447 0.518940
Si Si3 0.684069 0.273465 0.087449
Si Si4 0.306619 0.690337 0.421442
Si Si5 0.208929 0.792217 0.334802
Si Si6 0.454053 0.046499 0.954662
Si Si7 0.938182 0.543144 0.707343
Si Si8 0.818788 0.941111 0.076859
O O1 0.977345 0.408815 0.735741
O O2 0.261792 0.313263 0.627589
O O3 0.894753 0.271243 0.898679
O O4 0.915849 0.682471 0.939942
O O5 0.500000 0.000000 0.500000
O O6 0.725171 0.096396 0.467638
O O7 0.380502 0.011105 0.722591
O O8 0.547054 0.531822 0.243806
O O9 0.525103 0.193235 0.134681
O O10 0.744265 0.112041 0.089234
O O11 0.269471 0.770749 0.375232
O O12 0.156728 0.550246 0.524687
O O13 0.397608 0.830838 0.164756
O O14 0.172648 0.568646 0.293525
O O15 0.000000 0.000000 0.500000
O O16 0.213563 0.201144 0.133376
O O17 0.500000 0.000000 0.000000
O O18 0.000000 0.000000 0.000000
#
# Coordination Sequence:
#
# PCOD8036788 Si02
#       8
#     2   2   2   2   2   2   2   2
#     4  12  26  49  76 107 150 188 241 301 357 436
#     4  12  28  48  76 109 144 192 245 298 364 433
#     4  12  24  47  73 103 147 188 235 299 362 425
#     4  12  25  45  72 104 146 192 241 302 362 428
#     4  12  24  43  67 102 146 188 242 297 360 432
#     4  12  23  40  67 102 140 187 239 289 357 428
#     4  12  24  43  68 105 141 188 241 291 360 430
#     4  12  28  49  76 108 144 192 240 300 370 425
#
# _framework density 22.357212000000001
#
# number of rings (size 3 to 8) (size 9 to 14) (size 15 to 20)
#    0.000    0.000    2.500    8.250    3.500    1.500 
#    0.000    0.000    0.000    0.000    0.000    0.000 
#    0.000    0.000    0.000    0.000    0.000    0.000 
#
# Total GULP energy -198466.902684 kJ/mol
# GULP energy per Si atom -12404.181418 kJ/mol
# Density = 2.230633 g / cm^3
# Si number density = 22.357212 Si / 1000 Ang^3
#
#
#
# Elastic Constant Matrix: (Units=GPa)
#
#
# Indices 1 2 3 4 5 6 
#
# 1 176.6642 68.5664 51.7375 -4.3890 13.5277 -19.6940
# 2 68.5664 109.8676 49.1640 -6.3644 10.0616 -9.5721
# 3 51.7375 49.1640 134.7575 4.5556 -4.8896 -16.4550
# 4 -4.3890 -6.3644 4.5556 41.4658 -12.6229 -12.5255
# 5 13.5277 10.0616 -4.8896 -12.6229 37.1270 -3.7173
# 6 -19.6940 -9.5721 -16.4550 -12.5255 -3.7173 48.9200
#
#
#
# Elastic Compliance Matrix: (Units=1/GPa)
#
#
# Indices 1 2 3 4 5 6 
#
# 1 0.007989 -0.003987 -0.001452 0.000472 -0.001667 0.001942
# 2 -0.003987 0.013434 -0.003492 0.001371 -0.002178 0.000035
# 3 -0.001452 -0.003492 0.009624 -0.000227 0.002879 0.002130
# 4 0.000472 0.001371 -0.000227 0.030348 0.010642 0.008961
# 5 -0.001667 -0.002178 0.002879 0.010642 0.032638 0.005076
# 6 0.001942 0.000035 0.002130 0.008961 0.005076 0.024627
#
#
# Mechanical properties :
#
#
# Convention : Reuss Voigt Hill
#
# Bulk Modulus (GPa) = 75.83523 84.46947 80.15235
# Shear Modulus (GPa) = 35.48196 42.29066 38.88631
#
# Velocity S-wave (km/s) = 3.98810 4.35396 4.17504
# Velocity P-wave (km/s) = 7.42967 7.94605 7.69220
#
# Compressibility (1/GPa) = 0.01318648
#
# Stress axis : x y z
#
# Youngs Moduli (GPa) = 125.17442 74.43568 103.90291
#
# Poissons Ratio (x) = 0.29676 0.15086
# Poissons Ratio (y) = 0.49904 0.36281
# Poissons Ratio (z) = 0.18175 0.25992
#
# Static dielectric constant tensor:
#      x y z
#    x 4.316950 0.073890 -0.102240 
#    y 0.073890 4.451130 0.284910 
#    z -0.102240 0.284910 4.735640 
# 
# 
# High freq. dielectric constant tensor:
#      x y z
#    x 1.891500 -0.004480 -0.001710 
#    y -0.004480 1.893740 0.003270 
#    z -0.001710 0.003270 1.901110 
# 
# From -- ./inp_files/553292.got.cif
#   From: 2010.06.25/outbox.cif.g09.slc.cpg/sg2_277_cif.got.tgz:553292.got - 2010.06.27 13:26:56.
