data_PCOD8036198
_publ_section_title
;
Structure prediction by ZEFSAII (Michael W. Deem and Ramdas Pophale) SiO2 
 PCOD8036198
Probable space group: P -1
;
_chemical_formula_sum "Si O2"
_cell_formula_units_Z 16
_cell_length_a 8.760345
_cell_length_b 6.523825
_cell_length_c 17.377556
_cell_angle_alpha 104.301741
_cell_angle_beta 76.141913
_cell_angle_gamma 131.504097
_cell_volume 716.778645
_symmetry_space_group_name_H-M "P -1"
_symmetry_group_IT_number 2
_symmetry_cell_setting 'triclinic'
loop_
_space_group_symop_operation_xyz
x,y,z
-x,-y,-z
loop_
_atom_site_type_symbol
_atom_site_label
_atom_site_fract_x
_atom_site_fract_y
_atom_site_fract_z
Si Si1 0.019751 0.748389 0.554896
Si Si2 0.163453 0.908425 0.724319
Si Si3 0.318407 0.243432 0.451322
Si Si4 0.851696 0.439631 0.818042
Si Si5 0.462320 0.084490 0.284231
Si Si6 0.156977 0.638568 0.924548
Si Si7 0.483458 0.294302 0.924526
Si Si8 0.627201 0.538026 0.184765
O O1 0.112144 0.809823 0.634065
O O2 0.000000 0.500000 0.500000
O O3 0.800076 0.678347 0.576140
O O4 0.170596 0.010101 0.508326
O O5 0.959396 0.721463 0.784083
O O6 0.342378 0.901502 0.730807
O O7 0.221700 0.205620 0.752332
O O8 0.500000 0.500000 0.500000
O O9 0.416912 0.151777 0.376780
O O10 0.744854 0.209652 0.744061
O O11 0.701634 0.364768 0.901280
O O12 0.042192 0.497503 0.844417
O O13 0.485684 0.277810 0.232338
O O14 0.290639 0.541183 0.901924
O O15 0.296910 0.973442 0.938471
O O16 0.000000 0.500000 0.000000
O O17 0.478342 0.367900 0.843278
O O18 0.500000 0.500000 0.000000
#
# Coordination Sequence:
#
# PCOD8036198 Si02
#       8
#     2   2   2   2   2   2   2   2
#     4  11  26  46  72 109 144 185 234 287 351 416
#     4  12  26  46  70 104 142 186 238 290 346 420
#     4  11  26  46  72 109 144 185 234 287 351 416
#     4  12  24  47  69 102 143 181 239 290 348 416
#     4  12  26  46  70 104 142 186 238 290 346 420
#     4  12  28  48  70 104 140 185 232 298 350 419
#     4  12  28  48  70 106 140 182 242 288 354 428
#     4  12  24  47  69 102 143 181 239 290 348 416
#
# _framework density 22.322095000000001
#
# number of rings (size 3 to 8) (size 9 to 14) (size 15 to 20)
#    0.000    0.250    5.000    3.000    7.000    8.000 
#    0.000    0.000    0.000    0.000    0.000    0.000 
#    0.000    0.000    0.000    0.000    0.000    0.000 
#
# Total GULP energy -198285.768790 kJ/mol
# GULP energy per Si atom -12392.860549 kJ/mol
# Density = 2.227129 g / cm^3
# Si number density = 22.322095 Si / 1000 Ang^3
#
#
#
# Elastic Constant Matrix: (Units=GPa)
#
#
# Indices 1 2 3 4 5 6 
#
# 1 70.7341 62.8011 24.0039 1.8092 1.4225 7.7700
# 2 62.8011 111.6875 33.6581 21.7458 -0.4030 2.6916
# 3 24.0039 33.6581 107.6183 18.1685 -8.4191 5.8763
# 4 1.8092 21.7458 18.1685 53.8401 -0.8432 1.3183
# 5 1.4225 -0.4030 -8.4191 -0.8432 42.8985 -3.2287
# 6 7.7700 2.6916 5.8763 1.3183 -3.2287 28.3251
#
#
#
# Elastic Compliance Matrix: (Units=1/GPa)
#
#
# Indices 1 2 3 4 5 6 
#
# 1 0.032095 -0.018608 -0.002359 0.007375 -0.002093 -0.007129
# 2 -0.018608 0.021210 -0.001360 -0.007565 0.000687 0.003801
# 3 -0.002359 -0.001360 0.010976 -0.003015 0.002076 -0.001124
# 4 0.007375 -0.007565 -0.003015 0.022433 -0.000601 -0.001791
# 5 -0.002093 0.000687 0.002076 -0.000601 0.023996 0.002842
# 6 -0.007129 0.003801 -0.001124 -0.001791 0.002842 0.037539
#
#
# Mechanical properties :
#
#
# Convention : Reuss Voigt Hill
#
# Bulk Modulus (GPa) = 50.94471 58.99623 54.97047
# Shear Modulus (GPa) = 25.06946 36.31786 30.69366
#
# Velocity S-wave (km/s) = 3.35487 4.03797 3.71217
# Velocity P-wave (km/s) = 6.15459 6.94458 6.56149
#
# Compressibility (1/GPa) = 0.01962912
#
# Stress axis : x y z
#
# Youngs Moduli (GPa) = 31.15719 47.14715 91.10508
#
# Poissons Ratio (x) = 0.87731 0.21488
# Poissons Ratio (y) = 0.57977 0.12389
# Poissons Ratio (z) = 0.07349 0.06411
#
# Static dielectric constant tensor:
#      x y z
#    x 4.260100 -0.007070 0.059710 
#    y -0.007070 4.235250 0.080870 
#    z 0.059710 0.080870 4.088340 
# 
# 
# High freq. dielectric constant tensor:
#      x y z
#    x 1.882900 0.003180 0.004050 
#    y 0.003180 1.893840 0.003840 
#    z 0.004050 0.003840 1.897230 
# 
# From -- ./inp_files/141215.got.cif
#   From: 2010.06.25/outbox.cif.g09.slc.cpg/sg2_71_cif.got.tgz:141215.got - 2010.06.27 13:26:56.
