data_PCOD8036589
_publ_section_title
;
Structure prediction by ZEFSAII (Michael W. Deem and Ramdas Pophale) SiO2 
 PCOD8036589
Probable space group: P -1
;
_chemical_formula_sum "Si O2"
_cell_formula_units_Z 16
_cell_length_a 14.520410
_cell_length_b 22.776132
_cell_length_c 8.992974
_cell_angle_alpha 127.382205
_cell_angle_beta 30.294792
_cell_angle_gamma 146.834489
_cell_volume 745.202846
_symmetry_space_group_name_H-M "P -1"
_symmetry_group_IT_number 2
_symmetry_cell_setting 'triclinic'
loop_
_space_group_symop_operation_xyz
x,y,z
-x,-y,-z
loop_
_atom_site_type_symbol
_atom_site_label
_atom_site_fract_x
_atom_site_fract_y
_atom_site_fract_z
Si Si1 0.881564 0.302928 0.185501
Si Si2 0.766727 0.873792 0.205166
Si Si3 0.233169 0.282852 0.536111
Si Si4 0.240493 0.285388 0.178700
Si Si5 0.768398 0.872480 0.554861
Si Si6 0.120226 0.464324 0.352293
Si Si7 0.864482 0.524459 0.138141
Si Si8 0.111626 0.689669 0.290192
O O1 0.539565 0.189228 0.519403
O O2 0.060921 0.372552 0.194088
O O3 0.984211 0.262932 0.893353
O O4 0.930826 0.393884 0.162347
O O5 0.794774 0.883383 0.357964
O O6 0.811104 0.805638 0.978287
O O7 0.000000 0.000000 0.000000
O O8 0.243429 0.269673 0.326403
O O9 0.154681 0.184237 0.581677
O O10 0.537178 0.411078 0.367262
O O11 0.975390 0.255546 0.452415
O O12 0.537142 0.418640 0.915714
O O13 0.444937 0.793614 0.934002
O O14 0.000000 0.000000 0.500000
O O15 0.000000 0.500000 0.500000
O O16 0.940690 0.391982 0.642379
O O17 0.887208 0.603163 0.334072
O O18 0.000000 0.500000 0.000000
#
# Coordination Sequence:
#
# PCOD8036589 Si02
#       8
#     2   2   2   2   2   2   2   2
#     4  12  24  44  70 103 141 178 226 271 345 408
#     4  12  28  48  71  98 134 179 232 287 335 397
#     4  12  24  44  73 102 139 182 221 277 339 414
#     4  12  25  45  70 104 141 178 222 280 344 401
#     4  12  28  49  71  97 131 184 235 280 336 401
#     4  12  24  40  70 109 144 177 216 281 344 407
#     4  12  21  41  72 104 137 178 221 270 338 413
#     4  12  26  44  70 102 143 179 226 278 338 412
#
# _framework density 21.470663999999999
#
# number of rings (size 3 to 8) (size 9 to 14) (size 15 to 20)
#    0.000    0.000    6.250    3.750    5.250    1.000 
#    0.000    3.750    0.000    0.000    0.000    0.000 
#    0.000    0.000    0.000    0.000    0.000    0.000 
#
# Total GULP energy -198454.559198 kJ/mol
# GULP energy per Si atom -12403.409950 kJ/mol
# Density = 2.142180 g / cm^3
# Si number density = 21.470664 Si / 1000 Ang^3
#
#
#
# Elastic Constant Matrix: (Units=GPa)
#
#
# Indices 1 2 3 4 5 6 
#
# 1 106.6626 56.7177 58.4589 -9.9675 11.6046 -9.2317
# 2 56.7177 158.6443 83.4209 -10.0399 6.2359 6.7942
# 3 58.4589 83.4209 142.4725 -2.2555 4.2462 -15.8936
# 4 -9.9675 -10.0399 -2.2555 36.1018 -8.1767 10.4045
# 5 11.6046 6.2359 4.2462 -8.1767 42.3360 7.7861
# 6 -9.2317 6.7942 -15.8936 10.4045 7.7861 34.8054
#
#
#
# Elastic Compliance Matrix: (Units=1/GPa)
#
#
# Indices 1 2 3 4 5 6 
#
# 1 0.013528 -0.003027 -0.003319 0.001050 -0.003294 0.003087
# 2 -0.003027 0.011129 -0.006110 0.004533 0.002074 -0.007585
# 3 -0.003319 -0.006110 0.012824 -0.004505 -0.001803 0.007918
# 4 0.001050 0.004533 -0.004505 0.035456 0.009160 -0.015312
# 5 -0.003294 0.002074 -0.001803 0.009160 0.028219 -0.011153
# 6 0.003087 -0.007585 0.007918 -0.015312 -0.011153 0.041718
#
#
# Mechanical properties :
#
#
# Convention : Reuss Voigt Hill
#
# Bulk Modulus (GPa) = 79.56863 89.44162 84.50512
# Shear Modulus (GPa) = 29.07371 36.59408 32.83390
#
# Velocity S-wave (km/s) = 3.68382 4.13289 3.91480
# Velocity P-wave (km/s) = 7.43194 8.03258 7.73809
#
# Compressibility (1/GPa) = 0.01256777
#
# Stress axis : x y z
#
# Youngs Moduli (GPa) = 73.92137 89.85644 77.97817
#
# Poissons Ratio (x) = 0.27204 0.25881
# Poissons Ratio (y) = 0.22379 0.47646
# Poissons Ratio (z) = 0.24534 0.54903
#
# Static dielectric constant tensor:
#      x y z
#    x 4.082460 0.138320 0.224610 
#    y 0.138320 4.069540 0.116580 
#    z 0.224610 0.116580 3.981980 
# 
# 
# High freq. dielectric constant tensor:
#      x y z
#    x 1.855740 0.000950 0.008640 
#    y 0.000950 1.843680 0.011390 
#    z 0.008640 0.011390 1.851610 
# 
# From -- ./inp_files/184809.got.cif
#   From: 2010.06.25/outbox.cif.g09.slc.cpg/sg2_93_cif.got.tgz:184809.got - 2010.06.27 13:26:56.
