data_PCOD8036258
_publ_section_title
;
Structure prediction by ZEFSAII (Michael W. Deem and Ramdas Pophale) SiO2 
 PCOD8036258
Probable space group: P -1
;
_chemical_formula_sum "Si O2"
_cell_formula_units_Z 14
_cell_length_a 10.259453
_cell_length_b 14.829746
_cell_length_c 9.082082
_cell_angle_alpha 114.614152
_cell_angle_beta 102.770209
_cell_angle_gamma 132.503147
_cell_volume 612.967540
_symmetry_space_group_name_H-M "P -1"
_symmetry_group_IT_number 2
_symmetry_cell_setting 'triclinic'
loop_
_space_group_symop_operation_xyz
x,y,z
-x,-y,-z
loop_
_atom_site_type_symbol
_atom_site_label
_atom_site_fract_x
_atom_site_fract_y
_atom_site_fract_z
Si Si1 0.958316 0.747986 0.665283
Si Si2 0.750823 0.427212 0.481004
Si Si3 0.226103 0.211532 0.138806
Si Si4 0.456422 0.867079 0.977977
Si Si5 0.230362 0.422324 0.802129
Si Si6 0.059415 0.532514 0.866640
Si Si7 0.170913 0.188689 0.763362
O O1 0.007391 0.664297 0.673469
O O2 0.810595 0.705974 0.735696
O O3 0.752610 0.611427 0.382887
O O4 0.237410 0.978298 0.839368
O O5 0.502150 0.340910 0.347522
O O6 0.736338 0.330143 0.293942
O O7 0.792580 0.405061 0.636045
O O8 0.163039 0.172149 0.924036
O O9 0.000000 0.000000 0.000000
O O10 0.321135 0.767145 0.039603
O O11 0.500000 0.000000 0.000000
O O12 0.077475 0.427958 0.760189
O O13 0.075705 0.239963 0.736255
O O14 0.521496 0.627161 0.084495
O O15 0.000000 0.500000 0.000000
O O16 0.000000 0.000000 0.500000
#
# Coordination Sequence:
#
# PCOD8036258 Si02
#       7
#     2   2   2   2   2   2   2
#     4  12  24  45  79 106 147 194 254 312 368 455
#     4  12  25  49  75 107 153 197 253 314 376 448
#     4  12  25  45  77 114 142 195 259 309 370 447
#     4  12  24  46  77 107 146 204 255 304 376 455
#     4  11  26  47  72 107 148 197 239 306 391 437
#     4  12  28  48  76 109 156 199 246 317 384 450
#     4  11  26  47  75 107 153 194 242 310 379 448
#
# _framework density 22.839711000000001
#
# number of rings (size 3 to 8) (size 9 to 14) (size 15 to 20)
#    0.000    0.286    5.714    2.571    4.000    2.286 
#    0.000    1.429    0.000    0.000    0.000    0.000 
#    0.000    0.000    0.000    0.000    0.000    0.000 
#
# Total GULP energy -173464.155091 kJ/mol
# GULP energy per Si atom -12390.296792 kJ/mol
# Density = 2.278773 g / cm^3
# Si number density = 22.839711 Si / 1000 Ang^3
#
#
#
# Elastic Constant Matrix: (Units=GPa)
#
#
# Indices 1 2 3 4 5 6 
#
# 1 116.5805 76.9171 58.0721 -10.2588 -14.8277 -13.9870
# 2 76.9171 182.6777 75.2559 -7.2117 -3.1597 -16.0295
# 3 58.0721 75.2559 155.8473 -7.3893 -9.9695 -4.1261
# 4 -10.2588 -7.2117 -7.3893 48.3352 -4.3294 -1.5689
# 5 -14.8277 -3.1597 -9.9695 -4.3294 31.7320 -2.8194
# 6 -13.9870 -16.0295 -4.1261 -1.5689 -2.8194 43.6334
#
#
#
# Elastic Compliance Matrix: (Units=1/GPa)
#
#
# Indices 1 2 3 4 5 6 
#
# 1 0.014127 -0.004420 -0.002540 0.002590 0.005996 0.003145
# 2 -0.004420 0.008453 -0.002533 -0.000194 -0.001929 0.001317
# 3 -0.002540 -0.002533 0.008670 0.000496 0.001279 -0.000824
# 4 0.002590 -0.000194 0.000496 0.021748 0.004481 0.001877
# 5 0.005996 -0.001929 0.001279 0.004481 0.035473 0.003788
# 6 0.003145 0.001317 -0.000824 0.001877 0.003788 0.024645
#
#
# Mechanical properties :
#
#
# Convention : Reuss Voigt Hill
#
# Bulk Modulus (GPa) = 81.53695 97.28842 89.41268
# Shear Modulus (GPa) = 36.71378 41.06415 38.88897
#
# Velocity S-wave (km/s) = 4.01366 4.24480 4.13084
# Velocity P-wave (km/s) = 7.56680 8.16781 7.87304
#
# Compressibility (1/GPa) = 0.01226438
#
# Stress axis : x y z
#
# Youngs Moduli (GPa) = 70.78615 118.30080 115.34675
#
# Poissons Ratio (x) = 0.52287 0.29300
# Poissons Ratio (y) = 0.31287 0.29212
# Poissons Ratio (z) = 0.17981 0.29961
#
# Static dielectric constant tensor:
#      x y z
#    x 3.516560 -0.783900 0.184900 
#    y -0.783900 4.015230 0.227130 
#    z 0.184900 0.227130 4.234890 
# 
# 
# High freq. dielectric constant tensor:
#      x y z
#    x 1.903210 -0.022330 0.008500 
#    y -0.022330 1.916820 0.010100 
#    z 0.008500 0.010100 1.908360 
# 
# From -- ./inp_files/270723.got.cif
#   From: 2010.06.25/outbox.cif.g09.slc.cpg/sg2_136_cif.got.tgz:270723.got - 2010.06.27 13:26:56.
