data_PCOD8036378
_publ_section_title
;
Structure prediction by ZEFSAII (Michael W. Deem and Ramdas Pophale) SiO2 
 PCOD8036378
Probable space group: P -1
;
_chemical_formula_sum "Si O2"
_cell_formula_units_Z 16
_cell_length_a 11.629421
_cell_length_b 6.308535
_cell_length_c 11.247743
_cell_angle_alpha 98.798606
_cell_angle_beta 87.146543
_cell_angle_gamma 58.002995
_cell_volume 683.106405
_symmetry_space_group_name_H-M "P -1"
_symmetry_group_IT_number 2
_symmetry_cell_setting 'triclinic'
loop_
_space_group_symop_operation_xyz
x,y,z
-x,-y,-z
loop_
_atom_site_type_symbol
_atom_site_label
_atom_site_fract_x
_atom_site_fract_y
_atom_site_fract_z
Si Si1 0.022744 0.949893 0.354358
Si Si2 0.420484 0.093913 0.136090
Si Si3 0.884855 0.520048 0.833263
Si Si4 0.354296 0.058190 0.542501
Si Si5 0.693666 0.126023 0.695355
Si Si6 0.545696 0.328013 0.298897
Si Si7 0.225425 0.580326 0.729660
Si Si8 0.028463 0.730253 0.945753
O O1 0.043263 0.675478 0.298128
O O2 0.156604 0.930562 0.290596
O O3 0.000000 0.000000 0.500000
O O4 0.889792 0.173230 0.314723
O O5 0.277320 0.364660 0.145954
O O6 0.524550 0.127294 0.212818
O O7 0.381031 0.908508 0.188603
O O8 0.500000 0.000000 0.000000
O O9 0.915398 0.745932 0.858427
O O10 0.966845 0.375889 0.934508
O O11 0.265349 0.326847 0.635247
O O12 0.500000 0.000000 0.500000
O O13 0.278860 0.081740 0.424601
O O14 0.383004 0.809883 0.592545
O O15 0.600460 0.404780 0.663768
O O16 0.648614 0.393156 0.240682
O O17 0.174740 0.556411 0.858925
O O18 0.000000 0.000000 0.000000
#
# Coordination Sequence:
#
# PCOD8036378 Si02
#       8
#     2   2   2   2   2   2   2   2
#     4  12  28  48  77 114 155 201 245 314 385 451
#     4  12  29  45  76 109 148 198 248 311 382 447
#     4  11  27  48  73 107 153 193 255 314 372 445
#     4  12  26  45  75 107 147 196 245 309 372 449
#     4  12  27  51  74 110 155 196 249 314 378 450
#     4  12  26  48  75 106 148 191 255 304 378 444
#     4  12  28  45  76 108 145 198 257 299 378 451
#     4  11  26  49  74 103 144 198 251 312 367 439
#
# _framework density 23.422414
#
# number of rings (size 3 to 8) (size 9 to 14) (size 15 to 20)
#    0.000    0.250    5.000    1.875   12.250    1.000 
#    0.000    0.000    0.000    0.000    0.000    0.000 
#    0.000    0.000    0.000    0.000    0.000    0.000 
#
# Total GULP energy -198260.184783 kJ/mol
# GULP energy per Si atom -12391.261549 kJ/mol
# Density = 2.336910 g / cm^3
# Si number density = 23.422414 Si / 1000 Ang^3
#
#
#
# Elastic Constant Matrix: (Units=GPa)
#
#
# Indices 1 2 3 4 5 6 
#
# 1 115.5520 22.8886 32.0319 10.2589 3.0957 6.2906
# 2 22.8886 109.9892 39.9036 21.5107 0.0130 -7.9796
# 3 32.0319 39.9036 137.4576 23.1423 -9.8851 9.2145
# 4 10.2589 21.5107 23.1423 40.5733 0.3368 -0.2497
# 5 3.0957 0.0130 -9.8851 0.3368 40.2659 1.5118
# 6 6.2906 -7.9796 9.2145 -0.2497 1.5118 40.6071
#
#
#
# Elastic Compliance Matrix: (Units=1/GPa)
#
#
# Indices 1 2 3 4 5 6 
#
# 1 0.009556 -0.001319 -0.001710 -0.000741 -0.001099 -0.001315
# 2 -0.001319 0.011319 -0.002513 -0.004211 -0.000597 0.002995
# 3 -0.001710 -0.002513 0.009360 -0.003610 0.002553 -0.002470
# 4 -0.000741 -0.004211 -0.003610 0.029137 -0.001084 0.000326
# 5 -0.001099 -0.000597 0.002553 -0.001084 0.025611 -0.001487
# 6 -0.001315 0.002995 -0.002470 0.000326 -0.001487 0.026036
#
#
# Mechanical properties :
#
#
# Convention : Reuss Voigt Hill
#
# Bulk Modulus (GPa) = 52.21712 61.40521 56.81117
# Shear Modulus (GPa) = 38.91433 42.16758 40.54096
#
# Velocity S-wave (km/s) = 4.08047 4.24761 4.16488
# Velocity P-wave (km/s) = 6.67400 7.09433 6.88738
#
# Compressibility (1/GPa) = 0.01915081
#
# Stress axis : x y z
#
# Youngs Moduli (GPa) = 104.64446 88.34815 106.83580
#
# Poissons Ratio (x) = 0.11649 0.18272
# Poissons Ratio (y) = 0.13798 0.26852
# Poissons Ratio (z) = 0.17897 0.22205
#
# Static dielectric constant tensor:
#      x y z
#    x 3.915830 -0.421720 0.267200 
#    y -0.421720 3.702820 0.268660 
#    z 0.267200 0.268660 4.126060 
# 
# 
# High freq. dielectric constant tensor:
#      x y z
#    x 1.942880 0.004080 0.008820 
#    y 0.004080 1.931010 0.002550 
#    z 0.008820 0.002550 1.930940 
# 
# From -- ./inp_files/410812.got.cif
#   From: 2010.06.25/outbox.cif.g09.slc.cpg/sg2_206_cif.got.tgz:410812.got - 2010.06.27 13:26:56.
