data_PCOD8036924
_publ_section_title
;
Structure prediction by ZEFSAII (Michael W. Deem and Ramdas Pophale) SiO2 
 PCOD8036924
Probable space group: P -1
;
_chemical_formula_sum "Si O2"
_cell_formula_units_Z 16
_cell_length_a 18.589262
_cell_length_b 18.041527
_cell_length_c 9.025073
_cell_angle_alpha 37.001322
_cell_angle_beta 150.644322
_cell_angle_gamma 152.672238
_cell_volume 677.215983
_symmetry_space_group_name_H-M "P -1"
_symmetry_group_IT_number 2
_symmetry_cell_setting 'triclinic'
loop_
_space_group_symop_operation_xyz
x,y,z
-x,-y,-z
loop_
_atom_site_type_symbol
_atom_site_label
_atom_site_fract_x
_atom_site_fract_y
_atom_site_fract_z
Si Si1 0.200035 0.181338 0.567517
Si Si2 0.906384 0.339418 0.680591
Si Si3 0.041837 0.310374 0.262539
Si Si4 0.480989 0.774678 0.750972
Si Si5 0.169874 0.918395 0.251573
Si Si6 0.705763 0.046071 0.280168
Si Si7 0.693628 0.546578 0.216857
Si Si8 0.798896 0.824024 0.750537
O O1 0.177416 0.283133 0.473552
O O2 0.271251 0.254905 0.412718
O O3 0.372482 0.190581 0.917774
O O4 0.000000 0.000000 0.500000
O O5 0.674546 0.222836 0.454559
O O6 0.932548 0.222494 0.832436
O O7 0.000000 0.500000 0.500000
O O8 0.002047 0.390290 0.935761
O O9 0.165838 0.423280 0.445745
O O10 0.827894 0.148827 0.189174
O O11 0.352934 0.599354 0.726489
O O12 0.607463 0.921027 0.627549
O O13 0.171255 0.847248 0.524583
O O14 0.035465 0.969341 0.935727
O O15 0.687820 0.886124 0.505079
O O16 0.500000 0.000000 0.000000
O O17 0.500000 0.500000 0.000000
O O18 0.784680 0.701133 0.031137
#
# Coordination Sequence:
#
# PCOD8036924 Si02
#       8
#     2   2   2   2   2   2   2   2
#     4  12  23  44  79 110 140 196 260 313 368 445
#     4  12  29  50  75 110 155 201 246 317 384 452
#     4  12  25  49  76 106 152 197 258 310 382 454
#     4  12  26  46  77 110 151 201 256 310 381 449
#     4  12  24  49  76 105 149 198 256 310 375 447
#     4  12  27  44  75 117 151 198 251 308 385 452
#     4  12  27  47  74 114 153 198 254 314 376 452
#     4  12  25  46  79 107 153 199 251 315 366 445
#
# _framework density 23.626142000000002
#
# number of rings (size 3 to 8) (size 9 to 14) (size 15 to 20)
#    0.000    0.000    6.250    3.000    1.750    2.000 
#    2.250    0.000    0.000    0.000    0.000    0.000 
#    0.000    0.000    0.000    0.000    0.000    0.000 
#
# Total GULP energy -198328.844553 kJ/mol
# GULP energy per Si atom -12395.552785 kJ/mol
# Density = 2.357237 g / cm^3
# Si number density = 23.626142 Si / 1000 Ang^3
#
#
#
# Elastic Constant Matrix: (Units=GPa)
#
#
# Indices 1 2 3 4 5 6 
#
# 1 118.7622 28.9885 67.8024 3.8373 -8.6312 7.3952
# 2 28.9885 93.1724 39.4352 -5.3124 -9.9853 -2.9617
# 3 67.8024 39.4352 171.0745 14.4927 -11.4498 5.0806
# 4 3.8373 -5.3124 14.4927 37.7103 3.1161 -4.9988
# 5 -8.6312 -9.9853 -11.4498 3.1161 62.6675 1.2291
# 6 7.3952 -2.9617 5.0806 -4.9988 1.2291 33.3589
#
#
#
# Elastic Compliance Matrix: (Units=1/GPa)
#
#
# Indices 1 2 3 4 5 6 
#
# 1 0.011301 -0.001873 -0.003924 -0.000237 0.000595 -0.002131
# 2 -0.001873 0.012728 -0.002453 0.003145 0.001119 0.002349
# 3 -0.003924 -0.002453 0.008338 -0.003368 0.000782 -0.001151
# 4 -0.000237 0.003145 -0.003368 0.029118 -0.001698 0.005271
# 5 0.000595 0.001119 0.000782 -0.001698 0.016465 -0.001013
# 6 -0.002131 0.002349 -0.001151 0.005271 -0.001013 0.031661
#
#
# Mechanical properties :
#
#
# Convention : Reuss Voigt Hill
#
# Bulk Modulus (GPa) = 63.02339 72.82901 67.92620
# Shear Modulus (GPa) = 38.05196 43.19956 40.62576
#
# Velocity S-wave (km/s) = 4.01757 4.28069 4.15122
# Velocity P-wave (km/s) = 6.94653 7.43808 7.19650
#
# Compressibility (1/GPa) = 0.01586712
#
# Stress axis : x y z
#
# Youngs Moduli (GPa) = 88.48576 78.56931 119.93353
#
# Poissons Ratio (x) = 0.14714 0.47063
# Poissons Ratio (y) = 0.16572 0.29419
# Poissons Ratio (z) = 0.34723 0.19272
#
# Static dielectric constant tensor:
#      x y z
#    x 5.358100 0.320490 0.110330 
#    y 0.320490 3.954930 0.216180 
#    z 0.110330 0.216180 4.446370 
# 
# 
# High freq. dielectric constant tensor:
#      x y z
#    x 1.961470 0.008890 -0.003360 
#    y 0.008890 1.906460 0.009930 
#    z -0.003360 0.009930 1.954390 
# 
# From -- ./inp_files/336696.got.cif
#   From: 2010.06.25/outbox.cif.g09.slc.cpg/sg2_169_cif.got.tgz:336696.got - 2010.06.27 13:26:56.
