data_PCOD8036934
_publ_section_title
;
Structure prediction by ZEFSAII (Michael W. Deem and Ramdas Pophale) SiO2 
 PCOD8036934
Probable space group: P -1
;
_chemical_formula_sum "Si O2"
_cell_formula_units_Z 16
_cell_length_a 19.006806
_cell_length_b 25.846776
_cell_length_c 8.999199
_cell_angle_alpha 149.821942
_cell_angle_beta 134.256317
_cell_angle_gamma 24.536358
_cell_volume 835.776883
_symmetry_space_group_name_H-M "P -1"
_symmetry_group_IT_number 2
_symmetry_cell_setting 'triclinic'
loop_
_space_group_symop_operation_xyz
x,y,z
-x,-y,-z
loop_
_atom_site_type_symbol
_atom_site_label
_atom_site_fract_x
_atom_site_fract_y
_atom_site_fract_z
Si Si1 0.645098 0.457824 0.645559
Si Si2 0.147009 0.105119 0.584776
Si Si3 0.029240 0.933340 0.711310
Si Si4 0.688661 0.777914 0.286200
Si Si5 0.960588 0.406343 0.563691
Si Si6 0.966022 0.206902 0.273372
Si Si7 0.442360 0.237134 0.669189
Si Si8 0.101613 0.516198 0.673559
O O1 0.500000 0.500000 0.500000
O O2 0.771976 0.303177 0.586023
O O3 0.764330 0.376103 0.471604
O O4 0.543233 0.652571 0.026429
O O5 0.129023 0.012747 0.420905
O O6 0.117376 0.110316 0.378466
O O7 0.344297 0.986362 0.604556
O O8 0.985167 0.326369 0.947028
O O9 0.000000 0.000000 0.000000
O O10 0.020748 0.045687 0.880113
O O11 0.635038 0.742667 0.243505
O O12 0.831339 0.733242 0.456172
O O13 0.500000 0.000000 0.500000
O O14 0.799022 0.622793 0.931043
O O15 0.956651 0.295965 0.349182
O O16 0.914515 0.429886 0.382838
O O17 0.318233 0.310973 0.530376
O O18 0.000000 0.500000 0.500000
#
# Coordination Sequence:
#
# PCOD8036934 Si02
#       8
#     2   2   2   2   2   2   2   2
#     4  10  17  31  61  95 115 148 199 249 301 350
#     4  10  21  38  62  90 120 153 207 248 294 363
#     4   8  16  32  58  88 118 147 194 249 298 350
#     4  11  24  39  63  89 115 158 206 257 306 340
#     4  11  24  41  59  85 128 157 200 255 298 362
#     4  10  18  38  61  91 120 151 200 259 304 338
#     4  12  21  39  64  88 121 158 202 252 295 362
#     4  12  25  41  59  85 126 171 202 238 306 363
#
# _framework density 19.143865000000002
#
# number of rings (size 3 to 8) (size 9 to 14) (size 15 to 20)
#    0.000    1.750    5.000    3.000    3.500    1.500 
#    0.000    0.625    0.000    1.500    0.000    0.000 
#    0.000    0.000    0.000    0.000    0.000    0.000 
#
# Total GULP energy -198307.371805 kJ/mol
# GULP energy per Si atom -12394.210738 kJ/mol
# Density = 1.910029 g / cm^3
# Si number density = 19.143865 Si / 1000 Ang^3
#
#
#
# Elastic Constant Matrix: (Units=GPa)
#
#
# Indices 1 2 3 4 5 6 
#
# 1 102.3826 61.0647 31.0461 -3.1000 21.4744 -0.9113
# 2 61.0647 129.7121 17.8573 2.7206 -0.2895 -13.9273
# 3 31.0461 17.8573 50.7108 3.9796 17.7830 4.4117
# 4 -3.1000 2.7206 3.9796 28.3979 -3.8055 2.2801
# 5 21.4744 -0.2895 17.7830 -3.8055 30.6445 1.4468
# 6 -0.9113 -13.9273 4.4117 2.2801 1.4468 38.9417
#
#
#
# Elastic Compliance Matrix: (Units=1/GPa)
#
#
# Indices 1 2 3 4 5 6 
#
# 1 0.018179 -0.008131 -0.004939 0.002308 -0.009583 -0.001702
# 2 -0.008131 0.012301 -0.001933 -0.001255 0.006579 0.004257
# 3 -0.004939 -0.001933 0.029106 -0.006056 -0.014047 -0.003228
# 4 0.002308 -0.001255 -0.006056 0.037498 0.006643 -0.002151
# 5 -0.009583 0.006579 -0.014047 0.006643 0.048314 0.001536
# 6 -0.001702 0.004257 -0.003228 -0.002151 0.001536 0.027597
#
#
# Mechanical properties :
#
#
# Convention : Reuss Voigt Hill
#
# Bulk Modulus (GPa) = 33.80503 55.86019 44.83261
# Shear Modulus (GPa) = 23.48953 31.11930 27.30442
#
# Velocity S-wave (km/s) = 3.50666 4.03618 3.78070
# Velocity P-wave (km/s) = 5.83886 7.13888 6.52134
#
# Compressibility (1/GPa) = 0.02958139
#
# Stress axis : x y z
#
# Youngs Moduli (GPa) = 55.00770 81.29170 34.35715
#
# Poissons Ratio (x) = 0.66097 0.16969
# Poissons Ratio (y) = 0.44726 0.06640
# Poissons Ratio (z) = 0.27168 0.15712
#
# Static dielectric constant tensor:
#      x y z
#    x 3.840650 0.012680 0.427690 
#    y 0.012680 3.706300 0.109740 
#    z 0.427690 0.109740 3.879000 
# 
# 
# High freq. dielectric constant tensor:
#      x y z
#    x 1.736870 -0.019540 0.032580 
#    y -0.019540 1.739930 0.014400 
#    z 0.032580 0.014400 1.739820 
# 
# From -- ./inp_files/350213.got.cif
#   From: 2010.06.25/outbox.cif.g09.slc.cpg/sg2_176_cif.got.tgz:350213.got - 2010.06.27 13:26:56.
