data_PCOD8036947
_publ_section_title
;
Structure prediction by ZEFSAII (Michael W. Deem and Ramdas Pophale) SiO2 
 PCOD8036947
Probable space group: P -1
;
_chemical_formula_sum "Si O2"
_cell_formula_units_Z 16
_cell_length_a 10.771318
_cell_length_b 23.825440
_cell_length_c 8.643775
_cell_angle_alpha 29.589820
_cell_angle_beta 45.354318
_cell_angle_gamma 35.476484
_cell_volume 635.593350
_symmetry_space_group_name_H-M "P -1"
_symmetry_group_IT_number 2
_symmetry_cell_setting 'triclinic'
loop_
_space_group_symop_operation_xyz
x,y,z
-x,-y,-z
loop_
_atom_site_type_symbol
_atom_site_label
_atom_site_fract_x
_atom_site_fract_y
_atom_site_fract_z
Si Si1 0.592658 0.071787 0.336947
Si Si2 0.616573 0.723305 0.699971
Si Si3 0.721267 0.478694 0.386019
Si Si4 0.033374 0.223412 0.222289
Si Si5 0.077475 0.233465 0.813682
Si Si6 0.670041 0.215058 0.659132
Si Si7 0.214682 0.942384 0.362471
Si Si8 0.202481 0.398002 0.673691
O O1 0.419251 0.179045 0.356872
O O2 0.500000 0.000000 0.500000
O O3 0.656640 0.157682 0.973350
O O4 0.811528 0.944362 0.527339
O O5 0.770982 0.714166 0.454950
O O6 0.386187 0.796969 0.645979
O O7 0.733809 0.562371 0.032760
O O8 0.500000 0.500000 0.500000
O O9 0.758369 0.533851 0.379914
O O10 0.902726 0.311775 0.638669
O O11 0.818568 0.274032 0.389685
O O12 0.963506 0.276556 0.978500
O O13 0.162880 0.281816 0.043098
O O14 0.242599 0.067583 0.040702
O O15 0.792050 0.087818 0.738016
O O16 0.423868 0.328286 0.549206
O O17 0.000000 0.000000 0.500000
O O18 0.000000 0.500000 0.500000
#
# Coordination Sequence:
#
# PCOD8036947 Si02
#       8
#     2   2   2   2   2   2   2   2
#     4  12  23  45  74 114 156 200 261 327 401 467
#     4  12  25  45  75 109 155 205 259 326 397 468
#     4  12  28  53  75 111 159 207 269 328 394 478
#     4  12  25  47  77 114 155 203 268 323 397 475
#     4  12  25  47  76 114 152 211 262 327 391 476
#     4  12  26  48  80 116 158 207 260 339 395 471
#     4  12  24  44  76 116 155 201 266 321 393 471
#     4  12  27  52  78 113 157 210 267 323 401 477
#
# _framework density 25.173327
#
# number of rings (size 3 to 8) (size 9 to 14) (size 15 to 20)
#    0.000    0.000    6.250    3.375    0.000    0.500 
#    9.000    0.000    0.000    0.000    0.000    0.000 
#    0.000    0.000    0.000    0.000    0.000    0.000 
#
# Total GULP energy -198251.640413 kJ/mol
# GULP energy per Si atom -12390.727526 kJ/mol
# Density = 2.511603 g / cm^3
# Si number density = 25.173327 Si / 1000 Ang^3
#
#
#
# Elastic Constant Matrix: (Units=GPa)
#
#
# Indices 1 2 3 4 5 6 
#
# 1 103.3446 24.0532 30.1352 0.9463 -8.7557 -17.9538
# 2 24.0532 98.1933 43.6442 11.9253 1.8863 -33.3763
# 3 30.1352 43.6442 144.6644 7.6264 8.5856 -21.6636
# 4 0.9463 11.9253 7.6264 52.2899 -17.8577 -0.2645
# 5 -8.7557 1.8863 8.5856 -17.8577 42.0705 -6.2119
# 6 -17.9538 -33.3763 -21.6636 -0.2645 -6.2119 47.4204
#
#
#
# Elastic Compliance Matrix: (Units=1/GPa)
#
#
# Indices 1 2 3 4 5 6 
#
# 1 0.011364 -0.001162 -0.001870 0.001712 0.003992 0.003163
# 2 -0.001162 0.015105 -0.002807 -0.003090 -0.000352 0.008846
# 3 -0.001870 -0.002807 0.008499 -0.001403 -0.002465 0.000869
# 4 0.001712 -0.003090 -0.001403 0.023665 0.010733 -0.000630
# 5 0.003992 -0.000352 -0.002465 0.010733 0.030290 0.004166
# 6 0.003163 0.008846 0.000869 -0.000630 0.004166 0.029451
#
#
# Mechanical properties :
#
#
# Convention : Reuss Voigt Hill
#
# Bulk Modulus (GPa) = 42.93539 60.20749 51.57144
# Shear Modulus (GPa) = 36.28050 44.91416 40.59733
#
# Velocity S-wave (km/s) = 3.80047 4.22856 4.02022
# Velocity P-wave (km/s) = 6.02918 6.91448 6.48695
#
# Compressibility (1/GPa) = 0.02329081
#
# Stress axis : x y z
#
# Youngs Moduli (GPa) = 87.99533 66.20398 117.65794
#
# Poissons Ratio (x) = 0.07693 0.22005
# Poissons Ratio (y) = 0.10225 0.33021
# Poissons Ratio (z) = 0.16458 0.18580
#
# Static dielectric constant tensor:
#      x y z
#    x 4.622270 -0.158430 -0.171370 
#    y -0.158430 6.355850 -1.935830 
#    z -0.171370 -1.935830 6.905490 
# 
# 
# High freq. dielectric constant tensor:
#      x y z
#    x 2.001910 -0.015210 0.002690 
#    y -0.015210 2.002530 -0.008630 
#    z 0.002690 -0.008630 2.017010 
# 
# From -- ./inp_files/285765.got.cif
#   From: 2010.06.25/outbox.cif.g09.slc.cpg/sg2_143_cif.got.tgz:285765.got - 2010.06.27 13:26:56.
