data_PCOD8036193
_publ_section_title
;
Structure prediction by ZEFSAII (Michael W. Deem and Ramdas Pophale) SiO2 
 PCOD8036193
Probable space group: P -1
;
_chemical_formula_sum "Si O2"
_cell_formula_units_Z 16
_cell_length_a 16.488679
_cell_length_b 10.909128
_cell_length_c 6.459322
_cell_angle_alpha 107.208018
_cell_angle_beta 51.132079
_cell_angle_gamma 128.162176
_cell_volume 703.223758
_symmetry_space_group_name_H-M "P -1"
_symmetry_group_IT_number 2
_symmetry_cell_setting 'triclinic'
loop_
_space_group_symop_operation_xyz
x,y,z
-x,-y,-z
loop_
_atom_site_type_symbol
_atom_site_label
_atom_site_fract_x
_atom_site_fract_y
_atom_site_fract_z
Si Si1 0.930369 0.259690 0.969583
Si Si2 0.537958 0.879209 0.866305
Si Si3 0.972243 0.848191 0.575607
Si Si4 0.502372 0.356536 0.836256
Si Si5 0.713363 0.716337 0.127271
Si Si6 0.356149 0.592791 0.751190
Si Si7 0.807788 0.007665 0.368386
Si Si8 0.089942 0.527762 0.173097
O O1 0.022863 0.255223 0.659629
O O2 0.863228 0.319849 0.967008
O O3 0.009165 0.373438 0.088416
O O4 0.829387 0.090989 0.152025
O O5 0.471592 0.769805 0.717372
O O6 0.691157 0.991919 0.663296
O O7 0.494777 0.756795 0.061559
O O8 0.500000 0.000000 0.000000
O O9 0.068701 0.894193 0.634626
O O10 0.000000 0.000000 0.500000
O O11 0.828626 0.738914 0.826360
O O12 0.373402 0.250176 0.853066
O O13 0.629219 0.419036 0.525308
O O14 0.500000 0.500000 0.000000
O O15 0.624397 0.534205 0.246385
O O16 0.771067 0.833849 0.291395
O O17 0.221733 0.552014 0.031938
O O18 0.000000 0.500000 0.500000
#
# Coordination Sequence:
#
# PCOD8036193 Si02
#       8
#     2   2   2   2   2   2   2   2
#     4  11  26  46  72 106 142 196 240 299 370 432
#     4  12  30  47  75 105 150 194 243 300 363 438
#     4  12  26  44  72 110 148 188 237 303 370 438
#     4  12  26  49  74 106 147 191 244 306 363 436
#     4  12  24  47  75 106 148 189 246 308 365 430
#     4  12  27  47  75 108 141 194 247 296 369 434
#     4  12  26  47  71 106 149 190 243 303 365 438
#     4  11  27  48  75 103 148 190 249 308 355 435
#
# _framework density 22.752359999999999
#
# number of rings (size 3 to 8) (size 9 to 14) (size 15 to 20)
#    0.000    0.250    3.750    4.500    8.750    1.500 
#    0.000    0.000    0.000    0.000    0.000    0.000 
#    0.000    0.000    0.000    0.000    0.000    0.000 
#
# Total GULP energy -198357.079712 kJ/mol
# GULP energy per Si atom -12397.317482 kJ/mol
# Density = 2.270057 g / cm^3
# Si number density = 22.752360 Si / 1000 Ang^3
#
#
#
# Elastic Constant Matrix: (Units=GPa)
#
#
# Indices 1 2 3 4 5 6 
#
# 1 98.0934 33.7642 48.8070 -5.1568 3.2270 -19.5618
# 2 33.7642 106.7438 45.9722 13.0207 8.5041 -29.0719
# 3 48.8070 45.9722 150.9124 11.4477 -12.6110 1.0969
# 4 -5.1568 13.0207 11.4477 44.3354 2.8237 3.6032
# 5 3.2270 8.5041 -12.6110 2.8237 36.4992 -1.7082
# 6 -19.5618 -29.0719 1.0969 3.6032 -1.7082 37.5647
#
#
#
# Elastic Compliance Matrix: (Units=1/GPa)
#
#
# Indices 1 2 3 4 5 6 
#
# 1 0.014491 -0.000750 -0.004947 0.002810 -0.002719 0.006717
# 2 -0.000750 0.015816 -0.004707 -0.004231 -0.004347 0.012196
# 3 -0.004947 -0.004707 0.010241 -0.001652 0.004913 -0.006136
# 4 0.002810 -0.004231 -0.001652 0.025022 -0.001968 -0.004253
# 5 -0.002719 -0.004347 0.004913 -0.001968 0.030344 -0.003355
# 6 0.006717 0.012196 -0.006136 -0.004253 -0.003355 0.039992
#
#
# Mechanical properties :
#
#
# Convention : Reuss Voigt Hill
#
# Bulk Modulus (GPa) = 50.65718 68.09291 59.37505
# Shear Modulus (GPa) = 30.61987 38.82695 34.72341
#
# Velocity S-wave (km/s) = 3.67248 4.13546 3.91083
# Velocity P-wave (km/s) = 6.34789 7.26606 6.82244
#
# Compressibility (1/GPa) = 0.01974054
#
# Stress axis : x y z
#
# Youngs Moduli (GPa) = 69.00990 63.22558 97.65062
#
# Poissons Ratio (x) = 0.04739 0.48311
# Poissons Ratio (y) = 0.05173 0.45960
# Poissons Ratio (z) = 0.34141 0.29758
#
# Static dielectric constant tensor:
#      x y z
#    x 4.139460 -0.138890 0.040910 
#    y -0.138890 4.188740 0.041680 
#    z 0.040910 0.041680 4.280290 
# 
# 
# High freq. dielectric constant tensor:
#      x y z
#    x 1.895400 -0.008720 0.000980 
#    y -0.008720 1.910470 0.003030 
#    z 0.000980 0.003030 1.914180 
# 
# From -- ./inp_files/109816.got.cif
#   From: 2010.06.25/outbox.cif.g09.slc.cpg/sg2_55_cif.got.tgz:109816.got - 2010.06.27 13:26:56.
