data_PCOD8036166
_publ_section_title
;
Structure prediction by ZEFSAII (Michael W. Deem and Ramdas Pophale) SiO2 
 PCOD8036166
Probable space group: P -1
;
_chemical_formula_sum "Si O2"
_cell_formula_units_Z 14
_cell_length_a 14.550008
_cell_length_b 23.986386
_cell_length_c 5.363642
_cell_angle_alpha 116.024199
_cell_angle_beta 62.847693
_cell_angle_gamma 159.622537
_cell_volume 579.615466
_symmetry_space_group_name_H-M "P -1"
_symmetry_group_IT_number 2
_symmetry_cell_setting 'triclinic'
loop_
_space_group_symop_operation_xyz
x,y,z
-x,-y,-z
loop_
_atom_site_type_symbol
_atom_site_label
_atom_site_fract_x
_atom_site_fract_y
_atom_site_fract_z
Si Si1 0.675510 0.784901 0.886964
Si Si2 0.798955 0.140377 0.421569
Si Si3 0.231390 0.370107 0.945741
Si Si4 0.997083 0.143333 0.474009
Si Si5 0.283364 0.118251 0.458279
Si Si6 0.125424 0.421993 0.869855
Si Si7 0.869619 0.402760 0.220209
O O1 0.823289 0.896607 0.670879
O O2 0.376248 0.601194 0.809299
O O3 0.842502 0.816291 0.820969
O O4 0.689373 0.837629 0.210051
O O5 0.776740 0.063499 0.450875
O O6 0.996290 0.302141 0.603603
O O7 0.500000 0.000000 0.500000
O O8 0.945332 0.202706 0.107800
O O9 0.244475 0.449362 0.008163
O O10 0.220740 0.315687 0.626102
O O11 0.500000 0.500000 0.000000
O O12 0.866839 0.030819 0.635082
O O13 0.570861 0.258713 0.282617
O O14 0.895007 0.341955 0.081071
O O15 0.000000 0.500000 0.500000
O O16 0.000000 0.500000 0.000000
#
# Coordination Sequence:
#
# PCOD8036166 Si02
#       7
#     2   2   2   2   2   2   2
#     4  12  26  48  77 113 149 197 248 312 373 451
#     4  11  28  47  74 108 148 198 247 319 372 444
#     4  11  26  48  79 103 145 199 253 312 369 443
#     4  11  28  46  74 109 148 194 252 306 382 445
#     4  12  27  46  74 112 153 196 246 308 379 447
#     4  11  26  45  75 108 147 188 258 301 374 442
#     4  12  25  45  71 109 147 197 243 301 369 449
#
# _framework density 24.153943999999999
#
# number of rings (size 3 to 8) (size 9 to 14) (size 15 to 20)
#    0.000    0.571    2.857    2.571   14.000    3.429 
#    0.000    0.000    0.000    0.000    0.000    0.000 
#    0.000    0.000    0.000    0.000    0.000    0.000 
#
# Total GULP energy -173502.826206 kJ/mol
# GULP energy per Si atom -12393.059015 kJ/mol
# Density = 2.409897 g / cm^3
# Si number density = 24.153944 Si / 1000 Ang^3
#
#
#
# Elastic Constant Matrix: (Units=GPa)
#
#
# Indices 1 2 3 4 5 6 
#
# 1 183.9022 37.3640 46.8930 -2.1781 -13.4568 -8.9136
# 2 37.3640 87.3214 20.2153 -0.7184 3.7327 -7.5149
# 3 46.8930 20.2153 96.8017 -10.3851 -9.1572 -14.3547
# 4 -2.1781 -0.7184 -10.3851 35.9695 -3.2267 -2.7981
# 5 -13.4568 3.7327 -9.1572 -3.2267 40.1882 -0.5872
# 6 -8.9136 -7.5149 -14.3547 -2.7981 -0.5872 42.6832
#
#
#
# Elastic Compliance Matrix: (Units=1/GPa)
#
#
# Indices 1 2 3 4 5 6 
#
# 1 0.006714 -0.002343 -0.002591 -0.000211 0.001861 0.000130
# 2 -0.002343 0.013047 -0.001697 -0.000496 -0.002406 0.001172
# 3 -0.002591 -0.001697 0.013223 0.004174 0.002696 0.003918
# 4 -0.000211 -0.000496 0.004174 0.029537 0.003345 0.003255
# 5 0.001861 -0.002406 0.002696 0.003345 0.026633 0.001457
# 6 0.000130 0.001172 0.003918 0.003255 0.001457 0.025213
#
#
# Mechanical properties :
#
#
# Convention : Reuss Voigt Hill
#
# Bulk Modulus (GPa) = 50.69994 64.10777 57.40386
# Shear Modulus (GPa) = 37.25688 41.33837 39.29762
#
# Velocity S-wave (km/s) = 3.93170 4.14146 4.03794
# Velocity P-wave (km/s) = 6.45344 7.03334 6.74962
#
# Compressibility (1/GPa) = 0.01972389
#
# Stress axis : x y z
#
# Youngs Moduli (GPa) = 148.93615 76.64614 75.62357
#
# Poissons Ratio (x) = 0.17961 0.19591
# Poissons Ratio (y) = 0.34901 0.12830
# Poissons Ratio (z) = 0.38583 0.13003
#
# Static dielectric constant tensor:
#      x y z
#    x 4.878440 0.134490 -0.106350 
#    y 0.134490 4.570980 -0.096230 
#    z -0.106350 -0.096230 4.632250 
# 
# 
# High freq. dielectric constant tensor:
#      x y z
#    x 1.985000 0.002870 -0.018980 
#    y 0.002870 1.967980 -0.006970 
#    z -0.018980 -0.006970 1.957280 
# 
# From -- ./inp_files/71038.got.cif
#   From: 2010.06.25/outbox.cif.g09.slc.cpg/sg2_36_cif.got.tgz:71038.got - 2010.06.27 13:26:56.
