data_PCOD8036027
_publ_section_title
;
Structure prediction by ZEFSAII (Michael W. Deem and Ramdas Pophale) SiO2 
 PCOD8036027
Probable space group: P -1
;
_chemical_formula_sum "Si O2"
_cell_formula_units_Z 10
_cell_length_a 10.394837
_cell_length_b 13.165176
_cell_length_c 4.989692
_cell_angle_alpha 92.797022
_cell_angle_beta 84.635770
_cell_angle_gamma 31.373790
_cell_volume 342.872976
_symmetry_space_group_name_H-M "P -1"
_symmetry_group_IT_number 2
_symmetry_cell_setting 'triclinic'
loop_
_space_group_symop_operation_xyz
x,y,z
-x,-y,-z
loop_
_atom_site_type_symbol
_atom_site_label
_atom_site_fract_x
_atom_site_fract_y
_atom_site_fract_z
Si Si1 0.388125 0.656221 0.339084
Si Si2 0.223941 0.496988 0.103525
Si Si3 0.265778 0.344951 0.563260
Si Si4 0.115379 0.002793 0.778747
Si Si5 0.656314 0.949083 0.194458
O O1 0.500000 0.500000 0.500000
O O2 0.601710 0.529137 0.048263
O O3 0.127756 0.780974 0.296781
O O4 0.305121 0.822332 0.500404
O O5 0.248320 0.386755 0.878682
O O6 0.348276 0.383630 0.353294
O O7 0.915698 0.719431 0.214379
O O8 0.000000 0.500000 0.500000
O O9 0.456014 0.116154 0.496095
O O10 0.257130 0.996088 0.914294
O O11 0.000000 0.000000 0.000000
O O12 0.500000 0.000000 0.000000
#
# Coordination Sequence:
#
# PCOD8036027 Si02
#       5
#     2   2   2   2   2
#     4  11  26  47  79 115 157 211 270 334 407 480
#     4  12  28  49  80 114 161 212 268 331 408 477
#     4  12  27  52  75 114 163 212 265 333 399 489
#     4  11  25  49  78 113 159 208 273 334 401 489
#     4  12  27  47  81 116 159 207 270 326 411 476
#
# _framework density 29.165317999999999
#
# number of rings (size 3 to 8) (size 9 to 14) (size 15 to 20)
#    0.000    0.400    4.000    3.000    2.800    5.600 
#    0.000    0.000    0.000    0.000    0.000    0.000 
#    0.000    0.000    0.000    0.000    0.000    0.000 
#
# Total GULP energy -123964.472186 kJ/mol
# GULP energy per Si atom -12396.447219 kJ/mol
# Density = 2.909894 g / cm^3
# Si number density = 29.165318 Si / 1000 Ang^3
#
#
#
# Elastic Constant Matrix: (Units=GPa)
#
#
# Indices 1 2 3 4 5 6 
#
# 1 137.9385 41.1927 18.1954 11.4591 18.6545 -34.1986
# 2 41.1927 232.3885 45.0883 27.2237 -3.9593 -14.0329
# 3 18.1954 45.0883 95.9464 28.5004 -16.5566 -7.4716
# 4 11.4591 27.2237 28.5004 60.3886 -3.0143 -0.4082
# 5 18.6545 -3.9593 -16.5566 -3.0143 47.2469 1.6343
# 6 -34.1986 -14.0329 -7.4716 -0.4082 1.6343 59.5401
#
#
#
# Elastic Compliance Matrix: (Units=1/GPa)
#
#
# Indices 1 2 3 4 5 6 
#
# 1 0.009802 -0.001109 -0.001484 -0.000860 -0.004721 0.005306
# 2 -0.001109 0.004999 -0.001724 -0.001219 0.000164 0.000312
# 3 -0.001484 -0.001724 0.013969 -0.005283 0.004988 0.000321
# 4 -0.000860 -0.001219 -0.005283 0.019741 -0.000310 -0.001300
# 5 -0.004721 0.000164 0.004988 -0.000310 0.024866 -0.002732
# 6 0.005306 0.000312 0.000321 -0.001300 -0.002732 0.020023
#
#
# Mechanical properties :
#
#
# Convention : Reuss Voigt Hill
#
# Bulk Modulus (GPa) = 49.66238 75.02515 62.34376
# Shear Modulus (GPa) = 45.97884 57.55494 51.76689
#
# Velocity S-wave (km/s) = 3.97481 4.44712 4.21758
# Velocity P-wave (km/s) = 6.17498 7.22143 6.71861
#
# Compressibility (1/GPa) = 0.02013597
#
# Stress axis : x y z
#
# Youngs Moduli (GPa) = 102.02035 200.05451 71.58650
#
# Poissons Ratio (x) = 0.22184 0.10623
# Poissons Ratio (y) = 0.11313 0.12342
# Poissons Ratio (z) = 0.15140 0.34490
#
# Static dielectric constant tensor:
#      x y z
#    x 7.060590 -1.138590 -0.515090 
#    y -1.138590 7.046160 0.341170 
#    z -0.515090 0.341170 5.836690 
# 
# 
# High freq. dielectric constant tensor:
#      x y z
#    x 2.232910 -0.015970 -0.006000 
#    y -0.015970 2.222340 0.019060 
#    z -0.006000 0.019060 2.176440 
# 
# From -- ./inp_files/74731.got.cif
#   From: 2010.06.25/outbox.cif.g09.slc.cpg/sg2_38_cif.got.tgz:74731.got - 2010.06.27 13:26:56.
