data_PCOD8036188
_publ_section_title
;
Structure prediction by ZEFSAII (Michael W. Deem and Ramdas Pophale) SiO2 
 PCOD8036188
Probable space group: P -1
;
_chemical_formula_sum "Si O2"
_cell_formula_units_Z 16
_cell_length_a 9.179972
_cell_length_b 6.807381
_cell_length_c 19.850871
_cell_angle_alpha 125.102169
_cell_angle_beta 123.895301
_cell_angle_gamma 47.489777
_cell_volume 718.123367
_symmetry_space_group_name_H-M "P -1"
_symmetry_group_IT_number 2
_symmetry_cell_setting 'triclinic'
loop_
_space_group_symop_operation_xyz
x,y,z
-x,-y,-z
loop_
_atom_site_type_symbol
_atom_site_label
_atom_site_fract_x
_atom_site_fract_y
_atom_site_fract_z
Si Si1 0.155050 0.977931 0.271681
Si Si2 0.622536 0.635210 0.854695
Si Si3 0.486914 0.547744 0.086245
Si Si4 0.903893 0.474013 0.207603
Si Si5 0.230547 0.783093 0.538532
Si Si6 0.139210 0.118593 0.084133
Si Si7 0.217337 0.915420 0.711134
Si Si8 0.444805 0.141573 0.441244
O O1 0.227916 0.676640 0.198074
O O2 0.353131 0.968138 0.350246
O O3 0.074481 0.226036 0.246650
O O4 0.974536 0.069355 0.297806
O O5 0.574866 0.638563 0.922351
O O6 0.744128 0.800969 0.924564
O O7 0.416387 0.798296 0.787735
O O8 0.700682 0.463827 0.157158
O O9 0.321917 0.870591 0.126078
O O10 0.500000 0.500000 0.000000
O O11 0.994861 0.407758 0.142808
O O12 0.858214 0.775736 0.276062
O O13 0.269485 0.740640 0.620957
O O14 0.285640 0.477175 0.467107
O O15 0.361147 0.901886 0.560248
O O16 0.000000 0.000000 0.500000
O O17 0.000000 0.000000 0.000000
O O18 0.500000 0.000000 0.500000
#
# Coordination Sequence:
#
# PCOD8036188 Si02
#       8
#     2   2   2   2   2   2   2   2
#     4  12  26  44  73 104 143 188 238 294 356 422
#     4  12  27  45  73 107 140 188 245 293 363 432
#     4  12  26  47  71 103 142 185 237 300 360 430
#     4  12  25  45  69 103 140 183 235 293 358 421
#     4  11  26  46  71 106 147 191 236 290 354 421
#     4  12  26  47  71 101 145 184 233 302 362 424
#     4  12  26  44  73 104 143 188 239 295 352 426
#     4  11  26  46  71 106 148 188 237 290 354 422
#
# _framework density 22.280294999999999
#
# number of rings (size 3 to 8) (size 9 to 14) (size 15 to 20)
#    0.000    0.250    6.250    2.250    3.500    7.000 
#    2.250    0.000    0.000    0.000    0.000    0.000 
#    0.000    0.000    0.000    0.000    0.000    0.000 
#
# Total GULP energy -198289.758271 kJ/mol
# GULP energy per Si atom -12393.109892 kJ/mol
# Density = 2.222958 g / cm^3
# Si number density = 22.280295 Si / 1000 Ang^3
#
#
#
# Elastic Constant Matrix: (Units=GPa)
#
#
# Indices 1 2 3 4 5 6 
#
# 1 172.5350 40.8879 49.7757 -5.6397 12.0095 15.1748
# 2 40.8879 113.2277 22.2119 -7.6875 4.1589 2.9818
# 3 49.7757 22.2119 92.8197 -7.4140 5.8999 10.2825
# 4 -5.6397 -7.6875 -7.4140 32.9998 -0.9642 1.1872
# 5 12.0095 4.1589 5.8999 -0.9642 25.1808 9.9337
# 6 15.1748 2.9818 10.2825 1.1872 9.9337 40.0514
#
#
#
# Elastic Compliance Matrix: (Units=1/GPa)
#
#
# Indices 1 2 3 4 5 6 
#
# 1 0.007451 -0.001940 -0.003250 0.000084 -0.001929 -0.001368
# 2 -0.001940 0.009891 -0.001203 0.001673 -0.000514 0.000386
# 3 -0.003250 -0.001203 0.013234 0.002197 -0.000469 -0.002025
# 4 0.000084 0.001673 0.002197 0.031303 0.001128 -0.001928
# 5 -0.001929 -0.000514 -0.000469 0.001128 0.044929 -0.010288
# 6 -0.001368 0.000386 -0.002025 -0.001928 -0.010288 0.028586
#
#
# Mechanical properties :
#
#
# Convention : Reuss Voigt Hill
#
# Bulk Modulus (GPa) = 56.21536 67.14817 61.68176
# Shear Modulus (GPa) = 32.44423 37.36019 34.90221
#
# Velocity S-wave (km/s) = 3.82014 4.09935 3.96220
# Velocity P-wave (km/s) = 6.68907 7.25325 6.97686
#
# Compressibility (1/GPa) = 0.01778873
#
# Stress axis : x y z
#
# Youngs Moduli (GPa) = 134.21366 101.10471 75.56252
#
# Poissons Ratio (x) = 0.19618 0.24561
# Poissons Ratio (y) = 0.26043 0.09088
# Poissons Ratio (z) = 0.43625 0.12160
#
# Static dielectric constant tensor:
#      x y z
#    x 4.996840 -0.279590 0.290100 
#    y -0.279590 4.280320 -0.020290 
#    z 0.290100 -0.020290 4.046430 
# 
# 
# High freq. dielectric constant tensor:
#      x y z
#    x 1.902830 -0.001530 0.001680 
#    y -0.001530 1.895530 0.000130 
#    z 0.001680 0.000130 1.865470 
# 
# From -- ./inp_files/48024.got.cif
#   From: 2010.06.25/outbox.cif.g09.slc.cpg/sg2_25_cif.got.tgz:48024.got - 2010.06.27 13:26:56.
