data_PCOD8036580
_publ_section_title
;
Structure prediction by ZEFSAII (Michael W. Deem and Ramdas Pophale) SiO2 
 PCOD8036580
Probable space group: P -1
;
_chemical_formula_sum "Si O2"
_cell_formula_units_Z 16
_cell_length_a 9.107296
_cell_length_b 26.209474
_cell_length_c 26.169222
_cell_angle_alpha 168.833291
_cell_angle_beta 144.639473
_cell_angle_gamma 35.499820
_cell_volume 694.586673
_symmetry_space_group_name_H-M "P -1"
_symmetry_group_IT_number 2
_symmetry_cell_setting 'triclinic'
loop_
_space_group_symop_operation_xyz
x,y,z
-x,-y,-z
loop_
_atom_site_type_symbol
_atom_site_label
_atom_site_fract_x
_atom_site_fract_y
_atom_site_fract_z
Si Si1 0.968152 0.206956 0.801822
Si Si2 0.022622 0.546188 0.493983
Si Si3 0.400442 0.180220 0.820449
Si Si4 0.721751 0.020409 0.123770
Si Si5 0.476172 0.301888 0.695167
Si Si6 0.968185 0.331796 0.648263
Si Si7 0.610285 0.516544 0.642886
Si Si8 0.827974 0.089479 0.927437
O O1 0.669717 0.219135 0.715127
O O2 0.111131 0.200300 0.780230
O O3 0.042795 0.951572 0.607399
O O4 0.007983 0.464138 0.098751
O O5 0.320889 0.546021 0.569685
O O6 0.000000 0.500000 0.500000
O O7 0.910612 0.307388 0.201653
O O8 0.851204 0.814401 0.693539
O O9 0.489118 0.916003 0.553818
O O10 0.457545 0.424509 0.041726
O O11 0.544680 0.171942 0.907721
O O12 0.692382 0.810943 0.954620
O O13 0.997612 0.929284 0.090918
O O14 0.500000 0.000000 0.000000
O O15 0.742163 0.313280 0.438415
O O16 0.192784 0.331712 0.669192
O O17 0.693640 0.405680 0.613867
#
# Coordination Sequence:
#
# PCOD8036580 Si02
#       8
#     2   2   2   2   2   2   2   2
#     4  12  26  45  73 102 136 177 221 280 340 409
#     4  12  26  41  62  89 132 177 216 258 319 381
#     4  12  26  44  72 102 138 175 226 279 334 403
#     4  12  21  41  63  93 120 169 222 263 325 366
#     4  12  24  49  71 102 136 177 221 276 348 405
#     4  12  26  44  71 103 138 175 227 278 334 401
#     4  12  24  41  65  94 130 170 215 269 318 386
#     4  12  25  42  65  94 128 170 217 269 317 385
#
# _framework density 23.035281999999999
#
# number of rings (size 3 to 8) (size 9 to 14) (size 15 to 20)
#    0.000    0.000    2.500    8.250    3.500    0.000 
#    0.000    0.000    0.000    0.000    0.000    0.000 
#    0.000    0.000    0.000    0.000    0.000    0.000 
#
# Total GULP energy -198369.653913 kJ/mol
# GULP energy per Si atom -12398.103370 kJ/mol
# Density = 2.298285 g / cm^3
# Si number density = 23.035282 Si / 1000 Ang^3
#
#
#
# Elastic Constant Matrix: (Units=GPa)
#
#
# Indices 1 2 3 4 5 6 
#
# 1 91.6402 -34.3852 10.8792 11.1881 1.8126 4.6870
# 2 -34.3852 133.9099 41.7867 -3.3656 -3.7477 30.7779
# 3 10.8792 41.7867 142.9076 1.9061 -4.9780 14.8301
# 4 11.1881 -3.3656 1.9061 44.6695 18.6739 0.6065
# 5 1.8126 -3.7477 -4.9780 18.6739 51.5619 3.0027
# 6 4.6870 30.7779 14.8301 0.6065 3.0027 33.7782
#
#
#
# Elastic Compliance Matrix: (Units=1/GPa)
#
#
# Indices 1 2 3 4 5 6 
#
# 1 0.013948 0.005568 -0.001953 -0.003468 0.001343 -0.006209
# 2 0.005568 0.012290 -0.002837 -0.000756 0.001328 -0.010830
# 3 -0.001953 -0.002837 0.008090 -0.000409 0.000836 -0.000762
# 4 -0.003468 -0.000756 -0.000409 0.027366 -0.009985 0.001746
# 5 0.001343 0.001328 0.000836 -0.009985 0.023354 -0.003660
# 6 -0.006209 -0.010830 -0.000762 0.001746 -0.003660 0.040963
#
#
# Mechanical properties :
#
#
# Convention : Reuss Voigt Hill
#
# Bulk Modulus (GPa) = 27.86750 45.00212 36.43481
# Shear Modulus (GPa) = 36.65271 49.34705 42.99988
#
# Velocity S-wave (km/s) = 3.99326 4.63345 4.32522
# Velocity P-wave (km/s) = 5.77802 6.94289 6.38707
#
# Compressibility (1/GPa) = 0.03588409
#
# Stress axis : x y z
#
# Youngs Moduli (GPa) = 71.69610 81.36511 123.61660
#
# Poissons Ratio (x) = -0.45307 0.24138
# Poissons Ratio (y) = -0.39923 0.35075
# Poissons Ratio (z) = 0.14000 0.23087
#
# Static dielectric constant tensor:
#      x y z
#    x 5.251610 -1.608830 -2.780920 
#    y -1.608830 6.630110 4.205830 
#    z -2.780920 4.205830 12.087100 
# 
# 
# High freq. dielectric constant tensor:
#      x y z
#    x 1.910170 0.004400 -0.001430 
#    y 0.004400 1.929790 0.002720 
#    z -0.001430 0.002720 1.928230 
# 
# From -- ./inp_files/484239.got.cif
#   From: 2010.06.25/outbox.cif.g09.slc.cpg/sg2_243_cif.got.tgz:484239.got - 2010.06.27 13:26:56.
