data_PCOD8036007
_publ_section_title
;
Structure prediction by ZEFSAII (Michael W. Deem and Ramdas Pophale) SiO2 
 PCOD8036007
Probable space group: P -1
;
_chemical_formula_sum "Si O2"
_cell_formula_units_Z 16
_cell_length_a 9.362769
_cell_length_b 6.766908
_cell_length_c 16.655689
_cell_angle_alpha 69.928200
_cell_angle_beta 122.023388
_cell_angle_gamma 124.493789
_cell_volume 735.991728
_symmetry_space_group_name_H-M "P -1"
_symmetry_group_IT_number 2
_symmetry_cell_setting 'triclinic'
loop_
_space_group_symop_operation_xyz
x,y,z
-x,-y,-z
loop_
_atom_site_type_symbol
_atom_site_label
_atom_site_fract_x
_atom_site_fract_y
_atom_site_fract_z
Si Si1 0.041599 0.484711 0.394137
Si Si2 0.999100 0.804777 0.739728
Si Si3 0.975022 0.529584 0.079996
Si Si4 0.609134 0.760973 0.227990
Si Si5 0.642054 0.031253 0.810407
Si Si6 0.605874 0.558273 0.941051
Si Si7 0.696349 0.970354 0.651525
Si Si8 0.697823 0.429428 0.403058
O O1 0.027507 0.355978 0.324220
O O2 0.157348 0.413867 0.504083
O O3 0.825616 0.394709 0.375796
O O4 0.167865 0.774764 0.385350
O O5 0.801801 0.807946 0.698562
O O6 0.066049 0.705937 0.849133
O O7 0.164098 0.078483 0.741676
O O8 0.164866 0.740134 0.141628
O O9 0.808297 0.596752 0.026271
O O10 0.000000 0.500000 0.000000
O O11 0.536038 0.930496 0.223123
O O12 0.495310 0.649741 0.126724
O O13 0.586031 0.557794 0.312312
O O14 0.622074 0.801203 0.880681
O O15 0.651442 0.003667 0.723711
O O16 0.500000 0.500000 0.000000
O O17 0.475306 0.815696 0.574648
#
# Coordination Sequence:
#
# PCOD8036007 Si02
#       8
#     2   2   2   2   2   2   2   2
#     4  11  26  50  71 108 139 186 229 292 353 416
#     4  12  27  44  73 103 142 182 234 290 348 415
#     4  12  25  45  67  99 139 182 234 286 344 413
#     4  12  26  47  67 104 141 184 232 290 348 416
#     4  12  25  46  72  96 142 188 227 292 350 409
#     4  12  28  43  69 102 135 185 236 286 350 413
#     4  12  24  47  75 106 138 187 233 286 353 413
#     4  11  25  49  75 101 147 180 234 287 353 424
#
# _framework density 21.739374999999999
#
# number of rings (size 3 to 8) (size 9 to 14) (size 15 to 20)
#    0.000    0.250    5.000    3.750    5.250    2.000 
#    2.250    0.000    0.000    0.000    0.000    0.000 
#    0.000    0.000    0.000    0.000    0.000    0.000 
#
# Total GULP energy -198371.687520 kJ/mol
# GULP energy per Si atom -12398.230470 kJ/mol
# Density = 2.168990 g / cm^3
# Si number density = 21.739375 Si / 1000 Ang^3
#
#
#
# Elastic Constant Matrix: (Units=GPa)
#
#
# Indices 1 2 3 4 5 6 
#
# 1 141.6341 25.9304 28.2864 15.5679 4.9721 -3.9821
# 2 25.9304 78.1225 5.8405 13.6150 2.2521 7.3613
# 3 28.2864 5.8405 87.4844 16.9637 -6.6262 -11.8375
# 4 15.5679 13.6150 16.9637 43.2723 -1.1709 -5.4352
# 5 4.9721 2.2521 -6.6262 -1.1709 38.5858 5.4921
# 6 -3.9821 7.3613 -11.8375 -5.4352 5.4921 44.2034
#
#
#
# Elastic Compliance Matrix: (Units=1/GPa)
#
#
# Indices 1 2 3 4 5 6 
#
# 1 0.008143 -0.002319 -0.002265 -0.001284 -0.001417 0.000532
# 2 -0.002319 0.014589 0.000159 -0.004212 -0.000214 -0.003087
# 3 -0.002265 0.000159 0.013465 -0.004129 0.002098 0.002607
# 4 -0.001284 -0.004212 -0.004129 0.026866 0.000123 0.002768
# 5 -0.001417 -0.000214 0.002098 0.000123 0.026882 -0.002855
# 6 0.000532 -0.003087 0.002607 0.002768 -0.002855 0.024578
#
#
# Mechanical properties :
#
#
# Convention : Reuss Voigt Hill
#
# Bulk Modulus (GPa) = 36.56715 47.48396 42.02556
# Shear Modulus (GPa) = 37.73897 41.69121 39.71509
#
# Velocity S-wave (km/s) = 4.17102 4.38399 4.27883
# Velocity P-wave (km/s) = 6.32880 6.89316 6.61700
#
# Compressibility (1/GPa) = 0.02734695
#
# Stress axis : x y z
#
# Youngs Moduli (GPa) = 122.80326 68.54299 74.26865
#
# Poissons Ratio (x) = 0.15896 0.16819
# Poissons Ratio (y) = 0.28479 -0.01178
# Poissons Ratio (z) = 0.27810 -0.01087
#
# Static dielectric constant tensor:
#      x y z
#    x 4.109380 0.228220 0.054370 
#    y 0.228220 3.032610 -0.807500 
#    z 0.054370 -0.807500 3.193440 
# 
# 
# High freq. dielectric constant tensor:
#      x y z
#    x 1.874470 0.011790 0.002590 
#    y 0.011790 1.858210 0.002230 
#    z 0.002590 0.002230 1.869070 
# 
# From -- ./inp_files/39973.got.cif
#   From: 2010.06.25/outbox.cif.g09.slc.cpg/sg2_20_cif.got.tgz:39973.got - 2010.06.27 13:26:56.
