data_PCOD8036620
_publ_section_title
;
Structure prediction by ZEFSAII (Michael W. Deem and Ramdas Pophale) SiO2 
 PCOD8036620
Probable space group: P -1
;
_chemical_formula_sum "Si O2"
_cell_formula_units_Z 16
_cell_length_a 14.822542
_cell_length_b 11.219020
_cell_length_c 13.750258
_cell_angle_alpha 115.832475
_cell_angle_beta 134.304377
_cell_angle_gamma 29.643446
_cell_volume 708.240647
_symmetry_space_group_name_H-M "P -1"
_symmetry_group_IT_number 2
_symmetry_cell_setting 'triclinic'
loop_
_space_group_symop_operation_xyz
x,y,z
-x,-y,-z
loop_
_atom_site_type_symbol
_atom_site_label
_atom_site_fract_x
_atom_site_fract_y
_atom_site_fract_z
Si Si1 0.278751 0.728597 0.166586
Si Si2 0.576316 0.324275 0.078856
Si Si3 0.919597 0.254622 0.808187
Si Si4 0.325588 0.275072 0.917267
Si Si5 0.471583 0.227202 0.600899
Si Si6 0.864205 0.751622 0.879662
Si Si7 0.440142 0.212362 0.353720
Si Si8 0.923091 0.666349 0.415810
O O1 0.497139 0.464638 0.168798
O O2 0.380441 0.772031 0.299478
O O3 0.258366 0.656293 0.218013
O O4 0.000000 0.000000 0.000000
O O5 0.890963 0.019446 0.204990
O O6 0.500000 0.500000 0.000000
O O7 0.461808 0.278902 0.972490
O O8 0.711320 0.508713 0.667030
O O9 0.112849 0.177774 0.983687
O O10 0.166683 0.347484 0.741268
O O11 0.134346 0.509578 0.938556
O O12 0.500000 0.000000 0.000000
O O13 0.499084 0.127523 0.481640
O O14 0.168411 0.524726 0.510001
O O15 0.616147 0.016754 0.720260
O O16 0.776815 0.685458 0.822509
O O17 0.699430 0.971887 0.396093
O O18 0.000000 0.500000 0.500000
#
# Coordination Sequence:
#
# PCOD8036620 Si02
#       8
#     2   2   2   2   2   2   2   2
#     4  12  25  48  71 101 139 185 240 290 348 429
#     4  12  25  43  74 108 142 187 244 290 350 427
#     4  12  26  45  73 104 139 186 238 292 355 420
#     4  12  25  44  76 109 144 185 239 302 357 416
#     4  12  26  46  70 104 142 184 237 292 355 427
#     4  12  21  46  72 102 146 181 231 298 352 425
#     4  12  26  45  71 105 146 181 231 297 365 417
#     4  12  26  44  71 106 144 186 238 291 363 428
#
# _framework density 22.591190999999998
#
# number of rings (size 3 to 8) (size 9 to 14) (size 15 to 20)
#    0.000    0.000    6.250    3.750    1.750    1.500 
#    0.000    1.250    0.000    0.000    0.000    0.000 
#    0.000    0.000    0.000    0.000    0.000    0.000 
#
# Total GULP energy -198358.222306 kJ/mol
# GULP energy per Si atom -12397.388894 kJ/mol
# Density = 2.253977 g / cm^3
# Si number density = 22.591191 Si / 1000 Ang^3
#
#
#
# Elastic Constant Matrix: (Units=GPa)
#
#
# Indices 1 2 3 4 5 6 
#
# 1 93.8633 13.4912 8.0320 -10.6261 12.6042 4.2059
# 2 13.4912 120.7608 5.9838 -21.4809 3.0478 -20.1406
# 3 8.0320 5.9838 60.7892 4.3644 8.8820 4.1359
# 4 -10.6261 -21.4809 4.3644 35.1671 5.2973 -0.0065
# 5 12.6042 3.0478 8.8820 5.2973 30.7297 -3.0446
# 6 4.2059 -20.1406 4.1359 -0.0065 -3.0446 51.1193
#
#
#
# Elastic Compliance Matrix: (Units=1/GPa)
#
#
# Indices 1 2 3 4 5 6 
#
# 1 0.012112 -0.000675 -0.000927 0.004191 -0.005505 -0.001515
# 2 -0.000675 0.010297 -0.001524 0.006426 -0.000998 0.004177
# 3 -0.000927 -0.001524 0.017704 -0.002757 -0.004330 -0.002215
# 4 0.004191 0.006426 -0.002757 0.035086 -0.007412 0.001973
# 5 -0.005505 -0.000998 -0.004330 -0.007412 0.037691 0.002654
# 6 -0.001515 0.004177 -0.002215 0.001973 0.002654 0.021670
#
#
# Mechanical properties :
#
#
# Convention : Reuss Voigt Hill
#
# Bulk Modulus (GPa) = 29.53414 36.71414 33.12414
# Shear Modulus (GPa) = 32.87323 39.93030 36.40176
#
# Velocity S-wave (km/s) = 3.81876 4.20875 4.01849
# Velocity P-wave (km/s) = 5.70487 6.31703 6.01874
#
# Compressibility (1/GPa) = 0.03385912
#
# Stress axis : x y z
#
# Youngs Moduli (GPa) = 82.56361 97.11941 56.48415
#
# Poissons Ratio (x) = 0.06559 0.05238
# Poissons Ratio (y) = 0.05576 0.08609
# Poissons Ratio (z) = 0.07656 0.14802
#
# Static dielectric constant tensor:
#      x y z
#    x 4.258000 -0.234170 0.062270 
#    y -0.234170 4.165870 -0.206920 
#    z 0.062270 -0.206920 3.990840 
# 
# 
# High freq. dielectric constant tensor:
#      x y z
#    x 1.906050 -0.006710 0.000740 
#    y -0.006710 1.903060 -0.006730 
#    z 0.000740 -0.006730 1.883010 
# 
# From -- ./inp_files/531896.got.cif
#   From: 2010.06.25/outbox.cif.g09.slc.cpg/sg2_266_cif.got.tgz:531896.got - 2010.06.27 13:26:56.
