data_PCOD8036427
_publ_section_title
;
Structure prediction by ZEFSAII (Michael W. Deem and Ramdas Pophale) SiO2 
 PCOD8036427
Probable space group: P -1
;
_chemical_formula_sum "Si O2"
_cell_formula_units_Z 16
_cell_length_a 15.433405
_cell_length_b 14.474883
_cell_length_c 9.600828
_cell_angle_alpha 87.687002
_cell_angle_beta 69.257920
_cell_angle_gamma 27.558843
_cell_volume 718.866124
_symmetry_space_group_name_H-M "P -1"
_symmetry_group_IT_number 2
_symmetry_cell_setting 'triclinic'
loop_
_space_group_symop_operation_xyz
x,y,z
-x,-y,-z
loop_
_atom_site_type_symbol
_atom_site_label
_atom_site_fract_x
_atom_site_fract_y
_atom_site_fract_z
Si Si1 0.778085 0.189834 0.001748
Si Si2 0.556453 0.090439 0.227260
Si Si3 0.194838 0.312425 0.776566
Si Si4 0.129874 0.097157 0.145605
Si Si5 0.601031 0.677229 0.424159
Si Si6 0.816081 0.239072 0.680086
Si Si7 0.816474 0.942813 0.572225
Si Si8 0.027880 0.558852 0.380243
O O1 0.840287 0.194781 0.832456
O O2 0.488269 0.482687 0.207356
O O3 0.790433 0.072351 0.958140
O O4 0.000000 0.000000 0.000000
O O5 0.538132 0.182837 0.355933
O O6 0.320822 0.320320 0.240542
O O7 0.570900 0.973646 0.292433
O O8 0.800511 0.885793 0.003021
O O9 0.299321 0.314096 0.674365
O O10 0.036134 0.409446 0.740788
O O11 0.000000 0.500000 0.000000
O O12 0.827347 0.391621 0.330486
O O13 0.272292 0.970063 0.221702
O O14 0.415981 0.803202 0.407000
O O15 0.922703 0.242797 0.594258
O O16 0.000000 0.000000 0.500000
O O17 0.842897 0.812164 0.521484
O O18 0.000000 0.500000 0.500000
#
# Coordination Sequence:
#
# PCOD8036427 Si02
#       8
#     2   2   2   2   2   2   2   2
#     4  11  28  47  78 108 146 183 237 299 360 437
#     4  12  25  43  70  98 141 183 238 293 353 422
#     4  12  25  45  64 103 143 187 244 295 349 425
#     4  12  27  45  68 110 136 180 246 288 354 439
#     4  12  26  46  69 101 142 191 238 290 360 423
#     4  11  26  52  74 109 146 187 236 295 367 430
#     4  12  26  46  74 101 145 190 233 296 357 424
#     4  12  24  44  72  98 141 190 233 297 355 410
#
# _framework density 22.257275
#
# number of rings (size 3 to 8) (size 9 to 14) (size 15 to 20)
#    0.000    0.250    6.250    1.875    5.250    1.000 
#    0.000    0.000    0.000    0.000    0.000    0.000 
#    0.000    0.000    0.000    0.000    0.000    0.000 
#
# Total GULP energy -198415.287819 kJ/mol
# GULP energy per Si atom -12400.955489 kJ/mol
# Density = 2.220662 g / cm^3
# Si number density = 22.257275 Si / 1000 Ang^3
#
#
#
# Elastic Constant Matrix: (Units=GPa)
#
#
# Indices 1 2 3 4 5 6 
#
# 1 95.0273 43.8358 45.9344 -8.4446 19.9533 -13.3978
# 2 43.8358 118.2724 44.0280 5.0653 9.5418 -25.8553
# 3 45.9344 44.0280 132.3300 -4.4125 16.4948 -13.4530
# 4 -8.4446 5.0653 -4.4125 41.0767 9.7894 4.4695
# 5 19.9533 9.5418 16.4948 9.7894 26.9453 -5.4154
# 6 -13.3978 -25.8553 -13.4530 4.4695 -5.4154 49.6154
#
#
#
# Elastic Compliance Matrix: (Units=1/GPa)
#
#
# Indices 1 2 3 4 5 6 
#
# 1 0.017007 -0.004747 -0.002683 0.006657 -0.011788 -0.000495
# 2 -0.004747 0.012142 -0.002405 -0.004046 0.003183 0.005106
# 3 -0.002683 -0.002405 0.009826 0.001684 -0.003764 0.000124
# 4 0.006657 -0.004046 0.001684 0.030839 -0.016625 -0.004447
# 5 -0.011788 0.003183 -0.003764 -0.016625 0.054033 0.004850
# 6 -0.000495 0.005106 0.000124 -0.004447 0.004850 0.023646
#
#
# Mechanical properties :
#
#
# Convention : Reuss Voigt Hill
#
# Bulk Modulus (GPa) = 51.79766 68.13625 59.96695
# Shear Modulus (GPa) = 28.80227 37.64959 33.22593
#
# Velocity S-wave (km/s) = 3.60121 4.11732 3.86788
# Velocity P-wave (km/s) = 6.37294 7.29949 6.85190
#
# Compressibility (1/GPa) = 0.01930589
#
# Stress axis : x y z
#
# Youngs Moduli (GPa) = 58.79969 82.35778 101.76841
#
# Poissons Ratio (x) = 0.39094 0.27305
# Poissons Ratio (y) = 0.27911 0.24473
# Poissons Ratio (z) = 0.15776 0.19805
#
# Static dielectric constant tensor:
#      x y z
#    x 3.959200 -0.018910 0.072950 
#    y -0.018910 4.391820 -0.037840 
#    z 0.072950 -0.037840 4.128080 
# 
# 
# High freq. dielectric constant tensor:
#      x y z
#    x 1.870430 0.002640 0.005690 
#    y 0.002640 1.894100 -0.003570 
#    z 0.005690 -0.003570 1.885380 
# 
# From -- ./inp_files/315212.got.cif
#   From: 2010.06.25/outbox.cif.g09.slc.cpg/sg2_158_cif.got.tgz:315212.got - 2010.06.27 13:26:56.
