data_PCOD8036694
_publ_section_title
;
Structure prediction by ZEFSAII (Michael W. Deem and Ramdas Pophale) SiO2 
 PCOD8036694
Probable space group: P -1
;
_chemical_formula_sum "Si O2"
_cell_formula_units_Z 16
_cell_length_a 18.793295
_cell_length_b 8.930738
_cell_length_c 12.302950
_cell_angle_alpha 131.326349
_cell_angle_beta 36.919941
_cell_angle_gamma 103.794580
_cell_volume 714.371619
_symmetry_space_group_name_H-M "P -1"
_symmetry_group_IT_number 2
_symmetry_cell_setting 'triclinic'
loop_
_space_group_symop_operation_xyz
x,y,z
-x,-y,-z
loop_
_atom_site_type_symbol
_atom_site_label
_atom_site_fract_x
_atom_site_fract_y
_atom_site_fract_z
Si Si1 0.951818 0.666663 0.299621
Si Si2 0.074078 0.135044 0.961001
Si Si3 0.277415 0.463892 0.874897
Si Si4 0.065710 0.216800 0.249753
Si Si5 0.483545 0.022766 0.782325
Si Si6 0.728140 0.083195 0.948902
Si Si7 0.254718 0.554216 0.194145
Si Si8 0.268141 0.964429 0.436437
O O1 0.858715 0.890678 0.610183
O O2 0.876808 0.783154 0.329131
O O3 0.948286 0.433776 0.217075
O O4 0.126507 0.561505 0.037661
O O5 0.219222 0.973239 0.624837
O O6 0.133923 0.144162 0.009932
O O7 0.000000 0.000000 0.000000
O O8 0.416091 0.168384 0.531738
O O9 0.329768 0.631019 0.862852
O O10 0.247661 0.473496 0.043515
O O11 0.000000 0.500000 0.500000
O O12 0.919768 0.224993 0.441805
O O13 0.205109 0.999264 0.050851
O O14 0.587998 0.040639 0.744521
O O15 0.414297 0.916341 0.887225
O O16 0.344322 0.304343 0.041076
O O17 0.328183 0.695870 0.177509
#
# Coordination Sequence:
#
# PCOD8036694 Si02
#       8
#     2   2   2   2   2   2   2   2
#     4  12  24  48  77 102 142 182 239 293 346 412
#     4  12  25  41  71 111 138 177 233 295 346 407
#     4  12  25  46  75 107 135 186 240 295 347 409
#     4  12  22  42  75 105 135 175 243 295 340 401
#     4  12  28  44  68 102 154 183 229 288 355 421
#     4  12  25  45  75 106 136 188 236 293 348 414
#     4  12  23  47  72 101 140 190 234 287 352 418
#     4  12  27  47  70 104 146 191 231 279 360 427
#
# _framework density 22.397306
#
# number of rings (size 3 to 8) (size 9 to 14) (size 15 to 20)
#    0.000    0.000    7.500    2.625    0.000    1.500 
#    0.000    0.000    0.000    0.000    0.000    0.000 
#    0.000    0.000    0.000    0.000    0.000    0.000 
#
# Total GULP energy -198498.458597 kJ/mol
# GULP energy per Si atom -12406.153662 kJ/mol
# Density = 2.234633 g / cm^3
# Si number density = 22.397306 Si / 1000 Ang^3
#
#
#
# Elastic Constant Matrix: (Units=GPa)
#
#
# Indices 1 2 3 4 5 6 
#
# 1 104.2811 40.9787 18.7394 -8.9682 -6.4916 7.9472
# 2 40.9787 117.1075 6.9738 3.4236 -8.3511 24.8836
# 3 18.7394 6.9738 58.6057 -6.5452 -1.9034 8.7325
# 4 -8.9682 3.4236 -6.5452 35.9835 6.8998 5.2502
# 5 -6.4916 -8.3511 -1.9034 6.8998 34.5082 -5.9541
# 6 7.9472 24.8836 8.7325 5.2502 -5.9541 46.9769
#
#
#
# Elastic Compliance Matrix: (Units=1/GPa)
#
#
# Indices 1 2 3 4 5 6 
#
# 1 0.012009 -0.004162 -0.003112 0.002619 0.000650 0.000541
# 2 -0.004162 0.011160 0.000619 -0.001529 0.001399 -0.004974
# 3 -0.003112 0.000619 0.018890 0.003286 -0.000701 -0.003769
# 4 0.002619 -0.001529 0.003286 0.031141 -0.006712 -0.004575
# 5 0.000650 0.001399 -0.000701 -0.006712 0.031435 0.004013
# 6 0.000541 -0.004974 -0.003769 -0.004575 0.004013 0.025551
#
#
# Mechanical properties :
#
#
# Convention : Reuss Voigt Hill
#
# Bulk Modulus (GPa) = 34.78352 45.93091 40.35721
# Shear Modulus (GPa) = 32.66282 37.71388 35.18835
#
# Velocity S-wave (km/s) = 3.82296 4.10794 3.96801
# Velocity P-wave (km/s) = 5.92036 6.56140 6.24911
#
# Compressibility (1/GPa) = 0.02874925
#
# Stress axis : x y z
#
# Youngs Moduli (GPa) = 83.27354 89.60455 52.93730
#
# Poissons Ratio (x) = 0.37294 0.16472
# Poissons Ratio (y) = 0.34659 -0.03275
# Poissons Ratio (z) = 0.25911 -0.05543
#
# Static dielectric constant tensor:
#      x y z
#    x 4.234920 0.158570 0.087340 
#    y 0.158570 4.315320 -0.007970 
#    z 0.087340 -0.007970 3.945310 
# 
# 
# High freq. dielectric constant tensor:
#      x y z
#    x 1.887850 0.010890 0.013150 
#    y 0.010890 1.896960 0.003930 
#    z 0.013150 0.003930 1.869640 
# 
# From -- ./inp_files/184216.got.cif
#   From: 2010.06.25/outbox.cif.g09.slc.cpg/sg2_93_cif.got.tgz:184216.got - 2010.06.27 13:26:56.
