data_PCOD8036292
_publ_section_title
;
Structure prediction by ZEFSAII (Michael W. Deem and Ramdas Pophale) SiO2 
 PCOD8036292
Probable space group: P -1
;
_chemical_formula_sum "Si O2"
_cell_formula_units_Z 14
_cell_length_a 9.057101
_cell_length_b 9.188911
_cell_length_c 11.862491
_cell_angle_alpha 61.156145
_cell_angle_beta 74.664949
_cell_angle_gamma 115.790448
_cell_volume 622.058442
_symmetry_space_group_name_H-M "P -1"
_symmetry_group_IT_number 2
_symmetry_cell_setting 'triclinic'
loop_
_space_group_symop_operation_xyz
x,y,z
-x,-y,-z
loop_
_atom_site_type_symbol
_atom_site_label
_atom_site_fract_x
_atom_site_fract_y
_atom_site_fract_z
Si Si1 0.214004 0.182538 0.951618
Si Si2 0.189791 0.683226 0.469770
Si Si3 0.695783 0.891883 0.819844
Si Si4 0.873509 0.297359 0.264832
Si Si5 0.581368 0.459913 0.600905
Si Si6 0.741352 0.453780 0.058045
Si Si7 0.918655 0.961578 0.407985
O O1 0.402799 0.326734 0.776382
O O2 0.187341 0.336102 0.964628
O O3 0.280000 0.076889 0.060838
O O4 0.000000 0.000000 0.000000
O O5 0.134392 0.633775 0.632483
O O6 0.369919 0.687689 0.399159
O O7 0.000000 0.500000 0.500000
O O8 0.265493 0.917692 0.331227
O O9 0.475845 0.663448 0.912284
O O10 0.875610 0.887003 0.764550
O O11 0.722825 0.287718 0.214000
O O12 0.802114 0.052049 0.375804
O O13 0.102762 0.480550 0.099116
O O14 0.500000 0.500000 0.500000
O O15 0.781120 0.700010 0.515033
O O16 0.000000 0.000000 0.500000
#
# Coordination Sequence:
#
# PCOD8036292 Si02
#       7
#     2   2   2   2   2   2   2
#     4  12  28  49  76 107 153 192 248 310 373 442
#     4  12  27  47  72 112 151 191 243 307 365 438
#     4  12  26  44  76 108 145 192 251 299 371 435
#     4  11  26  47  77 103 157 189 254 297 371 435
#     4  12  28  47  75 104 147 193 243 299 374 433
#     4  11  27  46  76 112 144 199 247 309 366 438
#     4  12  23  46  74 106 140 195 240 299 360 442
#
# _framework density 22.505922000000002
#
# number of rings (size 3 to 8) (size 9 to 14) (size 15 to 20)
#    0.000    0.286    4.286    3.000    8.000    2.286 
#    0.000    0.000    0.000    0.000    0.000    0.000 
#    0.000    0.000    0.000    0.000    0.000    0.000 
#
# Total GULP energy -173540.309273 kJ/mol
# GULP energy per Si atom -12395.736377 kJ/mol
# Density = 2.245470 g / cm^3
# Si number density = 22.505922 Si / 1000 Ang^3
#
#
#
# Elastic Constant Matrix: (Units=GPa)
#
#
# Indices 1 2 3 4 5 6 
#
# 1 131.2713 55.5253 54.0014 7.1198 7.7399 12.3230
# 2 55.5253 117.1379 45.9316 10.3150 -1.8218 16.2496
# 3 54.0014 45.9316 137.4461 29.3143 8.8634 16.4233
# 4 7.1198 10.3150 29.3143 36.0609 4.3363 0.3657
# 5 7.7399 -1.8218 8.8634 4.3363 49.7634 -6.0865
# 6 12.3230 16.2496 16.4233 0.3657 -6.0865 47.0440
#
#
#
# Elastic Compliance Matrix: (Units=1/GPa)
#
#
# Indices 1 2 3 4 5 6 
#
# 1 0.010572 -0.003911 -0.003046 0.001689 -0.001460 -0.000557
# 2 -0.003911 0.011552 -0.001912 -0.001102 0.001207 -0.002134
# 3 -0.003046 -0.001912 0.011142 -0.007737 -0.001216 -0.002529
# 4 0.001689 -0.001102 -0.007737 0.034177 -0.001639 0.002162
# 5 -0.001460 0.001207 -0.001216 -0.001639 0.021109 0.003134
# 6 -0.000557 -0.002134 -0.002529 0.002162 0.003134 0.023411
#
#
# Mechanical properties :
#
#
# Convention : Reuss Voigt Hill
#
# Bulk Modulus (GPa) = 64.39866 77.41911 70.90888
# Shear Modulus (GPa) = 37.07059 41.93346 39.50203
#
# Velocity S-wave (km/s) = 4.06291 4.32119 4.19404
# Velocity P-wave (km/s) = 7.11940 7.70526 7.41811
#
# Compressibility (1/GPa) = 0.01552827
#
# Stress axis : x y z
#
# Youngs Moduli (GPa) = 94.58963 86.56317 89.75026
#
# Poissons Ratio (x) = 0.33855 0.27339
# Poissons Ratio (y) = 0.36994 0.17159
# Poissons Ratio (z) = 0.28813 0.16550
#
# Static dielectric constant tensor:
#      x y z
#    x 4.441840 0.086980 0.031260 
#    y 0.086980 3.771490 0.053640 
#    z 0.031260 0.053640 4.393630 
# 
# 
# High freq. dielectric constant tensor:
#      x y z
#    x 1.905990 -0.000270 0.012050 
#    y -0.000270 1.882460 0.010140 
#    z 0.012050 0.010140 1.909930 
# 
# From -- ./inp_files/159233.got.cif
#   From: 2010.06.25/outbox.cif.g09.slc.cpg/sg2_80_cif.got.tgz:159233.got - 2010.06.27 13:26:56.
