data_PCOD8036319
_publ_section_title
;
Structure prediction by ZEFSAII (Michael W. Deem and Ramdas Pophale) SiO2 
 PCOD8036319
Probable space group: P -1
;
_chemical_formula_sum "Si O2"
_cell_formula_units_Z 16
_cell_length_a 11.798770
_cell_length_b 8.250888
_cell_length_c 12.078927
_cell_angle_alpha 124.342678
_cell_angle_beta 76.719042
_cell_angle_gamma 134.400176
_cell_volume 666.002238
_symmetry_space_group_name_H-M "P -1"
_symmetry_group_IT_number 2
_symmetry_cell_setting 'triclinic'
loop_
_space_group_symop_operation_xyz
x,y,z
-x,-y,-z
loop_
_atom_site_type_symbol
_atom_site_label
_atom_site_fract_x
_atom_site_fract_y
_atom_site_fract_z
Si Si1 0.612394 0.759626 0.341920
Si Si2 0.918019 0.495971 0.282842
Si Si3 0.311125 0.118773 0.883535
Si Si4 0.042222 0.330981 0.897929
Si Si5 0.757206 0.704549 0.705322
Si Si6 0.335040 0.579422 0.083448
Si Si7 0.752978 0.286267 0.629750
Si Si8 0.193222 0.262425 0.537850
O O1 0.691601 0.853193 0.238083
O O2 0.419118 0.473478 0.264662
O O3 0.700922 0.701696 0.373037
O O4 0.621167 0.989295 0.482118
O O5 0.940182 0.658485 0.232919
O O6 0.791353 0.479794 0.375705
O O7 0.094790 0.679406 0.371451
O O8 0.844433 0.193183 0.161131
O O9 0.475705 0.198696 0.915259
O O10 0.293754 0.305309 0.023107
O O11 0.216984 0.493665 0.976678
O O12 0.898455 0.009866 0.846883
O O13 0.000000 0.500000 0.000000
O O14 0.811265 0.540869 0.641368
O O15 0.740776 0.744653 0.595423
O O16 0.317855 0.712585 0.238776
O O17 0.000000 0.000000 0.500000
#
# Coordination Sequence:
#
# PCOD8036319 Si02
#       8
#     2   2   2   2   2   2   2   2
#     4  12  26  49  76 105 145 188 241 296 358 424
#     4  12  26  44  73 105 143 188 236 295 359 425
#     4  11  27  47  73 106 140 191 241 299 355 414
#     4  12  26  44  71 102 145 190 237 283 356 429
#     4  12  27  45  75 105 141 191 237 295 354 424
#     4  11  26  48  71 106 147 184 244 297 354 424
#     4  12  25  45  75 108 143 186 242 293 358 426
#     4  12  25  45  69 108 146 177 232 294 360 423
#
# _framework density 24.023945000000001
#
# number of rings (size 3 to 8) (size 9 to 14) (size 15 to 20)
#    0.000    0.250    5.000    3.000    5.250    3.500 
#    0.000    0.000    0.000    0.000    0.000    0.000 
#    0.000    0.000    0.000    0.000    0.000    0.000 
#
# Total GULP energy -198379.667569 kJ/mol
# GULP energy per Si atom -12398.729223 kJ/mol
# Density = 2.396927 g / cm^3
# Si number density = 24.023945 Si / 1000 Ang^3
#
#
#
# Elastic Constant Matrix: (Units=GPa)
#
#
# Indices 1 2 3 4 5 6 
#
# 1 143.2839 4.8073 18.4087 -13.5675 9.6434 -4.1137
# 2 4.8073 66.4893 6.5821 5.4026 5.6599 -9.5708
# 3 18.4087 6.5821 79.7525 -1.1601 -7.9858 1.3831
# 4 -13.5675 5.4026 -1.1601 15.3031 -0.6721 0.9851
# 5 9.6434 5.6599 -7.9858 -0.6721 50.8534 -3.7551
# 6 -4.1137 -9.5708 1.3831 0.9851 -3.7551 23.9726
#
#
#
# Elastic Compliance Matrix: (Units=1/GPa)
#
#
# Indices 1 2 3 4 5 6 
#
# 1 0.008046 -0.000749 -0.001862 0.007145 -0.001593 0.000646
# 2 -0.000749 0.016957 -0.001610 -0.007280 -0.001593 0.006784
# 3 -0.001862 -0.001610 0.013381 0.000129 0.002536 -0.001342
# 4 0.007145 -0.007280 0.000129 0.074571 0.000112 -0.004735
# 5 -0.001593 -0.001593 0.002536 0.000112 0.020705 0.002183
# 6 0.000646 0.006784 -0.001342 -0.004735 0.002183 0.045147
#
#
# Mechanical properties :
#
#
# Convention : Reuss Voigt Hill
#
# Bulk Modulus (GPa) = 33.39858 38.79132 36.09495
# Shear Modulus (GPa) = 25.35125 35.34097 30.34611
#
# Velocity S-wave (km/s) = 3.25198 3.83962 3.55795
# Velocity P-wave (km/s) = 5.29461 5.98656 5.65119
#
# Compressibility (1/GPa) = 0.02994140
#
# Stress axis : x y z
#
# Youngs Moduli (GPa) = 124.28792 58.97207 74.73541
#
# Poissons Ratio (x) = 0.04420 0.13916
# Poissons Ratio (y) = 0.09315 0.12029
# Poissons Ratio (z) = 0.23143 0.09492
#
# Static dielectric constant tensor:
#      x y z
#    x 4.626370 -0.044770 -0.252810 
#    y -0.044770 4.104500 0.015020 
#    z -0.252810 0.015020 4.745960 
# 
# 
# High freq. dielectric constant tensor:
#      x y z
#    x 1.968040 -0.003530 -0.002430 
#    y -0.003530 1.935430 0.003500 
#    z -0.002430 0.003500 1.973610 
# 
# From -- ./inp_files/271841.got.cif
#   From: 2010.06.25/outbox.cif.g09.slc.cpg/sg2_136_cif.got.tgz:271841.got - 2010.06.27 13:26:56.
