data_PCOD8036829
_publ_section_title
;
Structure prediction by ZEFSAII (Michael W. Deem and Ramdas Pophale) SiO2 
 PCOD8036829
Probable space group: P -1
;
_chemical_formula_sum "Si O2"
_cell_formula_units_Z 12
_cell_length_a 10.123772
_cell_length_b 9.307924
_cell_length_c 13.905915
_cell_angle_alpha 69.125465
_cell_angle_beta 61.008376
_cell_angle_gamma 28.600999
_cell_volume 541.131770
_symmetry_space_group_name_H-M "P -1"
_symmetry_group_IT_number 2
_symmetry_cell_setting 'triclinic'
loop_
_space_group_symop_operation_xyz
x,y,z
-x,-y,-z
loop_
_atom_site_type_symbol
_atom_site_label
_atom_site_fract_x
_atom_site_fract_y
_atom_site_fract_z
Si Si1 0.889386 0.758296 0.277732
Si Si2 0.367912 0.315050 0.703129
Si Si3 0.802329 0.313675 0.966456
Si Si4 0.252349 0.400462 0.411071
Si Si5 0.031897 0.793843 0.559292
Si Si6 0.310953 0.303952 0.946256
O O1 0.843720 0.637251 0.268754
O O2 0.972789 0.813620 0.159967
O O3 0.181987 0.509494 0.300966
O O4 0.595095 0.045275 0.377507
O O5 0.409352 0.277344 0.812570
O O6 0.201912 0.611603 0.645198
O O7 0.704779 0.003256 0.619516
O O8 0.500000 0.500000 0.000000
O O9 0.707592 0.526531 0.025008
O O10 0.000000 0.000000 0.000000
O O11 0.000000 0.500000 0.500000
O O12 0.235200 0.549656 0.460043
O O13 0.000000 0.000000 0.500000
O O14 0.000000 0.500000 0.000000
O O15 0.500000 0.000000 0.000000
#
# Coordination Sequence:
#
# PCOD8036829 Si02
#       6
#     2   2   2   2   2   2
#     4  12  24  43  75 101 135 186 240 281 353 430
#     4  12  24  45  74 100 138 189 240 285 350 435
#     4  12  28  48  71 109 149 182 237 314 366 416
#     4  12  23  42  71 102 134 182 235 286 343 424
#     4  12  27  44  67 105 146 179 232 298 355 414
#     4  12  26  46  78 106 140 193 249 294 360 442
#
# _framework density 22.175744000000002
#
# number of rings (size 3 to 8) (size 9 to 14) (size 15 to 20)
#    0.000    0.000    5.000    5.000    2.333    4.000 
#    0.000    0.000    0.000    0.000    0.000    0.000 
#    0.000    0.000    0.000    0.000    0.000    0.000 
#
# Total GULP energy -148681.281813 kJ/mol
# GULP energy per Si atom -12390.106818 kJ/mol
# Density = 2.212527 g / cm^3
# Si number density = 22.175744 Si / 1000 Ang^3
#
#
#
# Elastic Constant Matrix: (Units=GPa)
#
#
# Indices 1 2 3 4 5 6 
#
# 1 130.1600 48.5547 41.5137 -4.1701 6.3442 15.8988
# 2 48.5547 147.6464 39.0071 -22.0218 -0.5037 5.1108
# 3 41.5137 39.0071 122.6346 -18.0261 -0.9203 9.6188
# 4 -4.1701 -22.0218 -18.0261 52.4114 -8.7622 -4.8573
# 5 6.3442 -0.5037 -0.9203 -8.7622 35.6966 2.4641
# 6 15.8988 5.1108 9.6188 -4.8573 2.4641 48.7678
#
#
#
# Elastic Compliance Matrix: (Units=1/GPa)
#
#
# Indices 1 2 3 4 5 6 
#
# 1 0.009882 -0.002771 -0.002555 -0.001847 -0.002142 -0.002503
# 2 -0.002771 0.008493 -0.001330 0.003159 0.001317 0.000524
# 3 -0.002555 -0.001330 0.009929 0.002821 0.001437 -0.000778
# 4 -0.001847 0.003159 0.002821 0.022356 0.005819 0.001647
# 5 -0.002142 0.001317 0.001437 0.005819 0.029924 -0.000656
# 6 -0.002503 0.000524 -0.000778 0.001647 -0.000656 0.021617
#
#
# Mechanical properties :
#
#
# Convention : Reuss Voigt Hill
#
# Bulk Modulus (GPa) = 66.70388 73.17687 69.94037
# Shear Modulus (GPa) = 41.48972 45.46619 43.47796
#
# Velocity S-wave (km/s) = 4.33014 4.53290 4.43268
# Velocity P-wave (km/s) = 7.42598 7.77602 7.60301
#
# Compressibility (1/GPa) = 0.01499163
#
# Stress axis : x y z
#
# Youngs Moduli (GPa) = 101.18909 117.74063 100.71690
#
# Poissons Ratio (x) = 0.32626 0.25735
# Poissons Ratio (y) = 0.28039 0.13398
# Poissons Ratio (z) = 0.25856 0.15663
#
# Static dielectric constant tensor:
#      x y z
#    x 3.714260 0.118500 -0.130780 
#    y 0.118500 4.093050 0.004490 
#    z -0.130780 0.004490 4.150080 
# 
# 
# High freq. dielectric constant tensor:
#      x y z
#    x 1.871150 -0.008220 -0.002180 
#    y -0.008220 1.895920 -0.003070 
#    z -0.002180 -0.003070 1.889050 
# 
# From -- ./inp_files/47101.got.cif
#   From: 2010.06.25/outbox.cif.g09.slc.cpg/sg2_24_cif.got.tgz:47101.got - 2010.06.27 13:26:56.
