data_PCOD8036566
_publ_section_title
;
Structure prediction by ZEFSAII (Michael W. Deem and Ramdas Pophale) SiO2 
 PCOD8036566
Probable space group: P -1
;
_chemical_formula_sum "Si O2"
_cell_formula_units_Z 16
_cell_length_a 12.905300
_cell_length_b 8.350659
_cell_length_c 9.647938
_cell_angle_alpha 76.183152
_cell_angle_beta 68.055626
_cell_angle_gamma 114.215231
_cell_volume 779.358998
_symmetry_space_group_name_H-M "P -1"
_symmetry_group_IT_number 2
_symmetry_cell_setting 'triclinic'
loop_
_space_group_symop_operation_xyz
x,y,z
-x,-y,-z
loop_
_atom_site_type_symbol
_atom_site_label
_atom_site_fract_x
_atom_site_fract_y
_atom_site_fract_z
Si Si1 0.751205 0.637378 0.356996
Si Si2 0.598652 0.933765 0.718883
Si Si3 0.955540 0.096967 0.886573
Si Si4 0.316185 0.049046 0.618595
Si Si5 0.326714 0.203463 0.019408
Si Si6 0.136954 0.672751 0.953910
Si Si7 0.534303 0.242488 0.678786
Si Si8 0.673352 0.445195 0.130863
O O1 0.735177 0.820173 0.322272
O O2 0.651173 0.476304 0.555032
O O3 0.717780 0.536321 0.243901
O O4 0.908465 0.737690 0.296978
O O5 0.697708 0.969212 0.536511
O O6 0.638800 0.860830 0.845065
O O7 0.454402 0.775900 0.760763
O O8 0.603938 0.130785 0.718587
O O9 0.835379 0.923926 0.891765
O O10 0.886232 0.208835 0.945198
O O11 0.000000 0.000000 0.000000
O O12 0.467524 0.153142 0.580549
O O13 0.225372 0.822273 0.756607
O O14 0.416092 0.200174 0.851325
O O15 0.362697 0.425487 0.970737
O O16 0.210878 0.569934 0.996515
O O17 0.000000 0.500000 0.000000
#
# Coordination Sequence:
#
# PCOD8036566 Si02
#       8
#     2   2   2   2   2   2   2   2
#     4  12  23  38  71  96 125 167 222 266 317 373
#     4  12  26  40  64  99 133 163 215 271 325 376
#     4  12  21  43  67  96 126 171 215 261 317 385
#     4  12  22  41  66  97 128 168 216 269 314 379
#     4  12  25  44  66  93 133 175 210 261 329 389
#     4  12  22  35  68 102 125 160 223 270 312 368
#     4  12  22  43  67  94 126 171 219 265 314 379
#     4  12  21  39  64  98 127 166 212 271 315 380
#
# _framework density 20.529692000000001
#
# number of rings (size 3 to 8) (size 9 to 14) (size 15 to 20)
#    0.000    0.000    8.750    3.000    0.000    0.000 
#    0.000    1.250    2.750    0.000    0.000    0.000 
#    0.000    0.000    0.000    0.000    0.000    0.000 
#
# Total GULP energy -198317.764095 kJ/mol
# GULP energy per Si atom -12394.860256 kJ/mol
# Density = 2.048297 g / cm^3
# Si number density = 20.529692 Si / 1000 Ang^3
#
#
#
# Elastic Constant Matrix: (Units=GPa)
#
#
# Indices 1 2 3 4 5 6 
#
# 1 100.0928 35.5440 48.2480 1.3648 -9.4117 -18.6129
# 2 35.5440 73.2010 19.2872 -7.8007 -2.2247 -18.2019
# 3 48.2480 19.2872 94.9223 -9.0099 -5.4619 6.6586
# 4 1.3648 -7.8007 -9.0099 27.0605 6.2067 -8.2114
# 5 -9.4117 -2.2247 -5.4619 6.2067 28.8847 -12.0896
# 6 -18.6129 -18.2019 6.6586 -8.2114 -12.0896 45.1824
#
#
#
# Elastic Compliance Matrix: (Units=1/GPa)
#
#
# Indices 1 2 3 4 5 6 
#
# 1 0.018401 -0.004727 -0.008937 -0.004655 0.008462 0.008411
# 2 -0.004727 0.018968 -0.001214 0.007297 0.001279 0.007541
# 3 -0.008937 -0.001214 0.015985 0.004227 -0.003718 -0.006753
# 4 -0.004655 0.007297 0.004227 0.044287 -0.006910 0.006599
# 5 0.008462 0.001279 -0.003718 -0.006910 0.044635 0.015237
# 6 0.008411 0.007541 -0.006753 0.006599 0.015237 0.034907
#
#
# Mechanical properties :
#
#
# Convention : Reuss Voigt Hill
#
# Bulk Modulus (GPa) = 42.37871 52.70827 47.54349
# Shear Modulus (GPa) = 23.27671 31.23464 27.25567
#
# Velocity S-wave (km/s) = 3.37086 3.90479 3.64761
# Velocity P-wave (km/s) = 5.98646 6.78673 6.39912
#
# Compressibility (1/GPa) = 0.02359675
#
# Stress axis : x y z
#
# Youngs Moduli (GPa) = 54.34522 52.72028 62.55728
#
# Poissons Ratio (x) = 0.24923 0.55910
# Poissons Ratio (y) = 0.25691 0.07594
# Poissons Ratio (z) = 0.48570 0.06400
#
# Static dielectric constant tensor:
#      x y z
#    x 3.694480 -0.027070 -0.253860 
#    y -0.027070 3.687190 -0.326560 
#    z -0.253860 -0.326560 3.632560 
# 
# 
# High freq. dielectric constant tensor:
#      x y z
#    x 1.800590 -0.019290 -0.022230 
#    y -0.019290 1.817320 -0.021530 
#    z -0.022230 -0.021530 1.782620 
# 
# From -- ./inp_files/242943.got.cif
#   From: 2010.06.25/outbox.cif.g09.slc.cpg/sg2_122_cif.got.tgz:242943.got - 2010.06.27 13:26:56.
