data_PCOD8036040
_publ_section_title
;
Structure prediction by ZEFSAII (Michael W. Deem and Ramdas Pophale) SiO2 
 PCOD8036040
Probable space group: P -1
;
_chemical_formula_sum "Si O2"
_cell_formula_units_Z 14
_cell_length_a 5.178537
_cell_length_b 16.613283
_cell_length_c 8.823395
_cell_angle_alpha 113.837617
_cell_angle_beta 124.646467
_cell_angle_gamma 90.803201
_cell_volume 540.413828
_symmetry_space_group_name_H-M "P -1"
_symmetry_group_IT_number 2
_symmetry_cell_setting 'triclinic'
loop_
_space_group_symop_operation_xyz
x,y,z
-x,-y,-z
loop_
_atom_site_type_symbol
_atom_site_label
_atom_site_fract_x
_atom_site_fract_y
_atom_site_fract_z
Si Si1 0.673193 0.328661 0.469266
Si Si2 0.908987 0.091706 0.299608
Si Si3 0.144413 0.239813 0.698158
Si Si4 0.230468 0.129483 0.132296
Si Si5 0.696606 0.375926 0.175183
Si Si6 0.226786 0.487368 0.201978
Si Si7 0.871353 0.064504 0.668220
O O1 0.347804 0.238976 0.296975
O O2 0.800632 0.347719 0.351847
O O3 0.586338 0.415396 0.578004
O O4 0.967085 0.316223 0.663344
O O5 0.544167 0.098559 0.168692
O O6 0.188429 0.191259 0.517046
O O7 0.028448 0.068134 0.157474
O O8 0.905486 0.003936 0.339015
O O9 0.895399 0.144889 0.616087
O O10 0.468938 0.284160 0.940197
O O11 0.981720 0.119308 0.903254
O O12 0.503873 0.449804 0.193635
O O13 0.013621 0.417976 0.206201
O O14 0.000000 0.500000 0.000000
O O15 0.500000 0.000000 0.500000
#
# Coordination Sequence:
#
# PCOD8036040 Si02
#       7
#     2   2   2   2   2   2   2
#     4  11  25  50  74 110 153 193 250 299 378 440
#     4  11  26  46  76 105 153 196 257 305 380 443
#     4  11  26  47  75 112 149 197 250 311 368 444
#     4  11  26  48  76 111 148 205 246 315 374 453
#     4  12  27  50  74 111 151 197 243 305 376 439
#     4  12  27  47  82 109 151 193 247 305 368 447
#     4  12  25  49  75 112 153 197 257 317 375 445
#
# _framework density 25.906072000000002
#
# number of rings (size 3 to 8) (size 9 to 14) (size 15 to 20)
#    0.000    0.571    2.857    4.286    2.000    6.857 
#    0.000    0.000    0.000    0.000    0.000    0.000 
#    0.000    0.000    0.000    0.000    0.000    0.000 
#
# Total GULP energy -173604.260986 kJ/mol
# GULP energy per Si atom -12400.304356 kJ/mol
# Density = 2.584711 g / cm^3
# Si number density = 25.906072 Si / 1000 Ang^3
#
#
#
# Elastic Constant Matrix: (Units=GPa)
#
#
# Indices 1 2 3 4 5 6 
#
# 1 84.0670 26.8440 20.6683 5.4921 -4.8469 -0.7917
# 2 26.8440 116.9809 31.3775 -5.5359 4.5682 9.9121
# 3 20.6683 31.3775 133.3765 6.7209 8.3899 -2.7292
# 4 5.4921 -5.5359 6.7209 41.3765 7.8688 -10.7493
# 5 -4.8469 4.5682 8.3899 7.8688 30.3982 6.4827
# 6 -0.7917 9.9121 -2.7292 -10.7493 6.4827 26.0551
#
#
#
# Elastic Compliance Matrix: (Units=1/GPa)
#
#
# Indices 1 2 3 4 5 6 
#
# 1 0.013623 -0.002937 -0.001540 -0.002920 0.003970 -0.000822
# 2 -0.002937 0.010149 -0.002002 0.001427 -0.001108 -0.003296
# 3 -0.001540 -0.002002 0.008434 -0.000394 -0.002615 0.002087
# 4 -0.002920 0.001427 -0.000394 0.030959 -0.011791 0.015033
# 5 0.003970 -0.001108 -0.002615 -0.011791 0.040605 -0.014700
# 6 -0.000822 -0.003296 0.002087 0.015033 -0.014700 0.049687
#
#
# Mechanical properties :
#
#
# Convention : Reuss Voigt Hill
#
# Bulk Modulus (GPa) = 51.94874 54.68933 53.31904
# Shear Modulus (GPa) = 28.92983 36.60158 32.76570
#
# Velocity S-wave (km/s) = 3.34536 3.76288 3.56024
# Velocity P-wave (km/s) = 5.91762 6.32736 6.12591
#
# Compressibility (1/GPa) = 0.01924974
#
# Stress axis : x y z
#
# Youngs Moduli (GPa) = 73.40301 98.52773 118.56369
#
# Poissons Ratio (x) = 0.28935 0.18254
# Poissons Ratio (y) = 0.21557 0.23740
# Poissons Ratio (z) = 0.11301 0.19728
#
# Static dielectric constant tensor:
#      x y z
#    x 4.231620 0.062150 -0.330320 
#    y 0.062150 5.125090 -0.004150 
#    z -0.330320 -0.004150 5.226310 
# 
# 
# High freq. dielectric constant tensor:
#      x y z
#    x 2.009940 0.001600 -0.018310 
#    y 0.001600 2.055120 0.004650 
#    z -0.018310 0.004650 2.072900 
# 
# From -- ./inp_files/138016.got.cif
#   From: 2010.06.25/outbox.cif.g09.slc.cpg/sg2_70_cif.got.tgz:138016.got - 2010.06.27 13:26:56.
