data_PCOD8036332
_publ_section_title
;
Structure prediction by ZEFSAII (Michael W. Deem and Ramdas Pophale) SiO2 
 PCOD8036332
Probable space group: P -1
;
_chemical_formula_sum "Si O2"
_cell_formula_units_Z 16
_cell_length_a 6.667664
_cell_length_b 17.735189
_cell_length_c 17.598978
_cell_angle_alpha 31.067152
_cell_angle_beta 136.628210
_cell_angle_gamma 136.302299
_cell_volume 707.325175
_symmetry_space_group_name_H-M "P -1"
_symmetry_group_IT_number 2
_symmetry_cell_setting 'triclinic'
loop_
_space_group_symop_operation_xyz
x,y,z
-x,-y,-z
loop_
_atom_site_type_symbol
_atom_site_label
_atom_site_fract_x
_atom_site_fract_y
_atom_site_fract_z
Si Si1 0.578569 0.147776 0.703019
Si Si2 0.588423 0.848648 0.518703
Si Si3 0.497186 0.464747 0.442014
Si Si4 0.228155 0.807742 0.710357
Si Si5 0.324386 0.911993 0.955602
Si Si6 0.299515 0.303504 0.978705
Si Si7 0.810662 0.389097 0.277640
Si Si8 0.231322 0.267603 0.814782
O O1 0.489262 0.121833 0.614094
O O2 0.587054 0.311538 0.593337
O O3 0.919501 0.134902 0.824338
O O4 0.330182 0.026079 0.788949
O O5 0.309438 0.724928 0.586855
O O6 0.877249 0.780310 0.661674
O O7 0.645950 0.013518 0.431963
O O8 0.500000 0.500000 0.500000
O O9 0.753058 0.589169 0.358889
O O10 0.171573 0.453134 0.326323
O O11 0.278244 0.706536 0.741064
O O12 0.401118 0.752642 0.875334
O O13 0.478810 0.786618 0.078757
O O14 0.975958 0.829772 0.948198
O O15 0.500000 0.000000 0.000000
O O16 0.329749 0.467656 0.883776
O O17 0.247297 0.319924 0.861050
#
# Coordination Sequence:
#
# PCOD8036332 Si02
#       8
#     2   2   2   2   2   2   2   2
#     4  12  24  43  75 102 143 187 224 294 355 416
#     4  11  26  48  73 106 138 184 240 290 356 414
#     4  12  24  44  71 107 143 183 232 290 354 420
#     4  11  27  48  71 105 138 187 239 292 349 418
#     4  12  26  45  68 108 146 183 235 282 354 422
#     4  12  27  46  75 104 142 193 231 291 351 419
#     4  12  25  48  71 103 143 185 238 291 351 415
#     4  12  25  47  70 106 146 180 235 286 356 422
#
# _framework density 22.620429999999999
#
# number of rings (size 3 to 8) (size 9 to 14) (size 15 to 20)
#    0.000    0.250    3.750    5.250    3.500    3.500 
#    0.000    0.000    0.000    0.000    0.000    0.000 
#    0.000    0.000    0.000    0.000    0.000    0.000 
#
# Total GULP energy -198486.514631 kJ/mol
# GULP energy per Si atom -12405.407164 kJ/mol
# Density = 2.256895 g / cm^3
# Si number density = 22.620430 Si / 1000 Ang^3
#
#
#
# Elastic Constant Matrix: (Units=GPa)
#
#
# Indices 1 2 3 4 5 6 
#
# 1 100.5979 44.9032 40.6426 -2.1436 -16.4583 -4.8273
# 2 44.9032 106.3792 38.5402 2.0084 -3.7651 -12.1759
# 3 40.6426 38.5402 109.3326 0.9359 -9.9304 0.4766
# 4 -2.1436 2.0084 0.9359 45.6844 4.8663 3.6810
# 5 -16.4583 -3.7651 -9.9304 4.8663 51.2120 -2.4232
# 6 -4.8273 -12.1759 0.4766 3.6810 -2.4232 28.5159
#
#
#
# Elastic Compliance Matrix: (Units=1/GPa)
#
#
# Indices 1 2 3 4 5 6 
#
# 1 0.013874 -0.004474 -0.003271 0.000485 0.003484 0.000727
# 2 -0.004474 0.012916 -0.002969 -0.001032 -0.000735 0.004878
# 3 -0.003271 -0.002969 0.011500 -0.000199 0.000889 -0.001913
# 4 0.000485 -0.001032 -0.000199 0.022480 -0.002258 -0.003449
# 5 0.003484 -0.000735 0.000889 -0.002258 0.021090 0.002345
# 6 0.000727 0.004878 -0.001913 -0.003449 0.002345 0.037950
#
#
# Mechanical properties :
#
#
# Convention : Reuss Voigt Hill
#
# Bulk Modulus (GPa) = 59.30618 62.72018 61.01318
# Shear Modulus (GPa) = 34.04593 37.89738 35.97166
#
# Velocity S-wave (km/s) = 3.88377 4.09756 3.99209
# Velocity P-wave (km/s) = 6.81076 7.08336 6.94840
#
# Compressibility (1/GPa) = 0.01686165
#
# Stress axis : x y z
#
# Youngs Moduli (GPa) = 72.07494 77.42156 86.95741
#
# Poissons Ratio (x) = 0.34638 0.28447
# Poissons Ratio (y) = 0.32246 0.25819
# Poissons Ratio (z) = 0.23578 0.22987
#
# Static dielectric constant tensor:
#      x y z
#    x 4.057440 0.032370 0.158340 
#    y 0.032370 4.227500 -0.174670 
#    z 0.158340 -0.174670 4.073680 
# 
# 
# High freq. dielectric constant tensor:
#      x y z
#    x 1.900480 -0.002440 0.003560 
#    y -0.002440 1.899630 -0.007730 
#    z 0.003560 -0.007730 1.904610 
# 
# From -- ./inp_files/367990.got.cif
#   From: 2010.06.25/outbox.cif.g09.slc.cpg/sg2_184_cif.got.tgz:367990.got - 2010.06.27 13:26:56.
