data_PCOD8036688
_publ_section_title
;
Structure prediction by ZEFSAII (Michael W. Deem and Ramdas Pophale) SiO2 
 PCOD8036688
Probable space group: P -1
;
_chemical_formula_sum "Si O2"
_cell_formula_units_Z 16
_cell_length_a 9.269838
_cell_length_b 22.296865
_cell_length_c 12.557330
_cell_angle_alpha 29.267644
_cell_angle_beta 142.974893
_cell_angle_gamma 145.391424
_cell_volume 689.826740
_symmetry_space_group_name_H-M "P -1"
_symmetry_group_IT_number 2
_symmetry_cell_setting 'triclinic'
loop_
_space_group_symop_operation_xyz
x,y,z
-x,-y,-z
loop_
_atom_site_type_symbol
_atom_site_label
_atom_site_fract_x
_atom_site_fract_y
_atom_site_fract_z
Si Si1 0.509214 0.615051 0.403801
Si Si2 0.205037 0.769299 0.891582
Si Si3 0.514592 0.187261 0.540821
Si Si4 0.208206 0.985432 0.828546
Si Si5 0.697595 0.450598 0.382936
Si Si6 0.012211 0.833186 0.462323
Si Si7 0.195826 0.280153 0.081125
Si Si8 0.255781 0.967217 0.203982
O O1 0.500000 0.500000 0.500000
O O2 0.428230 0.559163 0.561287
O O3 0.804570 0.731707 0.411656
O O4 0.304208 0.657604 0.155926
O O5 0.092164 0.759252 0.719998
O O6 0.955336 0.738959 0.866610
O O7 0.458333 0.911152 0.838357
O O8 0.245631 0.060154 0.620781
O O9 0.591489 0.303803 0.494239
O O10 0.436058 0.238010 0.306586
O O11 0.753006 0.143522 0.719867
O O12 0.109767 0.063165 0.734859
O O13 0.008651 0.825624 0.959209
O O14 0.500000 0.000000 0.000000
O O15 0.000000 0.500000 0.500000
O O16 0.660964 0.564618 0.114226
O O17 0.268101 0.914571 0.412564
O O18 0.000000 0.000000 0.000000
#
# Coordination Sequence:
#
# PCOD8036688 Si02
#       8
#     2   2   2   2   2   2   2   2
#     4  12  28  49  72 104 152 197 242 301 372 442
#     4  12  24  48  74 107 147 191 245 308 365 436
#     4  12  25  45  75 104 145 194 249 301 366 431
#     4  12  22  42  74 102 140 192 238 301 365 428
#     4  12  26  45  72 108 143 193 250 298 360 443
#     4  12  26  46  72 107 148 188 247 305 369 441
#     4  12  24  45  76 109 145 188 250 310 359 428
#     4  12  26  45  74 111 150 191 244 306 372 442
#
# _framework density 23.194230000000001
#
# number of rings (size 3 to 8) (size 9 to 14) (size 15 to 20)
#    0.000    0.000    6.250    4.125    1.750    2.500 
#    0.000    0.000    0.000    0.000    0.000    0.000 
#    0.000    0.000    0.000    0.000    0.000    0.000 
#
# Total GULP energy -198259.820731 kJ/mol
# GULP energy per Si atom -12391.238796 kJ/mol
# Density = 2.314144 g / cm^3
# Si number density = 23.194230 Si / 1000 Ang^3
#
#
#
# Elastic Constant Matrix: (Units=GPa)
#
#
# Indices 1 2 3 4 5 6 
#
# 1 146.9748 41.6227 48.2507 -26.9763 -2.8919 -21.2411
# 2 41.6227 81.2415 33.6820 -3.7921 12.6072 -23.1177
# 3 48.2507 33.6820 119.0404 -11.6914 2.2872 -10.5390
# 4 -26.9763 -3.7921 -11.6914 36.1026 3.2751 -0.6478
# 5 -2.8919 12.6072 2.2872 3.2751 39.2673 -5.3206
# 6 -21.2411 -23.1177 -10.5390 -0.6478 -5.3206 38.2775
#
#
#
# Elastic Compliance Matrix: (Units=1/GPa)
#
#
# Indices 1 2 3 4 5 6 
#
# 1 0.010201 -0.003290 -0.002307 0.006421 0.001868 0.003406
# 2 -0.003290 0.018149 -0.003136 -0.000998 -0.004775 0.007591
# 3 -0.002307 -0.003136 0.010320 0.001275 0.000089 -0.000299
# 4 0.006421 -0.000998 0.001275 0.033010 -0.001539 0.003656
# 5 0.001868 -0.004775 0.000089 -0.001539 0.027528 0.001978
# 6 0.003406 0.007591 -0.000299 0.003656 0.001978 0.032855
#
#
# Mechanical properties :
#
#
# Convention : Reuss Voigt Hill
#
# Bulk Modulus (GPa) = 47.16304 66.04084 56.60194
# Shear Modulus (GPa) = 31.92890 37.64291 34.78590
#
# Velocity S-wave (km/s) = 3.71426 4.03295 3.87688
# Velocity P-wave (km/s) = 6.22675 7.08668 6.67059
#
# Compressibility (1/GPa) = 0.02120304
#
# Stress axis : x y z
#
# Youngs Moduli (GPa) = 98.03130 55.09822 96.89842
#
# Poissons Ratio (x) = 0.18130 0.22358
# Poissons Ratio (y) = 0.32257 0.30385
# Poissons Ratio (z) = 0.22619 0.17278
#
# Static dielectric constant tensor:
#      x y z
#    x 4.335520 0.034980 -0.053960 
#    y 0.034980 3.811410 0.145140 
#    z -0.053960 0.145140 4.561300 
# 
# 
# High freq. dielectric constant tensor:
#      x y z
#    x 1.923030 0.002170 -0.007310 
#    y 0.002170 1.909530 0.000410 
#    z -0.007310 0.000410 1.937660 
# 
# From -- ./inp_files/404641.got.cif
#   From: 2010.06.25/outbox.cif.g09.slc.cpg/sg2_203_cif.got.tgz:404641.got - 2010.06.27 13:26:56.
