data_PCOD8036823
_publ_section_title
;
Structure prediction by ZEFSAII (Michael W. Deem and Ramdas Pophale) SiO2 
 PCOD8036823
Probable space group: P -1
;
_chemical_formula_sum "Si O2"
_cell_formula_units_Z 14
_cell_length_a 29.490461
_cell_length_b 15.429196
_cell_length_c 15.429215
_cell_angle_alpha 160.711885
_cell_angle_beta 160.998963
_cell_angle_gamma 19.000989
_cell_volume 656.695568
_symmetry_space_group_name_H-M "P -1"
_symmetry_group_IT_number 2
_symmetry_cell_setting 'triclinic'
loop_
_space_group_symop_operation_xyz
x,y,z
-x,-y,-z
loop_
_atom_site_type_symbol
_atom_site_label
_atom_site_fract_x
_atom_site_fract_y
_atom_site_fract_z
Si Si1 0.093728 0.047861 0.452149
Si Si2 0.885614 0.722698 0.777316
Si Si3 0.555957 0.311722 0.188253
Si Si4 0.819654 0.683880 0.816116
Si Si5 0.900040 0.855693 0.644309
Si Si6 0.376387 0.654347 0.845656
Si Si7 0.630970 0.036482 0.463547
O O1 0.254060 0.870636 0.629381
O O2 0.138448 0.057272 0.442719
O O3 0.992893 0.378068 0.620262
O O4 0.992894 0.879748 0.121951
O O5 0.805383 0.749614 0.750381
O O6 0.744378 0.888964 0.611069
O O7 0.520546 0.396714 0.103282
O O8 0.480236 0.608943 0.390123
O O9 0.480247 0.109828 0.891022
O O10 0.734337 0.494147 0.507067
O O11 0.000000 0.500000 0.000000
O O12 0.734335 0.992929 0.005845
O O13 0.731911 0.987213 0.512790
O O14 0.000000 0.500000 0.500000
O O15 0.000000 0.000000 0.000000
O O16 0.500000 0.500000 0.000000
#
# Coordination Sequence:
#
# PCOD8036823 Si02
#       7
#     2   2   2   2   2   2   2
#     4  12  24  43  67  95 134 167 210 273 319 380
#     4  12  23  42  68  96 124 175 221 260 316 379
#     4  12  26  42  64  99 132 171 211 264 330 370
#     4  12  24  41  66  96 128 169 221 270 312 374
#     4  12  23  44  68  98 125 164 216 263 321 377
#     4  12  24  44  64  92 136 175 211 264 320 382
#     4  12  24  42  67  94 129 166 220 261 312 394
#
# _framework density 21.318859
#
# number of rings (size 3 to 8) (size 9 to 14) (size 15 to 20)
#    0.000    0.000    2.857    8.571    0.000    1.143 
#    0.000    0.000    0.000    0.000    0.000    0.000 
#    0.000    0.000    0.000    0.000    0.000    0.000 
#
# Total GULP energy -173736.784642 kJ/mol
# GULP energy per Si atom -12409.770332 kJ/mol
# Density = 2.127034 g / cm^3
# Si number density = 21.318859 Si / 1000 Ang^3
#
#
#
# Elastic Constant Matrix: (Units=GPa)
#
#
# Indices 1 2 3 4 5 6 
#
# 1 112.6754 -10.1693 10.5996 18.7730 11.4677 -19.4531
# 2 -10.1693 152.3102 0.3808 49.6724 8.9394 -3.8660
# 3 10.5996 0.3808 211.8453 4.1497 4.4653 -18.8504
# 4 18.7730 49.6724 4.1497 62.4031 7.6335 -6.6766
# 5 11.4677 8.9394 4.4653 7.6335 44.3135 2.1318
# 6 -19.4531 -3.8660 -18.8504 -6.6766 2.1318 41.9386
#
#
#
# Elastic Compliance Matrix: (Units=1/GPa)
#
#
# Indices 1 2 3 4 5 6 
#
# 1 0.010929 0.002444 0.000016 -0.004384 -0.002796 0.004746
# 2 0.002444 0.009435 0.000118 -0.008015 -0.001207 0.000842
# 3 0.000016 0.000118 0.004935 -0.000111 -0.000614 0.002250
# 4 -0.004384 -0.008015 -0.000111 0.024021 -0.001427 0.001074
# 5 -0.002796 -0.001207 -0.000614 -0.001427 0.023992 -0.003131
# 6 0.004746 0.000842 0.002250 0.001074 -0.003131 0.027465
#
#
# Mechanical properties :
#
#
# Convention : Reuss Voigt Hill
#
# Bulk Modulus (GPa) = 32.83637 53.16146 42.99892
# Shear Modulus (GPa) = 47.27219 61.46569 54.36894
#
# Velocity S-wave (km/s) = 4.71402 5.37533 5.05550
# Velocity P-wave (km/s) = 6.71307 7.96970 7.36822
#
# Compressibility (1/GPa) = 0.03045403
#
# Stress axis : x y z
#
# Youngs Moduli (GPa) = 91.50373 105.99225 202.64506
#
# Poissons Ratio (x) = -0.25905 -0.00322
# Poissons Ratio (y) = -0.22364 -0.02394
# Poissons Ratio (z) = -0.00145 -0.01252
#
# Static dielectric constant tensor:
#      x y z
#    x 4.361740 -0.198920 0.117100 
#    y -0.198920 3.975090 -0.027500 
#    z 0.117100 -0.027500 3.944800 
# 
# 
# High freq. dielectric constant tensor:
#      x y z
#    x 1.853580 -0.005170 0.003040 
#    y -0.005170 1.849980 0.007900 
#    z 0.003040 0.007900 1.858730 
# 
# From -- ./inp_files/38365.got.cif
#   From: 2010.06.25/outbox.cif.g09.slc.cpg/sg2_20_cif.got.tgz:38365.got - 2010.06.27 13:26:56.
