data_PCOD8036531
_publ_section_title
;
Structure prediction by ZEFSAII (Michael W. Deem and Ramdas Pophale) SiO2 
 PCOD8036531
Probable space group: P -1
;
_chemical_formula_sum "Si O2"
_cell_formula_units_Z 16
_cell_length_a 8.826996
_cell_length_b 13.837324
_cell_length_c 11.811916
_cell_angle_alpha 147.436487
_cell_angle_beta 107.934152
_cell_angle_gamma 69.028740
_cell_volume 725.033338
_symmetry_space_group_name_H-M "P -1"
_symmetry_group_IT_number 2
_symmetry_cell_setting 'triclinic'
loop_
_space_group_symop_operation_xyz
x,y,z
-x,-y,-z
loop_
_atom_site_type_symbol
_atom_site_label
_atom_site_fract_x
_atom_site_fract_y
_atom_site_fract_z
Si Si1 0.926177 0.388232 0.605995
Si Si2 0.439549 0.591090 0.193019
Si Si3 0.347048 0.914596 0.350311
Si Si4 0.417925 0.889117 0.093934
Si Si5 0.249564 0.320496 0.003899
Si Si6 0.722992 0.689913 0.503970
Si Si7 0.334346 0.594153 0.613185
Si Si8 0.058583 0.163959 0.614982
O O1 0.857915 0.602017 0.834412
O O2 0.798689 0.320634 0.426597
O O3 0.101618 0.355294 0.558026
O O4 0.923456 0.285932 0.625912
O O5 0.316430 0.775305 0.305322
O O6 0.351827 0.471302 0.135849
O O7 0.591945 0.643715 0.342017
O O8 0.500000 0.500000 0.000000
O O9 0.368861 0.821065 0.139154
O O10 0.500000 0.000000 0.500000
O O11 0.196797 0.081606 0.475055
O O12 0.333614 0.099373 0.261538
O O13 0.616290 0.858834 0.106707
O O14 0.355795 0.764055 0.863028
O O15 0.128640 0.284802 0.843039
O O16 0.734464 0.561639 0.489325
O O17 0.500000 0.500000 0.500000
O O18 0.000000 0.000000 0.500000
#
# Coordination Sequence:
#
# PCOD8036531 Si02
#       8
#     2   2   2   2   2   2   2   2
#     4  12  26  48  69 106 150 187 238 303 362 426
#     4  12  20  37  73 101 144 195 237 294 359 430
#     4  12  20  40  68 103 140 184 244 290 350 440
#     4  12  24  45  77 102 139 193 247 288 356 429
#     4  12  24  45  71 105 143 194 238 290 366 436
#     4  12  25  46  74 108 144 189 245 303 357 420
#     4  12  27  51  74 103 144 194 252 294 354 436
#     4  12  26  44  68 108 150 181 233 301 365 429
#
# _framework density 22.067951000000001
#
# number of rings (size 3 to 8) (size 9 to 14) (size 15 to 20)
#    0.000    0.000    7.500    2.250    0.000    4.000 
#    2.250    0.000    0.000    0.000    0.000    0.000 
#    0.000    0.000    0.000    0.000    0.000    0.000 
#
# Total GULP energy -198382.534872 kJ/mol
# GULP energy per Si atom -12398.908430 kJ/mol
# Density = 2.201772 g / cm^3
# Si number density = 22.067951 Si / 1000 Ang^3
#
#
#
# Elastic Constant Matrix: (Units=GPa)
#
#
# Indices 1 2 3 4 5 6 
#
# 1 101.1685 42.6398 66.3175 0.5812 -9.0167 -8.0240
# 2 42.6398 100.7203 55.4976 -14.7930 8.2401 -15.8495
# 3 66.3175 55.4976 167.2586 -21.2496 -7.2144 -12.0478
# 4 0.5812 -14.7930 -21.2496 44.7612 -7.6377 6.2324
# 5 -9.0167 8.2401 -7.2144 -7.6377 41.9750 0.6065
# 6 -8.0240 -15.8495 -12.0478 6.2324 0.6065 33.3750
#
#
#
# Elastic Compliance Matrix: (Units=1/GPa)
#
#
# Indices 1 2 3 4 5 6 
#
# 1 0.015248 -0.004443 -0.004884 -0.003591 0.002649 0.000415
# 2 -0.004443 0.014649 -0.002642 0.002339 -0.003925 0.004569
# 3 -0.004884 -0.002642 0.009381 0.003923 0.001793 0.000193
# 4 -0.003591 0.002339 0.003923 0.026210 0.004261 -0.003308
# 5 0.002649 -0.003925 0.001793 0.004261 0.026273 -0.001853
# 6 0.000415 0.004569 0.000193 -0.003308 -0.001853 0.032953
#
#
# Mechanical properties :
#
#
# Convention : Reuss Voigt Hill
#
# Bulk Modulus (GPa) = 65.18455 77.56192 71.37324
# Shear Modulus (GPa) = 32.51696 37.66843 35.09269
#
# Velocity S-wave (km/s) = 3.84277 4.13598 3.99207
# Velocity P-wave (km/s) = 7.02079 7.61785 7.32540
#
# Compressibility (1/GPa) = 0.01534106
#
# Stress axis : x y z
#
# Youngs Moduli (GPa) = 65.58222 68.26503 106.59506
#
# Poissons Ratio (x) = 0.30331 0.52056
# Poissons Ratio (y) = 0.29139 0.28162
# Poissons Ratio (z) = 0.32027 0.18035
#
# Static dielectric constant tensor:
#      x y z
#    x 4.395850 -0.291040 -0.087500 
#    y -0.291040 4.758790 0.096580 
#    z -0.087500 0.096580 3.981960 
# 
# 
# High freq. dielectric constant tensor:
#      x y z
#    x 1.871730 -0.013030 -0.018330 
#    y -0.013030 1.874350 -0.000090 
#    z -0.018330 -0.000090 1.877190 
# 
# From -- ./inp_files/400135.got.cif
#   From: 2010.06.25/outbox.cif.g09.slc.cpg/sg2_201_cif.got.tgz:400135.got - 2010.06.27 13:26:56.
