data_PCOD8036941
_publ_section_title
;
Structure prediction by ZEFSAII (Michael W. Deem and Ramdas Pophale) SiO2 
 PCOD8036941
Probable space group: P -1
;
_chemical_formula_sum "Si O2"
_cell_formula_units_Z 16
_cell_length_a 11.527892
_cell_length_b 11.454141
_cell_length_c 9.184566
_cell_angle_alpha 128.797901
_cell_angle_beta 58.883065
_cell_angle_gamma 126.722276
_cell_volume 737.723903
_symmetry_space_group_name_H-M "P -1"
_symmetry_group_IT_number 2
_symmetry_cell_setting 'triclinic'
loop_
_space_group_symop_operation_xyz
x,y,z
-x,-y,-z
loop_
_atom_site_type_symbol
_atom_site_label
_atom_site_fract_x
_atom_site_fract_y
_atom_site_fract_z
Si Si1 0.528447 0.385119 0.271214
Si Si2 0.358242 0.045532 0.233614
Si Si3 0.608317 0.657785 0.968599
Si Si4 0.129347 0.146521 0.602125
Si Si5 0.792933 0.201548 0.124828
Si Si6 0.077612 0.160224 0.976295
Si Si7 0.460840 0.032361 0.710355
Si Si8 0.145267 0.487668 0.828224
O O1 0.500000 0.500000 0.500000
O O2 0.500499 0.197110 0.190704
O O3 0.409785 0.373762 0.216083
O O4 0.695514 0.462518 0.151213
O O5 0.280816 0.148758 0.444659
O O6 0.410175 0.946790 0.240500
O O7 0.257969 0.918244 0.077547
O O8 0.500000 0.500000 0.000000
O O9 0.780739 0.705222 0.929027
O O10 0.564660 0.804582 0.154666
O O11 0.131175 0.124040 0.756773
O O12 0.098429 0.298205 0.676850
O O13 0.000000 0.000000 0.500000
O O14 0.799389 0.384083 0.241258
O O15 0.689984 0.120398 0.265316
O O16 0.961633 0.238632 0.082849
O O17 0.000000 0.000000 0.000000
O O18 0.500000 0.000000 0.500000
O O19 0.000000 0.500000 0.000000
#
# Coordination Sequence:
#
# PCOD8036941 Si02
#       8
#     2   2   2   2   2   2   2   2
#     4  12  25  44  78 106 142 187 253 304 361 443
#     4  12  23  45  73 106 137 188 251 301 365 436
#     4  12  28  46  72 104 149 197 239 301 380 435
#     4  12  25  44  72 105 141 189 242 304 364 445
#     4  12  24  46  73 103 143 194 242 309 363 439
#     4  12  24  45  72 101 147 190 243 289 376 437
#     4  12  26  45  71 105 148 190 242 306 372 442
#     4  12  24  42  72 108 142 180 244 308 366 424
#
# _framework density 21.688329
#
# number of rings (size 3 to 8) (size 9 to 14) (size 15 to 20)
#    0.000    0.000    7.500    2.625    1.750    0.000 
#    0.000    0.000    2.750    2.250    0.000    0.000 
#    0.000    0.000    0.000    0.000    0.000    0.000 
#
# Total GULP energy -198300.156510 kJ/mol
# GULP energy per Si atom -12393.759782 kJ/mol
# Density = 2.163897 g / cm^3
# Si number density = 21.688329 Si / 1000 Ang^3
#
#
#
# Elastic Constant Matrix: (Units=GPa)
#
#
# Indices 1 2 3 4 5 6 
#
# 1 146.4573 53.9194 58.1173 4.4050 4.8467 19.7791
# 2 53.9194 173.1271 51.9240 9.5182 2.8156 -5.7587
# 3 58.1173 51.9240 119.7598 -13.8857 4.2560 0.5349
# 4 4.4050 9.5182 -13.8857 37.8873 -1.6925 -6.3124
# 5 4.8467 2.8156 4.2560 -1.6925 46.0520 -0.2520
# 6 19.7791 -5.7587 0.5349 -6.3124 -0.2520 48.5841
#
#
#
# Elastic Compliance Matrix: (Units=1/GPa)
#
#
# Indices 1 2 3 4 5 6 
#
# 1 0.009956 -0.001756 -0.004388 -0.003125 -0.000675 -0.004623
# 2 -0.001756 0.007269 -0.002575 -0.002354 -0.000101 0.001298
# 3 -0.004388 -0.002575 0.012293 0.006004 -0.000285 0.002124
# 4 -0.003125 -0.002354 0.006004 0.030410 0.001062 0.004884
# 5 -0.000675 -0.000101 -0.000285 0.001062 0.021860 0.000517
# 6 -0.004623 0.001298 0.002124 0.004884 0.000517 0.023233
#
#
# Mechanical properties :
#
#
# Convention : Reuss Voigt Hill
#
# Bulk Modulus (GPa) = 82.77551 85.25176 84.01364
# Shear Modulus (GPa) = 39.53028 44.86358 42.19693
#
# Velocity S-wave (km/s) = 4.27388 4.55308 4.41569
# Velocity P-wave (km/s) = 7.91224 8.18741 8.05100
#
# Compressibility (1/GPa) = 0.01208087
#
# Stress axis : x y z
#
# Youngs Moduli (GPa) = 100.43995 137.56230 81.34962
#
# Poissons Ratio (x) = 0.24152 0.35697
# Poissons Ratio (y) = 0.17634 0.20947
# Poissons Ratio (z) = 0.44074 0.35421
#
# Static dielectric constant tensor:
#      x y z
#    x 4.614370 0.145070 -0.384320 
#    y 0.145070 4.122630 0.082190 
#    z -0.384320 0.082190 3.730050 
# 
# 
# High freq. dielectric constant tensor:
#      x y z
#    x 1.870880 0.002310 -0.015570 
#    y 0.002310 1.875170 -0.001920 
#    z -0.015570 -0.001920 1.834140 
# 
# From -- ./inp_files/263381.got.cif
#   From: 2010.06.25/outbox.cif.g09.slc.cpg/sg2_132_cif.got.tgz:263381.got - 2010.06.27 13:26:56.
