data_PCOD8036522
_publ_section_title
;
Structure prediction by ZEFSAII (Michael W. Deem and Ramdas Pophale) SiO2 
 PCOD8036522
Probable space group: P -1
;
_chemical_formula_sum "Si O2"
_cell_formula_units_Z 16
_cell_length_a 14.748495
_cell_length_b 12.468944
_cell_length_c 14.526807
_cell_angle_alpha 150.924651
_cell_angle_beta 39.546793
_cell_angle_gamma 138.897631
_cell_volume 798.761259
_symmetry_space_group_name_H-M "P -1"
_symmetry_group_IT_number 2
_symmetry_cell_setting 'triclinic'
loop_
_space_group_symop_operation_xyz
x,y,z
-x,-y,-z
loop_
_atom_site_type_symbol
_atom_site_label
_atom_site_fract_x
_atom_site_fract_y
_atom_site_fract_z
Si Si1 0.069880 0.685464 0.461536
Si Si2 0.337403 0.390877 0.585426
Si Si3 0.673712 0.029821 0.158655
Si Si4 0.335141 0.913062 0.312419
Si Si5 0.198880 0.459292 0.559562
Si Si6 0.329335 0.736678 0.001554
Si Si7 0.329455 0.074815 0.116696
Si Si8 0.915998 0.802907 0.848841
O O1 0.223317 0.863951 0.448272
O O2 0.104936 0.450148 0.286466
O O3 0.969869 0.635109 0.410230
O O4 0.999897 0.809083 0.689700
O O5 0.500000 0.500000 0.500000
O O6 0.218679 0.422938 0.626084
O O7 0.303717 0.499675 0.789546
O O8 0.325354 0.131090 0.423800
O O9 0.498657 0.939400 0.245123
O O10 0.738099 0.285291 0.338726
O O11 0.718064 0.065208 0.043950
O O12 0.753995 0.846580 0.999362
O O13 0.284231 0.705129 0.121147
O O14 0.289572 0.313820 0.323895
O O15 0.497692 0.872657 0.972106
O O16 0.250553 0.906833 0.135048
O O17 0.000000 0.000000 0.000000
#
# Coordination Sequence:
#
# PCOD8036522 Si02
#       8
#     2   2   2   2   2   2   2   2
#     4  11  27  44  63  93 125 157 206 268 321 359
#     4  12  19  34  61  95 132 171 209 241 293 372
#     4  11  21  38  69  92 115 168 214 247 305 370
#     4  11  24  40  60  97 133 158 203 264 301 356
#     4  12  20  36  63  91 124 167 207 243 301 374
#     4  10  18  32  55  88 129 166 199 244 293 350
#     4  10  17  31  57  90 121 161 210 242 280 364
#     4  11  24  47  72  86 115 164 212 257 321 386
#
# _framework density 20.031016000000001
#
# number of rings (size 3 to 8) (size 9 to 14) (size 15 to 20)
#    0.000    1.000    7.500    0.750    0.000    2.000 
#    0.000    1.250    0.000    0.000    0.000    0.000 
#    0.000    0.000    0.000    0.000    0.000    0.000 
#
# Total GULP energy -198255.077862 kJ/mol
# GULP energy per Si atom -12390.942366 kJ/mol
# Density = 1.998542 g / cm^3
# Si number density = 20.031016 Si / 1000 Ang^3
#
#
#
# Elastic Constant Matrix: (Units=GPa)
#
#
# Indices 1 2 3 4 5 6 
#
# 1 114.2638 36.2657 40.0068 -4.5447 -10.8203 9.8691
# 2 36.2657 100.5189 38.3018 -15.8859 -13.7562 11.4786
# 3 40.0068 38.3018 117.3610 6.3696 -4.0039 4.3345
# 4 -4.5447 -15.8859 6.3696 24.9273 2.2003 -4.8381
# 5 -10.8203 -13.7562 -4.0039 2.2003 46.9211 -1.9490
# 6 9.8691 11.4786 4.3345 -4.8381 -1.9490 25.3168
#
#
#
# Elastic Compliance Matrix: (Units=1/GPa)
#
#
# Indices 1 2 3 4 5 6 
#
# 1 0.010842 -0.002229 -0.002863 0.000676 0.001467 -0.002483
# 2 -0.002229 0.014560 -0.004278 0.009126 0.002835 -0.003038
# 3 -0.002863 -0.004278 0.011202 -0.006065 -0.000677 -0.000073
# 4 0.000676 0.009126 -0.006065 0.048741 0.000276 0.005973
# 5 0.001467 0.002835 -0.000677 0.000276 0.022413 0.000037
# 6 -0.002483 -0.003038 -0.000073 0.005973 0.000037 0.043002
#
#
# Mechanical properties :
#
#
# Convention : Reuss Voigt Hill
#
# Bulk Modulus (GPa) = 55.98412 62.36580 59.17496
# Shear Modulus (GPa) = 28.49739 33.93766 31.21753
#
# Velocity S-wave (km/s) = 3.77591 4.12060 3.95202
# Velocity P-wave (km/s) = 6.85707 7.33766 7.10143
#
# Compressibility (1/GPa) = 0.01786221
#
# Stress axis : x y z
#
# Youngs Moduli (GPa) = 92.23311 68.68124 89.27163
#
# Poissons Ratio (x) = 0.15312 0.25561
# Poissons Ratio (y) = 0.20562 0.38192
# Poissons Ratio (z) = 0.26409 0.29383
#
# Static dielectric constant tensor:
#      x y z
#    x 4.051050 -0.153900 0.096970 
#    y -0.153900 3.331870 -0.032670 
#    z 0.096970 -0.032670 3.926330 
# 
# 
# High freq. dielectric constant tensor:
#      x y z
#    x 1.791740 -0.002150 0.002050 
#    y -0.002150 1.732040 0.012790 
#    z 0.002050 0.012790 1.801020 
# 
# From -- ./inp_files/312660.got.cif
#   From: 2010.06.25/outbox.cif.g09.slc.cpg/sg2_157_cif.got.tgz:312660.got - 2010.06.27 13:26:56.
