data_PCOD8036549
_publ_section_title
;
Structure prediction by ZEFSAII (Michael W. Deem and Ramdas Pophale) SiO2 
 PCOD8036549
Probable space group: P -1
;
_chemical_formula_sum "Si O2"
_cell_formula_units_Z 16
_cell_length_a 10.157824
_cell_length_b 18.047809
_cell_length_c 13.032933
_cell_angle_alpha 34.999583
_cell_angle_beta 35.826594
_cell_angle_gamma 36.024926
_cell_volume 723.944193
_symmetry_space_group_name_H-M "P -1"
_symmetry_group_IT_number 2
_symmetry_cell_setting 'triclinic'
loop_
_space_group_symop_operation_xyz
x,y,z
-x,-y,-z
loop_
_atom_site_type_symbol
_atom_site_label
_atom_site_fract_x
_atom_site_fract_y
_atom_site_fract_z
Si Si1 0.078683 0.974148 0.596675
Si Si2 0.064956 0.683318 0.439828
Si Si3 0.581275 0.945709 0.397854
Si Si4 0.789710 0.282925 0.476694
Si Si5 0.935976 0.641454 0.943816
Si Si6 0.776370 0.623653 0.285072
Si Si7 0.251920 0.087681 0.994234
Si Si8 0.377766 0.857073 0.006567
O O1 0.368848 0.933262 0.475179
O O2 0.000000 0.000000 0.500000
O O3 0.905680 0.114087 0.612498
O O4 0.990612 0.863128 0.832357
O O5 0.081212 0.663032 0.576849
O O6 0.120563 0.523139 0.546678
O O7 0.798680 0.787036 0.446247
O O8 0.261492 0.742832 0.210623
O O9 0.500000 0.000000 0.500000
O O10 0.663772 0.064021 0.166237
O O11 0.498129 0.350266 0.608461
O O12 0.855851 0.310371 0.286935
O O13 0.670161 0.771126 0.940104
O O14 0.950441 0.609730 0.091565
O O15 0.000000 0.500000 0.000000
O O16 0.756362 0.759792 0.211282
O O17 0.241954 0.991863 0.014977
O O18 0.500000 0.000000 0.000000
#
# Coordination Sequence:
#
# PCOD8036549 Si02
#       8
#     2   2   2   2   2   2   2   2
#     4  12  23  40  70 101 136 176 237 291 343 408
#     4  12  23  44  64  99 138 185 222 292 347 411
#     4  12  25  44  69 103 139 179 238 293 344 422
#     4  12  21  39  67  98 139 177 232 287 343 402
#     4  12  21  34  63 102 139 177 226 293 353 398
#     4  12  25  41  66 103 147 178 233 290 352 412
#     4  12  21  41  67  99 135 183 231 287 346 416
#     4  12  23  42  69  99 136 185 239 282 349 419
#
# _framework density 22.101153
#
# number of rings (size 3 to 8) (size 9 to 14) (size 15 to 20)
#    0.000    0.000    8.750    3.000    0.000    0.000 
#    0.000    1.250    0.000    0.000    0.000    0.000 
#    0.000    0.000    0.000    0.000    0.000    0.000 
#
# Total GULP energy -198294.149757 kJ/mol
# GULP energy per Si atom -12393.384360 kJ/mol
# Density = 2.205085 g / cm^3
# Si number density = 22.101153 Si / 1000 Ang^3
#
#
#
# Elastic Constant Matrix: (Units=GPa)
#
#
# Indices 1 2 3 4 5 6 
#
# 1 63.8953 18.4115 36.1538 0.5907 0.8684 -5.2009
# 2 18.4115 105.6315 48.2791 -28.2157 -2.5376 -2.5014
# 3 36.1538 48.2791 161.8410 -11.3141 5.9363 4.2499
# 4 0.5907 -28.2157 -11.3141 49.1825 4.3680 -0.3506
# 5 0.8684 -2.5376 5.9363 4.3680 29.5929 2.2496
# 6 -5.2009 -2.5014 4.2499 -0.3506 2.2496 31.5526
#
#
#
# Elastic Compliance Matrix: (Units=1/GPa)
#
#
# Indices 1 2 3 4 5 6 
#
# 1 0.018694 -0.002031 -0.003822 -0.002255 0.000118 0.003402
# 2 -0.002031 0.013053 -0.003023 0.006763 0.000701 0.001132
# 3 -0.003822 -0.003023 0.008065 0.000302 -0.001670 -0.001833
# 4 -0.002255 0.006763 0.000302 0.024588 -0.003091 0.000617
# 5 0.000118 0.000701 -0.001670 -0.003091 0.034808 -0.002216
# 6 0.003402 0.001132 -0.001833 0.000617 -0.002216 0.032755
#
#
# Mechanical properties :
#
#
# Convention : Reuss Voigt Hill
#
# Bulk Modulus (GPa) = 45.32764 59.67294 52.50029
# Shear Modulus (GPa) = 31.83354 37.30050 34.56702
#
# Velocity S-wave (km/s) = 3.79932 4.11264 3.95908
# Velocity P-wave (km/s) = 6.30874 7.04346 6.68620
#
# Compressibility (1/GPa) = 0.02206159
#
# Stress axis : x y z
#
# Youngs Moduli (GPa) = 53.49233 76.61365 123.99420
#
# Poissons Ratio (x) = 0.15557 0.47387
# Poissons Ratio (y) = 0.10862 0.37480
# Poissons Ratio (z) = 0.20443 0.23158
#
# Static dielectric constant tensor:
#      x y z
#    x 3.739710 0.235560 -0.222710 
#    y 0.235560 4.307670 -0.088260 
#    z -0.222710 -0.088260 4.702000 
# 
# 
# High freq. dielectric constant tensor:
#      x y z
#    x 1.824290 0.011990 0.001390 
#    y 0.011990 1.873580 -0.003960 
#    z 0.001390 -0.003960 1.896650 
# 
# From -- ./inp_files/524034.got.cif
#   From: 2010.06.25/outbox.cif.g09.slc.cpg/sg2_263_cif.got.tgz:524034.got - 2010.06.27 13:26:56.
