data_PCOD8036124
_publ_section_title
;
Structure prediction by ZEFSAII (Michael W. Deem and Ramdas Pophale) SiO2 
 PCOD8036124
Probable space group: P -1
;
_chemical_formula_sum "Si O2"
_cell_formula_units_Z 16
_cell_length_a 9.902515
_cell_length_b 11.910246
_cell_length_c 17.595367
_cell_angle_alpha 151.741875
_cell_angle_beta 46.375799
_cell_angle_gamma 130.323946
_cell_volume 706.497521
_symmetry_space_group_name_H-M "P -1"
_symmetry_group_IT_number 2
_symmetry_cell_setting 'triclinic'
loop_
_space_group_symop_operation_xyz
x,y,z
-x,-y,-z
loop_
_atom_site_type_symbol
_atom_site_label
_atom_site_fract_x
_atom_site_fract_y
_atom_site_fract_z
Si Si1 0.268192 0.251078 0.404139
Si Si2 0.130489 0.594836 0.378004
Si Si3 0.913463 0.379452 0.081068
Si Si4 0.004116 0.924339 0.865215
Si Si5 0.485586 0.582797 0.140913
Si Si6 0.322964 0.897707 0.618841
Si Si7 0.432959 0.428097 0.598135
Si Si8 0.768944 0.302481 0.924234
O O1 0.399163 0.293498 0.451775
O O2 0.397812 0.354962 0.345010
O O3 0.074659 0.369933 0.552993
O O4 0.214626 0.972438 0.254097
O O5 0.128280 0.322222 0.245255
O O6 0.273356 0.622215 0.267912
O O7 0.192409 0.783403 0.532936
O O8 0.764952 0.488032 0.255718
O O9 0.108394 0.553136 0.104113
O O10 0.834000 0.370864 0.023079
O O11 0.940654 0.122923 0.951841
O O12 0.213106 0.878156 0.730471
O O13 0.000000 0.000000 0.000000
O O14 0.615773 0.825742 0.256962
O O15 0.500000 0.500000 0.000000
O O16 0.557732 0.372501 0.038546
O O17 0.505041 0.756476 0.473065
#
# Coordination Sequence:
#
# PCOD8036124 Si02
#       8
#     2   2   2   2   2   2   2   2
#     4  11  26  45  70 103 145 186 237 294 358 429
#     4  12  27  45  77 105 142 194 243 300 363 421
#     4  11  26  45  74 102 145 188 233 295 361 426
#     4  12  25  46  75 105 144 190 245 298 356 425
#     4  12  27  47  74 108 145 191 244 298 359 434
#     4  12  25  48  72 107 146 187 245 301 353 437
#     4  11  26  45  70 104 143 187 238 295 358 423
#     4  11  26  47  70 106 145 187 234 291 363 432
#
# _framework density 22.646930999999999
#
# number of rings (size 3 to 8) (size 9 to 14) (size 15 to 20)
#    0.000    0.500    2.500    4.500   10.500    1.000 
#    0.000    0.000    0.000    0.000    0.000    0.000 
#    0.000    0.000    0.000    0.000    0.000    0.000 
#
# Total GULP energy -198416.972745 kJ/mol
# GULP energy per Si atom -12401.060797 kJ/mol
# Density = 2.259539 g / cm^3
# Si number density = 22.646931 Si / 1000 Ang^3
#
#
#
# Elastic Constant Matrix: (Units=GPa)
#
#
# Indices 1 2 3 4 5 6 
#
# 1 141.9402 113.6584 86.1611 40.9611 -3.8388 3.4727
# 2 113.6584 297.4239 178.6127 72.9217 15.3901 16.1866
# 3 86.1611 178.6127 196.5097 60.5078 4.7224 10.0658
# 4 40.9611 72.9217 60.5078 65.6581 7.2583 3.0282
# 5 -3.8388 15.3901 4.7224 7.2583 30.2216 1.9338
# 6 3.4727 16.1866 10.0658 3.0282 1.9338 32.2111
#
#
#
# Elastic Compliance Matrix: (Units=1/GPa)
#
#
# Indices 1 2 3 4 5 6 
#
# 1 0.011194 -0.002908 -0.001536 -0.002790 0.003764 0.000771
# 2 -0.002908 0.008807 -0.005921 -0.002058 -0.003315 -0.001869
# 3 -0.001536 -0.005921 0.012370 -0.004054 0.001890 -0.000457
# 4 -0.002790 -0.002058 -0.004054 0.023442 -0.004345 0.000659
# 5 0.003764 -0.003315 0.001890 -0.004345 0.036073 -0.001088
# 6 0.000771 -0.001869 -0.000457 0.000659 -0.001088 0.032048
#
#
# Mechanical properties :
#
#
# Convention : Reuss Voigt Hill
#
# Bulk Modulus (GPa) = 85.89706 154.74868 120.32287
# Shear Modulus (GPa) = 33.66015 42.78093 38.22054
#
# Velocity S-wave (km/s) = 3.85944 4.35102 4.11258
# Velocity P-wave (km/s) = 7.60733 9.68097 8.70611
#
# Compressibility (1/GPa) = 0.01164184
#
# Stress axis : x y z
#
# Youngs Moduli (GPa) = 89.33167 113.54679 80.84282
#
# Poissons Ratio (x) = 0.33022 0.12415
# Poissons Ratio (y) = 0.25980 0.47864
# Poissons Ratio (z) = 0.13719 0.67227
#
# Static dielectric constant tensor:
#      x y z
#    x 3.983590 0.102000 -0.166480 
#    y 0.102000 4.458590 -0.024420 
#    z -0.166480 -0.024420 3.985660 
# 
# 
# High freq. dielectric constant tensor:
#      x y z
#    x 1.896410 0.002430 -0.007580 
#    y 0.002430 1.902570 0.002460 
#    z -0.007580 0.002460 1.904950 
# 
# From -- ./inp_files/393224.got.cif
#   From: 2010.06.25/outbox.cif.g09.slc.cpg/sg2_197_cif.got.tgz:393224.got - 2010.06.27 13:26:56.
