data_PCOD8036683
_publ_section_title
;
Structure prediction by ZEFSAII (Michael W. Deem and Ramdas Pophale) SiO2 
 PCOD8036683
Probable space group: P -1
;
_chemical_formula_sum "Si O2"
_cell_formula_units_Z 16
_cell_length_a 18.171233
_cell_length_b 11.298565
_cell_length_c 8.909293
_cell_angle_alpha 78.585035
_cell_angle_beta 47.442684
_cell_angle_gamma 42.280090
_cell_volume 717.998309
_symmetry_space_group_name_H-M "P -1"
_symmetry_group_IT_number 2
_symmetry_cell_setting 'triclinic'
loop_
_space_group_symop_operation_xyz
x,y,z
-x,-y,-z
loop_
_atom_site_type_symbol
_atom_site_label
_atom_site_fract_x
_atom_site_fract_y
_atom_site_fract_z
Si Si1 0.258233 0.916825 0.795894
Si Si2 0.676269 0.289073 0.961185
Si Si3 0.849772 0.378964 0.251043
Si Si4 0.195651 0.588224 0.344543
Si Si5 0.516248 0.112808 0.875839
Si Si6 0.819968 0.966451 0.618429
Si Si7 0.708191 0.264395 0.487226
Si Si8 0.538528 0.832799 0.416855
O O1 0.352238 0.756983 0.563735
O O2 0.397597 0.878421 0.669672
O O3 0.230970 0.840031 0.976328
O O4 0.063269 0.177132 0.965778
O O5 0.790256 0.281433 0.727952
O O6 0.686957 0.156240 0.882217
O O7 0.463856 0.539712 0.213269
O O8 0.810442 0.440961 0.465279
O O9 0.790271 0.305098 0.303171
O O10 0.743074 0.584208 0.244661
O O11 0.365253 0.354870 0.088905
O O12 0.010049 0.727882 0.487057
O O13 0.717537 0.960504 0.676855
O O14 0.487412 0.131893 0.733754
O O15 0.500000 0.000000 0.000000
O O16 0.859733 0.034069 0.427863
O O17 0.500000 0.000000 0.500000
#
# Coordination Sequence:
#
# PCOD8036683 Si02
#       8
#     2   2   2   2   2   2   2   2
#     4  12  26  44  69 106 145 183 227 280 348 411
#     4  12  22  42  73 107 144 185 221 280 348 410
#     4  12  26  44  72 104 144 185 223 281 346 411
#     4  12  25  44  72 107 141 183 228 279 344 409
#     4  12  29  49  74 100 131 183 238 289 341 402
#     4  12  24  44  71 105 145 177 229 282 340 414
#     4  12  23  41  70 107 145 181 223 281 346 416
#     4  12  29  50  72  98 136 183 236 287 343 406
#
# _framework density 22.284175000000001
#
# number of rings (size 3 to 8) (size 9 to 14) (size 15 to 20)
#    0.000    0.000    6.250    3.750    5.250    1.000 
#    0.000    0.000    0.000    0.000    0.000    0.000 
#    0.000    0.000    0.000    0.000    0.000    0.000 
#
# Total GULP energy -198465.627363 kJ/mol
# GULP energy per Si atom -12404.101710 kJ/mol
# Density = 2.223346 g / cm^3
# Si number density = 22.284175 Si / 1000 Ang^3
#
#
#
# Elastic Constant Matrix: (Units=GPa)
#
#
# Indices 1 2 3 4 5 6 
#
# 1 80.8521 22.0654 0.4304 3.7612 -6.3025 -13.2554
# 2 22.0654 108.6253 4.7344 -3.3130 -20.0169 -16.2715
# 3 0.4304 4.7344 49.3610 5.8307 -9.4972 -7.0007
# 4 3.7612 -3.3130 5.8307 34.7051 -13.7299 0.5178
# 5 -6.3025 -20.0169 -9.4972 -13.7299 32.0730 0.8038
# 6 -13.2554 -16.2715 -7.0007 0.5178 0.8038 39.2898
#
#
#
# Elastic Compliance Matrix: (Units=1/GPa)
#
#
# Indices 1 2 3 4 5 6 
#
# 1 0.013730 -0.002125 0.001000 -0.001561 0.000901 0.003932
# 2 -0.002125 0.012099 0.000663 0.004900 0.009323 0.004156
# 3 0.001000 0.000663 0.022226 -0.001258 0.006541 0.004455
# 4 -0.001561 0.004900 -0.001258 0.036831 0.018135 0.000422
# 5 0.000901 0.009323 0.006541 0.018135 0.046771 0.004135
# 6 0.003932 0.004156 0.004455 0.000422 0.004135 0.029203
#
#
# Mechanical properties :
#
#
# Convention : Reuss Voigt Hill
#
# Bulk Modulus (GPa) = 21.21856 32.58876 26.90366
# Shear Modulus (GPa) = 28.16965 35.32081 31.74523
#
# Velocity S-wave (km/s) = 3.55929 3.98555 3.77843
# Velocity P-wave (km/s) = 5.14139 5.98627 5.57984
#
# Compressibility (1/GPa) = 0.04712856
#
# Stress axis : x y z
#
# Youngs Moduli (GPa) = 72.83058 82.65239 44.99330
#
# Poissons Ratio (x) = 0.17566 -0.04497
# Poissons Ratio (y) = 0.15478 -0.02981
# Poissons Ratio (z) = -0.07280 -0.05476
#
# Static dielectric constant tensor:
#      x y z
#    x 4.170380 -0.198960 0.070640 
#    y -0.198960 4.192850 -0.001250 
#    z 0.070640 -0.001250 3.975070 
# 
# 
# High freq. dielectric constant tensor:
#      x y z
#    x 1.884230 -0.019170 0.008250 
#    y -0.019170 1.882270 0.001140 
#    z 0.008250 0.001140 1.873430 
# 
# From -- ./inp_files/279905.got.cif
#   From: 2010.06.25/outbox.cif.g09.slc.cpg/sg2_140_cif.got.tgz:279905.got - 2010.06.27 13:26:56.
