data_PCOD8036017
_publ_section_title
;
Structure prediction by ZEFSAII (Michael W. Deem and Ramdas Pophale) SiO2 
 PCOD8036017
Probable space group: P -1
;
_chemical_formula_sum "Si O2"
_cell_formula_units_Z 16
_cell_length_a 26.310718
_cell_length_b 10.416531
_cell_length_c 6.424361
_cell_angle_alpha 58.794701
_cell_angle_beta 133.340440
_cell_angle_gamma 148.228598
_cell_volume 664.343268
_symmetry_space_group_name_H-M "P -1"
_symmetry_group_IT_number 2
_symmetry_cell_setting 'triclinic'
loop_
_space_group_symop_operation_xyz
x,y,z
-x,-y,-z
loop_
_atom_site_type_symbol
_atom_site_label
_atom_site_fract_x
_atom_site_fract_y
_atom_site_fract_z
Si Si1 0.050587 0.762032 0.691965
Si Si2 0.907848 0.714449 0.035347
Si Si3 0.648288 0.095461 0.274128
Si Si4 0.683795 0.444099 0.865505
Si Si5 0.438556 0.277322 0.366322
Si Si6 0.118821 0.556566 0.159728
Si Si7 0.468394 0.698174 0.774589
Si Si8 0.709970 0.724025 0.037809
O O1 0.963505 0.668185 0.350096
O O2 0.995407 0.679712 0.834376
O O3 0.154764 0.061562 0.720093
O O4 0.092983 0.662630 0.863320
O O5 0.808294 0.618547 0.974935
O O6 0.853480 0.540643 0.825738
O O7 0.000000 0.000000 0.000000
O O8 0.775111 0.242379 0.546852
O O9 0.566877 0.899928 0.400314
O O10 0.655694 0.287358 0.114558
O O11 0.589076 0.945819 0.015392
O O12 0.587780 0.269688 0.559813
O O13 0.680329 0.603612 0.827603
O O14 0.500000 0.500000 0.500000
O O15 0.496219 0.376439 0.219165
O O16 0.310791 0.131134 0.128845
O O17 0.368095 0.483153 0.830235
#
# Coordination Sequence:
#
# PCOD8036017 Si02
#       8
#     2   2   2   2   2   2   2   2
#     4  11  25  49  76 107 145 193 245 311 359 434
#     4  12  27  48  75 109 150 198 244 299 369 441
#     4  12  27  46  75 104 151 191 242 304 363 434
#     4  12  28  46  71 110 150 193 248 297 368 437
#     4  12  25  51  72 108 146 193 245 305 360 436
#     4  11  26  49  75 108 147 191 249 306 368 427
#     4  12  27  46  76 106 149 195 247 294 370 437
#     4  12  26  47  76 108 146 194 248 300 368 433
#
# _framework density 24.083933999999999
#
# number of rings (size 3 to 8) (size 9 to 14) (size 15 to 20)
#    0.000    0.250    5.000    2.625    5.250    3.000 
#    4.500    0.000    0.000    0.000    0.000    0.000 
#    0.000    0.000    0.000    0.000    0.000    0.000 
#
# Total GULP energy -198243.328025 kJ/mol
# GULP energy per Si atom -12390.208002 kJ/mol
# Density = 2.402912 g / cm^3
# Si number density = 24.083934 Si / 1000 Ang^3
#
#
#
# Elastic Constant Matrix: (Units=GPa)
#
#
# Indices 1 2 3 4 5 6 
#
# 1 135.6364 57.4054 49.6365 0.2519 -7.2843 8.4426
# 2 57.4054 119.3601 49.1912 -1.1188 -2.7105 13.1527
# 3 49.6365 49.1912 154.9488 3.7440 13.6885 0.0396
# 4 0.2519 -1.1188 3.7440 44.2072 -5.1502 2.9336
# 5 -7.2843 -2.7105 13.6885 -5.1502 34.6149 -0.9861
# 6 8.4426 13.1527 0.0396 2.9336 -0.9861 23.5478
#
#
#
# Elastic Compliance Matrix: (Units=1/GPa)
#
#
# Indices 1 2 3 4 5 6 
#
# 1 0.009990 -0.003623 -0.002304 0.000467 0.002757 -0.001497
# 2 -0.003623 0.011889 -0.002749 0.001061 0.001259 -0.005416
# 3 -0.002304 -0.002749 0.008469 -0.001418 -0.004193 0.002349
# 4 0.000467 0.001061 -0.001418 0.023480 0.004136 -0.003509
# 5 0.002757 0.001259 -0.004193 0.004136 0.031817 -0.000867
# 6 -0.001497 -0.005416 0.002349 -0.003509 -0.000867 0.046426
#
#
# Mechanical properties :
#
#
# Convention : Reuss Voigt Hill
#
# Bulk Modulus (GPa) = 76.95661 80.26795 78.61228
# Shear Modulus (GPa) = 32.51951 37.38813 34.95382
#
# Velocity S-wave (km/s) = 3.67857 3.94434 3.81377
# Velocity P-wave (km/s) = 7.07569 7.35829 7.21838
#
# Compressibility (1/GPa) = 0.01299433
#
# Stress axis : x y z
#
# Youngs Moduli (GPa) = 100.10437 84.11285 118.07995
#
# Poissons Ratio (x) = 0.30472 0.27210
# Poissons Ratio (y) = 0.36266 0.32463
# Poissons Ratio (z) = 0.23068 0.23125
#
# Static dielectric constant tensor:
#      x y z
#    x 4.582630 0.099450 0.641490 
#    y 0.099450 4.332000 -0.019260 
#    z 0.641490 -0.019260 5.181210 
# 
# 
# High freq. dielectric constant tensor:
#      x y z
#    x 1.948040 0.011630 0.011570 
#    y 0.011630 1.962120 0.001370 
#    z 0.011570 0.001370 1.972610 
# 
# From -- ./inp_files/126854.got.cif
#   From: 2010.06.25/outbox.cif.g09.slc.cpg/sg2_64_cif.got.tgz:126854.got - 2010.06.27 13:26:56.
