data_PCOD8036281
_publ_section_title
;
Structure prediction by ZEFSAII (Michael W. Deem and Ramdas Pophale) SiO2 
 PCOD8036281
Probable space group: P -1
;
_chemical_formula_sum "Si O2"
_cell_formula_units_Z 12
_cell_length_a 5.024168
_cell_length_b 14.060912
_cell_length_c 11.047451
_cell_angle_alpha 136.275959
_cell_angle_beta 125.623222
_cell_angle_gamma 78.224505
_cell_volume 404.507452
_symmetry_space_group_name_H-M "P -1"
_symmetry_group_IT_number 2
_symmetry_cell_setting 'triclinic'
loop_
_space_group_symop_operation_xyz
x,y,z
-x,-y,-z
loop_
_atom_site_type_symbol
_atom_site_label
_atom_site_fract_x
_atom_site_fract_y
_atom_site_fract_z
Si Si1 0.331364 0.582055 0.941626
Si Si2 0.881220 0.958244 0.693669
Si Si3 0.676282 0.345295 0.253527
Si Si4 0.127443 0.805139 0.252503
Si Si5 0.835672 0.817937 0.824296
Si Si6 0.133271 0.725452 0.435143
O O1 0.522384 0.641586 0.914871
O O2 0.963608 0.438824 0.683575
O O3 0.500000 0.500000 0.000000
O O4 0.249308 0.712275 0.103234
O O5 0.068520 0.100021 0.781136
O O6 0.466099 0.918053 0.522371
O O7 0.998184 0.822294 0.576006
O O8 0.020075 0.017587 0.921773
O O9 0.391852 0.303265 0.246988
O O10 0.000000 0.500000 0.500000
O O11 0.831163 0.217263 0.161314
O O12 0.931952 0.711170 0.235572
O O13 0.567922 0.800122 0.620752
#
# Coordination Sequence:
#
# PCOD8036281 Si02
#       6
#     2   2   2   2   2   2
#     4  12  26  47  76 113 145 198 257 317 372 448
#     4  11  26  49  69 114 147 206 245 315 379 452
#     4  12  28  52  78 113 155 199 252 312 384 444
#     4  11  26  47  75 105 155 195 256 309 385 443
#     4  12  29  48  82 110 153 203 252 312 375 455
#     4  12  27  45  77 108 150 198 259 310 376 451
#
# _framework density 29.665707999999999
#
# number of rings (size 3 to 8) (size 9 to 14) (size 15 to 20)
#    0.000    0.333    5.000    2.000    9.333    0.667 
#    0.000    0.000    0.000    0.000    0.000    0.000 
#    0.000    0.000    0.000    0.000    0.000    0.000 
#
# Total GULP energy -148840.118979 kJ/mol
# GULP energy per Si atom -12403.343248 kJ/mol
# Density = 2.959819 g / cm^3
# Si number density = 29.665708 Si / 1000 Ang^3
#
#
#
# Elastic Constant Matrix: (Units=GPa)
#
#
# Indices 1 2 3 4 5 6 
#
# 1 87.7241 38.7106 -0.9076 -2.6830 -12.2731 17.8600
# 2 38.7106 157.7776 72.1477 -40.9694 -20.1923 23.1139
# 3 -0.9076 72.1477 124.2820 0.1969 -15.5958 7.0754
# 4 -2.6830 -40.9694 0.1969 72.0716 5.9063 -1.7788
# 5 -12.2731 -20.1923 -15.5958 5.9063 47.3481 -2.6429
# 6 17.8600 23.1139 7.0754 -1.7788 -2.6429 58.9010
#
#
#
# Elastic Compliance Matrix: (Units=1/GPa)
#
#
# Indices 1 2 3 4 5 6 
#
# 1 0.014618 -0.005169 0.003643 -0.002716 0.002968 -0.002791
# 2 -0.005169 0.013488 -0.007629 0.007364 0.000838 -0.002549
# 3 0.003643 -0.007629 0.012801 -0.004431 0.002478 0.000329
# 4 -0.002716 0.007364 -0.004431 0.018056 -0.001334 -0.001048
# 5 0.002968 0.000838 0.002478 -0.001334 0.023200 -0.000526
# 6 -0.002791 -0.002549 0.000329 -0.001048 -0.000526 0.018729
#
#
# Mechanical properties :
#
#
# Convention : Reuss Voigt Hill
#
# Bulk Modulus (GPa) = 44.25371 65.52058 54.88714
# Shear Modulus (GPa) = 39.45250 52.98632 46.21941
#
# Velocity S-wave (km/s) = 3.65074 4.23083 3.95144
# Velocity P-wave (km/s) = 5.72017 6.78239 6.27380
#
# Compressibility (1/GPa) = 0.02259698
#
# Stress axis : x y z
#
# Youngs Moduli (GPa) = 68.40675 74.14154 78.11976
#
# Poissons Ratio (x) = 0.38326 -0.28461
# Poissons Ratio (y) = 0.35361 0.59597
# Poissons Ratio (z) = -0.24922 0.56562
#
# Static dielectric constant tensor:
#      x y z
#    x 39.057070 66.642230 54.082050 
#    y 66.642230 134.972920 104.160910 
#    z 54.082050 104.160910 91.367250 
# 
# 
# High freq. dielectric constant tensor:
#      x y z
#    x 2.206200 0.049510 0.036250 
#    y 0.049510 2.250480 -0.010260 
#    z 0.036250 -0.010260 2.274330 
# 
# From -- ./inp_files/21162.got.cif
#   From: 2010.06.25/outbox.cif.g09.slc.cpg/sg2_11_cif.got.tgz:21162.got - 2010.06.27 13:26:56.
