data_PCOD8036177
_publ_section_title
;
Structure prediction by ZEFSAII (Michael W. Deem and Ramdas Pophale) SiO2 
 PCOD8036177
Probable space group: P -1
;
_chemical_formula_sum "Si O2"
_cell_formula_units_Z 16
_cell_length_a 9.214451
_cell_length_b 14.731261
_cell_length_c 18.561935
_cell_angle_alpha 142.155115
_cell_angle_beta 41.493785
_cell_angle_gamma 150.227143
_cell_volume 750.701077
_symmetry_space_group_name_H-M "P -1"
_symmetry_group_IT_number 2
_symmetry_cell_setting 'triclinic'
loop_
_space_group_symop_operation_xyz
x,y,z
-x,-y,-z
loop_
_atom_site_type_symbol
_atom_site_label
_atom_site_fract_x
_atom_site_fract_y
_atom_site_fract_z
Si Si1 0.138049 0.199302 0.800822
Si Si2 0.724622 0.906826 0.179981
Si Si3 0.258909 0.570509 0.047137
Si Si4 0.607638 0.427018 0.644564
Si Si5 0.490845 0.851792 0.765013
Si Si6 0.636253 0.381635 0.199741
Si Si7 0.699416 0.230414 0.372977
Si Si8 0.679826 0.908833 0.985697
O O1 0.164834 0.077222 0.770769
O O2 0.413695 0.317482 0.718868
O O3 0.142155 0.351450 0.941090
O O4 0.837591 0.046182 0.770905
O O5 0.454499 0.673156 0.111551
O O6 0.604750 0.018613 0.291073
O O7 0.988064 0.008411 0.086171
O O8 0.972376 0.545712 0.146598
O O9 0.457210 0.714348 0.996807
O O10 0.525126 0.536671 0.700498
O O11 0.554680 0.263986 0.509926
O O12 0.945358 0.590435 0.648519
O O13 0.367687 0.663114 0.742658
O O14 0.440816 0.779250 0.656165
O O15 0.296028 0.909420 0.887714
O O16 0.452155 0.167108 0.093461
#
# Coordination Sequence:
#
# PCOD8036177 Si02
#       8
#     2   2   2   2   2   2   2   2
#     4  12  24  43  66  98 132 170 209 265 324 379
#     4  12  25  42  65  99 134 169 211 263 322 382
#     4  12  24  38  68 102 131 167 213 259 320 393
#     4  11  26  46  69  91 127 172 218 270 313 374
#     4  12  25  41  69  97 131 170 210 264 324 386
#     4  12  23  44  66  97 133 169 209 265 325 379
#     4  11  26  47  66  94 126 171 223 262 317 377
#     4  12  21  41  66  96 133 171 202 262 329 385
#
# _framework density 21.313410999999999
#
# number of rings (size 3 to 8) (size 9 to 14) (size 15 to 20)
#    0.000    0.250    6.250    3.000    3.500    1.500 
#    0.000    0.000    0.000    0.000    0.000    0.000 
#    0.000    0.000    0.000    0.000    0.000    0.000 
#
# Total GULP energy -198507.772556 kJ/mol
# GULP energy per Si atom -12406.735785 kJ/mol
# Density = 2.126490 g / cm^3
# Si number density = 21.313411 Si / 1000 Ang^3
#
#
#
# Elastic Constant Matrix: (Units=GPa)
#
#
# Indices 1 2 3 4 5 6 
#
# 1 95.1114 23.5121 42.3740 15.6327 13.2862 -0.6273
# 2 23.5121 79.5540 33.6808 3.4954 0.3434 7.3796
# 3 42.3740 33.6808 96.6522 5.2346 8.6590 8.3398
# 4 15.6327 3.4954 5.2346 17.6383 6.3079 3.1374
# 5 13.2862 0.3434 8.6590 6.3079 23.2745 1.6291
# 6 -0.6273 7.3796 8.3398 3.1374 1.6291 46.8811
#
#
#
# Elastic Compliance Matrix: (Units=1/GPa)
#
#
# Indices 1 2 3 4 5 6 
#
# 1 0.015869 -0.002100 -0.005463 -0.010953 -0.004194 0.002393
# 2 -0.002100 0.015257 -0.004480 -0.000574 0.002914 -0.001696
# 3 -0.005463 -0.004480 0.014584 0.002786 -0.002853 -0.002050
# 4 -0.010953 -0.000574 0.002786 0.071492 -0.013812 -0.004856
# 5 -0.004194 0.002914 -0.002853 -0.013812 0.050179 -0.000827
# 6 0.002393 -0.001696 -0.002050 -0.004856 -0.000827 0.022348
#
#
# Mechanical properties :
#
#
# Convention : Reuss Voigt Hill
#
# Bulk Modulus (GPa) = 46.24320 52.27240 49.25780
# Shear Modulus (GPa) = 22.62204 29.00882 25.81543
#
# Velocity S-wave (km/s) = 3.26145 3.69326 3.48405
# Velocity P-wave (km/s) = 5.99388 6.53955 6.27265
#
# Compressibility (1/GPa) = 0.02162480
#
# Stress axis : x y z
#
# Youngs Moduli (GPa) = 63.01642 65.54261 68.56768
#
# Poissons Ratio (x) = 0.13763 0.37459
# Poissons Ratio (y) = 0.13232 0.30717
# Poissons Ratio (z) = 0.34426 0.29362
#
# Static dielectric constant tensor:
#      x y z
#    x 3.950500 0.174920 0.034290 
#    y 0.174920 3.827020 -0.000430 
#    z 0.034290 -0.000430 3.828470 
# 
# 
# High freq. dielectric constant tensor:
#      x y z
#    x 1.848420 0.008340 0.002850 
#    y 0.008340 1.840710 -0.004850 
#    z 0.002850 -0.004850 1.822220 
# 
# From -- ./inp_files/188335.got.cif
#   From: 2010.06.25/outbox.cif.g09.slc.cpg/sg2_95_cif.got.tgz:188335.got - 2010.06.27 13:26:56.
