data_PCOD8036241
_publ_section_title
;
Structure prediction by ZEFSAII (Michael W. Deem and Ramdas Pophale) SiO2 
 PCOD8036241
Probable space group: P -1
;
_chemical_formula_sum "Si O2"
_cell_formula_units_Z 16
_cell_length_a 17.224146
_cell_length_b 14.471746
_cell_length_c 11.593239
_cell_angle_alpha 30.586673
_cell_angle_beta 50.607082
_cell_angle_gamma 31.738878
_cell_volume 720.395427
_symmetry_space_group_name_H-M "P -1"
_symmetry_group_IT_number 2
_symmetry_cell_setting 'triclinic'
loop_
_space_group_symop_operation_xyz
x,y,z
-x,-y,-z
loop_
_atom_site_type_symbol
_atom_site_label
_atom_site_fract_x
_atom_site_fract_y
_atom_site_fract_z
Si Si1 0.071838 0.707892 0.227518
Si Si2 0.423219 0.303442 0.262875
Si Si3 0.848232 0.126180 0.563347
Si Si4 0.908241 0.499993 0.321791
Si Si5 0.834192 0.975528 0.970252
Si Si6 0.504926 0.467502 0.203629
Si Si7 0.318361 0.296219 0.875458
Si Si8 0.219514 0.081923 0.323043
O O1 0.246614 0.493563 0.249910
O O2 0.061840 0.620553 0.451072
O O3 0.000000 0.000000 0.000000
O O4 0.969771 0.750493 0.179584
O O5 0.507035 0.303844 0.283150
O O6 0.500000 0.000000 0.500000
O O7 0.433126 0.421625 0.015697
O O8 0.879351 0.064419 0.737759
O O9 0.701373 0.470824 0.307652
O O10 0.821430 0.967740 0.701783
O O11 0.000000 0.000000 0.500000
O O12 0.785101 0.555831 0.303167
O O13 0.078246 0.276346 0.339567
O O14 0.817585 0.815563 0.085393
O O15 0.671670 0.261031 0.875959
O O16 0.621962 0.234714 0.441317
O O17 0.500000 0.000000 0.000000
O O18 0.248349 0.250818 0.081658
#
# Coordination Sequence:
#
# PCOD8036241 Si02
#       8
#     2   2   2   2   2   2   2   2
#     4  12  25  45  73 102 140 187 232 291 353 422
#     4  11  26  47  70 103 146 184 236 286 351 423
#     4  12  26  47  75 103 142 190 239 289 355 420
#     4  12  26  47  72 105 143 184 239 290 354 425
#     4  12  26  47  72 103 143 185 237 291 354 418
#     4  11  27  46  71 105 145 184 232 292 353 417
#     4  12  27  46  72 104 143 187 239 292 351 420
#     4  12  27  48  73 105 146 188 236 296 351 421
#
# _framework density 22.210023
#
# number of rings (size 3 to 8) (size 9 to 14) (size 15 to 20)
#    0.000    0.250    3.750    4.500    8.750    2.000 
#    0.000    0.000    0.000    0.000    0.000    0.000 
#    0.000    0.000    0.000    0.000    0.000    0.000 
#
# Total GULP energy -198384.563735 kJ/mol
# GULP energy per Si atom -12399.035233 kJ/mol
# Density = 2.215947 g / cm^3
# Si number density = 22.210023 Si / 1000 Ang^3
#
#
#
# Elastic Constant Matrix: (Units=GPa)
#
#
# Indices 1 2 3 4 5 6 
#
# 1 64.7240 33.3540 34.8122 8.7665 4.1402 3.4396
# 2 33.3540 154.6095 63.9233 10.2078 4.8308 -0.8656
# 3 34.8122 63.9233 146.6693 12.2488 0.4381 11.9037
# 4 8.7665 10.2078 12.2488 49.8752 10.7361 1.5652
# 5 4.1402 4.8308 0.4381 10.7361 48.8588 -7.7952
# 6 3.4396 -0.8656 11.9037 1.5652 -7.7952 26.3285
#
#
#
# Elastic Compliance Matrix: (Units=1/GPa)
#
#
# Indices 1 2 3 4 5 6 
#
# 1 0.018845 -0.002662 -0.003051 -0.001726 -0.001152 -0.001409
# 2 -0.002662 0.008393 -0.003148 -0.000511 -0.000139 0.002036
# 3 -0.003051 -0.003148 0.009309 -0.001006 0.000097 -0.003825
# 4 -0.001726 -0.000511 -0.001006 0.021831 -0.004925 -0.002092
# 5 -0.001152 -0.000139 0.000097 -0.004925 0.022800 0.007145
# 6 -0.001409 0.002036 -0.003825 -0.002092 0.007145 0.042202
#
#
# Mechanical properties :
#
#
# Convention : Reuss Voigt Hill
#
# Bulk Modulus (GPa) = 53.12224 70.02020 61.57122
# Shear Modulus (GPa) = 33.92646 40.60672 37.26659
#
# Velocity S-wave (km/s) = 3.91260 4.28051 4.10068
# Velocity P-wave (km/s) = 6.66193 7.48500 7.08543
#
# Compressibility (1/GPa) = 0.01882451
#
# Stress axis : x y z
#
# Youngs Moduli (GPa) = 53.06363 119.14120 107.42772
#
# Poissons Ratio (x) = 0.31716 0.32774
# Poissons Ratio (y) = 0.14126 0.33823
# Poissons Ratio (z) = 0.16189 0.37511
#
# Static dielectric constant tensor:
#      x y z
#    x 4.425560 0.197960 -0.339180 
#    y 0.197960 4.172920 0.166990 
#    z -0.339180 0.166990 5.176960 
# 
# 
# High freq. dielectric constant tensor:
#      x y z
#    x 1.873730 0.006210 -0.007730 
#    y 0.006210 1.888690 -0.000990 
#    z -0.007730 -0.000990 1.900790 
# 
# From -- ./inp_files/398139.got.cif
#   From: 2010.06.25/outbox.cif.g09.slc.cpg/sg2_200_cif.got.tgz:398139.got - 2010.06.27 13:26:56.
