data_PCOD8036233
_publ_section_title
;
Structure prediction by ZEFSAII (Michael W. Deem and Ramdas Pophale) SiO2 
 PCOD8036233
Probable space group: P -1
;
_chemical_formula_sum "Si O2"
_cell_formula_units_Z 14
_cell_length_a 13.268234
_cell_length_b 11.587857
_cell_length_c 9.699619
_cell_angle_alpha 129.446692
_cell_angle_beta 145.513538
_cell_angle_gamma 45.202906
_cell_volume 593.637699
_symmetry_space_group_name_H-M "P -1"
_symmetry_group_IT_number 2
_symmetry_cell_setting 'triclinic'
loop_
_space_group_symop_operation_xyz
x,y,z
-x,-y,-z
loop_
_atom_site_type_symbol
_atom_site_label
_atom_site_fract_x
_atom_site_fract_y
_atom_site_fract_z
Si Si1 0.322571 0.165087 0.786835
Si Si2 0.170350 0.359188 0.503902
Si Si3 0.613110 0.811278 0.826558
Si Si4 0.065919 0.203741 0.023137
Si Si5 0.380742 0.547364 0.763364
Si Si6 0.949017 0.092712 0.364447
Si Si7 0.619034 0.378578 0.656218
O O1 0.324591 0.263822 0.725432
O O2 0.131867 0.126189 0.545163
O O3 0.528245 0.007454 0.892029
O O4 0.326268 0.263153 0.006297
O O5 0.112614 0.228885 0.254744
O O6 0.247178 0.445564 0.539149
O O7 0.000000 0.500000 0.500000
O O8 0.804843 0.744592 0.897527
O O9 0.442379 0.773787 0.535422
O O10 0.843900 0.325271 0.836693
O O11 0.093349 0.018081 0.883563
O O12 0.246070 0.737741 0.721580
O O13 0.557125 0.475079 0.801087
O O14 0.500000 0.500000 0.000000
O O15 0.000000 0.000000 0.500000
O O16 0.500000 0.500000 0.500000
#
# Coordination Sequence:
#
# PCOD8036233 Si02
#       7
#     2   2   2   2   2   2   2
#     4  11  26  46  77 109 155 195 258 315 389 454
#     4  12  27  49  73 112 155 202 245 319 388 455
#     4  11  26  48  75 113 147 204 257 317 377 463
#     4  12  27  50  78 109 156 201 258 313 382 463
#     4  12  29  48  74 114 161 197 254 323 393 450
#     4  12  25  49  79 113 151 206 258 317 379 463
#     4  12  28  46  76 113 149 203 261 319 380 454
#
# _framework density 23.583407999999999
#
# number of rings (size 3 to 8) (size 9 to 14) (size 15 to 20)
#    0.000    0.286    5.714    1.714    6.000    2.857 
#    0.000    0.000    0.000    0.000    0.000    0.000 
#    0.000    0.000    0.000    0.000    0.000    0.000 
#
# Total GULP energy -173565.708212 kJ/mol
# GULP energy per Si atom -12397.550587 kJ/mol
# Density = 2.352973 g / cm^3
# Si number density = 23.583408 Si / 1000 Ang^3
#
#
#
# Elastic Constant Matrix: (Units=GPa)
#
#
# Indices 1 2 3 4 5 6 
#
# 1 126.0318 47.5631 37.1892 -12.9653 -11.4263 -22.6000
# 2 47.5631 118.5633 47.2860 -12.2452 -19.3876 -10.0220
# 3 37.1892 47.2860 117.2331 -7.4200 -26.6508 -21.3326
# 4 -12.9653 -12.2452 -7.4200 42.0360 -6.7629 -7.2269
# 5 -11.4263 -19.3876 -26.6508 -6.7629 49.4980 -4.7577
# 6 -22.6000 -10.0220 -21.3326 -7.2269 -4.7577 42.2556
#
#
#
# Elastic Compliance Matrix: (Units=1/GPa)
#
#
# Indices 1 2 3 4 5 6 
#
# 1 0.010776 -0.002914 -0.000483 0.003715 0.002142 0.005705
# 2 -0.002914 0.011468 -0.002866 0.002436 0.002650 0.000429
# 3 -0.000483 -0.002866 0.012895 0.003594 0.006869 0.006960
# 4 0.003715 0.002436 0.003594 0.029480 0.008775 0.010409
# 5 0.002142 0.002650 0.006869 0.008775 0.027579 0.009848
# 6 0.005705 0.000429 0.006960 0.010409 0.009848 0.033221
#
#
# Mechanical properties :
#
#
# Convention : Reuss Voigt Hill
#
# Bulk Modulus (GPa) = 44.22451 69.54498 56.88475
# Shear Modulus (GPa) = 34.36818 42.07724 38.22271
#
# Velocity S-wave (km/s) = 3.82161 4.22855 4.03022
# Velocity P-wave (km/s) = 6.18595 7.30710 6.76978
#
# Compressibility (1/GPa) = 0.02261190
#
# Stress axis : x y z
#
# Youngs Moduli (GPa) = 92.79682 87.20121 77.55118
#
# Poissons Ratio (x) = 0.25413 0.03743
# Poissons Ratio (y) = 0.27043 0.22230
# Poissons Ratio (z) = 0.04479 0.24996
#
# Static dielectric constant tensor:
#      x y z
#    x 4.624240 0.116580 -0.179300 
#    y 0.116580 4.238570 -0.347730 
#    z -0.179300 -0.347730 3.378820 
# 
# 
# High freq. dielectric constant tensor:
#      x y z
#    x 1.944730 -0.010070 0.002410 
#    y -0.010070 1.931890 0.007990 
#    z 0.002410 0.007990 1.948450 
# 
# From -- ./inp_files/178535.got.cif
#   From: 2010.06.25/outbox.cif.g09.slc.cpg/sg2_90_cif.got.tgz:178535.got - 2010.06.27 13:26:56.
