data_PCOD8036476
_publ_section_title
;
Structure prediction by ZEFSAII (Michael W. Deem and Ramdas Pophale) SiO2 
 PCOD8036476
Probable space group: P -1
;
_chemical_formula_sum "Si O2"
_cell_formula_units_Z 10
_cell_length_a 9.842647
_cell_length_b 16.089530
_cell_length_c 9.485247
_cell_angle_alpha 146.098524
_cell_angle_beta 115.940652
_cell_angle_gamma 38.111185
_cell_volume 403.107449
_symmetry_space_group_name_H-M "P -1"
_symmetry_group_IT_number 2
_symmetry_cell_setting 'triclinic'
loop_
_space_group_symop_operation_xyz
x,y,z
-x,-y,-z
loop_
_atom_site_type_symbol
_atom_site_label
_atom_site_fract_x
_atom_site_fract_y
_atom_site_fract_z
Si Si1 0.563904 0.478512 0.162342
Si Si2 0.213427 0.746992 0.632690
Si Si3 0.833364 0.560516 0.385881
Si Si4 0.277846 0.978806 0.311622
Si Si5 0.658057 0.872003 0.180020
O O1 0.292719 0.753956 0.523949
O O2 0.795079 0.416636 0.194233
O O3 0.500000 0.500000 0.000000
O O4 0.681386 0.230504 0.936864
O O5 0.500000 0.500000 0.500000
O O6 0.041625 0.738486 0.498410
O O7 0.000000 0.000000 0.000000
O O8 0.000000 0.500000 0.500000
O O9 0.528628 0.890306 0.689536
O O10 0.024693 0.424196 0.142350
O O11 0.506127 0.843807 0.110809
O O12 0.316628 0.038932 0.553484
#
# Coordination Sequence:
#
# PCOD8036476 Si02
#       5
#     2   2   2   2   2
#     4  12  27  51  82 115 154 208 262 322 385 468
#     4  12  28  47  77 115 155 201 258 324 386 460
#     4  12  29  48  75 113 161 193 255 321 401 444
#     4  11  27  49  81 107 155 201 272 305 390 468
#     4  11  28  49  76 110 152 208 248 322 381 473
#
# _framework density 24.807278
#
# number of rings (size 3 to 8) (size 9 to 14) (size 15 to 20)
#    0.000    0.400    4.000    1.800   11.200    3.200 
#    0.000    0.000    0.000    0.000    0.000    0.000 
#    0.000    0.000    0.000    0.000    0.000    0.000 
#
# Total GULP energy -123885.184964 kJ/mol
# GULP energy per Si atom -12388.518496 kJ/mol
# Density = 2.475082 g / cm^3
# Si number density = 24.807278 Si / 1000 Ang^3
#
#
#
# Elastic Constant Matrix: (Units=GPa)
#
#
# Indices 1 2 3 4 5 6 
#
# 1 196.9797 61.0478 49.6267 -19.2669 -7.1118 -27.6962
# 2 61.0478 148.7906 42.8706 -15.0723 0.7829 -31.3183
# 3 49.6267 42.8706 100.6276 -12.1843 -36.8962 2.8758
# 4 -19.2669 -15.0723 -12.1843 42.3931 7.2708 -5.8546
# 5 -7.1118 0.7829 -36.8962 7.2708 55.6852 -3.3098
# 6 -27.6962 -31.3183 2.8758 -5.8546 -3.3098 47.7131
#
#
#
# Elastic Compliance Matrix: (Units=1/GPa)
#
#
# Indices 1 2 3 4 5 6 
#
# 1 0.006945 -0.000734 -0.003450 0.002713 -0.001506 0.003986
# 2 -0.000734 0.010314 -0.005172 0.003425 -0.003707 0.006819
# 3 -0.003450 -0.005172 0.018065 -0.000970 0.011382 -0.005815
# 4 0.002713 0.003425 -0.000970 0.027326 -0.003497 0.006991
# 5 -0.001506 -0.003707 0.011382 -0.003497 0.025659 -0.002643
# 6 0.003986 0.006819 -0.005815 0.006991 -0.002643 0.028773
#
#
# Mechanical properties :
#
#
# Convention : Reuss Voigt Hill
#
# Bulk Modulus (GPa) = 60.19615 83.72088 71.95852
# Shear Modulus (GPa) = 35.37861 48.68179 42.03020
#
# Velocity S-wave (km/s) = 3.78052 4.43470 4.12062
# Velocity P-wave (km/s) = 6.58594 7.74880 7.19092
#
# Compressibility (1/GPa) = 0.01661236
#
# Stress axis : x y z
#
# Youngs Moduli (GPa) = 143.99691 96.95983 55.35702
#
# Poissons Ratio (x) = 0.07113 0.19098
# Poissons Ratio (y) = 0.10564 0.28628
# Poissons Ratio (z) = 0.49679 0.50144
#
# Static dielectric constant tensor:
#      x y z
#    x 5.584330 -0.349390 -1.093650 
#    y -0.349390 5.150350 -0.031450 
#    z -1.093650 -0.031450 5.620650 
# 
# 
# High freq. dielectric constant tensor:
#      x y z
#    x 1.999160 -0.021240 -0.021070 
#    y -0.021240 2.006840 -0.016480 
#    z -0.021070 -0.016480 1.990470 
# 
# From -- ./inp_files/16106.got.cif
#   From: 2010.06.25/outbox.cif.g09.slc.cpg/sg2_9_cif.got.tgz:16106.got - 2010.06.27 13:26:56.
