data_PCOD8036849
_publ_section_title
;
Structure prediction by ZEFSAII (Michael W. Deem and Ramdas Pophale) SiO2 
 PCOD8036849
Probable space group: P -1
;
_chemical_formula_sum "Si O2"
_cell_formula_units_Z 16
_cell_length_a 11.358584
_cell_length_b 11.256746
_cell_length_c 17.670183
_cell_angle_alpha 50.491202
_cell_angle_beta 150.015979
_cell_angle_gamma 108.948660
_cell_volume 705.271287
_symmetry_space_group_name_H-M "P -1"
_symmetry_group_IT_number 2
_symmetry_cell_setting 'triclinic'
loop_
_space_group_symop_operation_xyz
x,y,z
-x,-y,-z
loop_
_atom_site_type_symbol
_atom_site_label
_atom_site_fract_x
_atom_site_fract_y
_atom_site_fract_z
Si Si1 0.975029 0.690992 0.731362
Si Si2 0.504493 0.386727 0.225371
Si Si3 0.254230 0.780347 0.725291
Si Si4 0.776717 0.737587 0.105514
Si Si5 0.330971 0.344600 0.761396
Si Si6 0.615315 0.600501 0.477367
Si Si7 0.744497 0.009034 0.596509
Si Si8 0.265822 0.899733 0.038328
O O1 0.193091 0.666825 0.796409
O O2 0.695511 0.709216 0.535251
O O3 0.872153 0.877895 0.646365
O O4 0.167984 0.496074 0.966848
O O5 0.736656 0.295046 0.322943
O O6 0.506327 0.554948 0.194695
O O7 0.595189 0.227345 0.402457
O O8 0.563304 0.747126 0.920643
O O9 0.000000 0.000000 0.500000
O O10 0.630085 0.753661 0.097275
O O11 0.099777 0.546786 0.353699
O O12 0.797512 0.912077 0.035573
O O13 0.469847 0.182158 0.840740
O O14 0.000000 0.500000 0.500000
O O15 0.500000 0.500000 0.500000
O O16 0.356116 0.750462 0.216633
O O17 0.500000 0.000000 0.500000
O O18 0.984628 0.944764 0.820094
#
# Coordination Sequence:
#
# PCOD8036849 Si02
#       8
#     2   2   2   2   2   2   2   2
#     4  12  25  50  74 109 143 191 245 298 365 425
#     4  12  25  45  73 106 147 185 245 298 363 427
#     4  12  23  42  76 109 146 182 234 306 365 427
#     4  12  25  46  72 110 147 189 236 295 373 427
#     4  12  24  43  73 105 145 186 230 300 369 429
#     4  12  30  49  75 105 146 198 245 296 355 434
#     4  12  30  48  74 104 143 201 245 295 352 431
#     4  12  28  48  71 109 148 187 244 298 366 429
#
# _framework density 22.686306999999999
#
# number of rings (size 3 to 8) (size 9 to 14) (size 15 to 20)
#    0.000    0.000    6.250    3.000    5.250    1.000 
#    0.000    0.000    0.000    0.000    0.000    0.000 
#    0.000    0.000    0.000    0.000    0.000    0.000 
#
# Total GULP energy -198490.574824 kJ/mol
# GULP energy per Si atom -12405.660926 kJ/mol
# Density = 2.263467 g / cm^3
# Si number density = 22.686307 Si / 1000 Ang^3
#
#
#
# Elastic Constant Matrix: (Units=GPa)
#
#
# Indices 1 2 3 4 5 6 
#
# 1 77.3718 27.1323 29.7250 4.5903 -14.7725 23.1217
# 2 27.1323 114.2718 38.2495 5.5542 -12.2266 13.2924
# 3 29.7250 38.2495 148.8039 3.4826 -23.2929 16.1664
# 4 4.5903 5.5542 3.4826 45.0729 4.2329 2.1279
# 5 -14.7725 -12.2266 -23.2929 4.2329 37.2116 -3.3752
# 6 23.1217 13.2924 16.1664 2.1279 -3.3752 33.4534
#
#
#
# Elastic Compliance Matrix: (Units=1/GPa)
#
#
# Indices 1 2 3 4 5 6 
#
# 1 0.018356 -0.002120 -0.001130 -0.001494 0.005084 -0.010691
# 2 -0.002120 0.010228 -0.001804 -0.000961 0.001360 -0.001529
# 3 -0.001130 -0.001804 0.008276 -0.000582 0.004019 -0.002059
# 4 -0.001494 -0.000961 -0.000582 0.022874 -0.003889 -0.000152
# 5 0.005084 0.001360 0.004019 -0.003889 0.032068 -0.002513
# 6 -0.010691 -0.001529 -0.002059 -0.000152 -0.002513 0.038640
#
#
# Mechanical properties :
#
#
# Convention : Reuss Voigt Hill
#
# Bulk Modulus (GPa) = 37.37943 58.96234 48.17088
# Shear Modulus (GPa) = 33.45181 39.50363 36.47772
#
# Velocity S-wave (km/s) = 3.84414 4.17741 4.01424
# Velocity P-wave (km/s) = 6.01794 7.02242 6.53950
#
# Compressibility (1/GPa) = 0.02675268
#
# Stress axis : x y z
#
# Youngs Moduli (GPa) = 54.47762 97.76670 120.83027
#
# Poissons Ratio (x) = 0.20728 0.13649
# Poissons Ratio (y) = 0.11550 0.21800
# Poissons Ratio (z) = 0.06154 0.17639
#
# Static dielectric constant tensor:
#      x y z
#    x 3.919740 -0.092450 -0.083980 
#    y -0.092450 4.134960 0.007070 
#    z -0.083980 0.007070 4.311770 
# 
# 
# High freq. dielectric constant tensor:
#      x y z
#    x 1.880650 -0.010160 -0.003980 
#    y -0.010160 1.905150 -0.004920 
#    z -0.003980 -0.004920 1.912440 
# 
# From -- ./inp_files/568681.got.cif
#   From: 2010.06.25/outbox.cif.g09.slc.cpg/sg2_285_cif.got.tgz:568681.got - 2010.06.27 13:26:56.
