data_PCOD8036054
_publ_section_title
;
Structure prediction by ZEFSAII (Michael W. Deem and Ramdas Pophale) SiO2 
 PCOD8036054
Probable space group: P -1
;
_chemical_formula_sum "Si O2"
_cell_formula_units_Z 14
_cell_length_a 7.011099
_cell_length_b 9.042587
_cell_length_c 19.924175
_cell_angle_alpha 37.341096
_cell_angle_beta 67.791452
_cell_angle_gamma 56.816505
_cell_volume 637.156346
_symmetry_space_group_name_H-M "P -1"
_symmetry_group_IT_number 2
_symmetry_cell_setting 'triclinic'
loop_
_space_group_symop_operation_xyz
x,y,z
-x,-y,-z
loop_
_atom_site_type_symbol
_atom_site_label
_atom_site_fract_x
_atom_site_fract_y
_atom_site_fract_z
Si Si1 0.875245 0.086733 0.298425
Si Si2 0.297174 0.753772 0.274389
Si Si3 0.488698 0.467081 0.122797
Si Si4 0.581215 0.082572 0.128078
Si Si5 0.095117 0.142007 0.384030
Si Si6 0.426312 0.164412 0.519508
Si Si7 0.090607 0.685271 0.194738
O O1 0.663666 0.356889 0.201600
O O2 0.981247 0.172956 0.315829
O O3 0.795171 0.857890 0.413547
O O4 0.060155 0.973254 0.256448
O O5 0.376960 0.473966 0.404902
O O6 0.257768 0.721059 0.213587
O O7 0.494404 0.852221 0.218053
O O8 0.520981 0.215601 0.161633
O O9 0.227686 0.608485 0.133835
O O10 0.541011 0.686333 0.995286
O O11 0.853180 0.954286 0.124088
O O12 0.033908 0.439362 0.313852
O O13 0.370173 0.968595 0.404995
O O14 0.000000 0.000000 0.500000
O O15 0.500000 0.000000 0.500000
#
# Coordination Sequence:
#
# PCOD8036054 Si02
#       7
#     2   2   2   2   2   2   2
#     4  12  25  45  69 105 142 185 230 288 353 412
#     4  12  26  44  71 106 138 183 239 287 344 421
#     4  11  25  51  72 100 144 184 231 296 348 412
#     4  11  27  49  72 103 140 183 238 291 348 409
#     4  12  24  40  71 100 140 188 225 284 352 411
#     4  12  23  44  67 101 144 180 232 285 343 416
#     4  12  24  46  71 105 139 181 239 284 348 419
#
# _framework density 21.972629000000001
#
# number of rings (size 3 to 8) (size 9 to 14) (size 15 to 20)
#    0.000    0.286    5.714    2.571    2.000    1.714 
#    2.571    0.000    0.000    0.000    0.000    0.000 
#    0.000    0.000    0.000    0.000    0.000    0.000 
#
# Total GULP energy -173691.440256 kJ/mol
# GULP energy per Si atom -12406.531447 kJ/mol
# Density = 2.192262 g / cm^3
# Si number density = 21.972629 Si / 1000 Ang^3
#
#
#
# Elastic Constant Matrix: (Units=GPa)
#
#
# Indices 1 2 3 4 5 6 
#
# 1 138.4620 46.6609 43.4567 0.3251 11.5842 9.1578
# 2 46.6609 126.7807 21.4989 7.2576 4.4470 -5.7644
# 3 43.4567 21.4989 93.8477 -4.3231 12.6260 10.0114
# 4 0.3251 7.2576 -4.3231 31.8898 -2.7626 -3.3669
# 5 11.5842 4.4470 12.6260 -2.7626 29.6987 0.5251
# 6 9.1578 -5.7644 10.0114 -3.3669 0.5251 34.1123
#
#
#
# Elastic Compliance Matrix: (Units=1/GPa)
#
#
# Indices 1 2 3 4 5 6 
#
# 1 0.009549 -0.002975 -0.003276 -0.000248 -0.001873 -0.002100
# 2 -0.002975 0.009404 -0.001139 -0.001997 0.000006 0.002525
# 3 -0.003276 -0.001139 0.013367 0.001434 -0.004048 -0.003032
# 4 -0.000248 -0.001997 0.001434 0.032510 0.002767 0.002475
# 5 -0.001873 0.000006 -0.004048 0.002767 0.036354 0.001405
# 6 -0.002100 0.002525 -0.003032 0.002475 0.001405 0.031418
#
#
# Mechanical properties :
#
#
# Convention : Reuss Voigt Hill
#
# Bulk Modulus (GPa) = 57.00589 64.70259 60.85424
# Shear Modulus (GPa) = 32.63072 35.63842 34.13457
#
# Velocity S-wave (km/s) = 3.85783 4.03171 3.94573
# Velocity P-wave (km/s) = 6.77083 7.15428 6.96520
#
# Compressibility (1/GPa) = 0.01754205
#
# Stress axis : x y z
#
# Youngs Moduli (GPa) = 104.72467 106.33209 74.80848
#
# Poissons Ratio (x) = 0.31629 0.24505
# Poissons Ratio (y) = 0.31151 0.08522
# Poissons Ratio (z) = 0.34304 0.12113
#
# Static dielectric constant tensor:
#      x y z
#    x 4.330930 0.190270 -0.017860 
#    y 0.190270 4.353410 -0.111950 
#    z -0.017860 -0.111950 3.993710 
# 
# 
# High freq. dielectric constant tensor:
#      x y z
#    x 1.870850 -0.004480 0.002610 
#    y -0.004480 1.867120 -0.000040 
#    z 0.002610 -0.000040 1.869550 
# 
# From -- ./inp_files/48854.got.cif
#   From: 2010.06.25/outbox.cif.g09.slc.cpg/sg2_25_cif.got.tgz:48854.got - 2010.06.27 13:26:56.
