data_PCOD8036160
_publ_section_title
;
Structure prediction by ZEFSAII (Michael W. Deem and Ramdas Pophale) SiO2 
 PCOD8036160
Probable space group: P -1
;
_chemical_formula_sum "Si O2"
_cell_formula_units_Z 16
_cell_length_a 6.191396
_cell_length_b 8.488885
_cell_length_c 13.975741
_cell_angle_alpha 103.418103
_cell_angle_beta 110.828385
_cell_angle_gamma 94.802073
_cell_volume 656.537608
_symmetry_space_group_name_H-M "P -1"
_symmetry_group_IT_number 2
_symmetry_cell_setting 'triclinic'
loop_
_space_group_symop_operation_xyz
x,y,z
-x,-y,-z
loop_
_atom_site_type_symbol
_atom_site_label
_atom_site_fract_x
_atom_site_fract_y
_atom_site_fract_z
Si Si1 0.605246 0.061045 0.900550
Si Si2 0.585821 0.498177 0.768016
Si Si3 0.937778 0.277601 0.848632
Si Si4 0.265025 0.338637 0.388360
Si Si5 0.129679 0.222324 0.664930
Si Si6 0.634347 0.756221 0.968757
Si Si7 0.817703 0.106459 0.306664
Si Si8 0.766124 0.338270 0.488986
O O1 0.352178 0.954113 0.816690
O O2 0.752057 0.123735 0.838850
O O3 0.561427 0.218247 0.979105
O O4 0.733299 0.937082 0.964491
O O5 0.810841 0.432261 0.835923
O O6 0.660937 0.576310 0.688864
O O7 0.360859 0.355698 0.699859
O O8 0.516926 0.630506 0.850625
O O9 0.039364 0.225869 0.758853
O O10 0.153815 0.319306 0.962367
O O11 0.493388 0.303326 0.476912
O O12 0.146547 0.462981 0.456663
O O13 0.082816 0.169586 0.318335
O O14 0.923448 0.239871 0.562719
O O15 0.189982 0.040097 0.637546
O O16 0.746534 0.266742 0.368195
#
# Coordination Sequence:
#
# PCOD8036160 Si02
#       8
#     2   2   2   2   2   2   2   2
#     4  11  26  47  73 109 147 184 243 294 357 428
#     4  12  27  47  74 107 148 189 237 298 357 420
#     4  12  24  48  70 104 149 186 242 292 355 424
#     4  11  28  47  75 109 141 189 244 289 359 430
#     4  12  28  47  72 107 150 187 240 295 355 426
#     4  11  26  45  74 105 145 192 237 294 360 420
#     4  12  26  48  76 104 146 190 238 297 354 424
#     4  11  27  48  73 107 147 186 239 297 357 425
#
# _framework density 24.370272
#
# number of rings (size 3 to 8) (size 9 to 14) (size 15 to 20)
#    0.000    0.500    3.750    2.250   10.500    5.500 
#    0.000    0.000    0.000    0.000    0.000    0.000 
#    0.000    0.000    0.000    0.000    0.000    0.000 
#
# Total GULP energy -198398.578340 kJ/mol
# GULP energy per Si atom -12399.911146 kJ/mol
# Density = 2.431480 g / cm^3
# Si number density = 24.370272 Si / 1000 Ang^3
#
#
#
# Elastic Constant Matrix: (Units=GPa)
#
#
# Indices 1 2 3 4 5 6 
#
# 1 60.3744 37.7894 18.7043 4.7578 -2.6553 -6.0997
# 2 37.7894 91.8141 25.1107 5.6649 -6.1456 5.6499
# 3 18.7043 25.1107 97.3145 5.8352 -12.5220 -5.1063
# 4 4.7578 5.6649 5.8352 41.7010 -11.8288 7.1103
# 5 -2.6553 -6.1456 -12.5220 -11.8288 26.8441 2.1642
# 6 -6.0997 5.6499 -5.1063 7.1103 2.1642 44.9883
#
#
#
# Elastic Compliance Matrix: (Units=1/GPa)
#
#
# Indices 1 2 3 4 5 6 
#
# 1 0.023700 -0.009490 -0.001998 -0.002582 -0.002277 0.004696
# 2 -0.009490 0.015736 -0.002182 0.000493 0.002161 -0.003692
# 3 -0.001998 -0.002182 0.011894 0.000022 0.004771 0.001120
# 4 -0.002582 0.000493 0.000022 0.028856 0.013035 -0.005597
# 5 -0.002277 0.002161 0.004771 0.013035 0.045838 -0.004304
# 6 0.004696 -0.003692 0.001120 -0.005597 -0.004304 0.024547
#
#
# Mechanical properties :
#
#
# Convention : Reuss Voigt Hill
#
# Bulk Modulus (GPa) = 41.68372 45.85687 43.77029
# Shear Modulus (GPa) = 26.89493 33.89991 30.39742
#
# Velocity S-wave (km/s) = 3.32565 3.73370 3.53557
# Velocity P-wave (km/s) = 5.64695 6.11923 5.88783
#
# Compressibility (1/GPa) = 0.02399018
#
# Stress axis : x y z
#
# Youngs Moduli (GPa) = 42.19362 63.54964 84.07415
#
# Poissons Ratio (x) = 0.60310 0.16800
# Poissons Ratio (y) = 0.40043 0.18341
# Poissons Ratio (z) = 0.08431 0.13864
#
# Static dielectric constant tensor:
#      x y z
#    x 4.501250 -0.244180 0.061030 
#    y -0.244180 4.407170 -0.060960 
#    z 0.061030 -0.060960 4.403330 
# 
# 
# High freq. dielectric constant tensor:
#      x y z
#    x 1.975870 -0.013430 0.002870 
#    y -0.013430 1.968040 -0.002860 
#    z 0.002870 -0.002860 1.976870 
# 
# From -- ./inp_files/480694.got.cif
#   From: 2010.06.25/outbox.cif.g09.slc.cpg/sg2_241_cif.got.tgz:480694.got - 2010.06.27 13:26:56.
