data_PCOD8036060
_publ_section_title
;
Structure prediction by ZEFSAII (Michael W. Deem and Ramdas Pophale) SiO2 
 PCOD8036060
Probable space group: P -1
;
_chemical_formula_sum "Si O2"
_cell_formula_units_Z 10
_cell_length_a 11.463786
_cell_length_b 5.160630
_cell_length_c 7.642202
_cell_angle_alpha 62.591244
_cell_angle_beta 71.342057
_cell_angle_gamma 79.174215
_cell_volume 379.827436
_symmetry_space_group_name_H-M "P -1"
_symmetry_group_IT_number 2
_symmetry_cell_setting 'triclinic'
loop_
_space_group_symop_operation_xyz
x,y,z
-x,-y,-z
loop_
_atom_site_type_symbol
_atom_site_label
_atom_site_fract_x
_atom_site_fract_y
_atom_site_fract_z
Si Si1 0.457834 0.804482 0.343643
Si Si2 0.217457 0.986946 0.556500
Si Si3 0.146825 0.422364 0.155520
Si Si4 0.119986 0.347908 0.806187
Si Si5 0.388378 0.727253 0.020120
O O1 0.500000 0.500000 0.500000
O O2 0.373987 0.768945 0.221928
O O3 0.366793 0.985735 0.464577
O O4 0.580230 0.971287 0.184646
O O5 0.149872 0.193772 0.382000
O O6 0.184380 0.104310 0.727872
O O7 0.173174 0.663568 0.648868
O O8 0.263947 0.620471 0.032055
O O9 0.026201 0.637919 0.165097
O O10 0.144543 0.248697 0.026002
O O11 0.500000 0.500000 0.000000
#
# Coordination Sequence:
#
# PCOD8036060 Si02
#       5
#     2   2   2   2   2
#     4  11  28  49  78 115 158 210 266 327 398 475
#     4  12  26  51  79 116 159 205 267 328 393 472
#     4  11  26  52  79 114 161 203 264 329 393 474
#     4  11  29  49  82 118 154 212 262 326 399 475
#     4  11  25  51  76 113 156 210 260 330 397 465
#
# _framework density 26.327742000000001
#
# number of rings (size 3 to 8) (size 9 to 14) (size 15 to 20)
#    0.000    0.800    2.000    2.400    2.800   12.000 
#    0.000    1.000    0.000    0.000    0.000    0.000 
#    0.000    0.000    0.000    0.000    0.000    0.000 
#
# Total GULP energy -124096.715504 kJ/mol
# GULP energy per Si atom -12409.671550 kJ/mol
# Density = 2.626782 g / cm^3
# Si number density = 26.327742 Si / 1000 Ang^3
#
#
#
# Elastic Constant Matrix: (Units=GPa)
#
#
# Indices 1 2 3 4 5 6 
#
# 1 127.8853 35.9152 32.8120 4.6838 -17.5326 -2.2190
# 2 35.9152 107.3595 42.5453 24.3744 -8.2390 -4.1728
# 3 32.8120 42.5453 123.4296 8.2398 6.2692 -13.0597
# 4 4.6838 24.3744 8.2398 56.9319 -5.1576 -13.4117
# 5 -17.5326 -8.2390 6.2692 -5.1576 40.5637 -5.2464
# 6 -2.2190 -4.1728 -13.0597 -13.4117 -5.2464 28.6550
#
#
#
# Elastic Compliance Matrix: (Units=1/GPa)
#
#
# Indices 1 2 3 4 5 6 
#
# 1 0.009510 -0.002301 -0.001935 0.001043 0.004174 0.000772
# 2 -0.002301 0.012737 -0.003731 -0.005130 0.001232 -0.002200
# 3 -0.001935 -0.003731 0.010394 0.000970 -0.002556 0.004030
# 4 0.001043 -0.005130 0.000970 0.022426 0.003522 0.010917
# 5 0.004174 0.001232 -0.002556 0.003522 0.028349 0.006177
# 6 0.000772 -0.002200 0.004030 0.010917 0.006177 0.042714
#
#
# Mechanical properties :
#
#
# Convention : Reuss Voigt Hill
#
# Bulk Modulus (GPa) = 59.85965 64.57994 62.21980
# Shear Modulus (GPa) = 33.86791 41.72360 37.79575
#
# Velocity S-wave (km/s) = 3.59053 3.98524 3.79302
# Velocity P-wave (km/s) = 6.32257 6.76452 6.54727
#
# Compressibility (1/GPa) = 0.01670574
#
# Stress axis : x y z
#
# Youngs Moduli (GPa) = 105.15667 78.51283 96.21130
#
# Poissons Ratio (x) = 0.18065 0.18616
# Poissons Ratio (y) = 0.24196 0.35901
# Poissons Ratio (z) = 0.20346 0.29297
#
# Static dielectric constant tensor:
#      x y z
#    x 4.411900 0.030110 -0.142650 
#    y 0.030110 4.756410 0.184090 
#    z -0.142650 0.184090 5.184520 
# 
# 
# High freq. dielectric constant tensor:
#      x y z
#    x 2.066280 -0.005910 0.000390 
#    y -0.005910 2.058030 0.000810 
#    z 0.000390 0.000810 2.079920 
# 
# From -- ./inp_files/228452.got.cif
#   From: 2010.06.25/outbox.cif.g09.slc.cpg/sg2_115_cif.got.tgz:228452.got - 2010.06.27 13:26:56.
