data_PCOD8036798
_publ_section_title
;
Structure prediction by ZEFSAII (Michael W. Deem and Ramdas Pophale) SiO2 
 PCOD8036798
Probable space group: P -1
;
_chemical_formula_sum "Si O2"
_cell_formula_units_Z 16
_cell_length_a 11.651195
_cell_length_b 29.227290
_cell_length_c 5.160563
_cell_angle_alpha 89.999956
_cell_angle_beta 90.002149
_cell_angle_gamma 25.802749
_cell_volume 764.925472
_symmetry_space_group_name_H-M "P -1"
_symmetry_group_IT_number 2
_symmetry_cell_setting 'triclinic'
loop_
_space_group_symop_operation_xyz
x,y,z
-x,-y,-z
loop_
_atom_site_type_symbol
_atom_site_label
_atom_site_fract_x
_atom_site_fract_y
_atom_site_fract_z
Si Si1 0.845523 0.539228 0.749994
Si Si2 0.672234 0.428719 0.750012
Si Si3 0.892724 0.792895 0.249862
Si Si4 0.930197 0.634702 0.249910
Si Si5 0.721179 0.211911 0.250124
Si Si6 0.580135 0.873525 0.749875
Si Si7 0.951246 0.879095 0.249848
Si Si8 0.582800 0.766669 0.749850
O O1 0.550320 0.663102 0.750006
O O2 0.000000 0.500000 0.500000
O O3 0.841052 0.485646 0.750063
O O4 0.000000 0.500000 0.000000
O O5 0.500000 0.500000 0.500000
O O6 0.796112 0.333205 0.749993
O O7 0.932682 0.365791 0.750020
O O8 0.500000 0.500000 0.000000
O O9 0.752028 0.822938 0.500310
O O10 0.875405 0.853357 0.249665
O O11 0.752248 0.822801 0.999413
O O12 0.751232 0.693070 0.500477
O O13 0.751190 0.693106 0.999321
O O14 0.884142 0.167484 0.499358
O O15 0.673714 0.174144 0.250194
O O16 0.884283 0.167383 0.000924
O O17 0.495456 0.850688 0.749740
O O18 0.317747 0.996830 0.750048
#
# Coordination Sequence:
#
# PCOD8036798 Si02
#       8
#     2   2   2   2   2   2   2   2
#     4  12  23  41  67  94 129 178 216 255 320 402
#     4  12  26  41  64 101 134 169 210 275 338 381
#     4  12  25  47  70  98 133 175 228 272 332 413
#     4  12  23  43  65  98 134 178 223 265 326 404
#     4  12  26  44  64 104 138 169 222 276 337 394
#     4  12  24  48  73  95 125 181 233 275 332 398
#     4  12  28  44  69  99 135 174 219 292 340 377
#     4  12  23  44  70  97 134 178 227 270 323 403
#
# _framework density 20.917068
#
# number of rings (size 3 to 8) (size 9 to 14) (size 15 to 20)
#    0.000    0.000    5.000    5.250    3.500    1.000 
#    0.000    0.000    0.000    0.000    0.000    0.000 
#    0.000    0.000    0.000    0.000    0.000    0.000 
#
# Total GULP energy -198480.872696 kJ/mol
# GULP energy per Si atom -12405.054544 kJ/mol
# Density = 2.086946 g / cm^3
# Si number density = 20.917068 Si / 1000 Ang^3
#
#
#
# Elastic Constant Matrix: (Units=GPa)
#
#
# Indices 1 2 3 4 5 6 
#
# 1 126.8929 35.7487 34.7638 0.1270 -0.0899 26.8041
# 2 35.7487 173.7570 63.7779 0.2295 -0.1162 25.7291
# 3 34.7638 63.7779 198.0751 0.2918 -0.1538 -6.5518
# 4 0.1270 0.2295 0.2918 13.5558 2.7278 0.0852
# 5 -0.0899 -0.1162 -0.1538 2.7278 34.3939 -0.0395
# 6 26.8041 25.7291 -6.5518 0.0852 -0.0395 43.2361
#
#
#
# Elastic Compliance Matrix: (Units=1/GPa)
#
#
# Indices 1 2 3 4 5 6 
#
# 1 0.009773 -0.000467 -0.001765 -0.000010 0.000010 -0.006048
# 2 -0.000467 0.007418 -0.002455 -0.000042 0.000011 -0.004497
# 3 -0.001765 -0.002455 0.006265 -0.000104 0.000027 0.003505
# 4 -0.000010 -0.000042 -0.000104 0.074970 -0.005947 -0.000138
# 5 0.000010 0.000011 0.000027 -0.005947 0.029547 0.000030
# 6 -0.006048 -0.004497 0.003505 -0.000138 0.000030 0.030086
#
#
# Mechanical properties :
#
#
# Convention : Reuss Voigt Hill
#
# Bulk Modulus (GPa) = 71.01326 85.25618 78.13472
# Shear Modulus (GPa) = 29.04804 42.53280 35.79042
#
# Velocity S-wave (km/s) = 3.73060 4.51422 4.14099
# Velocity P-wave (km/s) = 7.25122 8.24733 7.76526
#
# Compressibility (1/GPa) = 0.01408188
#
# Stress axis : x y z
#
# Youngs Moduli (GPa) = 102.31789 134.79852 159.61626
#
# Poissons Ratio (x) = 0.06300 0.28170
# Poissons Ratio (y) = 0.04782 0.39191
# Poissons Ratio (z) = 0.18058 0.33097
#
# Static dielectric constant tensor:
#      x y z
#    x 4.135210 0.178040 -0.021230 
#    y 0.178040 4.141030 -0.028510 
#    z -0.021230 -0.028510 -6.480190 
# 
# 
# High freq. dielectric constant tensor:
#      x y z
#    x 1.833240 0.013230 -0.000010 
#    y 0.013230 1.827240 0.000010 
#    z -0.000010 0.000010 1.847750 
# 
# From -- ./inp_files/85405.got.cif
#   From: 2010.06.25/outbox.cif.g09.slc.cpg/sg2_43_cif.got.tgz:85405.got - 2010.06.27 13:26:56.
