data_PCOD8036500
_publ_section_title
;
Structure prediction by ZEFSAII (Michael W. Deem and Ramdas Pophale) SiO2 
 PCOD8036500
Probable space group: P -1
;
_chemical_formula_sum "Si O2"
_cell_formula_units_Z 10
_cell_length_a 5.012319
_cell_length_b 15.101401
_cell_length_c 14.978540
_cell_angle_alpha 19.207672
_cell_angle_beta 85.489540
_cell_angle_gamma 85.853292
_cell_volume 371.841120
_symmetry_space_group_name_H-M "P -1"
_symmetry_group_IT_number 2
_symmetry_cell_setting 'triclinic'
loop_
_space_group_symop_operation_xyz
x,y,z
-x,-y,-z
loop_
_atom_site_type_symbol
_atom_site_label
_atom_site_fract_x
_atom_site_fract_y
_atom_site_fract_z
Si Si1 0.648592 0.451962 0.860855
Si Si2 0.248148 0.314328 0.690635
Si Si3 0.187217 0.801914 0.496908
Si Si4 0.525877 0.946498 0.904800
Si Si5 0.967587 0.223982 0.213236
O O1 0.384333 0.627487 0.720540
O O2 0.898870 0.657001 0.643458
O O3 0.617351 0.274155 0.942829
O O4 0.692207 0.262398 0.127609
O O5 0.500000 0.500000 0.500000
O O6 0.000000 0.500000 0.500000
O O7 0.281837 0.075043 0.845241
O O8 0.247003 0.183718 0.913692
O O9 0.317337 0.823024 0.375179
O O10 0.173029 0.113262 0.236917
O O11 0.000000 0.000000 0.500000
O O12 0.000000 0.500000 0.000000
#
# Coordination Sequence:
#
# PCOD8036500 Si02
#       5
#     2   2   2   2   2
#     4  12  28  52  83 120 164 216 277 341 408 496
#     4  11  28  51  77 114 165 209 270 342 408 494
#     4  12  28  52  83 120 164 216 277 341 408 496
#     4  11  28  50  84 118 158 218 276 336 414 491
#     4  12  28  54  82 123 170 219 276 344 414 490
#
# _framework density 26.893204000000001
#
# number of rings (size 3 to 8) (size 9 to 14) (size 15 to 20)
#    0.000    0.400    2.000    3.600    0.000   20.800 
#    0.000    3.000    0.000    0.000    0.000    0.000 
#    0.000    0.000    0.000    0.000    0.000    0.000 
#
# Total GULP energy -123922.841985 kJ/mol
# GULP energy per Si atom -12392.284199 kJ/mol
# Density = 2.683199 g / cm^3
# Si number density = 26.893204 Si / 1000 Ang^3
#
#
#
# Elastic Constant Matrix: (Units=GPa)
#
#
# Indices 1 2 3 4 5 6 
#
# 1 149.7895 49.3077 51.9338 -29.2035 28.4968 11.5607
# 2 49.3077 164.6427 60.3463 -22.9794 22.9560 25.0413
# 3 51.9338 60.3463 158.3930 -17.7437 33.2126 13.1633
# 4 -29.2035 -22.9794 -17.7437 62.8772 -3.7120 -0.5281
# 5 28.4968 22.9560 33.2126 -3.7120 58.9350 2.1452
# 6 11.5607 25.0413 13.1633 -0.5281 2.1452 14.8072
#
#
#
# Elastic Compliance Matrix: (Units=1/GPa)
#
#
# Indices 1 2 3 4 5 6 
#
# 1 0.008872 -0.000690 -0.001331 0.003287 -0.002917 -0.004038
# 2 -0.000690 0.009587 -0.001607 0.002505 -0.001832 -0.013892
# 3 -0.001331 -0.001607 0.008429 0.000951 -0.003304 -0.003224
# 4 0.003287 0.002505 0.000951 0.018458 -0.001693 -0.006745
# 5 -0.002917 -0.001832 -0.003304 -0.001693 0.020656 0.005259
# 6 -0.004038 -0.013892 -0.003224 -0.006745 0.005259 0.096043
#
#
# Mechanical properties :
#
#
# Convention : Reuss Voigt Hill
#
# Bulk Modulus (GPa) = 50.93461 88.44453 69.68957
# Shear Modulus (GPa) = 28.43412 48.07304 38.25358
#
# Velocity S-wave (km/s) = 3.25514 4.23253 3.77560
# Velocity P-wave (km/s) = 5.75401 7.53953 6.70646
#
# Compressibility (1/GPa) = 0.01963301
#
# Stress axis : x y z
#
# Youngs Moduli (GPa) = 112.71600 104.30446 118.63432
#
# Poissons Ratio (x) = 0.07193 0.15787
# Poissons Ratio (y) = 0.07773 0.19069
# Poissons Ratio (z) = 0.14999 0.16766
#
# Static dielectric constant tensor:
#      x y z
#    x 4.771950 0.098610 0.364800 
#    y 0.098610 5.650630 0.056040 
#    z 0.364800 0.056040 5.275350 
# 
# 
# High freq. dielectric constant tensor:
#      x y z
#    x 2.076130 0.006850 0.020670 
#    y 0.006850 2.098810 -0.006500 
#    z 0.020670 -0.006500 2.109040 
# 
# From -- ./inp_files/483739.got.cif
#   From: 2010.06.25/outbox.cif.g09.slc.cpg/sg2_242_cif.got.tgz:483739.got - 2010.06.27 13:26:56.
