data_PCOD8036532
_publ_section_title
;
Structure prediction by ZEFSAII (Michael W. Deem and Ramdas Pophale) SiO2 
 PCOD8036532
Probable space group: P -1
;
_chemical_formula_sum "Si O2"
_cell_formula_units_Z 14
_cell_length_a 11.563949
_cell_length_b 9.544337
_cell_length_c 17.628177
_cell_angle_alpha 79.161754
_cell_angle_beta 133.858593
_cell_angle_gamma 138.712642
_cell_volume 661.912453
_symmetry_space_group_name_H-M "P -1"
_symmetry_group_IT_number 2
_symmetry_cell_setting 'triclinic'
loop_
_space_group_symop_operation_xyz
x,y,z
-x,-y,-z
loop_
_atom_site_type_symbol
_atom_site_label
_atom_site_fract_x
_atom_site_fract_y
_atom_site_fract_z
Si Si1 0.782459 0.451243 0.533627
Si Si2 0.469928 0.987207 0.341591
Si Si3 0.256768 0.629594 0.158425
Si Si4 0.753447 0.073044 0.089181
Si Si5 0.855591 0.010264 0.303769
Si Si6 0.845239 0.498950 0.209020
Si Si7 0.836359 0.036159 0.597104
O O1 0.026440 0.542557 0.685515
O O2 0.692921 0.304069 0.427092
O O3 0.431983 0.216776 0.436541
O O4 0.956918 0.740301 0.576210
O O5 0.449244 0.918927 0.252158
O O6 0.094517 0.716602 0.229257
O O7 0.650719 0.997882 0.462053
O O8 0.487652 0.710002 0.202509
O O9 0.085108 0.395686 0.167955
O O10 0.000000 0.500000 0.000000
O O11 0.862139 0.075106 0.214153
O O12 0.500000 0.000000 0.000000
O O13 0.540232 0.807202 0.962188
O O14 0.029426 0.992941 0.385952
O O15 0.856120 0.643788 0.254656
#
# Coordination Sequence:
#
# PCOD8036532 Si02
#       7
#     2   2   2   2   2   2   2
#     4   9  17  34  59  83 113 152 192 232 283 340
#     4   9  18  35  59  85 114 150 191 238 281 338
#     4  12  23  37  60  89 113 149 201 236 281 345
#     4  12  20  38  62  83 113 154 194 240 282 330
#     4  12  23  36  59  91 118 150 190 240 287 341
#     4   9  16  35  60  84 111 153 195 234 278 337
#     4   9  20  35  58  88 120 150 189 233 293 345
#
# _framework density 21.150835000000001
#
# number of rings (size 3 to 8) (size 9 to 14) (size 15 to 20)
#    0.000    1.714    4.286    3.000    0.000    1.714 
#    0.000    0.714    0.000    1.714    0.000    0.000 
#    0.000    0.000    0.000    0.000    0.000    0.000 
#
# Total GULP energy -173475.582685 kJ/mol
# GULP energy per Si atom -12391.113049 kJ/mol
# Density = 2.110269 g / cm^3
# Si number density = 21.150835 Si / 1000 Ang^3
#
#
#
# Elastic Constant Matrix: (Units=GPa)
#
#
# Indices 1 2 3 4 5 6 
#
# 1 124.1000 46.7768 37.4179 12.3560 4.6713 -10.5580
# 2 46.7768 66.2278 20.7824 16.4777 1.1337 -7.5732
# 3 37.4179 20.7824 75.5300 24.1594 -16.5567 -9.4251
# 4 12.3560 16.4777 24.1594 20.6076 -5.4205 -9.2757
# 5 4.6713 1.1337 -16.5567 -5.4205 38.9789 3.8281
# 6 -10.5580 -7.5732 -9.4251 -9.2757 3.8281 37.5742
#
#
#
# Elastic Compliance Matrix: (Units=1/GPa)
#
#
# Indices 1 2 3 4 5 6 
#
# 1 0.012908 -0.008428 -0.006823 0.007144 -0.003435 0.002331
# 2 -0.008428 0.024714 0.003168 -0.019223 -0.000914 -0.001245
# 3 -0.006823 0.003168 0.026248 -0.028177 0.008201 -0.002486
# 4 0.007144 -0.019223 -0.028177 0.099718 0.000062 0.015676
# 5 -0.003435 -0.000914 0.008201 0.000062 0.029793 -0.002113
# 6 0.002331 -0.001245 -0.002486 0.015676 -0.002113 0.030479
#
#
# Mechanical properties :
#
#
# Convention : Reuss Voigt Hill
#
# Bulk Modulus (GPa) = 25.18608 52.86799 39.02703
# Shear Modulus (GPa) = 19.13787 30.15751 24.64769
#
# Velocity S-wave (km/s) = 3.01130 3.78011 3.41740
# Velocity P-wave (km/s) = 4.90145 6.64096 5.83638
#
# Compressibility (1/GPa) = 0.03970447
#
# Stress axis : x y z
#
# Youngs Moduli (GPa) = 77.46851 40.46267 38.09749
#
# Poissons Ratio (x) = 0.34103 0.25995
# Poissons Ratio (y) = 0.65293 -0.12070
# Poissons Ratio (z) = 0.52859 -0.12820
#
# Static dielectric constant tensor:
#      x y z
#    x 2.349400 -0.068710 0.064530 
#    y -0.068710 3.802030 0.459370 
#    z 0.064530 0.459370 3.971980 
# 
# 
# High freq. dielectric constant tensor:
#      x y z
#    x 1.829430 -0.003650 -0.016000 
#    y -0.003650 1.804850 0.028370 
#    z -0.016000 0.028370 1.824120 
# 
# From -- ./inp_files/220251.got.cif
#   From: 2010.06.25/outbox.cif.g09.slc.cpg/sg2_111_cif.got.tgz:220251.got - 2010.06.27 13:26:56.
