data_PCOD8036490
_publ_section_title
;
Structure prediction by ZEFSAII (Michael W. Deem and Ramdas Pophale) SiO2 
 PCOD8036490
Probable space group: P -1
;
_chemical_formula_sum "Si O2"
_cell_formula_units_Z 16
_cell_length_a 11.623167
_cell_length_b 14.724983
_cell_length_c 6.788862
_cell_angle_alpha 45.482606
_cell_angle_beta 98.022646
_cell_angle_gamma 77.506457
_cell_volume 734.687548
_symmetry_space_group_name_H-M "P -1"
_symmetry_group_IT_number 2
_symmetry_cell_setting 'triclinic'
loop_
_space_group_symop_operation_xyz
x,y,z
-x,-y,-z
loop_
_atom_site_type_symbol
_atom_site_label
_atom_site_fract_x
_atom_site_fract_y
_atom_site_fract_z
Si Si1 0.393273 0.623909 0.408010
Si Si2 0.549961 0.755291 0.470835
Si Si3 0.003949 0.087374 0.672315
Si Si4 0.265302 0.261720 0.789691
Si Si5 0.388089 0.973492 0.417473
Si Si6 0.000815 0.386761 0.330959
Si Si7 0.790337 0.123440 0.254266
Si Si8 0.718510 0.550651 0.155049
O O1 0.500000 0.500000 0.500000
O O2 0.457861 0.711143 0.391855
O O3 0.338565 0.561277 0.661005
O O4 0.271646 0.720732 0.093721
O O5 0.636154 0.797115 0.280385
O O6 0.448132 0.885793 0.369855
O O7 0.654189 0.633239 0.816325
O O8 0.011997 0.235530 0.485878
O O9 0.874479 0.122292 0.464638
O O10 0.128392 0.991681 0.715960
O O11 0.000000 0.000000 0.000000
O O12 0.315964 0.345073 0.824541
O O13 0.119426 0.360381 0.542272
O O14 0.267592 0.123416 0.105840
O O15 0.332830 0.898416 0.670980
O O16 0.500000 0.000000 0.500000
O O17 0.872071 0.465102 0.306814
O O18 0.000000 0.500000 0.000000
#
# Coordination Sequence:
#
# PCOD8036490 Si02
#       8
#     2   2   2   2   2   2   2   2
#     4  12  26  46  76 108 148 192 242 301 365 445
#     4  12  26  47  72 107 148 196 240 298 372 440
#     4  11  27  53  76 108 143 201 252 308 368 432
#     4  12  26  48  72 105 147 190 243 302 372 436
#     4  12  26  46  76 108 148 192 242 301 365 445
#     4  12  28  45  79 105 144 192 246 311 368 434
#     4  11  28  48  76 106 150 191 248 304 362 443
#     4  12  26  48  72 105 147 190 243 302 372 436
#
# _framework density 21.777964999999998
#
# number of rings (size 3 to 8) (size 9 to 14) (size 15 to 20)
#    0.000    0.250    3.750    4.125   12.250    1.000 
#    0.000    0.000    0.000    0.000    0.000    0.000 
#    0.000    0.000    0.000    0.000    0.000    0.000 
#
# Total GULP energy -198435.851607 kJ/mol
# GULP energy per Si atom -12402.240725 kJ/mol
# Density = 2.172840 g / cm^3
# Si number density = 21.777965 Si / 1000 Ang^3
#
#
#
# Elastic Constant Matrix: (Units=GPa)
#
#
# Indices 1 2 3 4 5 6 
#
# 1 96.3845 31.3267 14.0330 3.4246 -0.8550 -6.4335
# 2 31.3267 98.6933 53.9850 -0.8782 1.8034 -3.4315
# 3 14.0330 53.9850 102.3875 -7.7860 8.5584 5.1502
# 4 3.4246 -0.8782 -7.7860 38.9940 1.5154 0.2749
# 5 -0.8550 1.8034 8.5584 1.5154 45.7580 -1.6330
# 6 -6.4335 -3.4315 5.1502 0.2749 -1.6330 41.1565
#
#
#
# Elastic Compliance Matrix: (Units=1/GPa)
#
#
# Indices 1 2 3 4 5 6 
#
# 1 0.011724 -0.003795 0.000199 -0.001103 0.000422 0.001515
# 2 -0.003795 0.015766 -0.008030 -0.000963 0.000905 0.001769
# 3 0.000199 -0.008030 0.014534 0.002822 -0.002584 -0.002579
# 4 -0.001103 -0.000963 0.002822 0.026344 -0.001413 -0.000838
# 5 0.000422 0.000905 -0.002584 -0.001413 0.022405 0.001363
# 6 0.001515 0.001769 -0.002579 -0.000838 0.001363 0.025064
#
#
# Mechanical properties :
#
#
# Convention : Reuss Voigt Hill
#
# Bulk Modulus (GPa) = 53.27514 55.12834 54.20174
# Shear Modulus (GPa) = 34.40037 38.38973 36.39505
#
# Velocity S-wave (km/s) = 3.97872 4.20310 4.09245
# Velocity P-wave (km/s) = 6.75448 6.99453 6.87555
#
# Compressibility (1/GPa) = 0.01877048
#
# Stress axis : x y z
#
# Youngs Moduli (GPa) = 85.29789 63.42779 68.80400
#
# Poissons Ratio (x) = 0.24069 -0.01367
# Poissons Ratio (y) = 0.32368 0.55253
# Poissons Ratio (z) = -0.01695 0.50936
#
# Static dielectric constant tensor:
#      x y z
#    x 3.985710 -0.059020 -0.029670 
#    y -0.059020 3.944110 -0.186420 
#    z -0.029670 -0.186420 4.586640 
# 
# 
# High freq. dielectric constant tensor:
#      x y z
#    x 1.871870 -0.004020 0.003190 
#    y -0.004020 1.863810 -0.002660 
#    z 0.003190 -0.002660 1.876830 
# 
# From -- ./inp_files/77013.got.cif
#   From: 2010.06.25/outbox.cif.g09.slc.cpg/sg2_39_cif.got.tgz:77013.got - 2010.06.27 13:26:56.
