data_PCOD8036059
_publ_section_title
;
Structure prediction by ZEFSAII (Michael W. Deem and Ramdas Pophale) SiO2 
 PCOD8036059
Probable space group: P -1
;
_chemical_formula_sum "Si O2"
_cell_formula_units_Z 8
_cell_length_a 5.582288
_cell_length_b 8.675556
_cell_length_c 11.920120
_cell_angle_alpha 140.261228
_cell_angle_beta 108.928480
_cell_angle_gamma 89.073249
_cell_volume 322.076171
_symmetry_space_group_name_H-M "P -1"
_symmetry_group_IT_number 2
_symmetry_cell_setting 'triclinic'
loop_
_space_group_symop_operation_xyz
x,y,z
-x,-y,-z
loop_
_atom_site_type_symbol
_atom_site_label
_atom_site_fract_x
_atom_site_fract_y
_atom_site_fract_z
Si Si1 0.051660 0.504375 0.682739
Si Si2 0.245933 0.279267 0.394631
Si Si3 0.225493 0.698308 0.063236
Si Si4 0.300740 0.002608 0.570774
O O1 0.234773 0.371461 0.572440
O O2 0.017717 0.725906 0.722556
O O3 0.199566 0.611413 0.882567
O O4 0.752113 0.273533 0.530113
O O5 0.500000 0.500000 0.500000
O O6 0.215406 0.983411 0.228195
O O7 0.533402 0.748999 0.184475
O O8 0.000000 0.500000 0.000000
O O9 0.500000 0.000000 0.500000
O O10 0.000000 0.000000 0.500000
#
# Coordination Sequence:
#
# PCOD8036059 Si02
#       4
#     2   2   2   2
#     4  11  26  48  79 111 156 210 261 327 397 473
#     4  11  25  51  75 110 164 203 262 328 395 473
#     4  12  26  49  82 118 152 211 266 326 402 478
#     4  12  26  50  76 118 164 205 263 337 400 475
#
# _framework density 24.838847999999999
#
# number of rings (size 3 to 8) (size 9 to 14) (size 15 to 20)
#    0.000    0.500    5.000    2.250    0.000    2.000 
#    9.000    0.000    0.000    0.000    0.000    0.000 
#    0.000    0.000    0.000    0.000    0.000    0.000 
#
# Total GULP energy -99133.337379 kJ/mol
# GULP energy per Si atom -12391.667172 kJ/mol
# Density = 2.478231 g / cm^3
# Si number density = 24.838848 Si / 1000 Ang^3
#
#
#
# Elastic Constant Matrix: (Units=GPa)
#
#
# Indices 1 2 3 4 5 6 
#
# 1 133.0575 70.0142 72.2128 -10.3094 7.7320 23.4131
# 2 70.0142 145.7398 92.4073 -2.5978 -3.8632 19.6530
# 3 72.2128 92.4073 220.5567 -31.3019 14.3167 21.4405
# 4 -10.3094 -2.5978 -31.3019 70.6463 4.5179 -3.1788
# 5 7.7320 -3.8632 14.3167 4.5179 45.6040 -12.5733
# 6 23.4131 19.6530 21.4405 -3.1788 -12.5733 47.7951
#
#
#
# Elastic Compliance Matrix: (Units=1/GPa)
#
#
# Indices 1 2 3 4 5 6 
#
# 1 0.011358 -0.004199 -0.001226 0.000976 -0.003107 -0.004039
# 2 -0.004199 0.011416 -0.003883 -0.002119 0.003043 -0.000235
# 3 -0.001226 -0.003883 0.007379 0.003075 -0.003227 -0.001757
# 4 0.000976 -0.002119 0.003075 0.015745 -0.003077 -0.000749
# 5 -0.003107 0.003043 -0.003227 -0.003077 0.026359 0.008448
# 6 -0.004039 -0.000235 -0.001757 -0.000749 0.008448 0.025959
#
#
# Mechanical properties :
#
#
# Convention : Reuss Voigt Hill
#
# Bulk Modulus (GPa) = 86.69313 107.62474 97.15893
# Shear Modulus (GPa) = 41.43247 50.45706 45.94477
#
# Velocity S-wave (km/s) = 4.08861 4.51197 4.30550
# Velocity P-wave (km/s) = 7.56749 8.40042 7.99481
#
# Compressibility (1/GPa) = 0.01153494
#
# Stress axis : x y z
#
# Youngs Moduli (GPa) = 88.04733 87.59887 135.51441
#
# Poissons Ratio (x) = 0.36781 0.16621
# Poissons Ratio (y) = 0.36969 0.52627
# Poissons Ratio (z) = 0.10799 0.34019
#
# Static dielectric constant tensor:
#      x y z
#    x 4.652400 -0.317560 0.269460 
#    y -0.317560 5.821110 0.210930 
#    z 0.269460 0.210930 5.256640 
# 
# 
# High freq. dielectric constant tensor:
#      x y z
#    x 1.995670 -0.006560 0.001400 
#    y -0.006560 2.029390 0.000640 
#    z 0.001400 0.000640 1.990470 
# 
# From -- ./inp_files/2062.got.cif
#   From: 2010.06.25/outbox.cif.g09.slc.cpg/sg2_2_cif.got.tgz:2062.got - 2010.06.27 13:26:56.
