data_PCOD8036083
_publ_section_title
;
Structure prediction by ZEFSAII (Michael W. Deem and Ramdas Pophale) SiO2 
 PCOD8036083
Probable space group: P -1
;
_chemical_formula_sum "Si O2"
_cell_formula_units_Z 10
_cell_length_a 13.057219
_cell_length_b 9.367886
_cell_length_c 5.321095
_cell_angle_alpha 113.054881
_cell_angle_beta 125.135126
_cell_angle_gamma 52.812868
_cell_volume 423.090115
_symmetry_space_group_name_H-M "P -1"
_symmetry_group_IT_number 2
_symmetry_cell_setting 'triclinic'
loop_
_space_group_symop_operation_xyz
x,y,z
-x,-y,-z
loop_
_atom_site_type_symbol
_atom_site_label
_atom_site_fract_x
_atom_site_fract_y
_atom_site_fract_z
Si Si1 0.239592 0.289729 0.630588
Si Si2 0.083336 0.904918 0.303390
Si Si3 0.619767 0.116694 0.364878
Si Si4 0.055959 0.582564 0.936729
Si Si5 0.477452 0.329332 0.817857
O O1 0.088525 0.298333 0.352318
O O2 0.312166 0.364083 0.577308
O O3 0.197858 0.425619 0.896523
O O4 0.354744 0.083676 0.722110
O O5 0.235099 0.891823 0.519437
O O6 0.000000 0.000000 0.500000
O O7 0.110426 0.705744 0.221043
O O8 0.000000 0.000000 0.000000
O O9 0.569998 0.213275 0.632111
O O10 0.512076 0.224269 0.060512
O O11 0.000000 0.500000 0.000000
O O12 0.500000 0.500000 0.000000
#
# Coordination Sequence:
#
# PCOD8036083 Si02
#       5
#     2   2   2   2   2
#     4  11  26  46  69 108 141 188 236 286 357 412
#     4  12  25  46  72 104 143 182 237 287 350 415
#     4  12  26  47  74 103 141 186 236 288 351 423
#     4  11  26  43  74 103 146 185 234 296 344 422
#     4  12  28  47  73 102 144 186 235 292 349 422
#
# _framework density 23.635625999999998
#
# number of rings (size 3 to 8) (size 9 to 14) (size 15 to 20)
#    0.000    0.400    2.000    5.400   11.200    0.000 
#    0.000    0.000    0.000    0.000    0.000    0.000 
#    0.000    0.000    0.000    0.000    0.000    0.000 
#
# Total GULP energy -123939.311958 kJ/mol
# GULP energy per Si atom -12393.931196 kJ/mol
# Density = 2.358183 g / cm^3
# Si number density = 23.635626 Si / 1000 Ang^3
#
#
#
# Elastic Constant Matrix: (Units=GPa)
#
#
# Indices 1 2 3 4 5 6 
#
# 1 181.6320 64.4074 32.8155 37.1671 3.5279 -10.0800
# 2 64.4074 161.4628 39.0913 44.2012 -16.0466 4.2143
# 3 32.8155 39.0913 72.9872 28.1950 -21.3725 -1.0704
# 4 37.1671 44.2012 28.1950 46.0227 2.1510 -4.5056
# 5 3.5279 -16.0466 -21.3725 2.1510 57.1904 8.6265
# 6 -10.0800 4.2143 -1.0704 -4.5056 8.6265 54.1905
#
#
#
# Elastic Compliance Matrix: (Units=1/GPa)
#
#
# Indices 1 2 3 4 5 6 
#
# 1 0.007152 -0.001930 -0.001615 -0.002706 -0.001710 0.001496
# 2 -0.001930 0.009570 -0.000287 -0.007837 0.003337 -0.002292
# 3 -0.001615 -0.000287 0.022077 -0.012600 0.009096 -0.002338
# 4 -0.002706 -0.007837 -0.012600 0.040029 -0.008941 0.004609
# 5 -0.001710 0.003337 0.009096 -0.008941 0.022987 -0.004801
# 6 0.001496 -0.002292 -0.002338 0.004609 -0.004801 0.020011
#
#
# Mechanical properties :
#
#
# Convention : Reuss Voigt Hill
#
# Bulk Modulus (GPa) = 32.11814 76.52338 54.32076
# Shear Modulus (GPa) = 35.74819 50.13191 42.94005
#
# Velocity S-wave (km/s) = 3.89327 4.61046 4.26696
# Velocity P-wave (km/s) = 5.81622 7.79669 6.87811
#
# Compressibility (1/GPa) = 0.03113505
#
# Stress axis : x y z
#
# Youngs Moduli (GPa) = 139.82446 104.49843 45.29555
#
# Poissons Ratio (x) = 0.20168 0.07316
# Poissons Ratio (y) = 0.26986 0.01298
# Poissons Ratio (z) = 0.22586 0.02994
#
# Static dielectric constant tensor:
#      x y z
#    x 4.453660 0.017200 0.140410 
#    y 0.017200 4.434230 -0.052660 
#    z 0.140410 -0.052660 4.417000 
# 
# 
# High freq. dielectric constant tensor:
#      x y z
#    x 1.968580 -0.000300 0.015460 
#    y -0.000300 1.945050 0.007640 
#    z 0.015460 0.007640 1.942510 
# 
# From -- ./inp_files/27136.got.cif
#   From: 2010.06.25/outbox.cif.g09.slc.cpg/sg2_14_cif.got.tgz:27136.got - 2010.06.27 13:26:56.
