data_PCOD8036559
_publ_section_title
;
Structure prediction by ZEFSAII (Michael W. Deem and Ramdas Pophale) SiO2 
 PCOD8036559
Probable space group: P -1
;
_chemical_formula_sum "Si O2"
_cell_formula_units_Z 14
_cell_length_a 14.876367
_cell_length_b 11.735109
_cell_length_c 14.786204
_cell_angle_alpha 124.653075
_cell_angle_beta 19.730068
_cell_angle_gamma 114.374919
_cell_volume 643.304929
_symmetry_space_group_name_H-M "P -1"
_symmetry_group_IT_number 2
_symmetry_cell_setting 'triclinic'
loop_
_space_group_symop_operation_xyz
x,y,z
-x,-y,-z
loop_
_atom_site_type_symbol
_atom_site_label
_atom_site_fract_x
_atom_site_fract_y
_atom_site_fract_z
Si Si1 0.263210 0.631766 0.095823
Si Si2 0.256406 0.204044 0.020669
Si Si3 0.021818 0.076942 0.606065
Si Si4 0.103644 0.551891 0.657027
Si Si5 0.296154 0.680617 0.280763
Si Si6 0.731154 0.551690 0.345471
Si Si7 0.431485 0.915007 0.823097
O O1 0.243198 0.735883 0.250481
O O2 0.169720 0.738395 0.143380
O O3 0.036877 0.558703 0.294259
O O4 0.588920 0.495651 0.708459
O O5 0.113703 0.271755 0.088007
O O6 0.013541 0.289539 0.366690
O O7 0.542959 0.233758 0.779150
O O8 0.358642 0.019092 0.847589
O O9 0.358854 0.039685 0.291403
O O10 0.000000 0.000000 0.500000
O O11 0.879033 0.030483 0.805328
O O12 0.147995 0.539013 0.716371
O O13 0.500000 0.500000 0.000000
O O14 0.500000 0.500000 0.500000
O O15 0.582553 0.735734 0.576839
O O16 0.000000 0.500000 0.000000
#
# Coordination Sequence:
#
# PCOD8036559 Si02
#       7
#     2   2   2   2   2   2   2
#     4  12  21  37  62  92 131 177 221 258 301 379
#     4  12  24  41  62  97 138 177 210 269 330 379
#     4  12  23  40  62  97 141 179 217 259 323 393
#     4  12  23  42  66  92 126 163 218 272 322 391
#     4  12  22  37  59  96 141 185 223 247 304 403
#     4  12  26  48  73  96 121 170 229 288 349 389
#     4  12  25  44  66  98 136 170 220 279 330 396
#
# _framework density 21.762620999999999
#
# number of rings (size 3 to 8) (size 9 to 14) (size 15 to 20)
#    0.000    0.000    5.714    6.000    0.000    0.000 
#    0.000    1.429    0.000    0.000    0.000    0.000 
#    0.000    0.000    0.000    0.000    0.000    0.000 
#
# Total GULP energy -173638.026116 kJ/mol
# GULP energy per Si atom -12402.716151 kJ/mol
# Density = 2.171309 g / cm^3
# Si number density = 21.762621 Si / 1000 Ang^3
#
#
#
# Elastic Constant Matrix: (Units=GPa)
#
#
# Indices 1 2 3 4 5 6 
#
# 1 126.5465 50.2999 36.6270 4.5596 -10.3232 -18.9042
# 2 50.2999 124.1200 27.0561 7.8487 -13.6973 -18.4710
# 3 36.6270 27.0561 91.6805 -20.4276 -2.4793 8.1449
# 4 4.5596 7.8487 -20.4276 42.2497 -3.7400 -13.0665
# 5 -10.3232 -13.6973 -2.4793 -3.7400 38.0319 5.1000
# 6 -18.9042 -18.4710 8.1449 -13.0665 5.1000 38.6459
#
#
#
# Elastic Compliance Matrix: (Units=1/GPa)
#
#
# Indices 1 2 3 4 5 6 
#
# 1 0.010986 -0.002673 -0.004252 -0.001287 0.001023 0.004423
# 2 -0.002673 0.010598 -0.002685 -0.001711 0.002286 0.003444
# 3 -0.004252 -0.002685 0.015357 0.007090 0.000143 -0.004222
# 4 -0.001287 -0.001711 0.007090 0.029835 0.001499 0.006948
# 5 0.001023 0.002286 0.000143 0.001499 0.027765 -0.001595
# 6 0.004423 0.003444 -0.004222 0.006948 -0.001595 0.033135
#
#
# Mechanical properties :
#
#
# Convention : Reuss Voigt Hill
#
# Bulk Modulus (GPa) = 56.43002 63.36810 59.89906
# Shear Modulus (GPa) = 32.72178 39.00977 35.86577
#
# Velocity S-wave (km/s) = 3.88181 4.23840 4.06402
# Velocity P-wave (km/s) = 6.78803 7.28925 7.04310
#
# Compressibility (1/GPa) = 0.01772106
#
# Stress axis : x y z
#
# Youngs Moduli (GPa) = 91.02706 94.35556 65.11567
#
# Poissons Ratio (x) = 0.25219 0.27687
# Poissons Ratio (y) = 0.24329 0.17485
# Poissons Ratio (z) = 0.38705 0.25337
#
# Static dielectric constant tensor:
#      x y z
#    x 4.165640 -0.443580 -0.367410 
#    y -0.443580 4.290180 0.061340 
#    z -0.367410 0.061340 4.027690 
# 
# 
# High freq. dielectric constant tensor:
#      x y z
#    x 1.834660 -0.027320 -0.029990 
#    y -0.027320 1.872540 -0.010020 
#    z -0.029990 -0.010020 1.862730 
# 
# From -- ./inp_files/101741.got.cif
#   From: 2010.06.25/outbox.cif.g09.slc.cpg/sg2_51_cif.got.tgz:101741.got - 2010.06.27 13:26:56.
