data_PCOD8036224
_publ_section_title
;
Structure prediction by ZEFSAII (Michael W. Deem and Ramdas Pophale) SiO2 
 PCOD8036224
Probable space group: P -1
;
_chemical_formula_sum "Si O2"
_cell_formula_units_Z 16
_cell_length_a 11.173057
_cell_length_b 9.570409
_cell_length_c 17.650133
_cell_angle_alpha 28.375624
_cell_angle_beta 128.123295
_cell_angle_gamma 116.994247
_cell_volume 685.209021
_symmetry_space_group_name_H-M "P -1"
_symmetry_group_IT_number 2
_symmetry_cell_setting 'triclinic'
loop_
_space_group_symop_operation_xyz
x,y,z
-x,-y,-z
loop_
_atom_site_type_symbol
_atom_site_label
_atom_site_fract_x
_atom_site_fract_y
_atom_site_fract_z
Si Si1 0.776229 0.454350 0.272970
Si Si2 0.982910 0.869451 0.216333
Si Si3 0.905383 0.942257 0.676284
Si Si4 0.203832 0.577230 0.876509
Si Si5 0.518652 0.402687 0.671570
Si Si6 0.740321 0.439165 0.867875
Si Si7 0.287463 0.874858 0.258190
Si Si8 0.578115 0.184464 0.059439
O O1 0.845298 0.390843 0.245831
O O2 0.596269 0.628845 0.114356
O O3 0.874859 0.638043 0.273149
O O4 0.794845 0.142984 0.474325
O O5 0.126255 0.778564 0.256807
O O6 0.045783 0.857984 0.332918
O O7 0.884468 0.204750 0.996011
O O8 0.801076 0.733781 0.773567
O O9 0.056909 0.739733 0.791672
O O10 0.351185 0.732558 0.872721
O O11 0.264722 0.230650 0.091416
O O12 0.592659 0.530169 0.711416
O O13 0.418636 0.698797 0.450963
O O14 0.657787 0.213111 0.763773
O O15 0.413670 0.174079 0.766953
O O16 0.696066 0.265102 0.005917
#
# Coordination Sequence:
#
# PCOD8036224 Si02
#       8
#     2   2   2   2   2   2   2   2
#     4  12  29  45  75 108 144 198 243 293 363 431
#     4  12  25  49  73 105 146 195 241 299 357 429
#     4  12  28  47  73 110 147 189 246 298 359 428
#     4  12  25  50  74 106 148 190 239 306 360 426
#     4  11  27  46  73 112 143 191 241 301 362 434
#     4  12  25  46  75 101 149 193 239 296 364 427
#     4  11  26  46  76 105 145 192 242 299 361 431
#     4  12  26  46  72 104 150 190 238 300 363 423
#
# _framework density 23.350538
#
# number of rings (size 3 to 8) (size 9 to 14) (size 15 to 20)
#    0.000    0.250    5.000    2.625    7.000    2.500 
#    0.000    0.000    0.000    0.000    0.000    0.000 
#    0.000    0.000    0.000    0.000    0.000    0.000 
#
# Total GULP energy -198461.484330 kJ/mol
# GULP energy per Si atom -12403.842771 kJ/mol
# Density = 2.329739 g / cm^3
# Si number density = 23.350538 Si / 1000 Ang^3
#
#
#
# Elastic Constant Matrix: (Units=GPa)
#
#
# Indices 1 2 3 4 5 6 
#
# 1 105.8551 44.3224 22.6952 -1.8113 -12.0854 3.6397
# 2 44.3224 145.1711 37.9543 9.0778 -14.9370 7.2916
# 3 22.6952 37.9543 96.8693 12.4868 -19.0401 5.4886
# 4 -1.8113 9.0778 12.4868 23.9537 -5.0658 -4.5922
# 5 -12.0854 -14.9370 -19.0401 -5.0658 30.1680 3.1232
# 6 3.6397 7.2916 5.4886 -4.5922 3.1232 25.5094
#
#
#
# Elastic Compliance Matrix: (Units=1/GPa)
#
#
# Indices 1 2 3 4 5 6 
#
# 1 0.011384 -0.003031 -0.001339 0.003253 0.002784 -0.000225
# 2 -0.003031 0.008775 -0.001916 -0.002643 0.001721 -0.002350
# 3 -0.001339 -0.001916 0.013670 -0.005890 0.006574 -0.004068
# 4 0.003253 -0.002643 -0.005890 0.048689 0.003428 0.009904
# 5 0.002784 0.001721 0.006574 0.003428 0.040528 -0.006649
# 6 -0.000225 -0.002350 -0.004068 0.009904 -0.006649 0.043377
#
#
# Mechanical properties :
#
#
# Convention : Reuss Voigt Hill
#
# Bulk Modulus (GPa) = 47.04386 61.98216 54.51301
# Shear Modulus (GPa) = 26.86992 32.12112 29.49552
#
# Velocity S-wave (km/s) = 3.39591 3.71294 3.55796
# Velocity P-wave (km/s) = 5.96379 6.70694 6.34625
#
# Compressibility (1/GPa) = 0.02125676
#
# Stress axis : x y z
#
# Youngs Moduli (GPa) = 87.83878 113.95739 73.15524
#
# Poissons Ratio (x) = 0.34545 0.09794
# Poissons Ratio (y) = 0.26628 0.14016
# Poissons Ratio (z) = 0.11760 0.21834
#
# Static dielectric constant tensor:
#      x y z
#    x 4.329140 -0.030370 0.001920 
#    y -0.030370 4.333290 0.059930 
#    z 0.001920 0.059930 4.265060 
# 
# 
# High freq. dielectric constant tensor:
#      x y z
#    x 1.930030 0.003030 0.001230 
#    y 0.003030 1.929950 0.008340 
#    z 0.001230 0.008340 1.930370 
# 
# From -- ./inp_files/566375.got.cif
#   From: 2010.06.25/outbox.cif.g09.slc.cpg/sg2_284_cif.got.tgz:566375.got - 2010.06.27 13:26:56.
