data_PCOD8036076
_publ_section_title
;
Structure prediction by ZEFSAII (Michael W. Deem and Ramdas Pophale) SiO2 
 PCOD8036076
Probable space group: P -1
;
_chemical_formula_sum "Si O2"
_cell_formula_units_Z 16
_cell_length_a 19.573945
_cell_length_b 5.089965
_cell_length_c 9.797497
_cell_angle_alpha 116.585802
_cell_angle_beta 61.679100
_cell_angle_gamma 125.494830
_cell_volume 679.144229
_symmetry_space_group_name_H-M "P -1"
_symmetry_group_IT_number 2
_symmetry_cell_setting 'triclinic'
loop_
_space_group_symop_operation_xyz
x,y,z
-x,-y,-z
loop_
_atom_site_type_symbol
_atom_site_label
_atom_site_fract_x
_atom_site_fract_y
_atom_site_fract_z
Si Si1 0.398657 0.339779 0.283289
Si Si2 0.877922 0.893254 0.711234
Si Si3 0.166124 0.171597 0.784909
Si Si4 0.593658 0.661068 0.182479
Si Si5 0.315472 0.558124 0.180571
Si Si6 0.952972 0.132318 0.411211
Si Si7 0.364785 0.585814 0.651014
Si Si8 0.898099 0.303057 0.021116
O O1 0.497537 0.508682 0.168930
O O2 0.333542 0.375083 0.246996
O O3 0.403788 0.547120 0.462172
O O4 0.366546 0.951258 0.246373
O O5 0.788816 0.556098 0.749987
O O6 0.966046 0.938024 0.715663
O O7 0.890224 0.908800 0.540660
O O8 0.872068 0.200676 0.862824
O O9 0.266740 0.286599 0.685070
O O10 0.147317 0.476684 0.843645
O O11 0.105272 0.889029 0.669343
O O12 0.143340 0.030467 0.925722
O O13 0.579923 0.473584 0.296338
O O14 0.633358 0.057809 0.253901
O O15 0.657064 0.566046 0.011025
O O16 0.000000 0.500000 0.500000
O O17 0.000000 0.500000 0.000000
#
# Coordination Sequence:
#
# PCOD8036076 Si02
#       8
#     2   2   2   2   2   2   2   2
#     4  12  26  47  73 104 140 181 227 285 352 415
#     4  11  26  43  67  99 139 179 233 276 340 397
#     4  12  26  44  70  99 140 176 237 275 337 398
#     4  12  25  49  72 104 140 181 227 284 354 415
#     4  12  26  44  72 106 138 183 230 287 338 413
#     4  11  26  44  67  96 139 187 222 283 335 403
#     4  12  25  44  72 106 137 184 227 289 337 415
#     4  12  25  46  67  99 130 189 229 280 333 396
#
# _framework density 23.559061
#
# number of rings (size 3 to 8) (size 9 to 14) (size 15 to 20)
#    0.000    0.250    1.250    7.875    7.000    0.000 
#    0.000    0.000    0.000    0.000    0.000    0.000 
#    0.000    0.000    0.000    0.000    0.000    0.000 
#
# Total GULP energy -198431.745128 kJ/mol
# GULP energy per Si atom -12401.984070 kJ/mol
# Density = 2.350544 g / cm^3
# Si number density = 23.559061 Si / 1000 Ang^3
#
#
#
# Elastic Constant Matrix: (Units=GPa)
#
#
# Indices 1 2 3 4 5 6 
#
# 1 75.2726 24.4264 22.7281 -9.7136 3.7435 8.9980
# 2 24.4264 114.3034 30.9826 5.5320 -15.2427 11.0852
# 3 22.7281 30.9826 110.5777 3.2284 0.0609 7.3408
# 4 -9.7136 5.5320 3.2284 44.1903 3.4490 -5.5831
# 5 3.7435 -15.2427 0.0609 3.4490 34.0369 -8.1357
# 6 8.9980 11.0852 7.3408 -5.5831 -8.1357 49.2270
#
#
#
# Elastic Compliance Matrix: (Units=1/GPa)
#
#
# Indices 1 2 3 4 5 6 
#
# 1 0.016079 -0.003362 -0.002347 0.004195 -0.004184 -0.002048
# 2 -0.003362 0.011001 -0.002260 -0.002484 0.005331 -0.000926
# 3 -0.002347 -0.002260 0.010246 -0.001021 -0.000872 -0.000850
# 4 0.004195 -0.002484 -0.001021 0.024483 -0.003542 0.002136
# 5 -0.004184 0.005331 -0.000872 -0.003542 0.033752 0.004871
# 6 -0.002048 -0.000926 -0.000850 0.002136 0.004871 0.022071
#
#
# Mechanical properties :
#
#
# Convention : Reuss Voigt Hill
#
# Bulk Modulus (GPa) = 46.75823 50.71423 48.73623
# Shear Modulus (GPa) = 35.53673 40.29195 37.91434
#
# Velocity S-wave (km/s) = 3.88804 4.14001 4.01600
# Velocity P-wave (km/s) = 6.32820 6.66529 6.49893
#
# Compressibility (1/GPa) = 0.02138661
#
# Stress axis : x y z
#
# Youngs Moduli (GPa) = 62.19301 90.90340 97.60123
#
# Poissons Ratio (x) = 0.30565 0.22907
# Poissons Ratio (y) = 0.20911 0.22059
# Poissons Ratio (z) = 0.14597 0.20545
#
# Static dielectric constant tensor:
#      x y z
#    x 3.292240 0.835810 -0.277330 
#    y 0.835810 3.804890 0.306830 
#    z -0.277330 0.306830 3.992000 
# 
# 
# High freq. dielectric constant tensor:
#      x y z
#    x 1.940080 0.011570 -0.003730 
#    y 0.011570 1.938820 0.003320 
#    z -0.003730 0.003320 1.946420 
# 
# From -- ./inp_files/38131.got.cif
#   From: 2010.06.25/outbox.cif.g09.slc.cpg/sg2_20_cif.got.tgz:38131.got - 2010.06.27 13:26:56.
