data_PCOD8036707
_publ_section_title
;
Structure prediction by ZEFSAII (Michael W. Deem and Ramdas Pophale) SiO2 
 PCOD8036707
Probable space group: P -1
;
_chemical_formula_sum "Si O2"
_cell_formula_units_Z 16
_cell_length_a 11.396545
_cell_length_b 13.646213
_cell_length_c 9.524762
_cell_angle_alpha 113.451570
_cell_angle_beta 104.359994
_cell_angle_gamma 33.186283
_cell_volume 733.080795
_symmetry_space_group_name_H-M "P -1"
_symmetry_group_IT_number 2
_symmetry_cell_setting 'triclinic'
loop_
_space_group_symop_operation_xyz
x,y,z
-x,-y,-z
loop_
_atom_site_type_symbol
_atom_site_label
_atom_site_fract_x
_atom_site_fract_y
_atom_site_fract_z
Si Si1 0.379514 0.598156 0.164517
Si Si2 0.820238 0.816640 0.288686
Si Si3 0.446255 0.192348 0.737747
Si Si4 0.580686 0.171798 0.257382
Si Si5 0.968445 0.017861 0.167764
Si Si6 0.268377 0.441592 0.093026
Si Si7 0.366149 0.413603 0.601392
Si Si8 0.064280 0.177887 0.379703
O O1 0.338107 0.513763 0.172816
O O2 0.534143 0.552686 0.284797
O O3 0.500000 0.500000 0.000000
O O4 0.152905 0.821139 0.195548
O O5 0.664552 0.841339 0.322249
O O6 0.912917 0.819319 0.445396
O O7 0.010384 0.621104 0.143742
O O8 0.684303 0.987150 0.237895
O O9 0.416030 0.271542 0.624827
O O10 0.703719 0.987152 0.725607
O O11 0.334093 0.350441 0.908581
O O12 0.746620 0.119270 0.185730
O O13 0.387237 0.283172 0.156068
O O14 0.483949 0.315001 0.432512
O O15 0.955492 0.143144 0.304576
O O16 0.000000 0.000000 0.000000
O O17 0.104627 0.613746 0.618932
#
# Coordination Sequence:
#
# PCOD8036707 Si02
#       8
#     2   2   2   2   2   2   2   2
#     4  12  22  43  70 104 142 180 224 290 357 427
#     4  12  27  47  72 102 143 191 240 296 345 411
#     4  12  27  48  72 102 143 188 247 291 344 416
#     4  12  26  45  73 105 143 181 233 291 358 424
#     4  12  25  43  72 109 145 182 227 289 364 428
#     4  12  26  46  71 106 144 185 234 292 359 422
#     4  12  26  43  75 107 138 186 234 291 357 421
#     4  12  25  46  72 105 141 187 235 293 352 416
#
# _framework density 21.825699
#
# number of rings (size 3 to 8) (size 9 to 14) (size 15 to 20)
#    0.000    0.000    6.250    3.750    1.750    5.000 
#    0.000    0.000    0.000    0.000    0.000    0.000 
#    0.000    0.000    0.000    0.000    0.000    0.000 
#
# Total GULP energy -198498.200918 kJ/mol
# GULP energy per Si atom -12406.137557 kJ/mol
# Density = 2.177602 g / cm^3
# Si number density = 21.825699 Si / 1000 Ang^3
#
#
#
# Elastic Constant Matrix: (Units=GPa)
#
#
# Indices 1 2 3 4 5 6 
#
# 1 99.6939 27.6723 10.8379 -1.2918 -7.4535 12.0458
# 2 27.6723 161.4181 26.6683 3.5828 -5.8548 -0.1080
# 3 10.8379 26.6683 96.2818 8.3034 -12.3847 6.9746
# 4 -1.2918 3.5828 8.3034 40.8520 -4.8811 -11.4627
# 5 -7.4535 -5.8548 -12.3847 -4.8811 25.2857 7.9234
# 6 12.0458 -0.1080 6.9746 -11.4627 7.9234 18.2384
#
#
#
# Elastic Compliance Matrix: (Units=1/GPa)
#
#
# Indices 1 2 3 4 5 6 
#
# 1 0.012700 -0.002074 0.001402 -0.002705 0.007826 -0.014036
# 2 -0.002074 0.006845 -0.002005 0.000430 -0.000802 0.002796
# 3 0.001402 -0.002005 0.013477 -0.005162 0.009815 -0.013600
# 4 -0.002705 0.000430 -0.005162 0.032141 -0.005245 0.026242
# 5 0.007826 -0.000802 0.009815 -0.005245 0.057062 -0.037013
# 6 -0.014036 0.002796 -0.013600 0.026242 -0.037013 0.101890
#
#
# Mechanical properties :
#
#
# Convention : Reuss Voigt Hill
#
# Bulk Modulus (GPa) = 36.14533 54.19452 45.16993
# Shear Modulus (GPa) = 20.94740 36.35625 28.65182
#
# Velocity S-wave (km/s) = 3.10136 4.08579 3.62713
# Velocity P-wave (km/s) = 5.42415 6.86606 6.18725
#
# Compressibility (1/GPa) = 0.02766609
#
# Stress axis : x y z
#
# Youngs Moduli (GPa) = 78.73951 146.08714 74.20244
#
# Poissons Ratio (x) = 0.30302 -0.10401
# Poissons Ratio (y) = 0.16333 0.14880
# Poissons Ratio (z) = -0.11037 0.29295
#
# Static dielectric constant tensor:
#      x y z
#    x 3.844880 -0.031250 -0.071240 
#    y -0.031250 4.272260 0.155160 
#    z -0.071240 0.155160 3.865750 
# 
# 
# High freq. dielectric constant tensor:
#      x y z
#    x 1.849840 -0.001010 -0.003490 
#    y -0.001010 1.882310 0.007790 
#    z -0.003490 0.007790 1.868540 
# 
# From -- ./inp_files/225884.got.cif
#   From: 2010.06.25/outbox.cif.g09.slc.cpg/sg2_113_cif.got.tgz:225884.got - 2010.06.27 13:26:56.
