data_PCOD8036342
_publ_section_title
;
Structure prediction by ZEFSAII (Michael W. Deem and Ramdas Pophale) SiO2 
 PCOD8036342
Probable space group: P -1
;
_chemical_formula_sum "Si O2"
_cell_formula_units_Z 10
_cell_length_a 12.018205
_cell_length_b 11.215651
_cell_length_c 11.678599
_cell_angle_alpha 154.895699
_cell_angle_beta 39.490232
_cell_angle_gamma 143.360258
_cell_volume 392.193279
_symmetry_space_group_name_H-M "P -1"
_symmetry_group_IT_number 2
_symmetry_cell_setting 'triclinic'
loop_
_space_group_symop_operation_xyz
x,y,z
-x,-y,-z
loop_
_atom_site_type_symbol
_atom_site_label
_atom_site_fract_x
_atom_site_fract_y
_atom_site_fract_z
Si Si1 0.068896 0.244745 0.258099
Si Si2 0.686903 0.281284 0.177065
Si Si3 0.060867 0.096973 0.383124
Si Si4 0.480474 0.671557 0.275011
Si Si5 0.352539 0.277842 0.576742
O O1 0.288234 0.434225 0.274647
O O2 0.000000 0.500000 0.500000
O O3 0.984052 0.073315 0.293648
O O4 0.000000 0.000000 0.000000
O O5 0.504600 0.145829 0.289841
O O6 0.608186 0.390498 0.220783
O O7 0.853608 0.553731 0.343679
O O8 0.775148 0.039053 0.857641
O O9 0.867612 0.924430 0.460128
O O10 0.633636 0.708454 0.284734
O O11 0.500000 0.000000 0.500000
O O12 0.500000 0.500000 0.000000
#
# Coordination Sequence:
#
# PCOD8036342 Si02
#       5
#     2   2   2   2   2
#     4  12  25  46  69 104 145 189 240 300 360 434
#     4  11  27  46  74 110 146 191 243 298 361 444
#     4  12  25  47  73 107 148 189 244 297 367 435
#     4  12  27  46  72 106 143 191 243 299 365 434
#     4  11  26  48  75 107 149 191 242 302 365 430
#
# _framework density 25.497630999999998
#
# number of rings (size 3 to 8) (size 9 to 14) (size 15 to 20)
#    0.000    0.400    2.000    6.000    2.800    8.000 
#    0.000    0.000    0.000    0.000    0.000    0.000 
#    0.000    0.000    0.000    0.000    0.000    0.000 
#
# Total GULP energy -123939.912893 kJ/mol
# GULP energy per Si atom -12393.991289 kJ/mol
# Density = 2.543960 g / cm^3
# Si number density = 25.497631 Si / 1000 Ang^3
#
#
#
# Elastic Constant Matrix: (Units=GPa)
#
#
# Indices 1 2 3 4 5 6 
#
# 1 123.0871 20.9578 21.7539 2.7702 -0.2547 -2.5762
# 2 20.9578 132.5101 25.6464 -16.8676 1.4683 28.2684
# 3 21.7539 25.6464 116.0137 3.7874 -4.3164 4.6665
# 4 2.7702 -16.8676 3.7874 39.7725 10.2329 -1.2114
# 5 -0.2547 1.4683 -4.3164 10.2329 43.2228 6.4256
# 6 -2.5762 28.2684 4.6665 -1.2114 6.4256 58.2258
#
#
#
# Elastic Compliance Matrix: (Units=1/GPa)
#
#
# Indices 1 2 3 4 5 6 
#
# 1 0.008662 -0.001513 -0.001300 -0.001099 0.000056 0.001193
# 2 -0.001513 0.009669 -0.001857 0.004487 -0.000929 -0.004417
# 3 -0.001300 -0.001857 0.009398 -0.001976 0.001479 -0.000113
# 4 -0.001099 0.004487 -0.001976 0.029131 -0.007153 -0.000673
# 5 0.000056 -0.000929 0.001479 -0.007153 0.025398 -0.002617
# 6 0.001193 -0.004417 -0.000113 -0.000673 -0.002617 0.019655
#
#
# Mechanical properties :
#
#
# Convention : Reuss Voigt Hill
#
# Bulk Modulus (GPa) = 54.38247 56.48079 55.43163
# Shear Modulus (GPa) = 42.59590 48.46107 45.52849
#
# Velocity S-wave (km/s) = 4.09171 4.36433 4.23022
# Velocity P-wave (km/s) = 6.61041 6.89898 6.75624
#
# Compressibility (1/GPa) = 0.01838828
#
# Stress axis : x y z
#
# Youngs Moduli (GPa) = 115.45285 103.42257 106.40593
#
# Poissons Ratio (x) = 0.15653 0.13829
# Poissons Ratio (y) = 0.17473 0.19760
# Poissons Ratio (z) = 0.15004 0.19206
#
# Static dielectric constant tensor:
#      x y z
#    x 4.703690 0.041850 0.101880 
#    y 0.041850 4.829060 0.037810 
#    z 0.101880 0.037810 4.253430 
# 
# 
# High freq. dielectric constant tensor:
#      x y z
#    x 2.045250 0.003440 0.015000 
#    y 0.003440 2.042150 0.000700 
#    z 0.015000 0.000700 2.008210 
# 
# From -- ./inp_files/25986.got.cif
#   From: 2010.06.25/outbox.cif.g09.slc.cpg/sg2_13_cif.got.tgz:25986.got - 2010.06.27 13:26:56.
