data_PCOD8036486
_publ_section_title
;
Structure prediction by ZEFSAII (Michael W. Deem and Ramdas Pophale) SiO2 
 PCOD8036486
Probable space group: P -1
;
_chemical_formula_sum "Si O2"
_cell_formula_units_Z 16
_cell_length_a 6.564666
_cell_length_b 14.017330
_cell_length_c 11.338608
_cell_angle_alpha 56.831832
_cell_angle_beta 121.793799
_cell_angle_gamma 90.170808
_cell_volume 680.039110
_symmetry_space_group_name_H-M "P -1"
_symmetry_group_IT_number 2
_symmetry_cell_setting 'triclinic'
loop_
_space_group_symop_operation_xyz
x,y,z
-x,-y,-z
loop_
_atom_site_type_symbol
_atom_site_label
_atom_site_fract_x
_atom_site_fract_y
_atom_site_fract_z
Si Si1 0.580283 0.345260 0.223935
Si Si2 0.478245 0.333845 0.460644
Si Si3 0.789398 0.916364 0.176237
Si Si4 0.046828 0.697581 0.238554
Si Si5 0.409001 0.099855 0.632070
Si Si6 0.046774 0.094423 0.114427
Si Si7 0.884359 0.516779 0.169891
Si Si8 0.963666 0.126936 0.338657
O O1 0.592832 0.288379 0.395705
O O2 0.730982 0.436392 0.225681
O O3 0.714758 0.240016 0.238807
O O4 0.277638 0.414638 0.042355
O O5 0.664264 0.381799 0.563114
O O6 0.504195 0.208104 0.620963
O O7 0.186769 0.436159 0.286320
O O8 0.794544 0.906466 0.326169
O O9 0.872793 0.782354 0.233188
O O10 0.961716 0.983626 0.125085
O O11 0.500000 0.000000 0.000000
O O12 0.898053 0.611944 0.209710
O O13 0.075409 0.779921 0.082531
O O14 0.230483 0.146532 0.429593
O O15 0.639335 0.965002 0.768450
O O16 0.936913 0.128021 0.189929
O O17 0.000000 0.000000 0.500000
#
# Coordination Sequence:
#
# PCOD8036486 Si02
#       8
#     2   2   2   2   2   2   2   2
#     4  11  27  52  74 106 144 189 241 303 359 418
#     4  12  25  50  75 103 146 189 245 293 358 423
#     4  12  24  45  68 103 150 183 227 290 362 423
#     4  12  27  46  76 108 143 195 238 293 359 437
#     4  12  24  45  73 105 147 189 230 298 357 425
#     4  12  26  45  69 112 146 183 236 290 364 432
#     4  11  28  50  73 105 140 193 246 298 356 415
#     4  12  25  44  76 109 142 188 237 295 363 428
#
# _framework density 23.528055999999999
#
# number of rings (size 3 to 8) (size 9 to 14) (size 15 to 20)
#    0.000    0.250    5.000    3.750    5.250    2.500 
#    2.250    0.000    0.000    0.000    0.000    0.000 
#    0.000    0.000    0.000    0.000    0.000    0.000 
#
# Total GULP energy -198349.585181 kJ/mol
# GULP energy per Si atom -12396.849074 kJ/mol
# Density = 2.347451 g / cm^3
# Si number density = 23.528056 Si / 1000 Ang^3
#
#
#
# Elastic Constant Matrix: (Units=GPa)
#
#
# Indices 1 2 3 4 5 6 
#
# 1 106.0054 48.3782 49.7481 1.5525 3.9519 -16.9534
# 2 48.3782 131.0931 38.5165 -0.6777 10.0041 -4.5751
# 3 49.7481 38.5165 121.2781 4.2932 17.6451 -8.8239
# 4 1.5525 -0.6777 4.2932 34.0512 2.1569 5.0051
# 5 3.9519 10.0041 17.6451 2.1569 48.0039 4.8944
# 6 -16.9534 -4.5751 -8.8239 5.0051 4.8944 40.8877
#
#
#
# Elastic Compliance Matrix: (Units=1/GPa)
#
#
# Indices 1 2 3 4 5 6 
#
# 1 0.013833 -0.003770 -0.004241 -0.000870 0.000795 0.004410
# 2 -0.003770 0.009489 -0.001385 0.000717 -0.001113 -0.000755
# 3 -0.004241 -0.001385 0.011047 -0.001158 -0.003475 0.001028
# 4 -0.000870 0.000717 -0.001158 0.030216 -0.000586 -0.004159
# 5 0.000795 -0.001113 -0.003475 -0.000586 0.022626 -0.003182
# 6 0.004410 -0.000755 0.001028 -0.004159 -0.003182 0.027313
#
#
# Mechanical properties :
#
#
# Convention : Reuss Voigt Hill
#
# Bulk Modulus (GPa) = 64.20420 70.18468 67.19444
# Shear Modulus (GPa) = 36.09913 39.37080 37.73496
#
# Velocity S-wave (km/s) = 3.92127 4.09510 4.00913
# Velocity P-wave (km/s) = 6.91732 7.22875 7.07475
#
# Compressibility (1/GPa) = 0.01557530
#
# Stress axis : x y z
#
# Youngs Moduli (GPa) = 72.29321 105.38752 90.52588
#
# Poissons Ratio (x) = 0.39731 0.38391
# Poissons Ratio (y) = 0.27255 0.12542
# Poissons Ratio (z) = 0.30659 0.14601
#
# Static dielectric constant tensor:
#      x y z
#    x 3.285480 0.442470 0.555860 
#    y 0.442470 4.254500 0.095100 
#    z 0.555860 0.095100 4.246890 
# 
# 
# High freq. dielectric constant tensor:
#      x y z
#    x 1.931270 0.001370 0.010630 
#    y 0.001370 1.933390 0.009230 
#    z 0.010630 0.009230 1.944540 
# 
# From -- ./inp_files/367633.got.cif
#   From: 2010.06.25/outbox.cif.g09.slc.cpg/sg2_184_cif.got.tgz:367633.got - 2010.06.27 13:26:56.
