data_PCOD8036772
_publ_section_title
;
Structure prediction by ZEFSAII (Michael W. Deem and Ramdas Pophale) SiO2 
 PCOD8036772
Probable space group: P -1
;
_chemical_formula_sum "Si O2"
_cell_formula_units_Z 12
_cell_length_a 8.494673
_cell_length_b 9.373553
_cell_length_c 10.807129
_cell_angle_alpha 130.842161
_cell_angle_beta 58.691998
_cell_angle_gamma 105.750618
_cell_volume 553.080511
_symmetry_space_group_name_H-M "P -1"
_symmetry_group_IT_number 2
_symmetry_cell_setting 'triclinic'
loop_
_space_group_symop_operation_xyz
x,y,z
-x,-y,-z
loop_
_atom_site_type_symbol
_atom_site_label
_atom_site_fract_x
_atom_site_fract_y
_atom_site_fract_z
Si Si1 0.915176 0.818769 0.977617
Si Si2 0.835341 0.397204 0.067626
Si Si3 0.477617 0.574024 0.415176
Si Si4 0.173660 0.342532 0.326340
Si Si5 0.567626 0.005764 0.335341
Si Si6 0.344089 0.973741 0.155911
O O1 0.756251 0.865845 0.172192
O O2 0.813834 0.728240 0.857279
O O3 0.085161 0.678389 0.877002
O O4 0.000000 0.000000 0.000000
O O5 0.672192 0.562598 0.256251
O O6 0.000000 0.500000 0.000000
O O7 0.759656 0.217794 0.925129
O O8 0.500000 0.500000 0.500000
O O9 0.357279 0.442873 0.313833
O O10 0.377002 0.783774 0.585161
O O11 0.189712 0.159888 0.310287
O O12 0.000000 0.500000 0.500000
O O13 0.425129 0.966992 0.259656
O O14 0.500000 0.000000 0.500000
O O15 0.500000 0.000000 0.000000
#
# Coordination Sequence:
#
# PCOD8036772 Si02
#       6
#     2   2   2   2   2   2
#     4  12  23  44  71 101 140 192 249 288 349 442
#     4  12  26  44  69 108 146 186 233 307 370 419
#     4  12  23  44  71 101 140 192 249 288 349 442
#     4  12  24  41  75 110 133 184 265 298 335 426
#     4  12  26  44  69 108 146 186 233 307 370 419
#     4  12  22  49  76 101 144 204 246 294 359 446
#
# _framework density 21.696657999999999
#
# number of rings (size 3 to 8) (size 9 to 14) (size 15 to 20)
#    0.000    0.000    6.667    4.000    0.000    1.333 
#    0.000    8.333    0.000    0.000    0.000    0.000 
#    0.000    0.000    0.000    0.000    0.000    0.000 
#
# Total GULP energy -148674.507135 kJ/mol
# GULP energy per Si atom -12389.542261 kJ/mol
# Density = 2.164728 g / cm^3
# Si number density = 21.696658 Si / 1000 Ang^3
#
#
#
# Elastic Constant Matrix: (Units=GPa)
#
#
# Indices 1 2 3 4 5 6 
#
# 1 119.8615 33.4981 60.3500 -4.3180 16.1476 7.7820
# 2 33.4981 91.0864 34.0392 -0.5218 12.0393 15.5715
# 3 60.3500 34.0392 119.6639 -6.7600 6.4168 10.9283
# 4 -4.3180 -0.5218 -6.7600 44.5052 -2.8138 2.8844
# 5 16.1476 12.0393 6.4168 -2.8138 61.4834 5.5956
# 6 7.7820 15.5715 10.9283 2.8844 5.5956 47.4448
#
#
#
# Elastic Compliance Matrix: (Units=1/GPa)
#
#
# Indices 1 2 3 4 5 6 
#
# 1 0.011883 -0.002149 -0.005276 0.000176 -0.002161 0.000216
# 2 -0.002149 0.013419 -0.002366 -0.000293 -0.001529 -0.003309
# 3 -0.005276 -0.002366 0.011842 0.001391 0.000792 -0.001264
# 4 0.000176 -0.000293 0.001391 0.022877 0.001074 -0.001771
# 5 -0.002161 -0.001529 0.000792 0.001074 0.017228 -0.001423
# 6 0.000216 -0.003309 -0.001264 -0.001771 -0.001423 0.022694
#
#
# Mechanical properties :
#
#
# Convention : Reuss Voigt Hill
#
# Bulk Modulus (GPa) = 56.93625 65.15405 61.04515
# Shear Modulus (GPa) = 39.87937 44.20163 42.04050
#
# Velocity S-wave (km/s) = 4.29189 4.51849 4.40665
# Velocity P-wave (km/s) = 7.13157 7.57081 7.35447
#
# Compressibility (1/GPa) = 0.01756350
#
# Stress axis : x y z
#
# Youngs Moduli (GPa) = 84.15170 74.52144 84.44561
#
# Poissons Ratio (x) = 0.16014 0.44551
# Poissons Ratio (y) = 0.18083 0.19978
# Poissons Ratio (z) = 0.44396 0.17630
#
# Static dielectric constant tensor:
#      x y z
#    x 4.524790 -0.316240 -0.181590 
#    y -0.316240 3.961220 0.481180 
#    z -0.181590 0.481180 4.354570 
# 
# 
# High freq. dielectric constant tensor:
#      x y z
#    x 1.873560 -0.009890 0.003740 
#    y -0.009890 1.846020 0.020670 
#    z 0.003740 0.020670 1.863100 
# 
# From -- ./inp_files/148765.got.cif
#   From: 2010.06.25/outbox.cif.g09.slc.cpg/sg2_75_cif.got.tgz:148765.got - 2010.06.27 13:26:56.
