data_PCOD8036989
_publ_section_title
;
Structure prediction by ZEFSAII (Michael W. Deem and Ramdas Pophale) SiO2 
 PCOD8036989
Probable space group: P -1
;
_chemical_formula_sum "Si O2"
_cell_formula_units_Z 14
_cell_length_a 14.426279
_cell_length_b 11.637972
_cell_length_c 9.309756
_cell_angle_alpha 116.541323
_cell_angle_beta 148.016941
_cell_angle_gamma 49.348687
_cell_volume 605.985013
_symmetry_space_group_name_H-M "P -1"
_symmetry_group_IT_number 2
_symmetry_cell_setting 'triclinic'
loop_
_space_group_symop_operation_xyz
x,y,z
-x,-y,-z
loop_
_atom_site_type_symbol
_atom_site_label
_atom_site_fract_x
_atom_site_fract_y
_atom_site_fract_z
Si Si1 0.897398 0.660886 0.037501
Si Si2 0.824116 0.109374 0.215768
Si Si3 0.862403 0.841526 0.596003
Si Si4 0.969968 0.150548 0.872631
Si Si5 0.604262 0.715000 0.144139
Si Si6 0.460364 0.805941 0.686768
Si Si7 0.835368 0.376440 0.367628
O O1 0.643029 0.739696 0.765437
O O2 0.000000 0.500000 0.000000
O O3 0.953901 0.766919 0.085179
O O4 0.001359 0.623688 0.310796
O O5 0.732128 0.290224 0.246678
O O6 0.600655 0.131258 0.962201
O O7 0.000000 0.000000 0.500000
O O8 0.919079 0.028602 0.139171
O O9 0.798726 0.719381 0.458927
O O10 0.047985 0.758455 0.677154
O O11 0.663664 0.006902 0.366398
O O12 0.943988 0.863970 0.864340
O O13 0.712109 0.237202 0.590110
O O14 0.662139 0.545924 0.172893
O O15 0.582527 0.728351 0.951895
#
# Coordination Sequence:
#
# PCOD8036989 Si02
#       7
#     2   2   2   2   2   2   2
#     4  12  28  48  75 111 151 191 249 308 373 439
#     4  12  23  46  75 107 148 193 252 299 362 446
#     4  12  26  47  76 107 148 190 255 300 371 443
#     4  12  27  49  74 112 149 189 249 317 354 442
#     4  12  25  44  76 108 144 202 243 301 377 437
#     4  12  26  48  79 105 147 205 244 298 380 436
#     4  12  25  46  74 108 150 191 247 309 367 441
#
# _framework density 23.102881
#
# number of rings (size 3 to 8) (size 9 to 14) (size 15 to 20)
#    0.000    0.000    5.714    3.429    2.000    4.000 
#    2.571    0.000    0.000    0.000    0.000    0.000 
#    0.000    0.000    0.000    0.000    0.000    0.000 
#
# Total GULP energy -173475.668597 kJ/mol
# GULP energy per Si atom -12391.119185 kJ/mol
# Density = 2.305030 g / cm^3
# Si number density = 23.102881 Si / 1000 Ang^3
#
#
#
# Elastic Constant Matrix: (Units=GPa)
#
#
# Indices 1 2 3 4 5 6 
#
# 1 97.0812 42.7137 51.5260 -10.2913 3.5820 -8.0593
# 2 42.7137 141.5388 54.9130 -5.5463 -4.4290 0.0622
# 3 51.5260 54.9130 131.8548 9.2591 -10.8607 -1.2648
# 4 -10.2913 -5.5463 9.2591 38.6148 -5.7324 1.7700
# 5 3.5820 -4.4290 -10.8607 -5.7324 49.9802 1.0465
# 6 -8.0593 0.0622 -1.2648 1.7700 1.0465 40.2724
#
#
#
# Elastic Compliance Matrix: (Units=1/GPa)
#
#
# Indices 1 2 3 4 5 6 
#
# 1 0.014916 -0.002327 -0.005312 0.004500 -0.001969 0.002675
# 2 -0.002327 0.008962 -0.002890 0.001466 0.000515 -0.000648
# 3 -0.005312 -0.002890 0.011328 -0.004207 0.002116 -0.000573
# 4 0.004500 0.001466 -0.004207 0.028666 0.002193 -0.000551
# 5 -0.001969 0.000515 0.002116 0.002193 0.020926 -0.000969
# 6 0.002675 -0.000648 -0.000573 -0.000551 -0.000969 0.025399
#
#
# Mechanical properties :
#
#
# Convention : Reuss Voigt Hill
#
# Bulk Modulus (GPa) = 70.68265 74.30890 72.49578
# Shear Modulus (GPa) = 36.77260 40.52830 38.65045
#
# Velocity S-wave (km/s) = 3.99393 4.19292 4.09463
# Velocity P-wave (km/s) = 7.20623 7.46157 7.33501
#
# Compressibility (1/GPa) = 0.01414774
#
# Stress axis : x y z
#
# Youngs Moduli (GPa) = 67.04396 111.57610 88.27823
#
# Poissons Ratio (x) = 0.25961 0.46895
# Poissons Ratio (y) = 0.15599 0.25514
# Poissons Ratio (z) = 0.35615 0.32247
#
# Static dielectric constant tensor:
#      x y z
#    x 4.447670 0.057090 0.314100 
#    y 0.057090 4.321140 0.100330 
#    z 0.314100 0.100330 4.023520 
# 
# 
# High freq. dielectric constant tensor:
#      x y z
#    x 1.930950 0.007800 0.018560 
#    y 0.007800 1.921670 0.007140 
#    z 0.018560 0.007140 1.916940 
# 
# From -- ./inp_files/154405.got.cif
#   From: 2010.06.25/outbox.cif.g09.slc.cpg/sg2_78_cif.got.tgz:154405.got - 2010.06.27 13:26:56.
