data_PCOD8036369
_publ_section_title
;
Structure prediction by ZEFSAII (Michael W. Deem and Ramdas Pophale) SiO2 
 PCOD8036369
Probable space group: P -1
;
_chemical_formula_sum "Si O2"
_cell_formula_units_Z 12
_cell_length_a 6.695168
_cell_length_b 12.309797
_cell_length_c 14.753445
_cell_angle_alpha 28.588270
_cell_angle_beta 83.563856
_cell_angle_gamma 75.312100
_cell_volume 546.533817
_symmetry_space_group_name_H-M "P -1"
_symmetry_group_IT_number 2
_symmetry_cell_setting 'triclinic'
loop_
_space_group_symop_operation_xyz
x,y,z
-x,-y,-z
loop_
_atom_site_type_symbol
_atom_site_label
_atom_site_fract_x
_atom_site_fract_y
_atom_site_fract_z
Si Si1 0.657975 0.132165 0.932120
Si Si2 0.412017 0.835756 0.685821
Si Si3 0.973154 0.240347 0.702324
Si Si4 0.795546 0.717463 0.876950
Si Si5 0.684731 0.516962 0.192687
Si Si6 0.973743 0.123347 0.582188
O O1 0.532456 0.360417 0.832439
O O2 0.761670 0.245776 0.764012
O O3 0.500000 0.000000 0.000000
O O4 0.827324 0.937708 0.125981
O O5 0.595443 0.690412 0.852287
O O6 0.340883 0.656748 0.757910
O O7 0.500000 0.000000 0.500000
O O8 0.217185 0.006257 0.628357
O O9 0.957204 0.139068 0.678784
O O10 0.000000 0.500000 0.500000
O O11 0.756210 0.715920 0.988776
O O12 0.832509 0.965936 0.668227
O O13 0.000000 0.500000 0.000000
O O14 0.872980 0.383475 0.350502
#
# Coordination Sequence:
#
# PCOD8036369 Si02
#       6
#     2   2   2   2   2   2
#     4  11  26  49  71 103 137 179 238 285 345 410
#     4  12  25  44  68 103 141 180 226 277 345 406
#     4  11  27  47  73 101 137 184 231 290 345 407
#     4  12  25  43  68 100 140 181 227 275 340 409
#     4  12  25  44  72 100 139 182 225 285 339 408
#     4  12  26  46  68 102 140 179 228 282 341 408
#
# _framework density 21.956555999999999
#
# number of rings (size 3 to 8) (size 9 to 14) (size 15 to 20)
#    0.000    0.333    3.333    5.000    4.667    5.333 
#    0.000    0.000    0.000    0.000    0.000    0.000 
#    0.000    0.000    0.000    0.000    0.000    0.000 
#
# Total GULP energy -148849.550846 kJ/mol
# GULP energy per Si atom -12404.129237 kJ/mol
# Density = 2.190658 g / cm^3
# Si number density = 21.956556 Si / 1000 Ang^3
#
#
#
# Elastic Constant Matrix: (Units=GPa)
#
#
# Indices 1 2 3 4 5 6 
#
# 1 130.7161 55.3700 53.8958 12.5364 12.9784 -23.4441
# 2 55.3700 136.3481 46.0061 13.9426 11.7096 -34.3763
# 3 53.8958 46.0061 117.1005 17.3922 6.7292 -17.7380
# 4 12.5364 13.9426 17.3922 41.3358 -1.7585 1.2193
# 5 12.9784 11.7096 6.7292 -1.7585 41.1655 -3.9342
# 6 -23.4441 -34.3763 -17.7380 1.2193 -3.9342 46.7173
#
#
#
# Elastic Compliance Matrix: (Units=1/GPa)
#
#
# Indices 1 2 3 4 5 6 
#
# 1 0.010767 -0.002371 -0.003394 -0.001189 -0.002003 0.002232
# 2 -0.002371 0.010797 -0.001793 -0.002412 -0.001560 0.006006
# 3 -0.003394 -0.001793 0.011524 -0.003269 -0.000308 0.001412
# 4 -0.001189 -0.002412 -0.003269 0.026963 0.002353 -0.004118
# 5 -0.002003 -0.001560 -0.000308 0.002353 0.025501 -0.000184
# 6 0.002232 0.006006 0.001412 -0.004118 -0.000184 0.027573
#
#
# Mechanical properties :
#
#
# Convention : Reuss Voigt Hill
#
# Bulk Modulus (GPa) = 55.64559 77.18982 66.41770
# Shear Modulus (GPa) = 37.24929 41.10326 39.17628
#
# Velocity S-wave (km/s) = 4.12333 4.33139 4.22864
# Velocity P-wave (km/s) = 6.93308 7.76187 7.35915
#
# Compressibility (1/GPa) = 0.01797088
#
# Stress axis : x y z
#
# Youngs Moduli (GPa) = 92.87486 92.62135 86.77902
#
# Poissons Ratio (x) = 0.21958 0.29456
# Poissons Ratio (y) = 0.22019 0.15560
# Poissons Ratio (z) = 0.31526 0.16607
#
# Static dielectric constant tensor:
#      x y z
#    x 5.032250 -0.092960 -0.681420 
#    y -0.092960 4.113760 0.195190 
#    z -0.681420 0.195190 4.493600 
# 
# 
# High freq. dielectric constant tensor:
#      x y z
#    x 1.873810 -0.007950 -0.001180 
#    y -0.007950 1.873610 0.012560 
#    z -0.001180 0.012560 1.883850 
# 
# From -- ./inp_files/21259.got.cif
#   From: 2010.06.25/outbox.cif.g09.slc.cpg/sg2_11_cif.got.tgz:21259.got - 2010.06.27 13:26:56.
