data_PCOD8036179
_publ_section_title
;
Structure prediction by ZEFSAII (Michael W. Deem and Ramdas Pophale) SiO2 
 PCOD8036179
Probable space group: P -1
;
_chemical_formula_sum "Si O2"
_cell_formula_units_Z 10
_cell_length_a 14.346348
_cell_length_b 13.220924
_cell_length_c 11.109216
_cell_angle_alpha 157.331649
_cell_angle_beta 36.284758
_cell_angle_gamma 149.271516
_cell_volume 414.054472
_symmetry_space_group_name_H-M "P -1"
_symmetry_group_IT_number 2
_symmetry_cell_setting 'triclinic'
loop_
_space_group_symop_operation_xyz
x,y,z
-x,-y,-z
loop_
_atom_site_type_symbol
_atom_site_label
_atom_site_fract_x
_atom_site_fract_y
_atom_site_fract_z
Si Si1 0.998037 0.471820 0.190987
Si Si2 0.070172 0.015768 0.079361
Si Si3 0.652484 0.492263 0.173656
Si Si4 0.476839 0.270396 0.873549
Si Si5 0.658616 0.958121 0.840871
O O1 0.976872 0.758972 0.554365
O O2 0.191699 0.595179 0.054214
O O3 0.011933 0.302087 0.110938
O O4 0.830636 0.255655 0.041638
O O5 0.283154 0.138370 0.992199
O O6 0.000000 0.000000 0.000000
O O7 0.730152 0.826356 0.516592
O O8 0.446836 0.278835 0.202022
O O9 0.634161 0.477629 0.032425
O O10 0.500000 0.000000 0.500000
O O11 0.500000 0.500000 0.000000
O O12 0.500000 0.000000 0.000000
#
# Coordination Sequence:
#
# PCOD8036179 Si02
#       5
#     2   2   2   2   2
#     4  12  26  46  73 104 145 182 240 292 353 422
#     4  12  25  46  70 106 146 185 235 293 351 425
#     4  11  26  46  70 107 140 189 238 290 359 413
#     4  12  25  44  73 103 141 185 233 290 352 420
#     4  11  26  46  74 101 146 188 240 296 344 430
#
# _framework density 24.151413000000002
#
# number of rings (size 3 to 8) (size 9 to 14) (size 15 to 20)
#    0.000    0.400    2.000    6.000    8.400    0.800 
#    0.000    0.000    0.000    0.000    0.000    0.000 
#    0.000    0.000    0.000    0.000    0.000    0.000 
#
# Total GULP energy -123956.494778 kJ/mol
# GULP energy per Si atom -12395.649478 kJ/mol
# Density = 2.409644 g / cm^3
# Si number density = 24.151413 Si / 1000 Ang^3
#
#
#
# Elastic Constant Matrix: (Units=GPa)
#
#
# Indices 1 2 3 4 5 6 
#
# 1 122.6237 -2.6513 26.4853 -2.1375 12.9608 15.2101
# 2 -2.6513 62.7069 26.2569 -19.6076 -0.7143 21.6435
# 3 26.4853 26.2569 167.3975 -32.3789 -6.7968 -0.0178
# 4 -2.1375 -19.6076 -32.3789 39.3603 3.3490 -16.7175
# 5 12.9608 -0.7143 -6.7968 3.3490 48.4974 5.5378
# 6 15.2101 21.6435 -0.0178 -16.7175 5.5378 43.7377
#
#
#
# Elastic Compliance Matrix: (Units=1/GPa)
#
#
# Indices 1 2 3 4 5 6 
#
# 1 0.009551 0.002461 -0.002417 -0.002243 -0.002114 -0.005130
# 2 0.002461 0.022201 -0.003023 0.004371 0.000107 -0.010186
# 3 -0.002417 -0.003023 0.008257 0.007227 0.000687 0.005015
# 4 -0.002243 0.004371 0.007227 0.039624 -0.002670 0.014103
# 5 -0.002114 0.000107 0.000687 -0.002670 0.021821 -0.003101
# 6 -0.005130 -0.010186 0.005015 0.014103 -0.003101 0.035473
#
#
# Mechanical properties :
#
#
# Convention : Reuss Voigt Hill
#
# Bulk Modulus (GPa) = 29.36830 50.32330 39.84580
# Shear Modulus (GPa) = 32.41807 46.49490 39.45649
#
# Velocity S-wave (km/s) = 3.66769 4.39240 4.04631
# Velocity P-wave (km/s) = 5.48839 6.82687 6.19389
#
# Compressibility (1/GPa) = 0.03405032
#
# Stress axis : x y z
#
# Youngs Moduli (GPa) = 104.70022 45.04349 121.11405
#
# Poissons Ratio (x) = -0.11087 0.29278
# Poissons Ratio (y) = -0.25770 0.36612
# Poissons Ratio (z) = 0.25310 0.13617
#
# Static dielectric constant tensor:
#      x y z
#    x 4.569520 -0.327800 0.120940 
#    y -0.327800 7.227240 -0.743360 
#    z 0.120940 -0.743360 4.548880 
# 
# 
# High freq. dielectric constant tensor:
#      x y z
#    x 1.976130 0.009590 0.001210 
#    y 0.009590 1.969120 -0.015350 
#    z 0.001210 -0.015350 1.970440 
# 
# From -- ./inp_files/15966.got.cif
#   From: 2010.06.25/outbox.cif.g09.slc.cpg/sg2_8_cif.got.tgz:15966.got - 2010.06.27 13:26:56.
