data_PCOD8036966
_publ_section_title
;
Structure prediction by ZEFSAII (Michael W. Deem and Ramdas Pophale) SiO2 
 PCOD8036966
Probable space group: P -1
;
_chemical_formula_sum "Si O2"
_cell_formula_units_Z 12
_cell_length_a 13.082978
_cell_length_b 9.825413
_cell_length_c 19.306951
_cell_angle_alpha 29.669893
_cell_angle_beta 146.367012
_cell_angle_gamma 145.801953
_cell_volume 629.927472
_symmetry_space_group_name_H-M "P -1"
_symmetry_group_IT_number 2
_symmetry_cell_setting 'triclinic'
loop_
_space_group_symop_operation_xyz
x,y,z
-x,-y,-z
loop_
_atom_site_type_symbol
_atom_site_label
_atom_site_fract_x
_atom_site_fract_y
_atom_site_fract_z
Si Si1 0.951386 0.214823 0.794429
Si Si2 0.957825 0.611938 0.074465
Si Si3 0.538941 0.089042 0.061450
Si Si4 0.621080 0.497469 0.139627
Si Si5 0.544071 0.156367 0.619291
Si Si6 0.362096 0.590321 0.287250
O O1 0.968972 0.249977 0.870913
O O2 0.149525 0.453149 0.767062
O O3 0.750906 0.277051 0.638192
O O4 0.920286 0.883896 0.895534
O O5 0.764224 0.314712 0.099986
O O6 0.130850 0.534895 0.167914
O O7 0.501120 0.796636 0.214925
O O8 0.385562 0.237544 0.933468
O O9 0.500000 0.000000 0.000000
O O10 0.530815 0.198468 0.264897
O O11 0.500000 0.500000 0.000000
O O12 0.391436 0.276188 0.441698
O O13 0.564562 0.253639 0.667372
#
# Coordination Sequence:
#
# PCOD8036966 Si02
#       6
#     2   2   2   2   2   2
#     4  10  17  31  62  89 106 143 194 239 279 332
#     4  10  18  34  59  85 112 148 192 234 280 334
#     4  12  24  37  57  86 119 155 192 229 278 345
#     4  12  18  36  61  85 111 152 195 235 275 338
#     4  10  20  34  61  90 116 140 186 247 290 328
#     4  10  21  37  55  90 120 143 183 244 293 325
#
# _framework density 19.049814000000001
#
# number of rings (size 3 to 8) (size 9 to 14) (size 15 to 20)
#    0.000    1.333    6.667    1.000    0.000    2.000 
#    0.000    5.833    0.000    2.000    0.000    0.000 
#    0.000    0.000    0.000    0.000    0.000    0.000 
#
# Total GULP energy -148733.235096 kJ/mol
# GULP energy per Si atom -12394.436258 kJ/mol
# Density = 1.900646 g / cm^3
# Si number density = 19.049814 Si / 1000 Ang^3
#
#
#
# Elastic Constant Matrix: (Units=GPa)
#
#
# Indices 1 2 3 4 5 6 
#
# 1 97.9696 41.8517 45.9536 6.5530 13.5391 16.7024
# 2 41.8517 44.6673 36.4995 -8.3095 1.7186 22.6809
# 3 45.9536 36.4995 109.9964 -10.4579 13.4356 3.8180
# 4 6.5530 -8.3095 -10.4579 19.2089 9.9747 4.5357
# 5 13.5391 1.7186 13.4356 9.9747 25.9547 -0.8323
# 6 16.7024 22.6809 3.8180 4.5357 -0.8323 39.4152
#
#
#
# Elastic Compliance Matrix: (Units=1/GPa)
#
#
# Indices 1 2 3 4 5 6 
#
# 1 0.024799 -0.031417 -0.003081 -0.027116 0.001513 0.011020
# 2 -0.031417 0.097934 -0.009986 0.065491 -0.011695 -0.049858
# 3 -0.003081 -0.009986 0.015474 0.008792 -0.008981 0.004352
# 4 -0.027116 0.065491 0.008792 0.128056 -0.045327 -0.042740
# 5 0.001513 -0.011695 -0.008981 -0.045327 0.061014 0.013463
# 6 0.011020 -0.049858 0.004352 -0.042740 0.013463 0.054172
#
#
# Mechanical properties :
#
#
# Convention : Reuss Voigt Hill
#
# Bulk Modulus (GPa) = 20.30903 55.69364 38.00133
# Shear Modulus (GPa) = 10.27053 25.47098 17.87076
#
# Velocity S-wave (km/s) = 2.32446 3.66057 3.06618
# Velocity P-wave (km/s) = 4.22946 6.86772 5.70324
#
# Compressibility (1/GPa) = 0.04923919
#
# Stress axis : x y z
#
# Youngs Moduli (GPa) = 40.32396 10.21096 64.62534
#
# Poissons Ratio (x) = 0.32079 0.19911
# Poissons Ratio (y) = 1.26685 0.64536
# Poissons Ratio (z) = 0.12424 0.10197
#
# Static dielectric constant tensor:
#      x y z
#    x 3.947400 0.780610 0.630140 
#    y 0.780610 4.363990 0.359670 
#    z 0.630140 0.359670 3.877220 
# 
# 
# High freq. dielectric constant tensor:
#      x y z
#    x 1.738970 0.029150 0.025090 
#    y 0.029150 1.717800 -0.020370 
#    z 0.025090 -0.020370 1.724050 
# 
# From -- ./inp_files/173778.got.cif
#   From: 2010.06.25/outbox.cif.g09.slc.cpg/sg2_87_cif.got.tgz:173778.got - 2010.06.27 13:26:56.
