data_PCOD8036830
_publ_section_title
;
Structure prediction by ZEFSAII (Michael W. Deem and Ramdas Pophale) SiO2 
 PCOD8036830
Probable space group: P -1
;
_chemical_formula_sum "Si O2"
_cell_formula_units_Z 16
_cell_length_a 9.259792
_cell_length_b 9.105812
_cell_length_c 20.231501
_cell_angle_alpha 54.387759
_cell_angle_beta 53.443246
_cell_angle_gamma 31.284399
_cell_volume 700.499020
_symmetry_space_group_name_H-M "P -1"
_symmetry_group_IT_number 2
_symmetry_cell_setting 'triclinic'
loop_
_space_group_symop_operation_xyz
x,y,z
-x,-y,-z
loop_
_atom_site_type_symbol
_atom_site_label
_atom_site_fract_x
_atom_site_fract_y
_atom_site_fract_z
Si Si1 0.877512 0.965056 0.401787
Si Si2 0.517501 0.158786 0.248997
Si Si3 0.647894 0.025805 0.001519
Si Si4 0.644504 0.516514 0.509709
Si Si5 0.718104 0.386804 0.105342
Si Si6 0.548045 0.016773 0.810367
Si Si7 0.831858 0.364992 0.227991
Si Si8 0.043659 0.378255 0.641713
O O1 0.168311 0.754037 0.420784
O O2 0.903492 0.761859 0.405690
O O3 0.599577 0.173966 0.469280
O O4 0.837993 0.167692 0.312979
O O5 0.632746 0.245895 0.158139
O O6 0.290874 0.371018 0.313804
O O7 0.376128 0.142252 0.236651
O O8 0.793070 0.847533 0.285034
O O9 0.497868 0.335445 0.954558
O O10 0.972524 0.805080 0.953688
O O11 0.500000 0.000000 0.000000
O O12 0.639901 0.960682 0.095756
O O13 0.500000 0.500000 0.500000
O O14 0.861024 0.488140 0.423991
O O15 0.687349 0.464728 0.169792
O O16 0.368392 0.337152 0.756458
O O17 0.843504 0.824003 0.817846
#
# Coordination Sequence:
#
# PCOD8036830 Si02
#       8
#     2   2   2   2   2   2   2   2
#     4  12  26  47  75 104 140 190 232 280 349 418
#     4  12  28  46  69 106 140 186 232 293 350 403
#     4  12  23  42  71 102 139 185 232 294 346 413
#     4  12  28  47  73 111 145 178 229 289 352 413
#     4  12  24  44  71 100 138 182 241 285 342 417
#     4  12  27  43  69 104 144 182 234 293 357 403
#     4  12  24  43  72 102 135 184 239 290 335 421
#     4  12  26  49  74  99 145 187 231 285 344 425
#
# _framework density 22.840858999999998
#
# number of rings (size 3 to 8) (size 9 to 14) (size 15 to 20)
#    0.000    0.000    3.750    6.000    7.000    1.000 
#    0.000    0.000    0.000    0.000    0.000    0.000 
#    0.000    0.000    0.000    0.000    0.000    0.000 
#
# Total GULP energy -198514.362733 kJ/mol
# GULP energy per Si atom -12407.147671 kJ/mol
# Density = 2.278887 g / cm^3
# Si number density = 22.840859 Si / 1000 Ang^3
#
#
#
# Elastic Constant Matrix: (Units=GPa)
#
#
# Indices 1 2 3 4 5 6 
#
# 1 93.8022 32.8336 22.9810 2.5323 -11.3912 2.8909
# 2 32.8336 133.2944 17.7883 3.1925 -10.2312 -5.6382
# 3 22.9810 17.7883 66.5349 -1.7054 -9.6226 8.2279
# 4 2.5323 3.1925 -1.7054 44.3784 -3.5552 0.7752
# 5 -11.3912 -10.2312 -9.6226 -3.5552 40.0893 2.6247
# 6 2.8909 -5.6382 8.2279 0.7752 2.6247 35.7809
#
#
#
# Elastic Compliance Matrix: (Units=1/GPa)
#
#
# Indices 1 2 3 4 5 6 
#
# 1 0.012656 -0.002535 -0.003291 -0.000478 0.002170 -0.000814
# 2 -0.002535 0.008486 -0.001498 -0.000481 0.000923 0.001829
# 3 -0.003291 -0.001498 0.017610 0.001312 0.003306 -0.004290
# 4 -0.000478 -0.000481 0.001312 0.022835 0.002146 -0.000991
# 5 0.002170 0.000923 0.003306 0.002146 0.026965 -0.002815
# 6 -0.000814 0.001829 -0.004290 -0.000991 -0.002815 0.029516
#
#
# Mechanical properties :
#
#
# Convention : Reuss Voigt Hill
#
# Bulk Modulus (GPa) = 41.48887 48.98193 45.23540
# Shear Modulus (GPa) = 35.52372 38.71830 37.12101
#
# Velocity S-wave (km/s) = 3.94797 4.12167 4.03575
# Velocity P-wave (km/s) = 6.24385 6.64396 6.44701
#
# Compressibility (1/GPa) = 0.02410285
#
# Stress axis : x y z
#
# Youngs Moduli (GPa) = 79.01510 117.83746 56.78738
#
# Poissons Ratio (x) = 0.29867 0.18691
# Poissons Ratio (y) = 0.20027 0.08509
# Poissons Ratio (z) = 0.26007 0.17657
#
# Static dielectric constant tensor:
#      x y z
#    x 4.144640 -0.077270 0.090780 
#    y -0.077270 4.294290 -0.166340 
#    z 0.090780 -0.166340 4.321380 
# 
# 
# High freq. dielectric constant tensor:
#      x y z
#    x 1.898660 -0.005050 -0.005700 
#    y -0.005050 1.918600 -0.006020 
#    z -0.005700 -0.006020 1.912140 
# 
# From -- ./inp_files/223358.got.cif
#   From: 2010.06.25/outbox.cif.g09.slc.cpg/sg2_112_cif.got.tgz:223358.got - 2010.06.27 13:26:56.
