data_PCOD8036837
_publ_section_title
;
Structure prediction by ZEFSAII (Michael W. Deem and Ramdas Pophale) SiO2 
 PCOD8036837
Probable space group: P -1
;
_chemical_formula_sum "Si O2"
_cell_formula_units_Z 16
_cell_length_a 6.914386
_cell_length_b 13.775945
_cell_length_c 21.555807
_cell_angle_alpha 159.455008
_cell_angle_beta 85.791632
_cell_angle_gamma 91.884709
_cell_volume 714.851171
_symmetry_space_group_name_H-M "P -1"
_symmetry_group_IT_number 2
_symmetry_cell_setting 'triclinic'
loop_
_space_group_symop_operation_xyz
x,y,z
-x,-y,-z
loop_
_atom_site_type_symbol
_atom_site_label
_atom_site_fract_x
_atom_site_fract_y
_atom_site_fract_z
Si Si1 0.329815 0.081872 0.598953
Si Si2 0.803151 0.787007 0.562912
Si Si3 0.091436 0.611145 0.879526
Si Si4 0.432045 0.218996 0.809851
Si Si5 0.375757 0.695485 0.666264
Si Si6 0.089011 0.072759 0.814408
Si Si7 0.354412 0.076549 0.105398
Si Si8 0.881029 0.432377 0.664954
O O1 0.176110 0.289433 0.689371
O O2 0.404276 0.249059 0.755294
O O3 0.500000 0.000000 0.500000
O O4 0.263860 0.792638 0.450721
O O5 0.754283 0.476010 0.389663
O O6 0.926597 0.752148 0.475928
O O7 0.598077 0.971801 0.672368
O O8 0.927744 0.901573 0.684262
O O9 0.920162 0.609211 0.831342
O O10 0.017857 0.686772 0.996029
O O11 0.238823 0.818069 0.972754
O O12 0.222671 0.185395 0.825349
O O13 0.500000 0.500000 0.000000
O O14 0.500000 0.500000 0.500000
O O15 0.520465 0.866384 0.803478
O O16 0.224267 0.894484 0.751417
O O17 0.210952 0.351252 0.255481
O O18 0.500000 0.000000 0.000000
#
# Coordination Sequence:
#
# PCOD8036837 Si02
#       8
#     2   2   2   2   2   2   2   2
#     4  12  27  48  72 105 142 187 242 292 353 422
#     4  12  24  47  71 103 142 186 238 288 354 421
#     4  12  27  44  73 105 146 186 235 299 353 421
#     4  12  28  45  73 102 145 191 229 293 356 420
#     4  12  23  42  72 103 139 184 233 288 350 417
#     4  12  26  46  70 107 146 183 237 287 358 425
#     4  12  25  46  73 105 144 187 238 293 359 417
#     4  12  25  47  72 105 142 187 239 295 351 421
#
# _framework density 22.382280000000002
#
# number of rings (size 3 to 8) (size 9 to 14) (size 15 to 20)
#    0.000    0.000    2.500    7.875    5.250    1.000 
#    0.000    0.000    0.000    0.000    0.000    0.000 
#    0.000    0.000    0.000    0.000    0.000    0.000 
#
# Total GULP energy -198443.787467 kJ/mol
# GULP energy per Si atom -12402.736717 kJ/mol
# Density = 2.233134 g / cm^3
# Si number density = 22.382280 Si / 1000 Ang^3
#
#
#
# Elastic Constant Matrix: (Units=GPa)
#
#
# Indices 1 2 3 4 5 6 
#
# 1 89.2981 30.2598 23.7843 -7.2152 -1.1752 5.7126
# 2 30.2598 100.0982 26.1302 -7.7621 -1.7653 8.4886
# 3 23.7843 26.1302 88.1426 -7.5875 4.1847 9.2603
# 4 -7.2152 -7.7621 -7.5875 52.1846 -0.5285 -2.7723
# 5 -1.1752 -1.7653 4.1847 -0.5285 49.1299 -7.8548
# 6 5.7126 8.4886 9.2603 -2.7723 -7.8548 48.0471
#
#
#
# Elastic Compliance Matrix: (Units=1/GPa)
#
#
# Indices 1 2 3 4 5 6 
#
# 1 0.013042 -0.003184 -0.002468 0.000953 0.000354 -0.000399
# 2 -0.003184 0.011764 -0.002452 0.000898 0.000387 -0.001112
# 3 -0.002468 -0.002452 0.013115 0.001079 -0.001572 -0.001996
# 4 0.000953 0.000898 0.001079 0.019625 0.000286 0.000699
# 5 0.000354 0.000387 -0.001572 0.000286 0.021098 0.003658
# 6 -0.000399 -0.001112 -0.001996 0.000699 0.003658 0.022080
#
#
# Mechanical properties :
#
#
# Convention : Reuss Voigt Hill
#
# Bulk Modulus (GPa) = 46.05823 48.65417 47.35620
# Shear Modulus (GPa) = 40.26691 43.02997 41.64844
#
# Velocity S-wave (km/s) = 4.24613 4.38939 4.31835
# Velocity P-wave (km/s) = 6.68297 6.89014 6.78735
#
# Compressibility (1/GPa) = 0.02171165
#
# Stress axis : x y z
#
# Youngs Moduli (GPa) = 76.67487 85.00675 76.24595
#
# Poissons Ratio (x) = 0.27069 0.18818
# Poissons Ratio (y) = 0.24416 0.18699
# Poissons Ratio (z) = 0.18924 0.20847
#
# Static dielectric constant tensor:
#      x y z
#    x 4.284120 0.255610 0.356000 
#    y 0.255610 4.617610 0.115540 
#    z 0.356000 0.115540 3.673590 
# 
# 
# High freq. dielectric constant tensor:
#      x y z
#    x 1.897460 0.000810 0.000000 
#    y 0.000810 1.897940 -0.007300 
#    z 0.000000 -0.007300 1.896570 
# 
# From -- ./inp_files/124309.got.cif
#   From: 2010.06.25/outbox.cif.g09.slc.cpg/sg2_63_cif.got.tgz:124309.got - 2010.06.27 13:26:56.
