data_PCOD8036891
_publ_section_title
;
Structure prediction by ZEFSAII (Michael W. Deem and Ramdas Pophale) SiO2 
 PCOD8036891
Probable space group: P -1
;
_chemical_formula_sum "Si O2"
_cell_formula_units_Z 16
_cell_length_a 9.262828
_cell_length_b 12.336463
_cell_length_c 9.484199
_cell_angle_alpha 94.045432
_cell_angle_beta 136.762114
_cell_angle_gamma 76.866001
_cell_volume 715.622341
_symmetry_space_group_name_H-M "P -1"
_symmetry_group_IT_number 2
_symmetry_cell_setting 'triclinic'
loop_
_space_group_symop_operation_xyz
x,y,z
-x,-y,-z
loop_
_atom_site_type_symbol
_atom_site_label
_atom_site_fract_x
_atom_site_fract_y
_atom_site_fract_z
Si Si1 0.116119 0.099880 0.090090
Si Si2 0.232122 0.770039 0.639569
Si Si3 0.606638 0.655478 0.434450
Si Si4 0.815976 0.270194 0.696410
Si Si5 0.470567 0.472155 0.133246
Si Si6 0.814177 0.843117 0.532866
Si Si7 0.533049 0.043375 0.180910
Si Si8 0.012707 0.518139 0.172525
O O1 0.179797 0.127189 0.295113
O O2 0.322988 0.065584 0.132601
O O3 0.950997 0.210632 0.920737
O O4 0.000000 0.000000 0.000000
O O5 0.132707 0.806258 0.415521
O O6 0.355705 0.639152 0.703271
O O7 0.403106 0.841926 0.797675
O O8 0.053930 0.786433 0.637750
O O9 0.441345 0.703210 0.448858
O O10 0.491749 0.577272 0.253113
O O11 0.655731 0.759442 0.391223
O O12 0.841288 0.591808 0.657174
O O13 0.877798 0.382776 0.708054
O O14 0.500000 0.500000 0.000000
O O15 0.233624 0.451465 0.951377
O O16 0.725147 0.955359 0.390093
O O17 0.500000 0.000000 0.000000
O O18 0.000000 0.500000 0.000000
#
# Coordination Sequence:
#
# PCOD8036891 Si02
#       8
#     2   2   2   2   2   2   2   2
#     4  12  25  46  74 104 139 185 236 290 357 420
#     4  12  26  46  70 105 139 185 238 290 352 415
#     4  12  26  46  69 106 145 187 236 289 352 417
#     4  12  24  44  72 102 142 184 236 292 347 420
#     4  12  28  43  71 102 147 188 234 290 351 420
#     4  12  27  45  73 103 144 183 233 293 353 421
#     4  12  26  48  73 103 140 183 237 293 352 419
#     4  12  23  44  68 100 137 188 237 281 348 412
#
# _framework density 22.358160000000002
#
# number of rings (size 3 to 8) (size 9 to 14) (size 15 to 20)
#    0.000    0.000    2.500    7.875    5.250    1.000 
#    0.000    0.000    0.000    0.000    0.000    0.000 
#    0.000    0.000    0.000    0.000    0.000    0.000 
#
# Total GULP energy -198435.024963 kJ/mol
# GULP energy per Si atom -12402.189060 kJ/mol
# Density = 2.230727 g / cm^3
# Si number density = 22.358160 Si / 1000 Ang^3
#
#
#
# Elastic Constant Matrix: (Units=GPa)
#
#
# Indices 1 2 3 4 5 6 
#
# 1 191.3873 40.5707 38.7527 13.6804 6.3520 -1.6164
# 2 40.5707 98.9316 21.9454 7.8778 -0.5879 9.9514
# 3 38.7527 21.9454 107.9883 -1.8038 -17.0901 -10.5690
# 4 13.6804 7.8778 -1.8038 42.7314 -3.6108 4.7595
# 5 6.3520 -0.5879 -17.0901 -3.6108 49.7054 5.3954
# 6 -1.6164 9.9514 -10.5690 4.7595 5.3954 41.9593
#
#
#
# Elastic Compliance Matrix: (Units=1/GPa)
#
#
# Indices 1 2 3 4 5 6 
#
# 1 0.006282 -0.002033 -0.002088 -0.001945 -0.001756 0.000645
# 2 -0.002033 0.011814 -0.002015 -0.001254 -0.000032 -0.003241
# 3 -0.002088 -0.002015 0.011325 0.001568 0.003973 0.002561
# 4 -0.001945 -0.001254 0.001568 0.024849 0.002857 -0.002569
# 5 -0.001756 -0.000032 0.003973 0.002857 0.022158 -0.002233
# 6 0.000645 -0.003241 0.002561 -0.002569 -0.002233 0.025850
#
#
# Mechanical properties :
#
#
# Convention : Reuss Voigt Hill
#
# Bulk Modulus (GPa) = 58.31450 66.76053 62.53752
# Shear Modulus (GPa) = 41.57432 46.68177 44.12805
#
# Velocity S-wave (km/s) = 4.31683 4.57432 4.44744
# Velocity P-wave (km/s) = 7.14040 7.60418 7.37594
#
# Compressibility (1/GPa) = 0.01714839
#
# Stress axis : x y z
#
# Youngs Moduli (GPa) = 159.19551 84.64269 88.30276
#
# Poissons Ratio (x) = 0.17209 0.18441
# Poissons Ratio (y) = 0.32368 0.17789
# Poissons Ratio (z) = 0.33245 0.17052
#
# Static dielectric constant tensor:
#      x y z
#    x 4.112590 -0.112810 -0.225220 
#    y -0.112810 3.866500 -0.312600 
#    z -0.225220 -0.312600 3.756490 
# 
# 
# High freq. dielectric constant tensor:
#      x y z
#    x 1.901220 0.005420 -0.002450 
#    y 0.005420 1.894120 0.003380 
#    z -0.002450 0.003380 1.890820 
# 
# From -- ./inp_files/187939.got.cif
#   From: 2010.06.25/outbox.cif.g09.slc.cpg/sg2_94_cif.got.tgz:187939.got - 2010.06.27 13:26:56.
