data_PCOD8036093
_publ_section_title
;
Structure prediction by ZEFSAII (Michael W. Deem and Ramdas Pophale) SiO2 
 PCOD8036093
Probable space group: P -1
;
_chemical_formula_sum "Si O2"
_cell_formula_units_Z 16
_cell_length_a 8.704230
_cell_length_b 9.329294
_cell_length_c 12.473382
_cell_angle_alpha 101.056029
_cell_angle_beta 47.391096
_cell_angle_gamma 105.565341
_cell_volume 718.067243
_symmetry_space_group_name_H-M "P -1"
_symmetry_group_IT_number 2
_symmetry_cell_setting 'triclinic'
loop_
_space_group_symop_operation_xyz
x,y,z
-x,-y,-z
loop_
_atom_site_type_symbol
_atom_site_label
_atom_site_fract_x
_atom_site_fract_y
_atom_site_fract_z
Si Si1 0.003059 0.877648 0.892917
Si Si2 0.514010 0.070433 0.388021
Si Si3 0.728809 0.318461 0.837116
Si Si4 0.786790 0.031525 0.660094
Si Si5 0.986751 0.440542 0.115475
Si Si6 0.497994 0.612708 0.611162
Si Si7 0.301023 0.197955 0.151793
Si Si8 0.218020 0.469285 0.342883
O O1 0.240068 0.891069 0.745412
O O2 0.910057 0.707972 0.950664
O O3 0.849564 0.910589 0.874331
O O4 0.000000 0.000000 0.000000
O O5 0.409013 0.218768 0.449144
O O6 0.500000 0.000000 0.500000
O O7 0.383741 0.951079 0.349354
O O8 0.834745 0.180018 0.730810
O O9 0.668282 0.394224 0.766218
O O10 0.903886 0.434528 0.834972
O O11 0.526648 0.266611 0.001490
O O12 0.667795 0.896431 0.771366
O O13 0.000000 0.000000 0.500000
O O14 0.741085 0.391020 0.245861
O O15 0.000000 0.500000 0.000000
O O16 0.500000 0.500000 0.500000
O O17 0.625476 0.562088 0.642739
O O18 0.173066 0.326218 0.265631
O O19 0.000000 0.500000 0.500000
#
# Coordination Sequence:
#
# PCOD8036093 Si02
#       8
#     2   2   2   2   2   2   2   2
#     4  11  26  46  71 102 142 186 233 294 353 420
#     4  11  26  48  70 103 143 185 237 289 356 424
#     4  12  27  45  75 105 143 193 237 298 357 423
#     4  12  27  47  74 105 142 190 241 297 357 427
#     4  11  26  44  70 104 142 183 235 288 357 423
#     4  11  26  44  73 102 142 185 233 296 352 421
#     4  12  25  48  72 105 145 186 247 294 355 428
#     4  12  25  46  73 104 144 186 242 294 357 423
#
# _framework density 22.282035
#
# number of rings (size 3 to 8) (size 9 to 14) (size 15 to 20)
#    0.000    0.500    2.500    4.500   10.500    1.000 
#    0.000    0.000    0.000    0.000    0.000    0.000 
#    0.000    0.000    0.000    0.000    0.000    0.000 
#
# Total GULP energy -198394.213989 kJ/mol
# GULP energy per Si atom -12399.638374 kJ/mol
# Density = 2.223132 g / cm^3
# Si number density = 22.282035 Si / 1000 Ang^3
#
#
#
# Elastic Constant Matrix: (Units=GPa)
#
#
# Indices 1 2 3 4 5 6 
#
# 1 137.3178 47.1228 54.1375 -11.8134 9.9224 -0.2762
# 2 47.1228 148.7454 78.4479 5.9451 15.3673 -4.6380
# 3 54.1375 78.4479 133.5347 -1.4302 19.5886 -8.6850
# 4 -11.8134 5.9451 -1.4302 48.3401 -2.6151 11.9178
# 5 9.9224 15.3673 19.5886 -2.6151 35.7110 -3.8906
# 6 -0.2762 -4.6380 -8.6850 11.9178 -3.8906 40.8280
#
#
#
# Elastic Compliance Matrix: (Units=1/GPa)
#
#
# Indices 1 2 3 4 5 6 
#
# 1 0.009184 -0.001531 -0.002851 0.002711 -0.000298 -0.001538
# 2 -0.001531 0.010142 -0.005149 -0.001964 -0.001203 0.000505
# 3 -0.002851 -0.005149 0.012305 -0.000329 -0.003573 0.001769
# 4 0.002711 -0.001964 -0.000329 0.023368 0.001223 -0.006979
# 5 -0.000298 -0.001203 -0.003573 0.001223 0.030836 0.001683
# 6 -0.001538 0.000505 0.001769 -0.006979 0.001683 0.027114
#
#
# Mechanical properties :
#
#
# Convention : Reuss Voigt Hill
#
# Bulk Modulus (GPa) = 79.56571 86.55715 83.06143
# Shear Modulus (GPa) = 36.71056 40.96848 38.83952
#
# Velocity S-wave (km/s) = 4.06339 4.29258 4.17956
# Velocity P-wave (km/s) = 7.60269 7.96861 7.78780
#
# Compressibility (1/GPa) = 0.01256823
#
# Stress axis : x y z
#
# Youngs Moduli (GPa) = 108.89061 98.59804 81.26712
#
# Poissons Ratio (x) = 0.15099 0.23168
# Poissons Ratio (y) = 0.16675 0.41845
# Poissons Ratio (z) = 0.31043 0.50769
#
# Static dielectric constant tensor:
#      x y z
#    x 4.199640 -0.203090 0.246320 
#    y -0.203090 4.639500 0.066230 
#    z 0.246320 0.066230 4.373760 
# 
# 
# High freq. dielectric constant tensor:
#      x y z
#    x 1.889170 -0.001020 0.010410 
#    y -0.001020 1.892430 0.000470 
#    z 0.010410 0.000470 1.886240 
# 
# From -- ./inp_files/382511.got.cif
#   From: 2010.06.25/outbox.cif.g09.slc.cpg/sg2_192_cif.got.tgz:382511.got - 2010.06.27 13:26:56.
