data_PCOD8036926
_publ_section_title
;
Structure prediction by ZEFSAII (Michael W. Deem and Ramdas Pophale) SiO2 
 PCOD8036926
Probable space group: P -1
;
_chemical_formula_sum "Si O2"
_cell_formula_units_Z 16
_cell_length_a 8.506570
_cell_length_b 26.775934
_cell_length_c 26.203070
_cell_angle_alpha 169.104359
_cell_angle_beta 139.187698
_cell_angle_gamma 42.021936
_cell_volume 737.326914
_symmetry_space_group_name_H-M "P -1"
_symmetry_group_IT_number 2
_symmetry_cell_setting 'triclinic'
loop_
_space_group_symop_operation_xyz
x,y,z
-x,-y,-z
loop_
_atom_site_type_symbol
_atom_site_label
_atom_site_fract_x
_atom_site_fract_y
_atom_site_fract_z
Si Si1 0.991964 0.499286 0.057670
Si Si2 0.634656 0.481189 0.673548
Si Si3 0.197757 0.077593 0.307418
Si Si4 0.778036 0.018508 0.575448
Si Si5 0.207433 0.438322 0.449939
Si Si6 0.955963 0.976347 0.248927
Si Si7 0.768073 0.060448 0.109137
Si Si8 0.517447 0.423391 0.156592
O O1 0.255265 0.463317 0.109353
O O2 0.875379 0.762664 0.314585
O O3 0.000000 0.500000 0.000000
O O4 0.817968 0.262044 0.792169
O O5 0.462727 0.441230 0.543254
O O6 0.483674 0.555247 0.761033
O O7 0.767746 0.209203 0.444105
O O8 0.820525 0.708492 0.931304
O O9 0.296910 0.369024 0.613296
O O10 0.943036 0.034752 0.174477
O O11 0.154560 0.048576 0.327979
O O12 0.396418 0.870209 0.129943
O O13 0.914686 0.076223 0.719105
O O14 0.500000 0.000000 0.500000
O O15 0.210906 0.645644 0.612739
O O16 0.000000 0.500000 0.500000
O O17 0.153496 0.148258 0.123856
O O18 0.500000 0.000000 0.000000
#
# Coordination Sequence:
#
# PCOD8036926 Si02
#       8
#     2   2   2   2   2   2   2   2
#     4  12  27  48  73 105 141 180 218 275 341 399
#     4  12  23  45  69  94 136 182 223 284 335 404
#     4  12  26  42  69  99 137 182 226 285 336 397
#     4  12  26  48  74 105 140 178 224 275 329 408
#     4  12  25  42  68  98 132 177 230 282 344 400
#     4  12  25  45  68 101 134 180 230 268 339 399
#     4  12  25  45  65  98 137 178 231 285 343 401
#     4  12  25  45  68 100 139 176 230 274 339 407
#
# _framework density 21.700006999999999
#
# number of rings (size 3 to 8) (size 9 to 14) (size 15 to 20)
#    0.000    0.000    2.500    8.250    3.500    0.000 
#    0.000    0.000    0.000    0.000    0.000    0.000 
#    0.000    0.000    0.000    0.000    0.000    0.000 
#
# Total GULP energy -198563.871906 kJ/mol
# GULP energy per Si atom -12410.241994 kJ/mol
# Density = 2.165062 g / cm^3
# Si number density = 21.700007 Si / 1000 Ang^3
#
#
#
# Elastic Constant Matrix: (Units=GPa)
#
#
# Indices 1 2 3 4 5 6 
#
# 1 107.4804 22.7111 7.2970 7.5325 16.3414 3.0283
# 2 22.7111 140.6013 42.9474 3.6631 -7.7669 -8.2494
# 3 7.2970 42.9474 90.6256 1.8907 15.0155 -1.9476
# 4 7.5325 3.6631 1.8907 37.4354 -2.2656 -0.5191
# 5 16.3414 -7.7669 15.0155 -2.2656 45.1875 1.6265
# 6 3.0283 -8.2494 -1.9476 -0.5191 1.6265 48.5393
#
#
#
# Elastic Compliance Matrix: (Units=1/GPa)
#
#
# Indices 1 2 3 4 5 6 
#
# 1 0.010605 -0.002275 0.001022 -0.002256 -0.004647 -0.000876
# 2 -0.002275 0.009255 -0.004832 0.000056 0.003972 0.001388
# 3 0.001022 -0.004832 0.014246 -0.000815 -0.005971 -0.000122
# 4 -0.002256 0.000056 -0.000815 0.027356 0.002456 0.000328
# 5 -0.004647 0.003972 -0.005971 0.002456 0.026605 -0.000140
# 6 -0.000876 0.001388 -0.000122 0.000328 -0.000140 0.020896
#
#
# Mechanical properties :
#
#
# Convention : Reuss Voigt Hill
#
# Bulk Modulus (GPa) = 45.58622 53.84647 49.71634
# Shear Modulus (GPa) = 38.92761 43.94923 41.43842
#
# Velocity S-wave (km/s) = 4.24004 4.50523 4.37464
# Velocity P-wave (km/s) = 6.70997 7.20629 6.96255
#
# Compressibility (1/GPa) = 0.02193645
#
# Stress axis : x y z
#
# Youngs Moduli (GPa) = 94.29872 108.04755 70.19635
#
# Poissons Ratio (x) = 0.24575 -0.07176
# Poissons Ratio (y) = 0.21448 0.33921
# Poissons Ratio (z) = -0.09640 0.52212
#
# Static dielectric constant tensor:
#      x y z
#    x 3.865250 0.113300 0.011400 
#    y 0.113300 3.949260 0.029160 
#    z 0.011400 0.029160 4.065740 
# 
# 
# High freq. dielectric constant tensor:
#      x y z
#    x 1.869970 0.001330 0.000680 
#    y 0.001330 1.864980 0.003350 
#    z 0.000680 0.003350 1.871520 
# 
# From -- ./inp_files/358008.got.cif
#   From: 2010.06.25/outbox.cif.g09.slc.cpg/sg2_180_cif.got.tgz:358008.got - 2010.06.27 13:26:56.
