data_PCOD8036777
_publ_section_title
;
Structure prediction by ZEFSAII (Michael W. Deem and Ramdas Pophale) SiO2 
 PCOD8036777
Probable space group: P -1
;
_chemical_formula_sum "Si O2"
_cell_formula_units_Z 16
_cell_length_a 10.292781
_cell_length_b 10.073472
_cell_length_c 10.758941
_cell_angle_alpha 103.469159
_cell_angle_beta 76.536400
_cell_angle_gamma 59.618298
_cell_volume 850.215780
_symmetry_space_group_name_H-M "P -1"
_symmetry_group_IT_number 2
_symmetry_cell_setting 'triclinic'
loop_
_space_group_symop_operation_xyz
x,y,z
-x,-y,-z
loop_
_atom_site_type_symbol
_atom_site_label
_atom_site_fract_x
_atom_site_fract_y
_atom_site_fract_z
Si Si1 0.356447 0.401683 0.657406
Si Si2 0.183202 0.758192 0.656094
Si Si3 0.880877 0.022979 0.923016
Si Si4 0.369384 0.044603 0.933952
Si Si5 0.695873 0.383458 0.925510
Si Si6 0.657619 0.400741 0.661440
Si Si7 0.482441 0.759292 0.662234
Si Si8 0.194443 0.404703 0.930850
O O1 0.228670 0.592954 0.681805
O O2 0.509226 0.380870 0.689445
O O3 0.422596 0.275182 0.497111
O O4 0.260214 0.360979 0.764576
O O5 0.204482 0.724391 0.497050
O O6 0.300527 0.808723 0.688911
O O7 0.992454 0.909675 0.756576
O O8 0.759398 0.216026 0.951137
O O9 0.773826 0.961783 0.979504
O O10 0.000000 0.000000 0.000000
O O11 0.289224 0.232586 0.947928
O O12 0.463493 0.914222 0.770178
O O13 0.500000 0.000000 0.000000
O O14 0.749737 0.345170 0.761001
O O15 0.500000 0.500000 0.000000
O O16 0.771119 0.470607 0.989725
O O17 0.585563 0.593626 0.689520
O O18 0.000000 0.500000 0.000000
#
# Coordination Sequence:
#
# PCOD8036777 Si02
#       8
#     2   2   2   2   2   2   2   2
#     4   9  18  36  62  87 116 156 198 239 293 361
#     4   9  18  35  62  91 115 148 199 251 294 343
#     4  12  23  39  64  88 118 158 203 248 291 350
#     4  12  25  39  58  89 125 156 195 246 301 350
#     4  12  23  39  64  88 118 158 203 248 291 350
#     4   9  18  35  62  91 115 148 199 251 294 343
#     4   9  18  36  62  87 116 156 198 239 293 361
#     4  12  25  39  58  89 125 156 195 246 301 350
#
# _framework density 18.818752
#
# number of rings (size 3 to 8) (size 9 to 14) (size 15 to 20)
#    0.000    1.500    2.500    6.000    0.000    1.000 
#    0.000    1.250    0.000    4.500    0.000    0.000 
#    0.000    0.000    0.000    0.000    0.000    0.000 
#
# Total GULP energy -198441.385745 kJ/mol
# GULP energy per Si atom -12402.586609 kJ/mol
# Density = 1.877592 g / cm^3
# Si number density = 18.818752 Si / 1000 Ang^3
#
#
#
# Elastic Constant Matrix: (Units=GPa)
#
#
# Indices 1 2 3 4 5 6 
#
# 1 74.9814 15.3324 44.0224 -8.7552 -16.8083 -2.1821
# 2 15.3324 88.3910 39.6771 -10.5076 -17.3966 -4.6308
# 3 44.0224 39.6771 131.0280 -6.9260 -13.1964 -1.4046
# 4 -8.7552 -10.5076 -6.9260 36.9270 -1.4018 -0.5410
# 5 -16.8083 -17.3966 -13.1964 -1.4018 31.3007 -2.8706
# 6 -2.1821 -4.6308 -1.4046 -0.5410 -2.8706 27.4251
#
#
#
# Elastic Compliance Matrix: (Units=1/GPa)
#
#
# Indices 1 2 3 4 5 6 
#
# 1 0.018972 0.001724 -0.005719 0.004301 0.009162 0.002552
# 2 0.001724 0.015136 -0.004080 0.004309 0.008125 0.003419
# 3 -0.005719 -0.004080 0.010657 -0.000564 -0.000936 -0.000707
# 4 0.004301 0.004309 -0.000564 0.029481 0.005994 0.002250
# 5 0.009162 0.008125 -0.000936 0.005994 0.041859 0.006553
# 6 0.002552 0.003419 -0.000707 0.002250 0.006553 0.037937
#
#
# Mechanical properties :
#
#
# Convention : Reuss Voigt Hill
#
# Bulk Modulus (GPa) = 34.94518 54.71825 44.83171
# Shear Modulus (GPa) = 27.81942 32.15511 29.98726
#
# Velocity S-wave (km/s) = 3.84901 4.13810 3.99617
# Velocity P-wave (km/s) = 6.19378 7.20912 6.72065
#
# Compressibility (1/GPa) = 0.02861625
#
# Stress axis : x y z
#
# Youngs Moduli (GPa) = 52.70953 66.06664 93.83292
#
# Poissons Ratio (x) = -0.11392 0.53662
# Poissons Ratio (y) = -0.09089 0.38285
# Poissons Ratio (z) = 0.30144 0.26956
#
# Static dielectric constant tensor:
#      x y z
#    x 2.936420 -0.035350 0.164220 
#    y -0.035350 3.416430 -0.070570 
#    z 0.164220 -0.070570 3.739030 
# 
# 
# High freq. dielectric constant tensor:
#      x y z
#    x 1.712500 -0.002970 0.000360 
#    y -0.002970 1.728320 -0.002880 
#    z 0.000360 -0.002880 1.752250 
# 
# From -- ./inp_files/319266.got.cif
#   From: 2010.06.25/outbox.cif.g09.slc.cpg/sg2_160_cif.got.tgz:319266.got - 2010.06.27 13:26:56.
