data_PCOD8036320
_publ_section_title
;
Structure prediction by ZEFSAII (Michael W. Deem and Ramdas Pophale) SiO2 
 PCOD8036320
Probable space group: P -1
;
_chemical_formula_sum "Si O2"
_cell_formula_units_Z 14
_cell_length_a 14.952370
_cell_length_b 6.367707
_cell_length_c 14.268536
_cell_angle_alpha 99.945391
_cell_angle_beta 28.023261
_cell_angle_gamma 90.294018
_cell_volume 595.979779
_symmetry_space_group_name_H-M "P -1"
_symmetry_group_IT_number 2
_symmetry_cell_setting 'triclinic'
loop_
_space_group_symop_operation_xyz
x,y,z
-x,-y,-z
loop_
_atom_site_type_symbol
_atom_site_label
_atom_site_fract_x
_atom_site_fract_y
_atom_site_fract_z
Si Si1 0.497830 0.011767 0.892922
Si Si2 0.044167 0.097143 0.565003
Si Si3 0.507344 0.597864 0.748832
Si Si4 0.115498 0.786025 0.639445
Si Si5 0.194119 0.019731 0.768209
Si Si6 0.438793 0.295374 0.500311
Si Si7 0.800396 0.570010 0.899826
O O1 0.720359 0.952296 0.642053
O O2 0.422356 0.808387 0.912873
O O3 0.500000 0.000000 0.000000
O O4 0.355753 0.253715 0.009885
O O5 0.922059 0.361051 0.705210
O O6 0.989961 0.965305 0.692925
O O7 0.000000 0.000000 0.500000
O O8 0.700895 0.403462 0.595174
O O9 0.573766 0.679213 0.596883
O O10 0.320753 0.499723 0.908649
O O11 0.207181 0.887025 0.648420
O O12 0.953056 0.673879 0.819268
O O13 0.377293 0.921902 0.661725
O O14 0.226832 0.261520 0.729739
O O15 0.000000 0.000000 0.000000
O O16 0.500000 0.500000 0.500000
#
# Coordination Sequence:
#
# PCOD8036320 Si02
#       7
#     2   2   2   2   2   2   2
#     4  12  27  48  75 108 150 199 252 312 382 449
#     4  12  27  48  74 110 151 192 256 310 372 462
#     4  12  26  47  75 105 151 197 251 313 378 455
#     4  12  26  47  73 110 146 199 250 309 381 456
#     4  11  28  45  75 107 152 193 254 312 377 458
#     4  11  26  48  71 109 145 195 250 311 377 449
#     4  12  28  46  76 106 150 201 246 312 383 440
#
# _framework density 23.490729000000002
#
# number of rings (size 3 to 8) (size 9 to 14) (size 15 to 20)
#    0.000    0.286    4.286    3.429    8.000    2.857 
#    0.000    0.000    0.000    0.000    0.000    0.000 
#    0.000    0.000    0.000    0.000    0.000    0.000 
#
# Total GULP energy -173516.368939 kJ/mol
# GULP energy per Si atom -12394.026353 kJ/mol
# Density = 2.343726 g / cm^3
# Si number density = 23.490729 Si / 1000 Ang^3
#
#
#
# Elastic Constant Matrix: (Units=GPa)
#
#
# Indices 1 2 3 4 5 6 
#
# 1 92.5046 47.0688 17.8173 4.5745 3.5693 -2.4897
# 2 47.0688 159.8829 74.3545 -12.5785 -3.3820 10.2746
# 3 17.8173 74.3545 127.1915 -11.5665 -15.7080 2.1053
# 4 4.5745 -12.5785 -11.5665 65.5084 0.8136 -11.8914
# 5 3.5693 -3.3820 -15.7080 0.8136 38.5865 -3.0185
# 6 -2.4897 10.2746 2.1053 -11.8914 -3.0185 37.2837
#
#
#
# Elastic Compliance Matrix: (Units=1/GPa)
#
#
# Indices 1 2 3 4 5 6 
#
# 1 0.013056 -0.004229 0.000333 -0.001382 -0.001298 0.001473
# 2 -0.004229 0.010224 -0.005404 0.000843 -0.001135 -0.002618
# 3 0.000333 -0.005404 0.011592 0.001222 0.004314 0.001596
# 4 -0.001382 0.000843 0.001222 0.016633 0.000737 0.004971
# 5 -0.001298 -0.001135 0.004314 0.000737 0.027870 0.002474
# 6 0.001473 -0.002618 0.001596 0.004971 0.002474 0.029337
#
#
# Mechanical properties :
#
#
# Convention : Reuss Voigt Hill
#
# Bulk Modulus (GPa) = 61.45969 73.11780 67.28874
# Shear Modulus (GPa) = 37.66865 44.29827 40.98346
#
# Velocity S-wave (km/s) = 4.00878 4.34726 4.18145
# Velocity P-wave (km/s) = 6.90270 7.50947 7.21247
#
# Compressibility (1/GPa) = 0.01627083
#
# Stress axis : x y z
#
# Youngs Moduli (GPa) = 76.59192 97.81351 86.26493
#
# Poissons Ratio (x) = 0.41370 -0.02874
# Poissons Ratio (y) = 0.32394 0.46620
# Poissons Ratio (z) = -0.02552 0.52861
#
# Static dielectric constant tensor:
#      x y z
#    x 3.939350 -0.142560 -0.150860 
#    y -0.142560 4.927270 -0.313520 
#    z -0.150860 -0.313520 4.504730 
# 
# 
# High freq. dielectric constant tensor:
#      x y z
#    x 1.922010 0.001320 -0.014790 
#    y 0.001320 1.952470 -0.015310 
#    z -0.014790 -0.015310 1.937640 
# 
# From -- ./inp_files/525816.got.cif
#   From: 2010.06.25/outbox.cif.g09.slc.cpg/sg2_263_cif.got.tgz:525816.got - 2010.06.27 13:26:56.
