data_PCOD8036704
_publ_section_title
;
Structure prediction by ZEFSAII (Michael W. Deem and Ramdas Pophale) SiO2 
 PCOD8036704
Probable space group: P -1
;
_chemical_formula_sum "Si O2"
_cell_formula_units_Z 14
_cell_length_a 11.776613
_cell_length_b 12.734506
_cell_length_c 22.220695
_cell_angle_alpha 18.511005
_cell_angle_beta 141.141657
_cell_angle_gamma 134.093455
_cell_volume 648.442237
_symmetry_space_group_name_H-M "P -1"
_symmetry_group_IT_number 2
_symmetry_cell_setting 'triclinic'
loop_
_space_group_symop_operation_xyz
x,y,z
-x,-y,-z
loop_
_atom_site_type_symbol
_atom_site_label
_atom_site_fract_x
_atom_site_fract_y
_atom_site_fract_z
Si Si1 0.758098 0.547517 0.709773
Si Si2 0.487091 0.856259 0.333661
Si Si3 0.853333 0.267703 0.566517
Si Si4 0.845166 0.758581 0.937299
Si Si5 0.464701 0.175304 0.826513
Si Si6 0.340907 0.926662 0.517375
Si Si7 0.574737 0.328362 0.012160
O O1 0.661623 0.809165 0.476560
O O2 0.653976 0.233482 0.842681
O O3 0.748782 0.734777 0.668178
O O4 0.973461 0.404123 0.860054
O O5 0.500000 0.500000 0.500000
O O6 0.293831 0.966648 0.229473
O O7 0.493459 0.161027 0.125780
O O8 0.664551 0.458303 0.416847
O O9 0.818443 0.176021 0.533121
O O10 0.000000 0.500000 0.500000
O O11 0.921138 0.934306 0.815697
O O12 0.751654 0.463204 0.033945
O O13 0.365948 0.949047 0.865093
O O14 0.500000 0.000000 0.000000
O O15 0.500000 0.000000 0.500000
O O16 0.417383 0.631408 0.756903
#
# Coordination Sequence:
#
# PCOD8036704 Si02
#       7
#     2   2   2   2   2   2   2
#     4  12  26  46  69 102 143 185 234 292 348 417
#     4  12  25  51  72  98 143 186 237 293 350 416
#     4  12  25  42  69 105 146 181 237 289 351 423
#     4  12  27  46  71 106 137 183 242 287 352 422
#     4  12  22  43  69 102 141 184 227 290 359 408
#     4  12  22  46  71  99 148 183 227 296 354 415
#     4  12  24  44  75 100 136 191 229 289 356 412
#
# _framework density 21.590204
#
# number of rings (size 3 to 8) (size 9 to 14) (size 15 to 20)
#    0.000    0.000    8.571    1.286    2.000    1.714 
#    0.000    0.000    0.000    0.000    0.000    0.000 
#    0.000    0.000    0.000    0.000    0.000    0.000 
#
# Total GULP energy -173661.850184 kJ/mol
# GULP energy per Si atom -12404.417870 kJ/mol
# Density = 2.154106 g / cm^3
# Si number density = 21.590204 Si / 1000 Ang^3
#
#
#
# Elastic Constant Matrix: (Units=GPa)
#
#
# Indices 1 2 3 4 5 6 
#
# 1 95.3298 55.9114 57.0361 10.9689 -17.3714 3.9589
# 2 55.9114 151.0699 38.0725 -6.8346 10.2233 1.3208
# 3 57.0361 38.0725 119.4368 14.8233 -7.6350 1.0899
# 4 10.9689 -6.8346 14.8233 45.3932 0.8284 1.8948
# 5 -17.3714 10.2233 -7.6350 0.8284 55.3106 -7.9915
# 6 3.9589 1.3208 1.0899 1.8948 -7.9915 34.6645
#
#
#
# Elastic Compliance Matrix: (Units=1/GPa)
#
#
# Indices 1 2 3 4 5 6 
#
# 1 0.019657 -0.006231 -0.006531 -0.003669 0.006463 -0.000112
# 2 -0.006231 0.009529 -0.000716 0.003277 -0.003971 -0.000723
# 3 -0.006531 -0.000716 0.012012 -0.002470 -0.000152 0.000495
# 4 -0.003669 0.003277 -0.002470 0.024331 -0.002691 -0.001579
# 5 0.006463 -0.003971 -0.000152 -0.002691 0.021517 0.004525
# 6 -0.000112 -0.000723 0.000495 -0.001579 0.004525 0.030002
#
#
# Mechanical properties :
#
#
# Convention : Reuss Voigt Hill
#
# Bulk Modulus (GPa) = 70.21762 74.20851 72.21306
# Shear Modulus (GPa) = 33.61309 41.39476 37.50393
#
# Velocity S-wave (km/s) = 3.95000 4.38344 4.17235
# Velocity P-wave (km/s) = 7.30731 7.75019 7.53201
#
# Compressibility (1/GPa) = 0.01424144
#
# Stress axis : x y z
#
# Youngs Moduli (GPa) = 50.87366 104.93845 83.25030
#
# Poissons Ratio (x) = 0.65391 0.54371
# Poissons Ratio (y) = 0.31701 0.05960
# Poissons Ratio (z) = 0.33226 0.07512
#
# Static dielectric constant tensor:
#      x y z
#    x 3.862870 -0.197070 0.035820 
#    y -0.197070 4.321630 0.044220 
#    z 0.035820 0.044220 4.582570 
# 
# 
# High freq. dielectric constant tensor:
#      x y z
#    x 1.835390 -0.008720 -0.014020 
#    y -0.008720 1.862800 -0.005540 
#    z -0.014020 -0.005540 1.856410 
# 
# From -- ./inp_files/221599.got.cif
#   From: 2010.06.25/outbox.cif.g09.slc.cpg/sg2_111_cif.got.tgz:221599.got - 2010.06.27 13:26:56.
