data_PCOD8036255
_publ_section_title
;
Structure prediction by ZEFSAII (Michael W. Deem and Ramdas Pophale) SiO2 
 PCOD8036255
Probable space group: P -1
;
_chemical_formula_sum "Si O2"
_cell_formula_units_Z 14
_cell_length_a 16.197093
_cell_length_b 9.645831
_cell_length_c 12.045509
_cell_angle_alpha 125.932200
_cell_angle_beta 49.630327
_cell_angle_gamma 154.226198
_cell_volume 623.409155
_symmetry_space_group_name_H-M "P -1"
_symmetry_group_IT_number 2
_symmetry_cell_setting 'triclinic'
loop_
_space_group_symop_operation_xyz
x,y,z
-x,-y,-z
loop_
_atom_site_type_symbol
_atom_site_label
_atom_site_fract_x
_atom_site_fract_y
_atom_site_fract_z
Si Si1 0.950830 0.745092 0.381446
Si Si2 0.414141 0.631581 0.152239
Si Si3 0.440032 0.538048 0.672457
Si Si4 0.099899 0.640026 0.598987
Si Si5 0.359046 0.241977 0.164719
Si Si6 0.513572 0.128166 0.373875
Si Si7 0.988285 0.103220 0.166290
O O1 0.966270 0.621234 0.404645
O O2 0.728792 0.456798 0.391555
O O3 0.000000 0.000000 0.500000
O O4 0.115635 0.915483 0.223886
O O5 0.451184 0.529394 0.158616
O O6 0.181610 0.329746 0.179967
O O7 0.481336 0.884700 0.280795
O O8 0.555216 0.804587 0.001202
O O9 0.500000 0.500000 0.500000
O O10 0.564182 0.656082 0.728507
O O11 0.497717 0.807060 0.709839
O O12 0.201858 0.207954 0.742520
O O13 0.027840 0.714879 0.763287
O O14 0.000000 0.500000 0.500000
O O15 0.342066 0.976890 0.533120
O O16 0.000000 0.000000 0.000000
#
# Coordination Sequence:
#
# PCOD8036255 Si02
#       7
#     2   2   2   2   2   2   2
#     4  12  28  45  71 105 146 194 249 308 372 434
#     4  11  26  48  73 106 146 197 247 300 378 444
#     4  12  25  44  73 107 144 190 243 302 365 431
#     4  12  26  46  75 108 147 193 251 307 366 449
#     4  11  26  47  72 103 150 192 246 309 364 443
#     4  12  26  44  73 105 146 189 249 303 370 439
#     4  12  26  47  76 110 149 196 243 304 378 443
#
# _framework density 22.457159999999998
#
# number of rings (size 3 to 8) (size 9 to 14) (size 15 to 20)
#    0.000    0.286    4.286    3.857    4.000    2.286 
#    0.000    0.000    0.000    0.000    0.000    0.000 
#    0.000    0.000    0.000    0.000    0.000    0.000 
#
# Total GULP energy -173641.747956 kJ/mol
# GULP energy per Si atom -12402.981997 kJ/mol
# Density = 2.240605 g / cm^3
# Si number density = 22.457160 Si / 1000 Ang^3
#
#
#
# Elastic Constant Matrix: (Units=GPa)
#
#
# Indices 1 2 3 4 5 6 
#
# 1 117.4324 37.1222 52.2721 9.2835 1.5032 -13.9443
# 2 37.1222 116.8964 54.2951 -4.9575 -6.1702 7.3431
# 3 52.2721 54.2951 156.7902 -9.3254 -9.5309 6.4127
# 4 9.2835 -4.9575 -9.3254 50.6841 0.3798 -5.6523
# 5 1.5032 -6.1702 -9.5309 0.3798 36.5669 -5.0232
# 6 -13.9443 7.3431 6.4127 -5.6523 -5.0232 51.3244
#
#
#
# Elastic Compliance Matrix: (Units=1/GPa)
#
#
# Indices 1 2 3 4 5 6 
#
# 1 0.011400 -0.002473 -0.003313 -0.002544 -0.001247 0.003463
# 2 -0.002473 0.010805 -0.002741 0.000810 0.000970 -0.001691
# 3 -0.003313 -0.002741 0.008695 0.001789 0.001753 -0.001226
# 4 -0.002544 0.000810 0.001789 0.020746 0.000673 0.001320
# 5 -0.001247 0.000970 0.001753 0.000673 0.028307 0.002148
# 6 0.003463 -0.001691 -0.001226 0.001320 0.002148 0.021175
#
#
# Mechanical properties :
#
#
# Convention : Reuss Voigt Hill
#
# Bulk Modulus (GPa) = 72.22287 75.38865 73.80576
# Shear Modulus (GPa) = 40.71740 44.21039 42.46389
#
# Velocity S-wave (km/s) = 4.26269 4.44177 4.35315
# Velocity P-wave (km/s) = 7.51382 7.74265 7.62909
#
# Compressibility (1/GPa) = 0.01384603
#
# Stress axis : x y z
#
# Youngs Moduli (GPa) = 87.71729 92.55273 115.01151
#
# Poissons Ratio (x) = 0.22885 0.38106
# Poissons Ratio (y) = 0.21690 0.31524
# Poissons Ratio (z) = 0.29063 0.25368
#
# Static dielectric constant tensor:
#      x y z
#    x 4.428270 -0.128980 -0.136350 
#    y -0.128980 4.444720 -0.016830 
#    z -0.136350 -0.016830 4.546590 
# 
# 
# High freq. dielectric constant tensor:
#      x y z
#    x 1.899240 -0.002560 -0.013590 
#    y -0.002560 1.895820 -0.013400 
#    z -0.013590 -0.013400 1.890400 
# 
# From -- ./inp_files/448015.got.cif
#   From: 2010.06.25/outbox.cif.g09.slc.cpg/sg2_225_cif.got.tgz:448015.got - 2010.06.27 13:26:56.
