data_PCOD8036164
_publ_section_title
;
Structure prediction by ZEFSAII (Michael W. Deem and Ramdas Pophale) SiO2 
 PCOD8036164
Probable space group: P -1
;
_chemical_formula_sum "Si O2"
_cell_formula_units_Z 12
_cell_length_a 5.190274
_cell_length_b 9.653737
_cell_length_c 12.395739
_cell_angle_alpha 55.050545
_cell_angle_beta 107.543006
_cell_angle_gamma 93.735672
_cell_volume 480.793088
_symmetry_space_group_name_H-M "P -1"
_symmetry_group_IT_number 2
_symmetry_cell_setting 'triclinic'
loop_
_space_group_symop_operation_xyz
x,y,z
-x,-y,-z
loop_
_atom_site_type_symbol
_atom_site_label
_atom_site_fract_x
_atom_site_fract_y
_atom_site_fract_z
Si Si1 0.337165 0.055984 0.120171
Si Si2 0.806846 0.497638 0.577352
Si Si3 0.198555 0.747843 0.130353
Si Si4 0.480667 0.118737 0.340733
Si Si5 0.449305 0.403913 0.927834
Si Si6 0.999091 0.321587 0.296984
O O1 0.412710 0.013046 0.273963
O O2 0.398798 0.884815 0.133385
O O3 0.519344 0.200634 0.044625
O O4 0.029832 0.148538 0.020355
O O5 0.500000 0.500000 0.500000
O O6 0.900990 0.327492 0.736231
O O7 0.000000 0.500000 0.500000
O O8 0.840424 0.670047 0.573351
O O9 0.360027 0.582883 0.159218
O O10 0.757509 0.203474 0.325687
O O11 0.216042 0.262053 0.257310
O O12 0.500000 0.000000 0.500000
O O13 0.136911 0.480840 0.828295
O O14 0.500000 0.500000 0.000000
#
# Coordination Sequence:
#
# PCOD8036164 Si02
#       6
#     2   2   2   2   2   2
#     4  11  26  45  75 106 159 205 255 317 394 455
#     4  12  27  47  76 109 151 204 253 320 383 456
#     4  11  26  48  71 113 158 202 260 319 388 465
#     4  12  28  50  74 113 153 207 253 324 385 468
#     4  12  23  45  78 110 149 198 261 323 378 461
#     4  12  26  48  77 108 148 196 271 310 386 453
#
# _framework density 24.958760999999999
#
# number of rings (size 3 to 8) (size 9 to 14) (size 15 to 20)
#    0.000    0.333    3.333    5.000    4.667    1.333 
#    0.000    0.000    0.000    0.000    0.000    0.000 
#    0.000    0.000    0.000    0.000    0.000    0.000 
#
# Total GULP energy -148684.928846 kJ/mol
# GULP energy per Si atom -12390.410737 kJ/mol
# Density = 2.490195 g / cm^3
# Si number density = 24.958761 Si / 1000 Ang^3
#
#
#
# Elastic Constant Matrix: (Units=GPa)
#
#
# Indices 1 2 3 4 5 6 
#
# 1 118.8098 48.9125 17.5594 24.8611 14.6754 1.0960
# 2 48.9125 159.0419 43.1126 33.9666 1.3745 7.2330
# 3 17.5594 43.1126 131.8951 22.4460 4.0485 10.6280
# 4 24.8611 33.9666 22.4460 50.8917 7.0973 3.6910
# 5 14.6754 1.3745 4.0485 7.0973 38.1613 1.7749
# 6 1.0960 7.2330 10.6280 3.6910 1.7749 48.6758
#
#
#
# Elastic Compliance Matrix: (Units=1/GPa)
#
#
# Indices 1 2 3 4 5 6 
#
# 1 0.010525 -0.002600 0.000020 -0.002973 -0.003426 0.000495
# 2 -0.002600 0.008372 -0.001759 -0.003723 0.001604 -0.000577
# 3 0.000020 -0.001759 0.008710 -0.002527 -0.000332 -0.001437
# 4 -0.002973 -0.003723 -0.002527 0.025180 -0.003109 -0.000624
# 5 -0.003426 0.001604 -0.000332 -0.003109 0.028118 -0.000878
# 6 0.000495 -0.000577 -0.001437 -0.000624 -0.000878 0.021012
#
#
# Mechanical properties :
#
#
# Convention : Reuss Voigt Hill
#
# Bulk Modulus (GPa) = 52.83300 69.87953 61.35627
# Shear Modulus (GPa) = 42.76926 47.55660 45.16293
#
# Velocity S-wave (km/s) = 4.14405 4.36983 4.25844
# Velocity P-wave (km/s) = 6.64166 7.31569 6.98681
#
# Compressibility (1/GPa) = 0.01892756
#
# Stress axis : x y z
#
# Youngs Moduli (GPa) = 95.01078 119.44758 114.80793
#
# Poissons Ratio (x) = 0.31060 -0.00229
# Poissons Ratio (y) = 0.24706 0.20200
# Poissons Ratio (z) = -0.00189 0.21016
#
# Static dielectric constant tensor:
#      x y z
#    x 5.878290 -0.872140 1.553340 
#    y -0.872140 5.804410 -1.009120 
#    z 1.553340 -1.009120 6.331170 
# 
# 
# High freq. dielectric constant tensor:
#      x y z
#    x 1.995200 0.017470 -0.001830 
#    y 0.017470 2.015200 0.016290 
#    z -0.001830 0.016290 1.997150 
# 
# From -- ./inp_files/22738.got.cif
#   From: 2010.06.25/outbox.cif.g09.slc.cpg/sg2_12_cif.got.tgz:22738.got - 2010.06.27 13:26:56.
