data_PCOD8036174
_publ_section_title
;
Structure prediction by ZEFSAII (Michael W. Deem and Ramdas Pophale) SiO2 
 PCOD8036174
Probable space group: P -1
;
_chemical_formula_sum "Si O2"
_cell_formula_units_Z 16
_cell_length_a 11.388946
_cell_length_b 6.479410
_cell_length_c 10.828351
_cell_angle_alpha 76.316507
_cell_angle_beta 70.117137
_cell_angle_gamma 73.217040
_cell_volume 710.879039
_symmetry_space_group_name_H-M "P -1"
_symmetry_group_IT_number 2
_symmetry_cell_setting 'triclinic'
loop_
_space_group_symop_operation_xyz
x,y,z
-x,-y,-z
loop_
_atom_site_type_symbol
_atom_site_label
_atom_site_fract_x
_atom_site_fract_y
_atom_site_fract_z
Si Si1 0.511566 0.380747 0.711637
Si Si2 0.700891 0.850822 0.081079
Si Si3 0.126848 0.938504 0.618289
Si Si4 0.619946 0.315736 0.937326
Si Si5 0.421351 0.814494 0.548907
Si Si6 0.043815 0.312301 0.411412
Si Si7 0.060028 0.140188 0.865673
Si Si8 0.156638 0.466907 0.125716
O O1 0.388624 0.299608 0.814606
O O2 0.619183 0.320244 0.787844
O O3 0.475801 0.639086 0.660835
O O4 0.568676 0.271065 0.581224
O O5 0.789155 0.889227 0.157712
O O6 0.796439 0.728023 0.959033
O O7 0.614762 0.077711 0.026086
O O8 0.271703 0.887317 0.621151
O O9 0.076397 0.725109 0.623914
O O10 0.114215 0.091995 0.482888
O O11 0.040960 0.059838 0.744913
O O12 0.749942 0.367418 0.932568
O O13 0.500000 0.500000 0.000000
O O14 0.500000 0.000000 0.500000
O O15 0.153165 0.366045 0.276843
O O16 0.000000 0.500000 0.500000
O O17 0.986062 0.392624 0.873328
O O18 0.000000 0.000000 0.000000
#
# Coordination Sequence:
#
# PCOD8036174 Si02
#       8
#     2   2   2   2   2   2   2   2
#     4  11  28  46  71 105 141 186 246 290 366 425
#     4  12  27  47  76 105 147 188 243 305 358 435
#     4  11  27  45  73 102 143 186 239 299 357 431
#     4  12  28  47  73 107 144 189 243 300 362 431
#     4  11  28  47  73 102 143 193 236 300 358 429
#     4  11  26  46  69 104 140 184 238 292 358 426
#     4  12  25  46  72 108 146 187 241 297 366 425
#     4  12  27  45  75 104 143 192 238 299 365 428
#
# _framework density 22.507345999999998
#
# number of rings (size 3 to 8) (size 9 to 14) (size 15 to 20)
#    0.000    0.500    3.750    2.250   12.250    1.000 
#    0.000    0.000    0.000    0.000    0.000    0.000 
#    0.000    0.000    0.000    0.000    0.000    0.000 
#
# Total GULP energy -198445.473040 kJ/mol
# GULP energy per Si atom -12402.842065 kJ/mol
# Density = 2.245612 g / cm^3
# Si number density = 22.507346 Si / 1000 Ang^3
#
#
#
# Elastic Constant Matrix: (Units=GPa)
#
#
# Indices 1 2 3 4 5 6 
#
# 1 95.1972 37.1686 10.2597 -8.1192 5.8733 4.7854
# 2 37.1686 134.0025 48.4044 -8.9065 0.3241 -2.7977
# 3 10.2597 48.4044 126.2298 -9.9191 1.7951 -2.1581
# 4 -8.1192 -8.9065 -9.9191 47.6582 0.6335 -0.7242
# 5 5.8733 0.3241 1.7951 0.6335 38.2320 -2.8296
# 6 4.7854 -2.7977 -2.1581 -0.7242 -2.8296 38.8777
#
#
#
# Elastic Compliance Matrix: (Units=1/GPa)
#
#
# Indices 1 2 3 4 5 6 
#
# 1 0.012157 -0.003470 0.000459 0.001517 -0.002021 -0.001839
# 2 -0.003470 0.009704 -0.003390 0.000523 0.000675 0.000996
# 3 0.000459 -0.003390 0.009305 0.001391 -0.000486 0.000206
# 4 0.001517 0.000523 0.001391 0.021641 -0.000640 0.000285
# 5 -0.002021 0.000675 -0.000486 -0.000640 0.026657 0.002199
# 6 -0.001839 0.000996 0.000206 0.000285 0.002199 0.026197
#
#
# Mechanical properties :
#
#
# Convention : Reuss Voigt Hill
#
# Bulk Modulus (GPa) = 54.46173 60.78832 57.62502
# Shear Modulus (GPa) = 40.13372 42.26004 41.19688
#
# Velocity S-wave (km/s) = 4.22730 4.33784 4.28293
# Velocity P-wave (km/s) = 6.93373 7.22191 7.07929
#
# Compressibility (1/GPa) = 0.01836152
#
# Stress axis : x y z
#
# Youngs Moduli (GPa) = 82.26017 103.05272 107.47393
#
# Poissons Ratio (x) = 0.35764 -0.04936
# Poissons Ratio (y) = 0.28548 0.36439
# Poissons Ratio (z) = -0.03778 0.34940
#
# Static dielectric constant tensor:
#      x y z
#    x 4.235190 0.034620 0.272880 
#    y 0.034620 4.248640 -0.185460 
#    z 0.272880 -0.185460 4.442600 
# 
# 
# High freq. dielectric constant tensor:
#      x y z
#    x 1.885740 0.005860 0.004220 
#    y 0.005860 1.894820 -0.002190 
#    z 0.004220 -0.002190 1.907560 
# 
# From -- ./inp_files/410010.got.cif
#   From: 2010.06.25/outbox.cif.g09.slc.cpg/sg2_206_cif.got.tgz:410010.got - 2010.06.27 13:26:56.
