data_PCOD8036326
_publ_section_title
;
Structure prediction by ZEFSAII (Michael W. Deem and Ramdas Pophale) SiO2 
 PCOD8036326
Probable space group: P -1
;
_chemical_formula_sum "Si O2"
_cell_formula_units_Z 16
_cell_length_a 4.901487
_cell_length_b 12.503333
_cell_length_c 15.332626
_cell_angle_alpha 74.897293
_cell_angle_beta 48.902219
_cell_angle_gamma 92.951094
_cell_volume 650.827467
_symmetry_space_group_name_H-M "P -1"
_symmetry_group_IT_number 2
_symmetry_cell_setting 'triclinic'
loop_
_space_group_symop_operation_xyz
x,y,z
-x,-y,-z
loop_
_atom_site_type_symbol
_atom_site_label
_atom_site_fract_x
_atom_site_fract_y
_atom_site_fract_z
Si Si1 0.926369 0.165550 0.379623
Si Si2 0.069420 0.448950 0.905101
Si Si3 0.522672 0.297197 0.921009
Si Si4 0.467770 0.683981 0.676511
Si Si5 0.828289 0.367550 0.543107
Si Si6 0.874573 0.961985 0.937420
Si Si7 0.984515 0.742962 0.317683
Si Si8 0.248158 0.042052 0.667291
O O1 0.761902 0.265865 0.355838
O O2 0.681068 0.100070 0.529321
O O3 0.373518 0.223356 0.297947
O O4 0.940392 0.075639 0.320487
O O5 0.368744 0.378900 0.872329
O O6 0.219597 0.555982 0.784177
O O7 0.678690 0.364185 0.964408
O O8 0.000000 0.500000 0.000000
O O9 0.866876 0.263940 0.809481
O O10 0.200682 0.176054 0.033370
O O11 0.867874 0.679938 0.557615
O O12 0.450733 0.342650 0.569500
O O13 0.000000 0.500000 0.500000
O O14 0.737517 0.298149 0.667922
O O15 0.208719 0.020721 0.784651
O O16 0.500000 0.000000 0.000000
O O17 0.000000 0.000000 0.000000
O O18 0.997837 0.871118 0.317916
#
# Coordination Sequence:
#
# PCOD8036326 Si02
#       8
#     2   2   2   2   2   2   2   2
#     4  11  27  45  75 105 145 195 240 303 362 441
#     4  12  29  49  75 102 146 190 244 300 359 431
#     4  12  26  49  72 109 141 192 240 299 364 431
#     4  12  24  47  69 107 141 185 246 289 365 431
#     4  12  24  41  69 103 136 187 230 297 354 424
#     4  12  28  46  77 109 145 191 241 301 369 434
#     4  12  24  43  72 101 146 179 231 298 363 420
#     4  11  26  48  72 108 146 190 246 298 367 430
#
# _framework density 24.584088999999999
#
# number of rings (size 3 to 8) (size 9 to 14) (size 15 to 20)
#    0.000    0.250    3.750    4.500    5.250    5.000 
#    0.000    0.000    0.000    0.000    0.000    0.000 
#    0.000    0.000    0.000    0.000    0.000    0.000 
#
# Total GULP energy -198372.330892 kJ/mol
# GULP energy per Si atom -12398.270681 kJ/mol
# Density = 2.452813 g / cm^3
# Si number density = 24.584089 Si / 1000 Ang^3
#
#
#
# Elastic Constant Matrix: (Units=GPa)
#
#
# Indices 1 2 3 4 5 6 
#
# 1 110.4627 28.2101 31.6218 -13.0181 10.4335 17.5611
# 2 28.2101 135.2553 43.5161 -15.0448 5.1373 12.6962
# 3 31.6218 43.5161 109.3021 -0.9929 22.1329 -0.5776
# 4 -13.0181 -15.0448 -0.9929 41.5008 2.3967 -2.1771
# 5 10.4335 5.1373 22.1329 2.3967 28.7420 3.2974
# 6 17.5611 12.6962 -0.5776 -2.1771 3.2974 38.3426
#
#
#
# Elastic Compliance Matrix: (Units=1/GPa)
#
#
# Indices 1 2 3 4 5 6 
#
# 1 0.011237 -0.000647 -0.002658 0.003077 -0.001639 -0.004657
# 2 -0.000647 0.009274 -0.003819 0.002828 0.001605 -0.002810
# 3 -0.002658 -0.003819 0.013233 -0.001215 -0.008828 0.003372
# 4 0.003077 0.002828 -0.001215 0.026185 -0.002797 -0.000637
# 5 -0.001639 0.001605 -0.008828 -0.002797 0.042560 -0.003733
# 6 -0.004657 -0.002810 0.003372 -0.000637 -0.003733 0.029479
#
#
# Mechanical properties :
#
#
# Convention : Reuss Voigt Hill
#
# Bulk Modulus (GPa) = 51.29406 62.41291 56.85349
# Shear Modulus (GPa) = 32.74054 38.49524 35.61789
#
# Velocity S-wave (km/s) = 3.65331 3.96139 3.81046
# Velocity P-wave (km/s) = 6.22138 6.80927 6.52195
#
# Compressibility (1/GPa) = 0.01949543
#
# Stress axis : x y z
#
# Youngs Moduli (GPa) = 88.99431 107.82254 75.56893
#
# Poissons Ratio (x) = 0.06974 0.20087
# Poissons Ratio (y) = 0.05756 0.28863
# Poissons Ratio (z) = 0.23656 0.41182
#
# Static dielectric constant tensor:
#      x y z
#    x 4.339910 0.117130 0.196470 
#    y 0.117130 4.920800 -0.101500 
#    z 0.196470 -0.101500 4.743660 
# 
# 
# High freq. dielectric constant tensor:
#      x y z
#    x 1.972900 0.005410 0.009160 
#    y 0.005410 2.005530 -0.000340 
#    z 0.009160 -0.000340 1.973660 
# 
# From -- ./inp_files/482777.got.cif
#   From: 2010.06.25/outbox.cif.g09.slc.cpg/sg2_242_cif.got.tgz:482777.got - 2010.06.27 13:26:56.
