data_PCOD8036826
_publ_section_title
;
Structure prediction by ZEFSAII (Michael W. Deem and Ramdas Pophale) SiO2 
 PCOD8036826
Probable space group: P -1
;
_chemical_formula_sum "Si O2"
_cell_formula_units_Z 16
_cell_length_a 9.002933
_cell_length_b 28.643245
_cell_length_c 28.815219
_cell_angle_alpha 170.060012
_cell_angle_beta 144.886215
_cell_angle_gamma 35.473585
_cell_volume 734.981514
_symmetry_space_group_name_H-M "P -1"
_symmetry_group_IT_number 2
_symmetry_cell_setting 'triclinic'
loop_
_space_group_symop_operation_xyz
x,y,z
-x,-y,-z
loop_
_atom_site_type_symbol
_atom_site_label
_atom_site_fract_x
_atom_site_fract_y
_atom_site_fract_z
Si Si1 0.228371 0.957714 0.121866
Si Si2 0.304151 0.614225 0.462569
Si Si3 0.001600 0.448760 0.896504
Si Si4 0.908431 0.814957 0.484877
Si Si5 0.277705 0.060100 0.964986
Si Si6 0.224296 0.494839 0.590065
Si Si7 0.436491 0.631145 0.063694
Si Si8 0.789331 0.016679 0.360157
O O1 0.001218 0.981523 0.125155
O O2 0.206981 0.224875 0.348792
O O3 0.499906 0.933803 0.195636
O O4 0.201421 0.725446 0.849298
O O5 0.509577 0.501946 0.366727
O O6 0.061392 0.771347 0.528841
O O7 0.386211 0.849308 0.747035
O O8 0.243508 0.363303 0.233305
O O9 0.801767 0.229829 0.614875
O O10 0.289403 0.306654 0.825516
O O11 0.000000 0.500000 0.000000
O O12 0.957624 0.732884 0.135479
O O13 0.101934 0.816607 0.491997
O O14 0.737368 0.092497 0.709898
O O15 0.722381 0.576493 0.207768
O O16 0.500000 0.000000 0.000000
O O17 0.000000 0.500000 0.500000
O O18 0.500000 0.500000 0.000000
#
# Coordination Sequence:
#
# PCOD8036826 Si02
#       8
#     2   2   2   2   2   2   2   2
#     4  12  26  44  73 102 142 191 230 282 372 417
#     4  12  26  44  72 104 140 181 238 292 344 417
#     4  12  27  44  68 100 137 180 230 281 347 419
#     4  12  24  42  71 101 133 175 235 289 339 399
#     4  12  26  48  70 103 147 187 227 290 357 421
#     4  12  24  44  72 106 137 182 240 288 338 427
#     4  12  23  42  70  96 131 182 226 280 343 407
#     4  12  24  45  70  96 141 177 227 293 346 409
#
# _framework density 21.769255000000001
#
# number of rings (size 3 to 8) (size 9 to 14) (size 15 to 20)
#    0.000    0.000    3.750    6.750    1.750    3.000 
#    0.000    0.000    0.000    0.000    0.000    0.000 
#    0.000    0.000    0.000    0.000    0.000    0.000 
#
# Total GULP energy -198317.512122 kJ/mol
# GULP energy per Si atom -12394.844508 kJ/mol
# Density = 2.171971 g / cm^3
# Si number density = 21.769255 Si / 1000 Ang^3
#
#
#
# Elastic Constant Matrix: (Units=GPa)
#
#
# Indices 1 2 3 4 5 6 
#
# 1 90.5605 35.7617 4.6032 -5.5642 -3.4897 -7.4156
# 2 35.7617 156.7835 59.8623 10.6482 7.3291 8.7898
# 3 4.6032 59.8623 148.3065 -0.6326 -9.8214 10.4363
# 4 -5.5642 10.6482 -0.6326 50.7972 4.9983 3.5103
# 5 -3.4897 7.3291 -9.8214 4.9983 38.6329 -2.7806
# 6 -7.4156 8.7898 10.4363 3.5103 -2.7806 37.2335
#
#
#
# Elastic Compliance Matrix: (Units=1/GPa)
#
#
# Indices 1 2 3 4 5 6 
#
# 1 0.012917 -0.003740 0.001035 0.001783 0.002136 0.003157
# 2 -0.003740 0.008961 -0.003563 -0.001923 -0.002831 -0.001891
# 3 0.001035 -0.003563 0.008416 0.000779 0.002723 -0.001182
# 4 0.001783 -0.001923 0.000779 0.020600 -0.002050 -0.001504
# 5 0.002136 -0.002831 0.002723 -0.002050 0.027759 0.002597
# 6 0.003157 -0.001891 -0.001182 -0.001504 0.002597 0.028600
#
#
# Mechanical properties :
#
#
# Convention : Reuss Voigt Hill
#
# Bulk Modulus (GPa) = 56.31174 66.23389 61.27282
# Shear Modulus (GPa) = 39.77521 45.02760 42.40141
#
# Velocity S-wave (km/s) = 4.27913 4.55290 4.41814
# Velocity P-wave (km/s) = 7.09495 7.62431 7.36439
#
# Compressibility (1/GPa) = 0.01775828
#
# Stress axis : x y z
#
# Youngs Moduli (GPa) = 77.41869 111.59779 118.82419
#
# Poissons Ratio (x) = 0.41732 -0.12304
# Poissons Ratio (y) = 0.28951 0.42342
# Poissons Ratio (z) = -0.08016 0.39767
#
# Static dielectric constant tensor:
#      x y z
#    x 3.962830 0.271340 0.219000 
#    y 0.271340 4.313270 -0.383920 
#    z 0.219000 -0.383920 2.183160 
# 
# 
# High freq. dielectric constant tensor:
#      x y z
#    x 1.855740 0.003690 -0.000140 
#    y 0.003690 1.881190 0.001880 
#    z -0.000140 0.001880 1.875070 
# 
# From -- ./inp_files/343203.got.cif
#   From: 2010.06.25/outbox.cif.g09.slc.cpg/sg2_172_cif.got.tgz:343203.got - 2010.06.27 13:26:56.
