data_PCOD8036309
_publ_section_title
;
Structure prediction by ZEFSAII (Michael W. Deem and Ramdas Pophale) SiO2 
 PCOD8036309
Probable space group: P -1
;
_chemical_formula_sum "Si O2"
_cell_formula_units_Z 14
_cell_length_a 11.588208
_cell_length_b 10.975895
_cell_length_c 11.199242
_cell_angle_alpha 41.947534
_cell_angle_beta 73.150057
_cell_angle_gamma 104.109040
_cell_volume 634.272017
_symmetry_space_group_name_H-M "P -1"
_symmetry_group_IT_number 2
_symmetry_cell_setting 'triclinic'
loop_
_space_group_symop_operation_xyz
x,y,z
-x,-y,-z
loop_
_atom_site_type_symbol
_atom_site_label
_atom_site_fract_x
_atom_site_fract_y
_atom_site_fract_z
Si Si1 0.153111 0.114865 0.785648
Si Si2 0.340021 0.615951 0.250032
Si Si3 0.008672 0.418471 0.870915
Si Si4 0.662564 0.741117 0.141120
Si Si5 0.164659 0.721346 0.364200
Si Si6 0.342994 0.757901 0.881357
Si Si7 0.656300 0.353363 0.291560
O O1 0.173664 0.306535 0.548585
O O2 0.315548 0.252916 0.725978
O O3 0.000000 0.000000 0.000000
O O4 0.101948 0.883648 0.894641
O O5 0.483112 0.640611 0.242585
O O6 0.325293 0.787883 0.204780
O O7 0.367729 0.680308 0.055025
O O8 0.131396 0.613062 0.584228
O O9 0.159664 0.557615 0.823051
O O10 0.857921 0.399353 0.957061
O O11 0.680843 0.569636 0.193606
O O12 0.805023 0.030104 0.829547
O O13 0.000000 0.500000 0.500000
O O14 0.380184 0.663148 0.827447
O O15 0.488455 0.074084 0.604175
#
# Coordination Sequence:
#
# PCOD8036309 Si02
#       7
#     2   2   2   2   2   2   2
#     4  12  22  40  66  99 141 166 214 273 343 401
#     4  12  24  41  68 101 135 179 219 276 338 405
#     4  12  23  44  74  98 135 184 218 280 340 404
#     4  12  24  41  68 101 135 179 219 276 338 405
#     4  12  22  40  66  99 141 166 214 273 343 401
#     4  11  26  48  69  96 134 182 234 279 325 391
#     4  11  26  48  69  96 134 182 234 279 325 391
#
# _framework density 22.072548999999999
#
# number of rings (size 3 to 8) (size 9 to 14) (size 15 to 20)
#    0.000    0.286    5.714    3.000    0.000    2.857 
#    0.000    4.286    0.000    0.000    0.000    0.000 
#    0.000    0.000    0.000    0.000    0.000    0.000 
#
# Total GULP energy -173489.842668 kJ/mol
# GULP energy per Si atom -12392.131619 kJ/mol
# Density = 2.202231 g / cm^3
# Si number density = 22.072549 Si / 1000 Ang^3
#
#
#
# Elastic Constant Matrix: (Units=GPa)
#
#
# Indices 1 2 3 4 5 6 
#
# 1 100.3239 5.6900 29.8028 10.6688 -10.9835 16.2551
# 2 5.6900 82.8719 44.6103 8.7705 21.6169 17.6191
# 3 29.8028 44.6103 138.6745 7.1235 23.5788 10.6343
# 4 10.6688 8.7705 7.1235 34.1834 2.2794 5.1258
# 5 -10.9835 21.6169 23.5788 2.2794 47.9456 -3.7014
# 6 16.2551 17.6191 10.6343 5.1258 -3.7014 22.2311
#
#
#
# Elastic Compliance Matrix: (Units=1/GPa)
#
#
# Indices 1 2 3 4 5 6 
#
# 1 0.012765 0.002104 -0.003148 -0.002818 0.003013 -0.008344
# 2 0.002104 0.019742 -0.004204 -0.001951 -0.007491 -0.015971
# 3 -0.003148 -0.004204 0.009828 0.000215 -0.003648 0.000276
# 4 -0.002818 -0.001951 0.000215 0.031299 -0.001667 -0.003990
# 5 0.003013 -0.007491 -0.003648 -0.001667 0.027606 0.010460
# 6 -0.008344 -0.015971 0.000276 -0.003990 0.010460 0.066271
#
#
# Mechanical properties :
#
#
# Convention : Reuss Voigt Hill
#
# Bulk Modulus (GPa) = 31.40800 53.56404 42.48602
# Shear Modulus (GPa) = 26.50849 36.98983 31.74916
#
# Velocity S-wave (km/s) = 3.46926 4.09813 3.79674
# Velocity P-wave (km/s) = 5.50527 6.83468 6.20568
#
# Compressibility (1/GPa) = 0.03183902
#
# Stress axis : x y z
#
# Youngs Moduli (GPa) = 78.33885 50.65436 101.74775
#
# Poissons Ratio (x) = -0.10659 0.32031
# Poissons Ratio (y) = -0.16485 0.42777
# Poissons Ratio (z) = 0.24662 0.21296
#
# Static dielectric constant tensor:
#      x y z
#    x 3.821340 0.044260 -0.431100 
#    y 0.044260 3.281280 -0.278190 
#    z -0.431100 -0.278190 3.998430 
# 
# 
# High freq. dielectric constant tensor:
#      x y z
#    x 1.880000 0.009500 -0.009950 
#    y 0.009500 1.852500 -0.006100 
#    z -0.009950 -0.006100 1.891430 
# 
# From -- ./inp_files/331568.got.cif
#   From: 2010.06.25/outbox.cif.g09.slc.cpg/sg2_166_cif.got.tgz:331568.got - 2010.06.27 13:26:56.
