data_PCOD8036014
_publ_section_title
;
Structure prediction by ZEFSAII (Michael W. Deem and Ramdas Pophale) SiO2 
 PCOD8036014
Probable space group: P -1
;
_chemical_formula_sum "Si O2"
_cell_formula_units_Z 16
_cell_length_a 6.560211
_cell_length_b 18.017819
_cell_length_c 9.030725
_cell_angle_alpha 71.762331
_cell_angle_beta 52.264001
_cell_angle_gamma 57.749728
_cell_volume 713.789168
_symmetry_space_group_name_H-M "P -1"
_symmetry_group_IT_number 2
_symmetry_cell_setting 'triclinic'
loop_
_space_group_symop_operation_xyz
x,y,z
-x,-y,-z
loop_
_atom_site_type_symbol
_atom_site_label
_atom_site_fract_x
_atom_site_fract_y
_atom_site_fract_z
Si Si1 0.362197 0.250248 0.974307
Si Si2 0.791099 0.467848 0.695617
Si Si3 0.699343 0.838515 0.207501
Si Si4 0.074038 0.907437 0.458995
Si Si5 0.895558 0.282765 0.678551
Si Si6 0.823391 0.979352 0.212964
Si Si7 0.335322 0.163297 0.320978
Si Si8 0.876916 0.438517 0.020102
O O1 0.303247 0.177470 0.957602
O O2 0.616767 0.267613 0.777253
O O3 0.453535 0.211064 0.123405
O O4 0.070084 0.340770 0.054198
O O5 0.808579 0.384777 0.648930
O O6 0.451728 0.537683 0.800615
O O7 0.000000 0.500000 0.500000
O O8 0.901131 0.443843 0.829251
O O9 0.401808 0.839912 0.394441
O O10 0.983742 0.754811 0.189806
O O11 0.680368 0.930571 0.209422
O O12 0.886332 0.865307 0.644126
O O13 0.000000 0.000000 0.500000
O O14 0.015557 0.916915 0.299215
O O15 0.166562 0.230685 0.483153
O O16 0.589150 0.071999 0.329704
O O17 0.000000 0.000000 0.000000
O O18 0.000000 0.500000 0.000000
#
# Coordination Sequence:
#
# PCOD8036014 Si02
#       8
#     2   2   2   2   2   2   2   2
#     4  12  27  46  71 108 137 188 237 290 360 420
#     4  11  27  47  77 112 143 189 235 290 366 434
#     4  12  23  45  70  94 147 183 231 296 348 408
#     4  12  24  42  66  96 137 185 237 286 349 413
#     4  12  25  48  69 105 148 177 237 302 343 427
#     4  12  26  46  67 100 142 191 238 291 354 419
#     4  12  26  44  70 103 138 187 239 290 351 417
#     4  11  25  49  76 103 152 187 229 297 361 436
#
# _framework density 22.415583000000002
#
# number of rings (size 3 to 8) (size 9 to 14) (size 15 to 20)
#    0.000    0.250    6.250    2.625    3.500    3.500 
#    4.500    0.000    0.000    0.000    0.000    0.000 
#    0.000    0.000    0.000    0.000    0.000    0.000 
#
# Total GULP energy -198319.426601 kJ/mol
# GULP energy per Si atom -12394.964163 kJ/mol
# Density = 2.236456 g / cm^3
# Si number density = 22.415583 Si / 1000 Ang^3
#
#
#
# Elastic Constant Matrix: (Units=GPa)
#
#
# Indices 1 2 3 4 5 6 
#
# 1 104.7687 37.2655 29.1943 2.7027 -6.0667 10.6723
# 2 37.2655 123.8450 30.0689 11.0392 1.8861 2.0571
# 3 29.1943 30.0689 101.7519 -0.5102 -10.2063 14.1474
# 4 2.7027 11.0392 -0.5102 34.4071 0.5620 0.2075
# 5 -6.0667 1.8861 -10.2063 0.5620 33.5000 6.3226
# 6 10.6723 2.0571 14.1474 0.2075 6.3226 46.1520
#
#
#
# Elastic Compliance Matrix: (Units=1/GPa)
#
#
# Indices 1 2 3 4 5 6 
#
# 1 0.011484 -0.002992 -0.001891 0.000009 0.002093 -0.002229
# 2 -0.002992 0.009840 -0.002449 -0.002933 -0.002037 0.001296
# 3 -0.001891 -0.002449 0.012031 0.001067 0.004144 -0.003714
# 4 0.000009 -0.002933 0.001067 0.030021 0.000053 -0.000341
# 5 0.002093 -0.002037 0.004144 0.000053 0.032767 -0.006153
# 6 -0.002229 0.001296 -0.003714 -0.000341 -0.006153 0.024108
#
#
# Mechanical properties :
#
#
# Convention : Reuss Voigt Hill
#
# Bulk Modulus (GPa) = 53.49765 58.15814 55.82790
# Shear Modulus (GPa) = 35.42405 38.40094 36.91249
#
# Velocity S-wave (km/s) = 3.97965 4.14349 4.06240
# Velocity P-wave (km/s) = 6.71081 6.99236 6.85303
#
# Compressibility (1/GPa) = 0.01869241
#
# Stress axis : x y z
#
# Youngs Moduli (GPa) = 87.07725 101.62133 83.11566
#
# Poissons Ratio (x) = 0.30407 0.15716
# Poissons Ratio (y) = 0.26055 0.20353
# Poissons Ratio (z) = 0.16465 0.24885
#
# Static dielectric constant tensor:
#      x y z
#    x 4.323170 -0.003530 -0.072860 
#    y -0.003530 4.330310 0.263560 
#    z -0.072860 0.263560 3.932330 
# 
# 
# High freq. dielectric constant tensor:
#      x y z
#    x 1.895220 0.003320 -0.008950 
#    y 0.003320 1.894050 0.020540 
#    z -0.008950 0.020540 1.872320 
# 
# From -- ./inp_files/138846.got.cif
#   From: 2010.06.25/outbox.cif.g09.slc.cpg/sg2_70_cif.got.tgz:138846.got - 2010.06.27 13:26:56.
