data_PCOD8036606
_publ_section_title
;
Structure prediction by ZEFSAII (Michael W. Deem and Ramdas Pophale) SiO2 
 PCOD8036606
Probable space group: P -1
;
_chemical_formula_sum "Si O2"
_cell_formula_units_Z 14
_cell_length_a 10.964305
_cell_length_b 11.266455
_cell_length_c 9.798094
_cell_angle_alpha 87.901801
_cell_angle_beta 137.295162
_cell_angle_gamma 63.508880
_cell_volume 587.577472
_symmetry_space_group_name_H-M "P -1"
_symmetry_group_IT_number 2
_symmetry_cell_setting 'triclinic'
loop_
_space_group_symop_operation_xyz
x,y,z
-x,-y,-z
loop_
_atom_site_type_symbol
_atom_site_label
_atom_site_fract_x
_atom_site_fract_y
_atom_site_fract_z
Si Si1 0.792970 0.382882 0.251046
Si Si2 0.396835 0.736634 0.519531
Si Si3 0.914755 0.494983 0.120271
Si Si4 0.091622 0.664551 0.333657
Si Si5 0.595085 0.839750 0.503404
Si Si6 0.459617 0.023286 0.125946
Si Si7 0.891073 0.982296 0.537701
O O1 0.881954 0.345950 0.480814
O O2 0.851854 0.479474 0.221520
O O3 0.932367 0.213767 0.286349
O O4 0.500000 0.500000 0.000000
O O5 0.315298 0.635256 0.442521
O O6 0.433029 0.796700 0.409419
O O7 0.142249 0.908574 0.372650
O O8 0.658676 0.624757 0.821162
O O9 0.081956 0.537056 0.271011
O O10 0.109738 0.316331 0.211180
O O11 0.826716 0.844513 0.072440
O O12 0.500000 0.000000 0.500000
O O13 0.576990 0.863730 0.322358
O O14 0.599220 0.080438 0.277104
O O15 0.500000 0.000000 0.000000
O O16 0.000000 0.000000 0.500000
#
# Coordination Sequence:
#
# PCOD8036606 Si02
#       7
#     2   2   2   2   2   2   2
#     4  12  23  42  72 108 142 190 242 295 362 425
#     4  12  25  46  72 103 145 192 242 292 362 432
#     4  12  24  46  71 103 144 189 239 300 358 430
#     4  12  25  43  67 104 147 186 236 301 362 419
#     4  12  25  48  75 104 141 197 240 293 368 434
#     4  12  23  44  72 106 143 184 242 295 357 425
#     4  12  21  43  73 104 143 188 236 293 356 422
#
# _framework density 23.826647000000001
#
# number of rings (size 3 to 8) (size 9 to 14) (size 15 to 20)
#    0.000    0.000    8.571    0.857    0.000    1.143 
#    2.571    0.000    0.000    0.000    0.000    0.000 
#    0.000    0.000    0.000    0.000    0.000    0.000 
#
# Total GULP energy -173445.859978 kJ/mol
# GULP energy per Si atom -12388.989998 kJ/mol
# Density = 2.377242 g / cm^3
# Si number density = 23.826647 Si / 1000 Ang^3
#
#
#
# Elastic Constant Matrix: (Units=GPa)
#
#
# Indices 1 2 3 4 5 6 
#
# 1 190.0333 40.6953 39.6882 5.0727 -0.1309 42.8851
# 2 40.6953 97.5001 55.1211 -10.5059 13.9149 18.6684
# 3 39.6882 55.1211 122.4973 -11.9113 19.1432 6.5047
# 4 5.0727 -10.5059 -11.9113 30.4060 6.2454 18.0207
# 5 -0.1309 13.9149 19.1432 6.2454 41.4396 -0.9795
# 6 42.8851 18.6684 6.5047 18.0207 -0.9795 51.3095
#
#
#
# Elastic Compliance Matrix: (Units=1/GPa)
#
#
# Indices 1 2 3 4 5 6 
#
# 1 0.007057 -0.000951 -0.001563 0.001125 0.000759 -0.005735
# 2 -0.000951 0.016925 -0.005113 0.009959 -0.005021 -0.008308
# 3 -0.001563 -0.005113 0.012057 0.004059 -0.004466 0.000128
# 4 0.001125 0.009959 0.004059 0.055320 -0.014138 -0.024777
# 5 0.000759 -0.005021 -0.004466 -0.014138 0.030187 0.007301
# 6 -0.005735 -0.008308 0.000128 -0.024777 0.007301 0.036131
#
#
# Mechanical properties :
#
#
# Convention : Reuss Voigt Hill
#
# Bulk Modulus (GPa) = 48.11533 75.67110 61.89322
# Shear Modulus (GPa) = 27.79959 42.93274 35.36617
#
# Velocity S-wave (km/s) = 3.41947 4.24946 3.85686
# Velocity P-wave (km/s) = 5.98566 7.47698 6.77249
#
# Compressibility (1/GPa) = 0.02078340
#
# Stress axis : x y z
#
# Youngs Moduli (GPa) = 141.70329 59.08568 82.94153
#
# Poissons Ratio (x) = 0.05618 0.12966
# Poissons Ratio (y) = 0.13473 0.42411
# Poissons Ratio (z) = 0.22152 0.30213
#
# Static dielectric constant tensor:
#      x y z
#    x 4.741650 0.123240 0.002100 
#    y 0.123240 4.856670 -0.063320 
#    z 0.002100 -0.063320 4.705820 
# 
# 
# High freq. dielectric constant tensor:
#      x y z
#    x 1.971680 0.014710 0.016760 
#    y 0.014710 1.931210 -0.021580 
#    z 0.016760 -0.021580 1.941570 
# 
# From -- ./inp_files/425828.got.cif
#   From: 2010.06.25/outbox.cif.g09.slc.cpg/sg2_213_cif.got.tgz:425828.got - 2010.06.27 13:26:56.
