data_PCOD8036868
_publ_section_title
;
Structure prediction by ZEFSAII (Michael W. Deem and Ramdas Pophale) SiO2 
 PCOD8036868
Probable space group: P -1
;
_chemical_formula_sum "Si O2"
_cell_formula_units_Z 14
_cell_length_a 8.681155
_cell_length_b 14.402430
_cell_length_c 14.471832
_cell_angle_alpha 148.542268
_cell_angle_beta 134.420638
_cell_angle_gamma 41.813735
_cell_volume 618.766982
_symmetry_space_group_name_H-M "P -1"
_symmetry_group_IT_number 2
_symmetry_cell_setting 'triclinic'
loop_
_space_group_symop_operation_xyz
x,y,z
-x,-y,-z
loop_
_atom_site_type_symbol
_atom_site_label
_atom_site_fract_x
_atom_site_fract_y
_atom_site_fract_z
Si Si1 0.407542 0.587589 0.135194
Si Si2 0.863122 0.667307 0.758806
Si Si3 0.880877 0.880080 0.129310
Si Si4 0.890348 0.262912 0.379849
Si Si5 0.292248 0.709219 0.869554
Si Si6 0.489858 0.008025 0.217503
Si Si7 0.415150 0.121248 0.475899
O O1 0.449388 0.416098 0.081588
O O2 0.583794 0.672628 0.326033
O O3 0.148169 0.753396 0.163548
O O4 0.500000 0.500000 0.000000
O O5 0.878873 0.447692 0.592887
O O6 0.095571 0.679742 0.824491
O O7 0.637696 0.773657 0.689351
O O8 0.810833 0.776061 0.927264
O O9 0.718823 0.879375 0.146444
O O10 0.828158 0.105721 0.277739
O O11 0.726331 0.343720 0.289886
O O12 0.155819 0.146936 0.358444
O O13 0.284722 0.925334 0.053840
O O14 0.574733 0.015732 0.365084
O O15 0.500000 0.000000 0.500000
#
# Coordination Sequence:
#
# PCOD8036868 Si02
#       7
#     2   2   2   2   2   2   2
#     4  12  24  44  73 103 137 184 242 292 348 422
#     4  12  23  45  74 106 140 183 247 291 347 418
#     4  12  27  48  69 105 152 187 227 295 364 420
#     4  12  24  45  76 105 135 188 244 293 349 419
#     4  12  23  43  74 103 137 185 241 294 345 413
#     4  12  27  44  70 107 149 186 230 295 361 421
#     4  12  23  43  72 103 135 184 244 291 346 418
#
# _framework density 22.625643
#
# number of rings (size 3 to 8) (size 9 to 14) (size 15 to 20)
#    0.000    0.000    7.143    3.857    0.000    1.714 
#    2.571    0.000    0.000    0.000    0.000    0.000 
#    0.000    0.000    0.000    0.000    0.000    0.000 
#
# Total GULP energy -173553.885088 kJ/mol
# GULP energy per Si atom -12396.706078 kJ/mol
# Density = 2.257415 g / cm^3
# Si number density = 22.625643 Si / 1000 Ang^3
#
#
#
# Elastic Constant Matrix: (Units=GPa)
#
#
# Indices 1 2 3 4 5 6 
#
# 1 117.8907 47.7880 67.2831 -2.1106 -26.9442 4.7884
# 2 47.7880 142.0452 29.9330 -6.8291 -12.7394 12.6353
# 3 67.2831 29.9330 153.5572 8.5590 -16.3915 10.0850
# 4 -2.1106 -6.8291 8.5590 39.1367 3.3792 -5.6952
# 5 -26.9442 -12.7394 -16.3915 3.3792 24.8038 -4.6052
# 6 4.7884 12.6353 10.0850 -5.6952 -4.6052 25.2503
#
#
#
# Elastic Compliance Matrix: (Units=1/GPa)
#
#
# Indices 1 2 3 4 5 6 
#
# 1 0.015336 -0.003250 -0.005038 0.000768 0.012135 0.003116
# 2 -0.003250 0.008491 -0.000046 0.000814 0.000055 -0.003421
# 3 -0.005038 -0.000046 0.009129 -0.002774 0.000314 -0.003236
# 4 0.000768 0.000814 -0.002774 0.027516 -0.003183 0.006181
# 5 0.012135 0.000055 0.000314 -0.003183 0.055456 0.006943
# 6 0.003116 -0.003421 -0.003236 0.006181 0.006943 0.044677
#
#
# Mechanical properties :
#
#
# Convention : Reuss Voigt Hill
#
# Bulk Modulus (GPa) = 61.39392 78.16680 69.78036
# Shear Modulus (GPa) = 27.36678 35.73742 31.55210
#
# Velocity S-wave (km/s) = 3.48163 3.97862 3.73839
# Velocity P-wave (km/s) = 6.58452 7.46517 7.03863
#
# Compressibility (1/GPa) = 0.01628826
#
# Stress axis : x y z
#
# Youngs Moduli (GPa) = 65.20736 117.76677 109.53556
#
# Poissons Ratio (x) = 0.38271 0.55186
# Poissons Ratio (y) = 0.21190 0.00506
# Poissons Ratio (z) = 0.32853 0.00544
#
# Static dielectric constant tensor:
#      x y z
#    x 3.822500 0.121500 -0.016930 
#    y 0.121500 4.249930 -0.106870 
#    z -0.016930 -0.106870 4.039710 
# 
# 
# High freq. dielectric constant tensor:
#      x y z
#    x 1.867930 0.010640 -0.004390 
#    y 0.010640 1.906460 0.005040 
#    z -0.004390 0.005040 1.905880 
# 
# From -- ./inp_files/223416.got.cif
#   From: 2010.06.25/outbox.cif.g09.slc.cpg/sg2_112_cif.got.tgz:223416.got - 2010.06.27 13:26:56.
