data_PCOD8036109
_publ_section_title
;
Structure prediction by ZEFSAII (Michael W. Deem and Ramdas Pophale) SiO2 
 PCOD8036109
Probable space group: P -1
;
_chemical_formula_sum "Si O2"
_cell_formula_units_Z 10
_cell_length_a 11.668288
_cell_length_b 5.016079
_cell_length_c 15.479309
_cell_angle_alpha 115.547428
_cell_angle_beta 30.361884
_cell_angle_gamma 125.743827
_cell_volume 365.785396
_symmetry_space_group_name_H-M "P -1"
_symmetry_group_IT_number 2
_symmetry_cell_setting 'triclinic'
loop_
_space_group_symop_operation_xyz
x,y,z
-x,-y,-z
loop_
_atom_site_type_symbol
_atom_site_label
_atom_site_fract_x
_atom_site_fract_y
_atom_site_fract_z
Si Si1 0.231572 0.222272 0.106044
Si Si2 0.865133 0.496106 0.952890
Si Si3 0.002308 0.573155 0.409025
Si Si4 0.391785 0.178922 0.324752
Si Si5 0.448049 0.806221 0.596587
O O1 0.213531 0.273000 0.022901
O O2 0.015132 0.290493 0.302137
O O3 0.187785 0.854463 0.106944
O O4 0.500000 0.500000 0.000000
O O5 0.165627 0.698803 0.802529
O O6 0.690555 0.422877 0.142043
O O7 0.760023 0.605643 0.534896
O O8 0.000000 0.500000 0.500000
O O9 0.266020 0.931312 0.289325
O O10 0.380158 0.004623 0.402522
O O11 0.500000 0.500000 0.500000
O O12 0.500000 0.000000 0.500000
#
# Coordination Sequence:
#
# PCOD8036109 Si02
#       5
#     2   2   2   2   2
#     4  12  25  46  74 114 152 193 248 305 379 444
#     4  12  27  48  78 110 150 199 250 308 374 451
#     4  11  26  44  76 111 156 194 247 310 379 447
#     4  11  27  48  74 113 151 199 251 310 375 447
#     4  12  29  51  76 108 150 202 255 312 372 445
#
# _framework density 27.338433999999999
#
# number of rings (size 3 to 8) (size 9 to 14) (size 15 to 20)
#    0.000    0.400    2.000    4.800   14.000    0.000 
#    0.000    4.000    0.000    0.000    0.000    0.000 
#    0.000    0.000    0.000    0.000    0.000    0.000 
#
# Total GULP energy -123954.413022 kJ/mol
# GULP energy per Si atom -12395.441302 kJ/mol
# Density = 2.727621 g / cm^3
# Si number density = 27.338434 Si / 1000 Ang^3
#
#
#
# Elastic Constant Matrix: (Units=GPa)
#
#
# Indices 1 2 3 4 5 6 
#
# 1 176.8402 19.2145 57.0249 -9.8013 1.7990 -3.1664
# 2 19.2145 71.5933 6.3019 3.9418 -5.2389 -6.4080
# 3 57.0249 6.3019 163.4568 -24.0789 -5.9629 2.4406
# 4 -9.8013 3.9418 -24.0789 34.3367 1.5037 8.9989
# 5 1.7990 -5.2389 -5.9629 1.5037 45.9514 -2.1772
# 6 -3.1664 -6.4080 2.4406 8.9989 -2.1772 38.9425
#
#
#
# Elastic Compliance Matrix: (Units=1/GPa)
#
#
# Indices 1 2 3 4 5 6 
#
# 1 0.006577 -0.001631 -0.002189 0.000497 -0.000732 0.000248
# 2 -0.001631 0.015084 -0.000505 -0.003504 0.001989 0.003302
# 3 -0.002189 -0.000505 0.007744 0.005338 0.000767 -0.001937
# 4 0.000497 -0.003504 0.005338 0.035891 -0.001338 -0.009239
# 5 -0.000732 0.001989 0.000767 -0.001338 0.022245 0.001773
# 6 0.000248 0.003302 -0.001937 -0.009239 0.001773 0.028598
#
#
# Mechanical properties :
#
#
# Convention : Reuss Voigt Hill
#
# Bulk Modulus (GPa) = 48.18260 64.10812 56.14536
# Shear Modulus (GPa) = 37.96259 45.80272 41.88266
#
# Velocity S-wave (km/s) = 3.73046 4.09760 3.91833
# Velocity P-wave (km/s) = 6.01812 6.77406 6.40725
#
# Compressibility (1/GPa) = 0.02075438
#
# Stress axis : x y z
#
# Youngs Moduli (GPa) = 152.03672 66.29473 129.12906
#
# Poissons Ratio (x) = 0.10815 0.28266
# Poissons Ratio (y) = 0.24802 0.06526
# Poissons Ratio (z) = 0.33280 0.03350
#
# Static dielectric constant tensor:
#      x y z
#    x 5.860980 0.502800 -0.179800 
#    y 0.502800 5.583120 0.102480 
#    z -0.179800 0.102480 5.163070 
# 
# 
# High freq. dielectric constant tensor:
#      x y z
#    x 2.111930 -0.006430 -0.011910 
#    y -0.006430 2.101580 -0.012860 
#    z -0.011910 -0.012860 2.122000 
# 
# From -- ./inp_files/73424.got.cif
#   From: 2010.06.25/outbox.cif.g09.slc.cpg/sg2_37_cif.got.tgz:73424.got - 2010.06.27 13:26:56.
