data_PCOD8036915
_publ_section_title
;
Structure prediction by ZEFSAII (Michael W. Deem and Ramdas Pophale) SiO2 
 PCOD8036915
Probable space group: P -1
;
_chemical_formula_sum "Si O2"
_cell_formula_units_Z 14
_cell_length_a 12.242862
_cell_length_b 8.701558
_cell_length_c 24.265010
_cell_angle_alpha 31.236578
_cell_angle_beta 27.173927
_cell_angle_gamma 37.977558
_cell_volume 608.032570
_symmetry_space_group_name_H-M "P -1"
_symmetry_group_IT_number 2
_symmetry_cell_setting 'triclinic'
loop_
_space_group_symop_operation_xyz
x,y,z
-x,-y,-z
loop_
_atom_site_type_symbol
_atom_site_label
_atom_site_fract_x
_atom_site_fract_y
_atom_site_fract_z
Si Si1 0.011636 0.562424 0.817050
Si Si2 0.189823 0.695916 0.117341
Si Si3 0.500779 0.326498 0.495055
Si Si4 0.421228 0.338822 0.296320
Si Si5 0.002556 0.343695 0.403064
Si Si6 0.920098 0.298079 0.048933
Si Si7 0.589532 0.009424 0.893221
O O1 0.269155 0.601309 0.664443
O O2 0.838388 0.411207 0.899361
O O3 0.869925 0.875402 0.805610
O O4 0.057705 0.351992 0.914190
O O5 0.148977 0.432999 0.257399
O O6 0.981566 0.959657 0.144317
O O7 0.445939 0.813053 0.976875
O O8 0.500000 0.500000 0.500000
O O9 0.257133 0.462031 0.531694
O O10 0.522686 0.964533 0.600260
O O11 0.631983 0.339727 0.155374
O O12 0.435614 0.654805 0.224321
O O13 0.155341 0.374824 0.379771
O O14 0.000000 0.000000 0.500000
O O15 0.000000 0.500000 0.000000
O O16 0.500000 0.000000 0.000000
#
# Coordination Sequence:
#
# PCOD8036915 Si02
#       7
#     2   2   2   2   2   2   2
#     4  12  26  46  74 111 151 200 259 313 376 457
#     4  12  23  44  74 111 150 192 258 313 378 449
#     4  12  25  49  72 110 161 198 248 312 384 455
#     4  12  24  46  78 104 151 204 251 308 379 448
#     4  12  24  43  78 106 148 206 244 301 381 452
#     4  12  24  47  78 109 148 197 252 321 387 447
#     4  12  24  45  74 107 148 200 257 315 379 439
#
# _framework density 23.025082999999999
#
# number of rings (size 3 to 8) (size 9 to 14) (size 15 to 20)
#    0.000    0.000    8.571    0.857    0.000    0.571 
#    7.714    2.857    0.000    0.000    0.000    0.000 
#    0.000    0.000    0.000    0.000    0.000    0.000 
#
# Total GULP energy -173525.117854 kJ/mol
# GULP energy per Si atom -12394.651275 kJ/mol
# Density = 2.297268 g / cm^3
# Si number density = 23.025083 Si / 1000 Ang^3
#
#
#
# Elastic Constant Matrix: (Units=GPa)
#
#
# Indices 1 2 3 4 5 6 
#
# 1 109.2423 42.0058 57.6199 1.0528 -9.3316 -12.5463
# 2 42.0058 143.4272 68.0913 -5.2380 -5.3279 -23.5881
# 3 57.6199 68.0913 150.0107 -8.5359 -8.2950 -4.6390
# 4 1.0528 -5.2380 -8.5359 60.8855 -6.6686 -4.7065
# 5 -9.3316 -5.3279 -8.2950 -6.6686 28.8675 4.6360
# 6 -12.5463 -23.5881 -4.6390 -4.7065 4.6360 42.5918
#
#
#
# Elastic Compliance Matrix: (Units=1/GPa)
#
#
# Indices 1 2 3 4 5 6 
#
# 1 0.012151 -0.001275 -0.003932 -0.000473 0.002106 0.002163
# 2 -0.001275 0.009996 -0.003876 0.000680 -0.000302 0.004846
# 3 -0.003932 -0.003876 0.010014 0.001130 0.001514 -0.002254
# 4 -0.000473 0.000680 0.001130 0.017227 0.003983 0.001831
# 5 0.002106 -0.000302 0.001514 0.003983 0.037100 -0.002980
# 6 0.002163 0.004846 -0.002254 0.001831 -0.002980 0.027081
#
#
# Mechanical properties :
#
#
# Convention : Reuss Voigt Hill
#
# Bulk Modulus (GPa) = 71.45165 82.01268 76.73217
# Shear Modulus (GPa) = 36.65665 42.13318 39.39492
#
# Velocity S-wave (km/s) = 3.99436 4.28235 4.14086
# Velocity P-wave (km/s) = 7.23689 7.75549 7.50067
#
# Compressibility (1/GPa) = 0.01399548
#
# Stress axis : x y z
#
# Youngs Moduli (GPa) = 82.29634 100.03698 99.85965
#
# Poissons Ratio (x) = 0.12758 0.39265
# Poissons Ratio (y) = 0.10495 0.38703
# Poissons Ratio (z) = 0.32359 0.38771
#
# Static dielectric constant tensor:
#      x y z
#    x 4.006080 -0.403110 -0.134610 
#    y -0.403110 4.438320 -0.021820 
#    z -0.134610 -0.021820 4.225340 
# 
# 
# High freq. dielectric constant tensor:
#      x y z
#    x 1.895630 -0.017450 -0.015670 
#    y -0.017450 1.930310 -0.011870 
#    z -0.015670 -0.011870 1.914070 
# 
# From -- ./inp_files/261388.got.cif
#   From: 2010.06.25/outbox.cif.g09.slc.cpg/sg2_131_cif.got.tgz:261388.got - 2010.06.27 13:26:56.
