data_PCOD8036390
_publ_section_title
;
Structure prediction by ZEFSAII (Michael W. Deem and Ramdas Pophale) SiO2 
 PCOD8036390
Probable space group: P -1
;
_chemical_formula_sum "Si O2"
_cell_formula_units_Z 16
_cell_length_a 13.721070
_cell_length_b 14.675155
_cell_length_c 9.821886
_cell_angle_alpha 113.253551
_cell_angle_beta 91.483692
_cell_angle_gamma 32.050683
_cell_volume 746.312846
_symmetry_space_group_name_H-M "P -1"
_symmetry_group_IT_number 2
_symmetry_cell_setting 'triclinic'
loop_
_space_group_symop_operation_xyz
x,y,z
-x,-y,-z
loop_
_atom_site_type_symbol
_atom_site_label
_atom_site_fract_x
_atom_site_fract_y
_atom_site_fract_z
Si Si1 0.092681 0.306824 0.352344
Si Si2 0.063403 0.100975 0.880842
Si Si3 0.661829 0.748749 0.050766
Si Si4 0.983165 0.635810 0.928926
Si Si5 0.461159 0.613486 0.685246
Si Si6 0.817045 0.446149 0.652016
Si Si7 0.887184 0.998137 0.472163
Si Si8 0.539400 0.524855 0.148744
O O1 0.980403 0.391426 0.248823
O O2 0.000000 0.500000 0.500000
O O3 0.984028 0.333045 0.473615
O O4 0.378752 0.029847 0.211392
O O5 0.200945 0.902094 0.873331
O O6 0.163020 0.960979 0.664272
O O7 0.132014 0.152468 0.910730
O O8 0.789721 0.345646 0.051977
O O9 0.773826 0.608230 0.117673
O O10 0.785403 0.737764 0.014054
O O11 0.713711 0.625142 0.855851
O O12 0.500000 0.500000 0.500000
O O13 0.619023 0.565298 0.638827
O O14 0.520411 0.500133 0.755222
O O15 0.955603 0.241802 0.631220
O O16 0.649391 0.211443 0.681402
O O17 0.000000 0.000000 0.500000
O O18 0.500000 0.500000 0.000000
#
# Coordination Sequence:
#
# PCOD8036390 Si02
#       8
#     2   2   2   2   2   2   2   2
#     4  12  28  48  78 112 147 192 246 308 372 442
#     4  12  25  44  72 103 139 190 240 299 366 425
#     4  11  26  53  74 107 149 193 247 303 371 447
#     4  11  26  49  77 107 148 192 246 307 369 439
#     4  12  26  46  68 104 147 189 239 301 363 434
#     4  12  26  48  76 102 146 198 239 301 374 433
#     4  12  23  47  69 100 143 189 241 296 356 423
#     4  12  26  44  72  99 143 190 241 298 357 438
#
# _framework density 21.438731000000001
#
# number of rings (size 3 to 8) (size 9 to 14) (size 15 to 20)
#    0.000    0.250    6.250    1.500    5.250    1.500 
#    0.000    0.000    0.000    0.000    0.000    0.000 
#    0.000    0.000    0.000    0.000    0.000    0.000 
#
# Total GULP energy -198270.050267 kJ/mol
# GULP energy per Si atom -12391.878142 kJ/mol
# Density = 2.138994 g / cm^3
# Si number density = 21.438731 Si / 1000 Ang^3
#
#
#
# Elastic Constant Matrix: (Units=GPa)
#
#
# Indices 1 2 3 4 5 6 
#
# 1 145.0556 38.8770 64.6521 4.8064 16.0224 -2.4653
# 2 38.8770 111.9322 60.1495 4.5335 7.5347 -3.8028
# 3 64.6521 60.1495 147.5420 15.4576 3.0453 -11.2407
# 4 4.8064 4.5335 15.4576 45.6158 7.5957 0.7035
# 5 16.0224 7.5347 3.0453 7.5957 31.8123 1.9223
# 6 -2.4653 -3.8028 -11.2407 0.7035 1.9223 36.7862
#
#
#
# Elastic Compliance Matrix: (Units=1/GPa)
#
#
# Indices 1 2 3 4 5 6 
#
# 1 0.009242 -0.000988 -0.003705 0.001103 -0.004305 -0.000411
# 2 -0.000988 0.011745 -0.004402 0.000770 -0.002040 -0.000105
# 3 -0.003705 -0.004402 0.010674 -0.003246 0.002511 0.002489
# 4 0.001103 0.000770 -0.003246 0.023854 -0.006064 -0.000978
# 5 -0.004305 -0.002040 0.002511 -0.006064 0.035382 -0.001465
# 6 -0.000411 -0.000105 0.002489 -0.000978 -0.001465 0.028002
#
#
# Mechanical properties :
#
#
# Convention : Reuss Voigt Hill
#
# Bulk Modulus (GPa) = 74.23296 81.32078 77.77687
# Shear Modulus (GPa) = 35.31619 38.89961 37.10790
#
# Velocity S-wave (km/s) = 4.06311 4.26426 4.16490
# Velocity P-wave (km/s) = 7.53078 7.89046 7.71271
#
# Compressibility (1/GPa) = 0.01347111
#
# Stress axis : x y z
#
# Youngs Moduli (GPa) = 108.20184 85.14156 93.68849
#
# Poissons Ratio (x) = 0.08411 0.34712
# Poissons Ratio (y) = 0.10689 0.41241
# Poissons Ratio (z) = 0.40090 0.37479
#
# Static dielectric constant tensor:
#      x y z
#    x 4.114160 -0.016050 0.219700 
#    y -0.016050 4.239390 0.040690 
#    z 0.219700 0.040690 4.065870 
# 
# 
# High freq. dielectric constant tensor:
#      x y z
#    x 1.852950 0.005090 0.011650 
#    y 0.005090 1.861620 0.003720 
#    z 0.011650 0.003720 1.850030 
# 
# From -- ./inp_files/315615.got.cif
#   From: 2010.06.25/outbox.cif.g09.slc.cpg/sg2_158_cif.got.tgz:315615.got - 2010.06.27 13:26:56.
