data_PCOD8036157
_publ_section_title
;
Structure prediction by ZEFSAII (Michael W. Deem and Ramdas Pophale) SiO2 
 PCOD8036157
Probable space group: P -1
;
_chemical_formula_sum "Si O2"
_cell_formula_units_Z 14
_cell_length_a 9.091394
_cell_length_b 8.382711
_cell_length_c 14.312397
_cell_angle_alpha 115.270647
_cell_angle_beta 40.770215
_cell_angle_gamma 95.148776
_cell_volume 591.607074
_symmetry_space_group_name_H-M "P -1"
_symmetry_group_IT_number 2
_symmetry_cell_setting 'triclinic'
loop_
_space_group_symop_operation_xyz
x,y,z
-x,-y,-z
loop_
_atom_site_type_symbol
_atom_site_label
_atom_site_fract_x
_atom_site_fract_y
_atom_site_fract_z
Si Si1 0.613714 0.122439 0.036102
Si Si2 0.834014 0.698683 0.578008
Si Si3 0.847582 0.175350 0.273451
Si Si4 0.108341 0.533043 0.821686
Si Si5 0.665297 0.489021 0.097444
Si Si6 0.779851 0.181736 0.517519
Si Si7 0.342437 0.185979 0.503567
O O1 0.443290 0.209516 0.229114
O O2 0.620686 0.310299 0.026409
O O3 0.500000 0.000000 0.000000
O O4 0.888472 0.996447 0.904687
O O5 0.810229 0.676262 0.472921
O O6 0.000000 0.500000 0.500000
O O7 0.954009 0.853965 0.576746
O O8 0.845410 0.344700 0.251672
O O9 0.782404 0.259222 0.430612
O O10 0.635537 0.104734 0.324853
O O11 0.185546 0.589134 0.897714
O O12 0.274953 0.310057 0.662398
O O13 0.823330 0.561653 0.969534
O O14 0.411267 0.662347 0.284391
O O15 0.738667 0.987943 0.486064
#
# Coordination Sequence:
#
# PCOD8036157 Si02
#       7
#     2   2   2   2   2   2   2
#     4  12  27  47  75 108 152 199 244 307 374 442
#     4  12  26  49  75 107 152 202 249 305 376 448
#     4  12  26  47  79 109 148 197 251 306 375 438
#     4  11  26  45  73 113 149 193 248 312 369 438
#     4  11  26  46  72 109 154 192 247 310 373 434
#     4  12  25  48  74 109 153 198 245 309 373 450
#     4  12  27  46  78 112 149 197 253 306 376 444
#
# _framework density 23.664355
#
# number of rings (size 3 to 8) (size 9 to 14) (size 15 to 20)
#    0.000    0.286    4.286    3.857    6.000    1.143 
#    0.000    1.429    0.000    0.000    0.000    0.000 
#    0.000    0.000    0.000    0.000    0.000    0.000 
#
# Total GULP energy -173605.349269 kJ/mol
# GULP energy per Si atom -12400.382091 kJ/mol
# Density = 2.361049 g / cm^3
# Si number density = 23.664355 Si / 1000 Ang^3
#
#
#
# Elastic Constant Matrix: (Units=GPa)
#
#
# Indices 1 2 3 4 5 6 
#
# 1 90.6799 26.9915 22.7816 -11.4197 -8.3261 8.4435
# 2 26.9915 111.6285 44.7985 -9.3312 -3.3561 22.3045
# 3 22.7816 44.7985 123.3887 -10.1905 -22.5378 6.3448
# 4 -11.4197 -9.3312 -10.1905 46.4552 5.2200 -1.5040
# 5 -8.3261 -3.3561 -22.5378 5.2200 41.0394 -3.6213
# 6 8.4435 22.3045 6.3448 -1.5040 -3.6213 40.6008
#
#
#
# Elastic Compliance Matrix: (Units=1/GPa)
#
#
# Indices 1 2 3 4 5 6 
#
# 1 0.012431 -0.002166 -0.001015 0.002206 0.001416 -0.001029
# 2 -0.002166 0.012322 -0.004110 0.001115 -0.002346 -0.005844
# 3 -0.001015 -0.004110 0.010762 0.000722 0.005390 0.001295
# 4 0.002206 0.001115 0.000722 0.022658 -0.001993 -0.000523
# 5 0.001416 -0.002346 0.005390 -0.001993 0.027903 0.002567
# 6 -0.001029 -0.005844 0.001295 -0.000523 0.002567 0.028062
#
#
# Mechanical properties :
#
#
# Convention : Reuss Voigt Hill
#
# Bulk Modulus (GPa) = 47.77116 57.20448 52.48782
# Shear Modulus (GPa) = 36.84712 41.02744 38.93728
#
# Velocity S-wave (km/s) = 3.95026 4.16832 4.06075
# Velocity P-wave (km/s) = 6.40600 6.88420 6.64940
#
# Compressibility (1/GPa) = 0.02093313
#
# Stress axis : x y z
#
# Youngs Moduli (GPa) = 80.44327 81.15724 92.92280
#
# Poissons Ratio (x) = 0.17578 0.09432
# Poissons Ratio (y) = 0.17424 0.38188
# Poissons Ratio (z) = 0.08166 0.33353
#
# Static dielectric constant tensor:
#      x y z
#    x 4.302420 0.328640 -0.132700 
#    y 0.328640 4.388270 -0.253180 
#    z -0.132700 -0.253180 4.453870 
# 
# 
# High freq. dielectric constant tensor:
#      x y z
#    x 1.931010 0.024120 -0.009250 
#    y 0.024120 1.945030 -0.014350 
#    z -0.009250 -0.014350 1.948580 
# 
# From -- ./inp_files/174580.got.cif
#   From: 2010.06.25/outbox.cif.g09.slc.cpg/sg2_88_cif.got.tgz:174580.got - 2010.06.27 13:26:56.
