data_PCOD8036420
_publ_section_title
;
Structure prediction by ZEFSAII (Michael W. Deem and Ramdas Pophale) SiO2 
 PCOD8036420
Probable space group: P -1
;
_chemical_formula_sum "Si O2"
_cell_formula_units_Z 16
_cell_length_a 20.282533
_cell_length_b 8.939039
_cell_length_c 6.588041
_cell_angle_alpha 125.270837
_cell_angle_beta 104.039497
_cell_angle_gamma 47.170412
_cell_volume 692.387814
_symmetry_space_group_name_H-M "P -1"
_symmetry_group_IT_number 2
_symmetry_cell_setting 'triclinic'
loop_
_space_group_symop_operation_xyz
x,y,z
-x,-y,-z
loop_
_atom_site_type_symbol
_atom_site_label
_atom_site_fract_x
_atom_site_fract_y
_atom_site_fract_z
Si Si1 0.859560 0.969434 0.587209
Si Si2 0.217828 0.135951 0.209598
Si Si3 0.729679 0.266758 0.354852
Si Si4 0.255314 0.415192 0.637292
Si Si5 0.085120 0.774304 0.018505
Si Si6 0.441693 0.136138 0.766582
Si Si7 0.470728 0.343908 0.306539
Si Si8 0.957747 0.403624 0.788126
O O1 0.799779 0.056743 0.408170
O O2 0.835446 0.852963 0.631004
O O3 0.841480 0.197542 0.855515
O O4 0.970612 0.777462 0.478726
O O5 0.289126 0.166187 0.354570
O O6 0.143650 0.367777 0.189411
O O7 0.279481 0.871880 0.933131
O O8 0.770527 0.378425 0.380540
O O9 0.630362 0.498602 0.552440
O O10 0.158110 0.518791 0.744585
O O11 0.333096 0.343342 0.793955
O O12 0.046776 0.749482 0.170947
O O13 0.000000 0.000000 0.000000
O O14 0.500000 0.000000 0.500000
O O15 0.456726 0.928189 0.750794
O O16 0.466100 0.283132 0.018787
O O17 0.500000 0.500000 0.500000
O O18 0.000000 0.500000 0.000000
#
# Coordination Sequence:
#
# PCOD8036420 Si02
#       8
#     2   2   2   2   2   2   2   2
#     4  12  24  45  69  99 146 185 244 297 358 429
#     4  12  27  44  72 106 141 194 239 296 361 429
#     4  12  26  47  69 108 141 186 240 298 357 432
#     4  12  26  47  73 102 148 190 240 295 366 431
#     4  12  24  43  72 104 140 193 240 296 362 423
#     4  11  26  51  73 110 147 189 236 301 365 434
#     4  11  28  46  79 108 145 188 240 297 366 441
#     4  12  23  43  66 101 146 187 243 300 353 428
#
# _framework density 23.108435
#
# number of rings (size 3 to 8) (size 9 to 14) (size 15 to 20)
#    0.000    0.250    3.750    5.250    3.500    0.500 
#    0.000    0.000    0.000    0.000    0.000    0.000 
#    0.000    0.000    0.000    0.000    0.000    0.000 
#
# Total GULP energy -198364.997883 kJ/mol
# GULP energy per Si atom -12397.812368 kJ/mol
# Density = 2.305584 g / cm^3
# Si number density = 23.108435 Si / 1000 Ang^3
#
#
#
# Elastic Constant Matrix: (Units=GPa)
#
#
# Indices 1 2 3 4 5 6 
#
# 1 80.7531 38.6056 55.2016 -6.3425 17.9721 7.2090
# 2 38.6056 112.6899 37.6824 -10.9766 -2.9935 7.7581
# 3 55.2016 37.6824 139.9775 -1.2136 12.9149 9.6358
# 4 -6.3425 -10.9766 -1.2136 36.7797 -0.0252 -2.8151
# 5 17.9721 -2.9935 12.9149 -0.0252 56.6314 10.8894
# 6 7.2090 7.7581 9.6358 -2.8151 10.8894 45.0795
#
#
#
# Elastic Compliance Matrix: (Units=1/GPa)
#
#
# Indices 1 2 3 4 5 6 
#
# 1 0.020233 -0.004844 -0.006190 0.001860 -0.005327 0.000324
# 2 -0.004844 0.011365 -0.001280 0.002408 0.002702 -0.001410
# 3 -0.006190 -0.001280 0.010004 -0.001193 -0.000202 -0.000954
# 4 0.001860 0.002408 -0.001193 0.028297 -0.000451 0.001419
# 5 -0.005327 0.002702 -0.000202 -0.000451 0.020408 -0.004528
# 6 0.000324 -0.001410 -0.000954 0.001419 -0.004528 0.023760
#
#
# Mechanical properties :
#
#
# Convention : Reuss Voigt Hill
#
# Bulk Modulus (GPa) = 58.91785 66.26662 62.59223
# Shear Modulus (GPa) = 34.63696 41.16021 37.89858
#
# Velocity S-wave (km/s) = 3.87575 4.22498 4.05412
# Velocity P-wave (km/s) = 6.75131 7.24839 7.00426
#
# Compressibility (1/GPa) = 0.01697279
#
# Stress axis : x y z
#
# Youngs Moduli (GPa) = 49.42324 87.98856 99.96339
#
# Poissons Ratio (x) = 0.42625 0.61875
# Poissons Ratio (y) = 0.23943 0.12800
# Poissons Ratio (z) = 0.30592 0.11267
#
# Static dielectric constant tensor:
#      x y z
#    x 3.867010 0.230990 0.405770 
#    y 0.230990 3.869800 -0.201950 
#    z 0.405770 -0.201950 4.393550 
# 
# 
# High freq. dielectric constant tensor:
#      x y z
#    x 1.907520 0.003710 0.008390 
#    y 0.003710 1.917060 0.005850 
#    z 0.008390 0.005850 1.940290 
# 
# From -- ./inp_files/46977.got.cif
#   From: 2010.06.25/outbox.cif.g09.slc.cpg/sg2_24_cif.got.tgz:46977.got - 2010.06.27 13:26:56.
