data_PCOD8036780
_publ_section_title
;
Structure prediction by ZEFSAII (Michael W. Deem and Ramdas Pophale) SiO2 
 PCOD8036780
Probable space group: P -1
;
_chemical_formula_sum "Si O2"
_cell_formula_units_Z 16
_cell_length_a 17.287911
_cell_length_b 11.661940
_cell_length_c 8.726300
_cell_angle_alpha 62.501247
_cell_angle_beta 108.317446
_cell_angle_gamma 148.683605
_cell_volume 798.756565
_symmetry_space_group_name_H-M "P -1"
_symmetry_group_IT_number 2
_symmetry_cell_setting 'triclinic'
loop_
_space_group_symop_operation_xyz
x,y,z
-x,-y,-z
loop_
_atom_site_type_symbol
_atom_site_label
_atom_site_fract_x
_atom_site_fract_y
_atom_site_fract_z
Si Si1 0.258749 0.920297 0.039533
Si Si2 0.563565 0.461419 0.976620
Si Si3 0.146300 0.494963 0.211994
Si Si4 0.649057 0.689157 0.568412
Si Si5 0.827205 0.156914 0.311033
Si Si6 0.156006 0.247665 0.515127
Si Si7 0.141404 0.264513 0.855193
Si Si8 0.063903 0.420225 0.861500
O O1 0.254499 0.759868 0.152209
O O2 0.117616 0.798181 0.116952
O O3 0.246853 0.941895 0.841625
O O4 0.420429 0.176036 0.048092
O O5 0.633100 0.594525 0.775893
O O6 0.500000 0.500000 0.000000
O O7 0.697760 0.568615 0.083184
O O8 0.221559 0.466045 0.343597
O O9 0.989130 0.305814 0.317183
O O10 0.117525 0.441889 0.046561
O O11 0.500000 0.500000 0.500000
O O12 0.741377 0.734607 0.472287
O O13 0.721745 0.928675 0.496152
O O14 0.847211 0.329042 0.281175
O O15 0.143882 0.245487 0.689251
O O16 0.000000 0.000000 0.500000
O O17 0.113418 0.379225 0.795455
O O18 0.000000 0.000000 0.000000
#
# Coordination Sequence:
#
# PCOD8036780 Si02
#       8
#     2   2   2   2   2   2   2   2
#     4   9  19  39  65  92 124 166 206 254 308 373
#     4  12  25  42  62  93 130 167 204 259 319 366
#     4   9  18  38  67  92 119 164 214 253 303 368
#     4  12  23  39  65  95 125 166 213 253 305 369
#     4   9  18  37  67  94 124 162 210 255 300 371
#     4  12  24  42  66  90 122 161 217 260 300 379
#     4  12  26  41  62  94 129 165 204 261 321 366
#     4   9  19  40  67  96 125 159 204 260 314 363
#
# _framework density 20.031134000000002
#
# number of rings (size 3 to 8) (size 9 to 14) (size 15 to 20)
#    0.000    1.500    2.500    5.250    1.750    0.000 
#    4.500    3.750    0.000    0.000    0.000    0.000 
#    0.000    0.000    0.000    0.000    0.000    0.000 
#
# Total GULP energy -198354.493204 kJ/mol
# GULP energy per Si atom -12397.155825 kJ/mol
# Density = 1.998554 g / cm^3
# Si number density = 20.031134 Si / 1000 Ang^3
#
#
#
# Elastic Constant Matrix: (Units=GPa)
#
#
# Indices 1 2 3 4 5 6 
#
# 1 132.9906 62.2403 45.3410 -1.5219 -1.4005 -9.9953
# 2 62.2403 159.7238 59.8776 -10.4936 5.6732 0.5203
# 3 45.3410 59.8776 113.8497 -6.1400 4.6059 -10.6572
# 4 -1.5219 -10.4936 -6.1400 35.1243 -7.6085 4.7708
# 5 -1.4005 5.6732 4.6059 -7.6085 34.7437 1.7188
# 6 -9.9953 0.5203 -10.6572 4.7708 1.7188 32.2952
#
#
#
# Elastic Compliance Matrix: (Units=1/GPa)
#
#
# Indices 1 2 3 4 5 6 
#
# 1 0.009919 -0.003171 -0.002137 -0.001051 0.000846 0.002526
# 2 -0.003171 0.009008 -0.003580 0.002168 -0.000521 -0.002601
# 3 -0.002137 -0.003580 0.011891 0.000201 -0.001200 0.003354
# 4 -0.001051 0.002168 0.000201 0.031272 0.006686 -0.005269
# 5 0.000846 -0.000521 -0.001200 0.006686 0.030660 -0.002745
# 6 0.002526 -0.002601 0.003354 -0.005269 -0.002745 0.033820
#
#
# Mechanical properties :
#
#
# Convention : Reuss Voigt Hill
#
# Bulk Modulus (GPa) = 76.67971 82.38688 79.53329
# Shear Modulus (GPa) = 33.62636 36.37297 34.99966
#
# Velocity S-wave (km/s) = 4.10164 4.26587 4.18456
# Velocity P-wave (km/s) = 7.79709 8.09211 7.94597
#
# Compressibility (1/GPa) = 0.01304126
#
# Stress axis : x y z
#
# Youngs Moduli (GPa) = 100.81897 111.01004 84.09913
#
# Poissons Ratio (x) = 0.35206 0.17969
# Poissons Ratio (y) = 0.31974 0.30109
# Poissons Ratio (z) = 0.21541 0.39743
#
# Static dielectric constant tensor:
#      x y z
#    x 3.827050 -0.116880 0.081300 
#    y -0.116880 3.776770 -0.203300 
#    z 0.081300 -0.203300 3.721270 
# 
# 
# High freq. dielectric constant tensor:
#      x y z
#    x 1.785700 -0.007730 0.011870 
#    y -0.007730 1.786420 -0.008340 
#    z 0.011870 -0.008340 1.777260 
# 
# From -- ./inp_files/239290.got.cif
#   From: 2010.06.25/outbox.cif.g09.slc.cpg/sg2_120_cif.got.tgz:239290.got - 2010.06.27 13:26:56.
