data_PCOD8036922
_publ_section_title
;
Structure prediction by ZEFSAII (Michael W. Deem and Ramdas Pophale) SiO2 
 PCOD8036922
Probable space group: P -1
;
_chemical_formula_sum "Si O2"
_cell_formula_units_Z 12
_cell_length_a 14.561182
_cell_length_b 10.251361
_cell_length_c 9.939730
_cell_angle_alpha 140.776172
_cell_angle_beta 39.690268
_cell_angle_gamma 136.961269
_cell_volume 564.841887
_symmetry_space_group_name_H-M "P -1"
_symmetry_group_IT_number 2
_symmetry_cell_setting 'triclinic'
loop_
_space_group_symop_operation_xyz
x,y,z
-x,-y,-z
loop_
_atom_site_type_symbol
_atom_site_label
_atom_site_fract_x
_atom_site_fract_y
_atom_site_fract_z
Si Si1 0.490797 0.687606 0.558300
Si Si2 0.190825 0.049289 0.515392
Si Si3 0.613253 0.567088 0.800499
Si Si4 0.716165 0.033450 0.949462
Si Si5 0.999975 0.660449 0.010019
Si Si6 0.958673 0.599237 0.493081
O O1 0.500000 0.500000 0.500000
O O2 0.650199 0.888248 0.534005
O O3 0.445356 0.603800 0.391631
O O4 0.371921 0.795234 0.837624
O O5 0.061646 0.852659 0.575269
O O6 0.793922 0.006036 0.700780
O O7 0.147180 0.268167 0.747895
O O8 0.781362 0.574838 0.661605
O O9 0.500000 0.500000 0.000000
O O10 0.609400 0.800302 0.938932
O O11 0.847996 0.128021 0.986789
O O12 0.988212 0.534061 0.785132
O O13 0.000000 0.500000 0.000000
O O14 0.000000 0.500000 0.500000
#
# Coordination Sequence:
#
# PCOD8036922 Si02
#       6
#     2   2   2   2   2   2
#     4  12  27  45  74 111 142 186 238 292 356 421
#     4  12  26  43  77 109 138 182 244 294 351 421
#     4  12  29  49  71 104 149 190 234 291 359 423
#     4  12  24  46  75 106 142 186 239 293 352 420
#     4  12  23  44  77 105 139 181 242 298 351 414
#     4  12  29  48  72 106 145 189 238 295 353 419
#
# _framework density 21.244883000000002
#
# number of rings (size 3 to 8) (size 9 to 14) (size 15 to 20)
#    0.000    0.000    6.667    3.000    4.667    2.667 
#    0.000    0.000    0.000    0.000    0.000    0.000 
#    0.000    0.000    0.000    0.000    0.000    0.000 
#
# Total GULP energy -148844.434315 kJ/mol
# GULP energy per Si atom -12403.702860 kJ/mol
# Density = 2.119653 g / cm^3
# Si number density = 21.244883 Si / 1000 Ang^3
#
#
#
# Elastic Constant Matrix: (Units=GPa)
#
#
# Indices 1 2 3 4 5 6 
#
# 1 123.8439 39.2238 49.7232 -4.2662 7.4758 -0.1293
# 2 39.2238 107.8628 36.1752 -6.7940 12.6715 -5.7980
# 3 49.7232 36.1752 152.6682 1.9412 -5.1259 -17.0476
# 4 -4.2662 -6.7940 1.9412 35.0580 0.2727 0.2127
# 5 7.4758 12.6715 -5.1259 0.2727 37.9052 -0.0735
# 6 -0.1293 -5.7980 -17.0476 0.2127 -0.0735 49.7884
#
#
#
# Elastic Compliance Matrix: (Units=1/GPa)
#
#
# Indices 1 2 3 4 5 6 
#
# 1 0.010178 -0.002550 -0.002917 0.000926 -0.001559 -0.001276
# 2 -0.002550 0.011440 -0.001955 0.002039 -0.003599 0.000642
# 3 -0.002917 -0.001955 0.008353 -0.001231 0.002373 0.002634
# 4 0.000926 0.002039 -0.001231 0.029112 -0.001241 -0.000308
# 5 -0.001559 -0.003599 0.002373 -0.001241 0.028223 0.000436
# 6 -0.001276 0.000642 0.002634 -0.000308 0.000436 0.021060
#
#
# Mechanical properties :
#
#
# Convention : Reuss Voigt Hill
#
# Bulk Modulus (GPa) = 66.11162 70.51325 68.31244
# Shear Modulus (GPa) = 38.98548 41.83384 40.40966
#
# Velocity S-wave (km/s) = 4.28840 4.44230 4.36603
# Velocity P-wave (km/s) = 7.46370 7.71847 7.59216
#
# Compressibility (1/GPa) = 0.01512593
#
# Stress axis : x y z
#
# Youngs Moduli (GPa) = 98.24858 87.41359 119.71758
#
# Poissons Ratio (x) = 0.22291 0.34925
# Poissons Ratio (y) = 0.25054 0.23408
# Poissons Ratio (z) = 0.28662 0.17092
#
# Static dielectric constant tensor:
#      x y z
#    x 8.036560 1.765800 -1.321000 
#    y 1.765800 4.721610 -0.236370 
#    z -1.321000 -0.236370 4.286880 
# 
# 
# High freq. dielectric constant tensor:
#      x y z
#    x 1.840970 0.015100 -0.007590 
#    y 0.015100 1.842820 0.012320 
#    z -0.007590 0.012320 1.848730 
# 
# From -- ./inp_files/236086.got.cif
#   From: 2010.06.25/outbox.cif.g09.slc.cpg/sg2_119_cif.got.tgz:236086.got - 2010.06.27 13:26:56.
