data_PCOD8036069
_publ_section_title
;
Structure prediction by ZEFSAII (Michael W. Deem and Ramdas Pophale) SiO2 
 PCOD8036069
Probable space group: P -1
;
_chemical_formula_sum "Si O2"
_cell_formula_units_Z 10
_cell_length_a 11.198290
_cell_length_b 7.588866
_cell_length_c 5.274739
_cell_angle_alpha 61.701776
_cell_angle_beta 68.121644
_cell_angle_gamma 82.986861
_cell_volume 365.444994
_symmetry_space_group_name_H-M "P -1"
_symmetry_group_IT_number 2
_symmetry_cell_setting 'triclinic'
loop_
_space_group_symop_operation_xyz
x,y,z
-x,-y,-z
loop_
_atom_site_type_symbol
_atom_site_label
_atom_site_fract_x
_atom_site_fract_y
_atom_site_fract_z
Si Si1 0.264866 0.475509 0.289430
Si Si2 0.641425 0.307410 0.430929
Si Si3 0.607459 0.874154 0.376294
Si Si4 0.197603 0.981898 0.276585
Si Si5 0.031290 0.339804 0.298015
O O1 0.289390 0.568681 0.482056
O O2 0.316232 0.253546 0.396044
O O3 0.107907 0.456902 0.389920
O O4 0.336643 0.593677 0.926338
O O5 0.486872 0.276673 0.623593
O O6 0.716073 0.096049 0.503158
O O7 0.500000 0.000000 0.500000
O O8 0.706226 0.013914 0.039949
O O9 0.087759 0.806029 0.416917
O O10 0.139894 0.196650 0.201625
O O11 0.000000 0.500000 0.000000
#
# Coordination Sequence:
#
# PCOD8036069 Si02
#       5
#     2   2   2   2   2
#     4  12  27  50  82 119 161 220 271 337 415 485
#     4  12  26  50  81 119 165 211 272 338 413 494
#     4  12  27  50  78 119 169 209 273 338 408 495
#     4  11  26  50  84 118 158 216 274 332 413 479
#     4  11  25  53  83 116 165 210 280 337 405 484
#
# _framework density 27.363899
#
# number of rings (size 3 to 8) (size 9 to 14) (size 15 to 20)
#    0.000    0.400    2.000    5.400    0.000    4.800 
#    0.000    0.000    0.000    0.000    0.000    0.000 
#    0.000    0.000    0.000    0.000    0.000    0.000 
#
# Total GULP energy -123998.678071 kJ/mol
# GULP energy per Si atom -12399.867807 kJ/mol
# Density = 2.730162 g / cm^3
# Si number density = 27.363899 Si / 1000 Ang^3
#
#
#
# Elastic Constant Matrix: (Units=GPa)
#
#
# Indices 1 2 3 4 5 6 
#
# 1 195.3991 10.2125 60.2764 -13.4010 -11.9978 -11.0534
# 2 10.2125 44.5055 33.8148 -17.4028 8.2146 -6.0924
# 3 60.2764 33.8148 162.9248 -17.7073 -14.9191 -14.1027
# 4 -13.4010 -17.4028 -17.7073 40.3970 -13.0772 6.9797
# 5 -11.9978 8.2146 -14.9191 -13.0772 65.2489 -5.8729
# 6 -11.0534 -6.0924 -14.1027 6.9797 -5.8729 49.9555
#
#
#
# Elastic Compliance Matrix: (Units=1/GPa)
#
#
# Indices 1 2 3 4 5 6 
#
# 1 0.005906 0.000717 -0.002020 0.001554 0.000910 0.000714
# 2 0.000717 0.031389 -0.005924 0.010063 -0.003109 0.000543
# 3 -0.002020 -0.005924 0.008614 0.001186 0.002709 0.001415
# 4 0.001554 0.010063 0.001186 0.032268 0.005582 -0.001946
# 5 0.000910 -0.003109 0.002709 0.005582 0.017794 0.001899
# 6 0.000714 0.000543 0.001415 -0.001946 0.001899 0.021137
#
#
# Mechanical properties :
#
#
# Convention : Reuss Voigt Hill
#
# Bulk Modulus (GPa) = 31.79146 67.93743 49.86444
# Shear Modulus (GPa) = 35.19989 51.02200 43.11094
#
# Velocity S-wave (km/s) = 3.59048 4.32276 3.97352
# Velocity P-wave (km/s) = 5.36954 7.05665 6.27010
#
# Compressibility (1/GPa) = 0.03145499
#
# Stress axis : x y z
#
# Youngs Moduli (GPa) = 169.31499 31.85878 116.08919
#
# Poissons Ratio (x) = -0.02284 0.23449
# Poissons Ratio (y) = -0.12137 0.68769
# Poissons Ratio (z) = 0.34200 0.18873
#
# Static dielectric constant tensor:
#      x y z
#    x 6.717700 0.166690 -0.138970 
#    y 0.166690 5.647160 -0.664160 
#    z -0.138970 -0.664160 4.700100 
# 
# 
# High freq. dielectric constant tensor:
#      x y z
#    x 2.149240 -0.004340 -0.000680 
#    y -0.004340 2.131140 -0.025560 
#    z -0.000680 -0.025560 2.093380 
# 
# From -- ./inp_files/57214.got.cif
#   From: 2010.06.25/outbox.cif.g09.slc.cpg/sg2_29_cif.got.tgz:57214.got - 2010.06.27 13:26:56.
