data_PCOD8036513
_publ_section_title
;
Structure prediction by ZEFSAII (Michael W. Deem and Ramdas Pophale) SiO2 
 PCOD8036513
Probable space group: P -1
;
_chemical_formula_sum "Si O2"
_cell_formula_units_Z 8
_cell_length_a 5.474484
_cell_length_b 11.018718
_cell_length_c 4.694722
_cell_angle_alpha 92.978839
_cell_angle_beta 82.225662
_cell_angle_gamma 104.889167
_cell_volume 271.126356
_symmetry_space_group_name_H-M "P -1"
_symmetry_group_IT_number 2
_symmetry_cell_setting 'triclinic'
loop_
_space_group_symop_operation_xyz
x,y,z
-x,-y,-z
loop_
_atom_site_type_symbol
_atom_site_label
_atom_site_fract_x
_atom_site_fract_y
_atom_site_fract_z
Si Si1 0.580479 0.714692 0.991437
Si Si2 0.996164 0.113551 0.730465
Si Si3 0.330741 0.880159 0.673943
Si Si4 0.738217 0.507812 0.671884
O O1 0.499144 0.793177 0.759654
O O2 0.788237 0.642120 0.840300
O O3 0.718478 0.806832 0.233162
O O4 0.333789 0.609132 0.114860
O O5 0.852149 0.195623 0.560844
O O6 0.168088 0.929145 0.957664
O O7 0.000000 0.000000 0.500000
O O8 0.500000 0.000000 0.500000
O O9 0.500000 0.500000 0.500000
O O10 0.000000 0.500000 0.500000
#
# Coordination Sequence:
#
# PCOD8036513 Si02
#       4
#     2   2   2   2
#     4  11  32  56  92 130 190 245 312 400 470 569
#     4  12  32  55  88 135 191 249 312 381 481 575
#     4  12  32  55  88 135 191 249 312 381 481 575
#     4  11  30  59  93 136 181 249 328 391 480 554
#
# _framework density 29.506539
#
# number of rings (size 3 to 8) (size 9 to 14) (size 15 to 20)
#    0.000    0.500    0.000    1.500   24.500    2.000 
#    9.000    3.750    0.000    0.000    0.000    0.000 
#    0.000    0.000    0.000    0.000    0.000    0.000 
#
# Total GULP energy -99175.621238 kJ/mol
# GULP energy per Si atom -12396.952655 kJ/mol
# Density = 2.943938 g / cm^3
# Si number density = 29.506539 Si / 1000 Ang^3
#
#
#
# Elastic Constant Matrix: (Units=GPa)
#
#
# Indices 1 2 3 4 5 6 
#
# 1 161.7614 39.5585 47.1546 -35.4048 12.8595 -15.4143
# 2 39.5585 156.6683 55.5266 -30.3709 1.4375 -17.9453
# 3 47.1546 55.5266 188.8886 -32.8566 1.1980 -9.0350
# 4 -35.4048 -30.3709 -32.8566 52.9183 -5.5305 4.8372
# 5 12.8595 1.4375 1.1980 -5.5305 89.3665 8.3277
# 6 -15.4143 -17.9453 -9.0350 4.8372 8.3277 26.6230
#
#
#
# Elastic Compliance Matrix: (Units=1/GPa)
#
#
# Indices 1 2 3 4 5 6 
#
# 1 0.007878 -0.000459 -0.000965 0.003955 -0.001202 0.003582
# 2 -0.000459 0.008109 -0.001549 0.002974 -0.000252 0.004213
# 3 -0.000965 -0.001549 0.006421 0.002471 0.000225 0.000057
# 4 0.003955 0.002974 0.002471 0.024841 0.000854 0.000352
# 5 -0.001202 -0.000252 0.000225 0.000854 0.011850 -0.004652
# 6 0.003582 0.004213 0.000057 0.000352 -0.004652 0.043886
#
#
# Mechanical properties :
#
#
# Convention : Reuss Voigt Hill
#
# Bulk Modulus (GPa) = 60.74227 87.97753 74.35990
# Shear Modulus (GPa) = 43.69911 58.12014 50.90963
#
# Velocity S-wave (km/s) = 3.85255 4.44299 4.15826
# Velocity P-wave (km/s) = 6.35769 7.49675 6.95059
#
# Compressibility (1/GPa) = 0.01646300
#
# Stress axis : x y z
#
# Youngs Moduli (GPa) = 126.93521 123.31765 155.72979
#
# Poissons Ratio (x) = 0.05663 0.15024
# Poissons Ratio (y) = 0.05829 0.24119
# Poissons Ratio (z) = 0.12246 0.19099
#
# Static dielectric constant tensor:
#      x y z
#    x 8.090270 -0.778220 0.760200 
#    y -0.778220 5.816820 -0.139130 
#    z 0.760200 -0.139130 6.328680 
# 
# 
# High freq. dielectric constant tensor:
#      x y z
#    x 2.222630 -0.016450 -0.002080 
#    y -0.016450 2.206460 -0.003790 
#    z -0.002080 -0.003790 2.235690 
# 
# From -- ./inp_files/1617.got.cif
#   From: 2010.06.25/outbox.cif.g09.slc.cpg/sg2_1_cif.got.tgz:1617.got - 2010.06.27 13:26:56.
