data_PCOD8036137
_publ_section_title
;
Structure prediction by ZEFSAII (Michael W. Deem and Ramdas Pophale) SiO2 
 PCOD8036137
Probable space group: P -1
;
_chemical_formula_sum "Si O2"
_cell_formula_units_Z 16
_cell_length_a 12.485306
_cell_length_b 8.440790
_cell_length_c 10.992044
_cell_angle_alpha 125.729636
_cell_angle_beta 104.626773
_cell_angle_gamma 53.575239
_cell_volume 748.746366
_symmetry_space_group_name_H-M "P -1"
_symmetry_group_IT_number 2
_symmetry_cell_setting 'triclinic'
loop_
_space_group_symop_operation_xyz
x,y,z
-x,-y,-z
loop_
_atom_site_type_symbol
_atom_site_label
_atom_site_fract_x
_atom_site_fract_y
_atom_site_fract_z
Si Si1 0.844767 0.877730 0.648105
Si Si2 0.582128 0.006639 0.774857
Si Si3 0.726686 0.395737 0.819864
Si Si4 0.922225 0.512031 0.306188
Si Si5 0.674818 0.116869 0.078827
Si Si6 0.101512 0.404263 0.094674
Si Si7 0.678756 0.519531 0.136837
Si Si8 0.481907 0.349434 0.329938
O O1 0.842410 0.747991 0.469222
O O2 0.987319 0.718617 0.686474
O O3 0.719700 0.938830 0.722546
O O4 0.833167 0.113956 0.710509
O O5 0.452275 0.214778 0.757029
O O6 0.581655 0.772429 0.674129
O O7 0.576306 0.097264 0.950841
O O8 0.790003 0.537376 0.866440
O O9 0.606394 0.477401 0.728468
O O10 0.672945 0.447615 0.965346
O O11 0.815819 0.499024 0.190185
O O12 0.022454 0.524713 0.250364
O O13 0.677737 0.341311 0.148684
O O14 0.622788 0.145226 0.215678
O O15 0.824285 0.878933 0.005821
O O16 0.000000 0.500000 0.000000
O O17 0.500000 0.500000 0.500000
#
# Coordination Sequence:
#
# PCOD8036137 Si02
#       8
#     2   2   2   2   2   2   2   2
#     4  11  26  45  71  96 143 178 226 283 346 393
#     4  12  23  47  70  99 133 182 222 283 336 406
#     4  12  23  45  71 101 132 180 228 282 336 408
#     4  11  26  46  65 104 136 183 225 285 334 404
#     4  12  24  46  69 100 135 180 229 279 334 407
#     4  12  25  42  71  98 137 180 231 277 336 405
#     4  12  25  41  77 101 130 177 241 277 331 401
#     4  12  28  43  69 105 141 173 221 284 353 404
#
# _framework density 21.369053000000001
#
# number of rings (size 3 to 8) (size 9 to 14) (size 15 to 20)
#    0.000    0.250    6.250    2.250    5.250    2.000 
#    0.000    0.000    0.000    0.000    0.000    0.000 
#    0.000    0.000    0.000    0.000    0.000    0.000 
#
# Total GULP energy -198493.285791 kJ/mol
# GULP energy per Si atom -12405.830362 kJ/mol
# Density = 2.132042 g / cm^3
# Si number density = 21.369053 Si / 1000 Ang^3
#
#
#
# Elastic Constant Matrix: (Units=GPa)
#
#
# Indices 1 2 3 4 5 6 
#
# 1 64.0744 18.2129 26.8366 2.8218 -6.0331 -4.9472
# 2 18.2129 123.7379 38.5012 9.5981 5.2037 -7.5850
# 3 26.8366 38.5012 122.7001 0.2707 -5.0093 -5.5825
# 4 2.8218 9.5981 0.2707 36.6062 -1.4126 4.6853
# 5 -6.0331 5.2037 -5.0093 -1.4126 28.2479 0.1250
# 6 -4.9472 -7.5850 -5.5825 4.6853 0.1250 36.1434
#
#
#
# Elastic Compliance Matrix: (Units=1/GPa)
#
#
# Indices 1 2 3 4 5 6 
#
# 1 0.017907 -0.001604 -0.003189 -0.001024 0.003496 0.001743
# 2 -0.001604 0.009583 -0.002682 -0.002696 -0.002726 0.001736
# 3 -0.003189 -0.002682 0.009770 0.000888 0.001588 0.000389
# 4 -0.001024 -0.002696 0.000888 0.028720 0.001891 -0.004298
# 5 0.003496 -0.002726 0.001588 0.001891 0.037027 -0.000221
# 6 0.001743 0.001736 0.000389 -0.004298 -0.000221 0.028888
#
#
# Mechanical properties :
#
#
# Convention : Reuss Voigt Hill
#
# Bulk Modulus (GPa) = 44.82611 53.06822 48.94717
# Shear Modulus (GPa) = 32.40810 35.33027 33.86918
#
# Velocity S-wave (km/s) = 3.89857 4.07054 3.98548
# Velocity P-wave (km/s) = 6.42556 6.85423 6.64335
#
# Compressibility (1/GPa) = 0.02230842
#
# Stress axis : x y z
#
# Youngs Moduli (GPa) = 55.84309 104.35628 102.35746
#
# Poissons Ratio (x) = 0.16741 0.32642
# Poissons Ratio (y) = 0.08959 0.27456
# Poissons Ratio (z) = 0.17808 0.27992
#
# Static dielectric constant tensor:
#      x y z
#    x 3.591800 0.089970 -0.101000 
#    y 0.089970 4.121880 0.088510 
#    z -0.101000 0.088510 3.867190 
# 
# 
# High freq. dielectric constant tensor:
#      x y z
#    x 1.838060 -0.000530 -0.004790 
#    y -0.000530 1.855800 0.003190 
#    z -0.004790 0.003190 1.834730 
# 
# From -- ./inp_files/205078.got.cif
#   From: 2010.06.25/outbox.cif.g09.slc.cpg/sg2_103_cif.got.tgz:205078.got - 2010.06.27 13:26:56.
