data_PCOD8036459
_publ_section_title
;
Structure prediction by ZEFSAII (Michael W. Deem and Ramdas Pophale) SiO2 
 PCOD8036459
Probable space group: P -1
;
_chemical_formula_sum "Si O2"
_cell_formula_units_Z 14
_cell_length_a 11.829849
_cell_length_b 7.817626
_cell_length_c 17.589718
_cell_angle_alpha 49.356668
_cell_angle_beta 31.261896
_cell_angle_gamma 66.580605
_cell_volume 585.782383
_symmetry_space_group_name_H-M "P -1"
_symmetry_group_IT_number 2
_symmetry_cell_setting 'triclinic'
loop_
_space_group_symop_operation_xyz
x,y,z
-x,-y,-z
loop_
_atom_site_type_symbol
_atom_site_label
_atom_site_fract_x
_atom_site_fract_y
_atom_site_fract_z
Si Si1 0.775584 0.573416 0.616512
Si Si2 0.124060 0.774063 0.934472
Si Si3 0.055585 0.632413 0.188627
Si Si4 0.653317 0.505409 0.210856
Si Si5 0.382056 0.284421 0.571337
Si Si6 0.974239 0.901651 0.628474
Si Si7 0.466219 0.790941 0.018128
O O1 0.568997 0.442522 0.709792
O O2 0.658323 0.476530 0.793822
O O3 0.000000 0.500000 0.500000
O O4 0.856243 0.869079 0.482726
O O5 0.223149 0.579338 0.903451
O O6 0.327713 0.035431 0.720424
O O7 0.083859 0.736834 0.057387
O O8 0.870440 0.744587 0.051394
O O9 0.963059 0.334607 0.330033
O O10 0.299395 0.792603 0.044267
O O11 0.856665 0.695327 0.328318
O O12 0.554237 0.307159 0.393990
O O13 0.500000 0.500000 0.500000
O O14 0.709054 0.816648 0.834727
O O15 0.000000 0.000000 0.500000
O O16 0.500000 0.000000 0.000000
#
# Coordination Sequence:
#
# PCOD8036459 Si02
#       7
#     2   2   2   2   2   2   2
#     4  12  26  48  77 112 148 202 249 311 383 447
#     4  11  27  51  74 110 149 203 249 311 376 439
#     4  12  27  49  75 109 151 197 249 311 385 446
#     4  11  27  47  76 107 153 192 257 305 374 445
#     4  12  27  46  74 110 145 195 252 303 375 444
#     4  12  28  47  73 110 151 195 255 308 379 448
#     4  12  27  48  73 110 149 197 250 309 379 453
#
# _framework density 23.899660999999998
#
# number of rings (size 3 to 8) (size 9 to 14) (size 15 to 20)
#    0.000    0.286    4.286    3.000    6.000    2.286 
#    0.000    0.000    0.000    0.000    0.000    0.000 
#    0.000    0.000    0.000    0.000    0.000    0.000 
#
# Total GULP energy -173590.082606 kJ/mol
# GULP energy per Si atom -12399.291615 kJ/mol
# Density = 2.384526 g / cm^3
# Si number density = 23.899661 Si / 1000 Ang^3
#
#
#
# Elastic Constant Matrix: (Units=GPa)
#
#
# Indices 1 2 3 4 5 6 
#
# 1 119.3205 5.6450 31.7243 1.1522 -22.9726 7.3040
# 2 5.6450 54.0901 7.1356 -3.4566 -5.0646 6.5659
# 3 31.7243 7.1356 133.0613 7.9255 1.8561 5.3780
# 4 1.1522 -3.4566 7.9255 45.0650 7.9852 0.4966
# 5 -22.9726 -5.0646 1.8561 7.9852 39.9219 -0.0300
# 6 7.3040 6.5659 5.3780 0.4966 -0.0300 32.0508
#
#
#
# Elastic Compliance Matrix: (Units=1/GPa)
#
#
# Indices 1 2 3 4 5 6 
#
# 1 0.010357 0.000000 -0.002423 -0.000926 0.006256 -0.001933
# 2 0.000000 0.019376 -0.000994 0.001306 0.002240 -0.003821
# 3 -0.002423 -0.000994 0.008264 -0.001165 -0.001672 -0.000614
# 4 -0.000926 0.001306 -0.001165 0.023406 -0.004995 -0.000228
# 5 0.006256 0.002240 -0.001672 -0.004995 0.030009 -0.001499
# 6 -0.001933 -0.003821 -0.000614 -0.000228 -0.001499 0.032529
#
#
# Mechanical properties :
#
#
# Convention : Reuss Voigt Hill
#
# Bulk Modulus (GPa) = 32.08950 43.94240 38.01595
# Shear Modulus (GPa) = 35.42031 40.87202 38.14616
#
# Velocity S-wave (km/s) = 3.85391 4.13988 3.99945
# Velocity P-wave (km/s) = 5.76709 6.42477 6.10479
#
# Compressibility (1/GPa) = 0.03116284
#
# Stress axis : x y z
#
# Youngs Moduli (GPa) = 96.55458 51.61084 121.00836
#
# Poissons Ratio (x) = -0.00001 0.29323
# Poissons Ratio (y) = -0.00001 0.12025
# Poissons Ratio (z) = 0.23398 0.05129
#
# Static dielectric constant tensor:
#      x y z
#    x 4.381750 0.094340 -0.155520 
#    y 0.094340 4.590020 0.114550 
#    z -0.155520 0.114550 4.911990 
# 
# 
# High freq. dielectric constant tensor:
#      x y z
#    x 1.952000 0.009590 -0.002280 
#    y 0.009590 1.938570 0.003540 
#    z -0.002280 0.003540 1.976170 
# 
# From -- ./inp_files/566515.got.cif
#   From: 2010.06.25/outbox.cif.g09.slc.cpg/sg2_284_cif.got.tgz:566515.got - 2010.06.27 13:26:56.
