data_PCOD8036200
_publ_section_title
;
Structure prediction by ZEFSAII (Michael W. Deem and Ramdas Pophale) SiO2 
 PCOD8036200
Probable space group: P -1
;
_chemical_formula_sum "Si O2"
_cell_formula_units_Z 12
_cell_length_a 4.957063
_cell_length_b 12.211339
_cell_length_c 8.856073
_cell_angle_alpha 66.665481
_cell_angle_beta 94.616629
_cell_angle_gamma 104.705605
_cell_volume 475.986537
_symmetry_space_group_name_H-M "P -1"
_symmetry_group_IT_number 2
_symmetry_cell_setting 'triclinic'
loop_
_space_group_symop_operation_xyz
x,y,z
-x,-y,-z
loop_
_atom_site_type_symbol
_atom_site_label
_atom_site_fract_x
_atom_site_fract_y
_atom_site_fract_z
Si Si1 0.358005 0.183205 0.129442
Si Si2 0.175581 0.735483 0.643528
Si Si3 0.793343 0.586911 0.925159
Si Si4 0.040612 0.922183 0.304457
Si Si5 0.700431 0.413101 0.534929
Si Si6 0.456185 0.829144 0.184231
O O1 0.627956 0.227942 0.222570
O O2 0.194566 0.291808 0.035886
O O3 0.140633 0.068085 0.259302
O O4 0.461831 0.138698 0.001478
O O5 0.112881 0.852902 0.493538
O O6 0.340476 0.662855 0.581232
O O7 0.874456 0.647145 0.729282
O O8 0.500000 0.500000 0.000000
O O9 0.000000 0.500000 0.000000
O O10 0.199829 0.887420 0.183807
O O11 0.711796 0.883873 0.279275
O O12 0.500000 0.500000 0.500000
O O13 0.647911 0.318278 0.723747
O O14 0.000000 0.500000 0.500000
#
# Coordination Sequence:
#
# PCOD8036200 Si02
#       6
#     2   2   2   2   2   2
#     4  12  28  48  82 109 154 202 248 320 378 441
#     4  11  28  49  78 115 149 198 260 314 370 455
#     4  12  29  47  72 112 159 190 253 310 383 443
#     4  11  27  51  76 111 154 197 258 307 383 449
#     4  11  26  46  73 102 151 200 243 301 378 445
#     4  11  27  47  74 113 151 199 254 310 377 451
#
# _framework density 25.210798
#
# number of rings (size 3 to 8) (size 9 to 14) (size 15 to 20)
#    0.000    0.667    1.667    3.500   16.333    0.667 
#    0.000    0.000    0.000    0.000    0.000    0.000 
#    0.000    0.000    0.000    0.000    0.000    0.000 
#
# Total GULP energy -148737.776169 kJ/mol
# GULP energy per Si atom -12394.814681 kJ/mol
# Density = 2.515342 g / cm^3
# Si number density = 25.210798 Si / 1000 Ang^3
#
#
#
# Elastic Constant Matrix: (Units=GPa)
#
#
# Indices 1 2 3 4 5 6 
#
# 1 114.2879 35.1853 19.7284 -22.3143 -13.7928 13.8159
# 2 35.1853 123.0127 47.2624 -52.5964 2.5662 11.0433
# 3 19.7284 47.2624 122.8345 -23.7841 -17.9999 17.0419
# 4 -22.3143 -52.5964 -23.7841 58.0688 9.1732 -4.1523
# 5 -13.7928 2.5662 -17.9999 9.1732 38.5637 0.5345
# 6 13.8159 11.0433 17.0419 -4.1523 0.5345 41.8597
#
#
#
# Elastic Compliance Matrix: (Units=1/GPa)
#
#
# Indices 1 2 3 4 5 6 
#
# 1 0.010490 -0.002533 0.000486 0.001106 0.003925 -0.002932
# 2 -0.002533 0.016305 -0.004327 0.013127 -0.007129 -0.000311
# 3 0.000486 -0.004327 0.010992 -0.000394 0.005736 -0.003606
# 4 0.001106 0.013127 -0.000394 0.030590 -0.007931 -0.000532
# 5 0.003925 -0.007129 0.005736 -0.007931 0.032414 -0.002951
# 6 -0.002932 -0.000311 -0.003606 -0.000532 -0.002951 0.026392
#
#
# Mechanical properties :
#
#
# Convention : Reuss Voigt Hill
#
# Bulk Modulus (GPa) = 39.93502 62.72082 51.32792
# Shear Modulus (GPa) = 33.72057 44.89571 39.30814
#
# Velocity S-wave (km/s) = 3.66121 4.22455 3.95293
# Velocity P-wave (km/s) = 5.80926 6.98056 6.42167
#
# Compressibility (1/GPa) = 0.02504068
#
# Stress axis : x y z
#
# Youngs Moduli (GPa) = 95.33077 61.32908 90.97198
#
# Poissons Ratio (x) = 0.15533 -0.04420
# Poissons Ratio (y) = 0.24144 0.39360
# Poissons Ratio (z) = -0.04632 0.26535
#
# Static dielectric constant tensor:
#      x y z
#    x 4.182150 0.226430 -0.313430 
#    y 0.226430 4.400620 -0.502100 
#    z -0.313430 -0.502100 4.729480 
# 
# 
# High freq. dielectric constant tensor:
#      x y z
#    x 2.018170 -0.011160 -0.024770 
#    y -0.011160 2.018840 -0.026810 
#    z -0.024770 -0.026810 2.008350 
# 
# From -- ./inp_files/130623.got.cif
#   From: 2010.06.25/outbox.cif.g09.slc.cpg/sg2_66_cif.got.tgz:130623.got - 2010.06.27 13:26:56.
