data_PCOD8036456
_publ_section_title
;
Structure prediction by ZEFSAII (Michael W. Deem and Ramdas Pophale) SiO2 
 PCOD8036456
Probable space group: P -1
;
_chemical_formula_sum "Si O2"
_cell_formula_units_Z 16
_cell_length_a 11.757387
_cell_length_b 9.194043
_cell_length_c 8.238369
_cell_angle_alpha 97.341677
_cell_angle_beta 91.425694
_cell_angle_gamma 53.741256
_cell_volume 710.779757
_symmetry_space_group_name_H-M "P -1"
_symmetry_group_IT_number 2
_symmetry_cell_setting 'triclinic'
loop_
_space_group_symop_operation_xyz
x,y,z
-x,-y,-z
loop_
_atom_site_type_symbol
_atom_site_label
_atom_site_fract_x
_atom_site_fract_y
_atom_site_fract_z
Si Si1 0.971133 0.176860 0.312459
Si Si2 0.679984 0.503720 0.196715
Si Si3 0.994577 0.183945 0.689104
Si Si4 0.243165 0.111294 0.159834
Si Si5 0.259590 0.444159 0.148260
Si Si6 0.475793 0.108344 0.675741
Si Si7 0.486864 0.605508 0.675740
Si Si8 0.710702 0.986573 0.210161
O O1 0.943733 0.223242 0.508011
O O2 0.101924 0.172151 0.255439
O O3 0.833805 0.335130 0.234350
O O4 0.999212 0.983169 0.256335
O O5 0.615458 0.677296 0.339475
O O6 0.570510 0.452494 0.188541
O O7 0.678928 0.576163 0.030181
O O8 0.146470 0.145909 0.701712
O O9 0.889585 0.360731 0.817816
O O10 0.240006 0.287865 0.158658
O O11 0.374985 0.960756 0.251646
O O12 0.253292 0.014660 0.977627
O O13 0.364902 0.434007 0.281515
O O14 0.387487 0.080872 0.797515
O O15 0.500000 0.000000 0.500000
O O16 0.500000 0.500000 0.500000
O O17 0.368708 0.819525 0.676893
#
# Coordination Sequence:
#
# PCOD8036456 Si02
#       8
#     2   2   2   2   2   2   2   2
#     4  11  27  48  72 105 143 183 240 289 354 417
#     4  12  26  46  73 106 141 187 236 290 350 417
#     4  11  27  47  74 103 140 189 235 293 350 418
#     4  12  27  47  73 107 145 186 232 290 353 424
#     4  12  27  46  74 107 143 186 235 288 354 421
#     4  12  26  45  73 104 143 186 233 288 353 416
#     4  12  26  46  74 104 142 185 239 294 346 414
#     4  12  24  48  73 101 145 186 233 291 349 419
#
# _framework density 22.510487999999999
#
# number of rings (size 3 to 8) (size 9 to 14) (size 15 to 20)
#    0.000    0.250    3.750    4.500    8.750    2.500 
#    0.000    0.000    0.000    0.000    0.000    0.000 
#    0.000    0.000    0.000    0.000    0.000    0.000 
#
# Total GULP energy -198492.233754 kJ/mol
# GULP energy per Si atom -12405.764610 kJ/mol
# Density = 2.245925 g / cm^3
# Si number density = 22.510488 Si / 1000 Ang^3
#
#
#
# Elastic Constant Matrix: (Units=GPa)
#
#
# Indices 1 2 3 4 5 6 
#
# 1 120.6441 46.0370 28.8742 7.4833 -13.1493 3.3034
# 2 46.0370 137.3330 35.2448 19.5036 -2.8868 -4.8463
# 3 28.8742 35.2448 65.9760 0.9235 16.9340 -9.2162
# 4 7.4833 19.5036 0.9235 36.6186 4.8768 -6.4309
# 5 -13.1493 -2.8868 16.9340 4.8768 33.9727 -1.8667
# 6 3.3034 -4.8463 -9.2162 -6.4309 -1.8667 32.9255
#
#
#
# Elastic Compliance Matrix: (Units=1/GPa)
#
#
# Indices 1 2 3 4 5 6 
#
# 1 0.011688 -0.001746 -0.006653 -0.002947 0.007927 -0.003418
# 2 -0.001746 0.010159 -0.005661 -0.005550 0.003763 -0.000785
# 3 -0.006653 -0.005661 0.026386 0.007302 -0.016834 0.007692
# 4 -0.002947 -0.005550 0.007302 0.033277 -0.009618 0.007477
# 5 0.007927 0.003763 -0.016834 -0.009618 0.042352 -0.004431
# 6 -0.003418 -0.000785 0.007692 0.007477 -0.004431 0.033961
#
#
# Mechanical properties :
#
#
# Convention : Reuss Voigt Hill
#
# Bulk Modulus (GPa) = 49.71925 60.47388 55.09657
# Shear Modulus (GPa) = 25.95425 34.95649 30.45537
#
# Velocity S-wave (km/s) = 3.39925 3.94496 3.68223
# Velocity P-wave (km/s) = 6.12712 6.90459 6.52744
#
# Compressibility (1/GPa) = 0.02011293
#
# Stress axis : x y z
#
# Youngs Moduli (GPa) = 85.55914 98.43220 37.89920
#
# Poissons Ratio (x) = 0.17187 0.25215
# Poissons Ratio (y) = 0.14939 0.21454
# Poissons Ratio (z) = 0.56925 0.55719
#
# Static dielectric constant tensor:
#      x y z
#    x 4.389650 0.120370 -0.128530 
#    y 0.120370 4.189540 0.064170 
#    z -0.128530 0.064170 4.062770 
# 
# 
# High freq. dielectric constant tensor:
#      x y z
#    x 1.901310 -0.000700 -0.005150 
#    y -0.000700 1.900030 0.008220 
#    z -0.005150 0.008220 1.893380 
# 
# From -- ./inp_files/154628.got.cif
#   From: 2010.06.25/outbox.cif.g09.slc.cpg/sg2_78_cif.got.tgz:154628.got - 2010.06.27 13:26:56.
