data_PCOD8036913
_publ_section_title
;
Structure prediction by ZEFSAII (Michael W. Deem and Ramdas Pophale) SiO2 
 PCOD8036913
Probable space group: P -1
;
_chemical_formula_sum "Si O2"
_cell_formula_units_Z 16
_cell_length_a 13.390691
_cell_length_b 11.461903
_cell_length_c 9.819612
_cell_angle_alpha 42.469768
_cell_angle_beta 47.970348
_cell_angle_gamma 56.635666
_cell_volume 751.144923
_symmetry_space_group_name_H-M "P -1"
_symmetry_group_IT_number 2
_symmetry_cell_setting 'triclinic'
loop_
_space_group_symop_operation_xyz
x,y,z
-x,-y,-z
loop_
_atom_site_type_symbol
_atom_site_label
_atom_site_fract_x
_atom_site_fract_y
_atom_site_fract_z
Si Si1 0.700788 0.686111 0.017169
Si Si2 0.706435 0.713220 0.560715
Si Si3 0.985784 0.846053 0.248395
Si Si4 0.503604 0.838449 0.852289
Si Si5 0.733684 0.323572 0.933624
Si Si6 0.284640 0.695574 0.720755
Si Si7 0.425923 0.227523 0.654343
Si Si8 0.109650 0.026812 0.488596
O O1 0.805375 0.817409 0.763422
O O2 0.568941 0.709866 0.020183
O O3 0.771144 0.488280 0.104117
O O4 0.661738 0.717177 0.181893
O O5 0.607469 0.851042 0.620160
O O6 0.681935 0.526665 0.804053
O O7 0.670975 0.724129 0.426028
O O8 0.859903 0.746439 0.409065
O O9 0.118081 0.707400 0.240492
O O10 0.973184 0.924628 0.341675
O O11 0.000000 0.000000 0.000000
O O12 0.474900 0.024217 0.788524
O O13 0.364251 0.779198 0.978809
O O14 0.735003 0.253494 0.146818
O O15 0.442846 0.670155 0.559657
O O16 0.207046 0.847908 0.570437
O O17 0.000000 0.000000 0.500000
#
# Coordination Sequence:
#
# PCOD8036913 Si02
#       8
#     2   2   2   2   2   2   2   2
#     4  12  27  47  71 104 148 187 235 294 352 427
#     4  12  24  45  70 107 142 186 241 293 353 418
#     4  12  25  45  70 101 140 187 238 291 353 419
#     4  12  23  44  74 103 142 187 235 292 354 412
#     4  12  25  42  76 107 141 184 239 300 351 417
#     4  12  24  48  73 106 142 186 237 296 355 416
#     4  12  26  41  74 108 142 185 237 291 353 424
#     4  12  29  48  71 101 144 192 236 290 360 427
#
# _framework density 21.300815
#
# number of rings (size 3 to 8) (size 9 to 14) (size 15 to 20)
#    0.000    0.000    6.250    3.375    3.500    1.500 
#    0.000    0.000    0.000    0.000    0.000    0.000 
#    0.000    0.000    0.000    0.000    0.000    0.000 
#
# Total GULP energy -198536.905147 kJ/mol
# GULP energy per Si atom -12408.556572 kJ/mol
# Density = 2.125233 g / cm^3
# Si number density = 21.300815 Si / 1000 Ang^3
#
#
#
# Elastic Constant Matrix: (Units=GPa)
#
#
# Indices 1 2 3 4 5 6 
#
# 1 135.4562 40.0118 37.4976 6.5479 -6.1077 15.8214
# 2 40.0118 99.0861 33.1020 3.8356 -1.0458 11.1275
# 3 37.4976 33.1020 100.7117 -8.8837 -5.7729 7.6322
# 4 6.5479 3.8356 -8.8837 47.8972 2.6745 4.9549
# 5 -6.1077 -1.0458 -5.7729 2.6745 31.8033 11.6578
# 6 15.8214 11.1275 7.6322 4.9549 11.6578 33.3748
#
#
#
# Elastic Compliance Matrix: (Units=1/GPa)
#
#
# Indices 1 2 3 4 5 6 
#
# 1 0.009413 -0.002504 -0.002337 -0.001275 0.002836 -0.003895
# 2 -0.002504 0.012412 -0.003055 -0.001006 0.000262 -0.002195
# 3 -0.002337 -0.003055 0.012325 0.002925 0.002127 -0.001870
# 4 -0.001275 -0.001006 0.002925 0.021996 -0.000573 -0.002795
# 5 0.002836 0.000262 0.002127 -0.000573 0.037964 -0.015094
# 6 -0.003895 -0.002195 -0.001870 -0.002795 -0.015094 0.038656
#
#
# Mechanical properties :
#
#
# Convention : Reuss Voigt Hill
#
# Bulk Modulus (GPa) = 54.46661 61.83074 58.14867
# Shear Modulus (GPa) = 32.32553 37.59123 34.95838
#
# Velocity S-wave (km/s) = 3.89983 4.20548 4.05554
# Velocity P-wave (km/s) = 6.77524 7.25754 7.02053
#
# Compressibility (1/GPa) = 0.01835987
#
# Stress axis : x y z
#
# Youngs Moduli (GPa) = 106.23229 80.56712 81.13629
#
# Poissons Ratio (x) = 0.20173 0.18958
# Poissons Ratio (y) = 0.26600 0.24785
# Poissons Ratio (z) = 0.24822 0.24611
#
# Static dielectric constant tensor:
#      x y z
#    x 3.945860 -0.036360 0.111380 
#    y -0.036360 4.018560 0.016720 
#    z 0.111380 0.016720 3.766740 
# 
# 
# High freq. dielectric constant tensor:
#      x y z
#    x 1.841540 0.004170 0.001750 
#    y 0.004170 1.844060 -0.003880 
#    z 0.001750 -0.003880 1.847410 
# 
# From -- ./inp_files/422749.got.cif
#   From: 2010.06.25/outbox.cif.g09.slc.cpg/sg2_212_cif.got.tgz:422749.got - 2010.06.27 13:26:56.
