data_PCOD8036460
_publ_section_title
;
Structure prediction by ZEFSAII (Michael W. Deem and Ramdas Pophale) SiO2 
 PCOD8036460
Probable space group: P -1
;
_chemical_formula_sum "Si O2"
_cell_formula_units_Z 16
_cell_length_a 20.433568
_cell_length_b 11.191639
_cell_length_c 25.905144
_cell_angle_alpha 146.972769
_cell_angle_beta 167.431863
_cell_angle_gamma 34.271395
_cell_volume 700.979801
_symmetry_space_group_name_H-M "P -1"
_symmetry_group_IT_number 2
_symmetry_cell_setting 'triclinic'
loop_
_space_group_symop_operation_xyz
x,y,z
-x,-y,-z
loop_
_atom_site_type_symbol
_atom_site_label
_atom_site_fract_x
_atom_site_fract_y
_atom_site_fract_z
Si Si1 0.334342 0.999926 0.450230
Si Si2 0.322112 0.220688 0.925282
Si Si3 0.798780 0.368540 0.942197
Si Si4 0.310688 0.535103 0.783509
Si Si5 0.703180 0.214973 0.033237
Si Si6 0.651357 0.161944 0.388559
Si Si7 0.538066 0.754020 0.613572
Si Si8 0.293708 0.554714 0.214096
O O1 0.303180 0.877337 0.437383
O O2 0.405964 0.801695 0.393254
O O3 0.571787 0.179892 0.705359
O O4 0.030458 0.112409 0.232908
O O5 0.278479 0.435147 0.005926
O O6 0.490145 0.295239 0.030699
O O7 0.002276 0.124396 0.635340
O O8 0.500000 0.000000 0.000000
O O9 0.770290 0.496249 0.912637
O O10 0.127377 0.237619 0.150240
O O11 0.229092 0.620248 0.808766
O O12 0.000000 0.500000 0.500000
O O13 0.530129 0.318017 0.886345
O O14 0.505444 0.021131 0.831931
O O15 0.528577 0.130213 0.340918
O O16 0.572735 0.404575 0.395199
O O17 0.500000 0.500000 0.500000
O O18 0.000000 0.500000 0.000000
#
# Coordination Sequence:
#
# PCOD8036460 Si02
#       8
#     2   2   2   2   2   2   2   2
#     4  12  25  43  75 110 149 193 244 313 374 447
#     4  12  29  47  74 106 141 195 252 307 364 442
#     4  12  26  45  71 108 151 192 252 306 376 439
#     4  11  27  54  75 104 146 192 254 304 377 436
#     4  11  27  47  78 106 143 197 243 310 372 439
#     4  12  26  44  74 107 148 191 247 303 369 447
#     4  12  23  45  73 105 150 199 244 294 382 446
#     4  12  23  45  70 107 149 193 242 299 369 455
#
# _framework density 22.825192000000001
#
# number of rings (size 3 to 8) (size 9 to 14) (size 15 to 20)
#    0.000    0.250    5.000    2.250    8.750    1.500 
#    2.250    0.000    0.000    0.000    0.000    0.000 
#    0.000    0.000    0.000    0.000    0.000    0.000 
#
# Total GULP energy -198264.746921 kJ/mol
# GULP energy per Si atom -12391.546683 kJ/mol
# Density = 2.277324 g / cm^3
# Si number density = 22.825192 Si / 1000 Ang^3
#
#
#
# Elastic Constant Matrix: (Units=GPa)
#
#
# Indices 1 2 3 4 5 6 
#
# 1 60.4187 13.3650 9.4437 -11.8818 -8.8568 20.1018
# 2 13.3650 123.4792 61.0100 -17.4026 6.7092 14.0919
# 3 9.4437 61.0100 159.7655 -8.0081 7.2336 8.8977
# 4 -11.8818 -17.4026 -8.0081 56.3763 6.3151 -6.6311
# 5 -8.8568 6.7092 7.2336 6.3151 39.3235 3.2510
# 6 20.1018 14.0919 8.8977 -6.6311 3.2510 22.6624
#
#
#
# Elastic Compliance Matrix: (Units=1/GPa)
#
#
# Indices 1 2 3 4 5 6 
#
# 1 0.025831 -0.000078 -0.000455 0.001775 0.007552 -0.023249
# 2 -0.000078 0.010848 -0.003720 0.002431 -0.001216 -0.004330
# 3 -0.000455 -0.003720 0.007755 -0.000072 -0.000864 -0.000225
# 4 0.001775 0.002431 -0.000072 0.019607 -0.003412 0.003169
# 5 0.007552 -0.001216 -0.000864 -0.003412 0.028934 -0.010752
# 6 -0.023249 -0.004330 -0.000225 0.003169 -0.010752 0.069999
#
#
# Mechanical properties :
#
#
# Convention : Reuss Voigt Hill
#
# Bulk Modulus (GPa) = 27.83399 56.81121 42.32260
# Shear Modulus (GPa) = 27.25470 40.99544 34.12507
#
# Velocity S-wave (km/s) = 3.45927 4.24259 3.87080
# Velocity P-wave (km/s) = 5.30813 6.99594 6.20965
#
# Compressibility (1/GPa) = 0.03592729
#
# Stress axis : x y z
#
# Youngs Moduli (GPa) = 38.71353 92.18550 128.95595
#
# Poissons Ratio (x) = 0.00717 0.05872
# Poissons Ratio (y) = 0.00301 0.47969
# Poissons Ratio (z) = 0.01763 0.34291
#
# Static dielectric constant tensor:
#      x y z
#    x 4.323570 0.089640 -0.070520 
#    y 0.089640 4.423050 0.056170 
#    z -0.070520 0.056170 4.193580 
# 
# 
# High freq. dielectric constant tensor:
#      x y z
#    x 1.889750 0.004500 -0.008090 
#    y 0.004500 1.921670 0.000340 
#    z -0.008090 0.000340 1.914010 
# 
# From -- ./inp_files/418591.got.cif
#   From: 2010.06.25/outbox.cif.g09.slc.cpg/sg2_210_cif.got.tgz:418591.got - 2010.06.27 13:26:56.
