data_PCOD8036406
_publ_section_title
;
Structure prediction by ZEFSAII (Michael W. Deem and Ramdas Pophale) SiO2 
 PCOD8036406
Probable space group: P -1
;
_chemical_formula_sum "Si O2"
_cell_formula_units_Z 16
_cell_length_a 11.296434
_cell_length_b 11.534167
_cell_length_c 6.693991
_cell_angle_alpha 125.833906
_cell_angle_beta 95.799842
_cell_angle_gamma 86.372602
_cell_volume 703.473570
_symmetry_space_group_name_H-M "P -1"
_symmetry_group_IT_number 2
_symmetry_cell_setting 'triclinic'
loop_
_space_group_symop_operation_xyz
x,y,z
-x,-y,-z
loop_
_atom_site_type_symbol
_atom_site_label
_atom_site_fract_x
_atom_site_fract_y
_atom_site_fract_z
Si Si1 0.303002 0.101661 0.910854
Si Si2 0.346281 0.596503 0.183565
Si Si3 0.516323 0.670301 0.931723
Si Si4 0.893045 0.517518 0.157635
Si Si5 0.890504 0.244158 0.096448
Si Si6 0.131178 0.979032 0.428265
Si Si7 0.340269 0.799666 0.731856
Si Si8 0.871885 0.804213 0.696359
O O1 0.215883 0.022483 0.664331
O O2 0.372442 0.968796 0.894231
O O3 0.388184 0.202464 0.896296
O O4 0.233902 0.201633 0.162422
O O5 0.419399 0.483519 0.219421
O O6 0.312513 0.733465 0.445375
O O7 0.423852 0.666024 0.091890
O O8 0.232133 0.513297 0.999800
O O9 0.448093 0.709457 0.755767
O O10 0.916535 0.411315 0.239395
O O11 0.882695 0.671459 0.413376
O O12 0.000000 0.500000 0.000000
O O13 0.780641 0.219055 0.192046
O O14 0.005473 0.170223 0.139565
O O15 0.858434 0.185671 0.808796
O O16 0.157764 0.061729 0.311230
O O17 0.000000 0.000000 0.500000
#
# Coordination Sequence:
#
# PCOD8036406 Si02
#       8
#     2   2   2   2   2   2   2   2
#     4  12  27  44  75 106 141 190 234 292 350 422
#     4  11  26  50  74 102 141 190 234 293 356 414
#     4  11  27  48  71 104 138 189 243 290 349 410
#     4  12  26  45  74 108 143 183 233 293 356 420
#     4  12  24  45  70 105 144 185 229 290 355 423
#     4  12  23  45  71 101 147 184 229 283 358 424
#     4  12  25  47  72 104 140 187 238 290 352 415
#     4  12  26  44  69 109 144 181 232 289 357 423
#
# _framework density 22.744281999999998
#
# number of rings (size 3 to 8) (size 9 to 14) (size 15 to 20)
#    0.000    0.250    3.750    5.250    3.500    3.500 
#    0.000    0.000    0.000    0.000    0.000    0.000 
#    0.000    0.000    0.000    0.000    0.000    0.000 
#
# Total GULP energy -198380.731900 kJ/mol
# GULP energy per Si atom -12398.795744 kJ/mol
# Density = 2.269251 g / cm^3
# Si number density = 22.744282 Si / 1000 Ang^3
#
#
#
# Elastic Constant Matrix: (Units=GPa)
#
#
# Indices 1 2 3 4 5 6 
#
# 1 122.6431 26.3635 51.7134 2.5107 -4.2882 17.7226
# 2 26.3635 90.6021 12.0846 -2.4276 1.7648 6.5719
# 3 51.7134 12.0846 136.1261 15.8332 -12.6035 3.4047
# 4 2.5107 -2.4276 15.8332 32.9212 -5.2678 5.0747
# 5 -4.2882 1.7648 -12.6035 -5.2678 30.8717 -2.4683
# 6 17.7226 6.5719 3.4047 5.0747 -2.4683 39.3835
#
#
#
# Elastic Compliance Matrix: (Units=1/GPa)
#
#
# Indices 1 2 3 4 5 6 
#
# 1 0.010950 -0.002283 -0.004041 0.001607 -0.000076 -0.004409
# 2 -0.002283 0.011892 -0.000402 0.001255 -0.001039 -0.001149
# 3 -0.004041 -0.000402 0.009619 -0.004169 0.002818 0.001768
# 4 0.001607 0.001255 -0.004169 0.033683 0.003823 -0.004673
# 5 -0.000076 -0.001039 0.002818 0.003823 0.034374 0.001626
# 6 -0.004409 -0.001149 0.001768 -0.004673 0.001626 0.028118
#
#
# Mechanical properties :
#
#
# Convention : Reuss Voigt Hill
#
# Bulk Modulus (GPa) = 52.60540 58.85494 55.73017
# Shear Modulus (GPa) = 33.68733 37.91593 35.80163
#
# Velocity S-wave (km/s) = 3.85273 4.08739 3.97179
# Velocity P-wave (km/s) = 6.55520 6.94324 6.75201
#
# Compressibility (1/GPa) = 0.01900945
#
# Stress axis : x y z
#
# Youngs Moduli (GPa) = 91.32495 84.08744 103.96557
#
# Poissons Ratio (x) = 0.19196 0.42012
# Poissons Ratio (y) = 0.20848 0.04179
# Poissons Ratio (z) = 0.36904 0.03380
#
# Static dielectric constant tensor:
#      x y z
#    x 3.810610 -0.129560 0.104840 
#    y -0.129560 4.522910 -0.143570 
#    z 0.104840 -0.143570 3.715430 
# 
# 
# High freq. dielectric constant tensor:
#      x y z
#    x 1.904620 -0.004570 -0.003080 
#    y -0.004570 1.916740 0.000610 
#    z -0.003080 0.000610 1.903280 
# 
# From -- ./inp_files/68427.got.cif
#   From: 2010.06.25/outbox.cif.g09.slc.cpg/sg2_35_cif.got.tgz:68427.got - 2010.06.27 13:26:56.
