data_PCOD8036638
_publ_section_title
;
Structure prediction by ZEFSAII (Michael W. Deem and Ramdas Pophale) SiO2 
 PCOD8036638
Probable space group: P -1
;
_chemical_formula_sum "Si O2"
_cell_formula_units_Z 16
_cell_length_a 14.201820
_cell_length_b 13.481828
_cell_length_c 12.162566
_cell_angle_alpha 40.410949
_cell_angle_beta 30.832417
_cell_angle_gamma 38.087014
_cell_volume 708.758848
_symmetry_space_group_name_H-M "P -1"
_symmetry_group_IT_number 2
_symmetry_cell_setting 'triclinic'
loop_
_space_group_symop_operation_xyz
x,y,z
-x,-y,-z
loop_
_atom_site_type_symbol
_atom_site_label
_atom_site_fract_x
_atom_site_fract_y
_atom_site_fract_z
Si Si1 0.690979 0.164681 0.620183
Si Si2 0.371693 0.691690 0.674195
Si Si3 0.085307 0.735875 0.097257
Si Si4 0.737003 0.643734 0.502058
Si Si5 0.676689 0.654801 0.014648
Si Si6 0.142618 0.719223 0.287590
Si Si7 0.601882 0.640613 0.870638
Si Si8 0.979011 0.795649 0.618078
O O1 0.636275 0.209095 0.511521
O O2 0.488768 0.220733 0.844621
O O3 0.829323 0.257248 0.449082
O O4 0.805290 0.967278 0.687425
O O5 0.586525 0.655930 0.543504
O O6 0.335828 0.524733 0.822617
O O7 0.191205 0.807660 0.838925
O O8 0.046506 0.824505 0.182571
O O9 0.251961 0.552901 0.113027
O O10 0.877133 0.742394 0.249968
O O11 0.894719 0.451648 0.523043
O O12 0.620599 0.722161 0.666945
O O13 0.647968 0.731191 0.854246
O O14 0.893769 0.650567 0.836018
O O15 0.046920 0.826287 0.401494
O O16 0.380623 0.653127 0.101385
#
# Coordination Sequence:
#
# PCOD8036638 Si02
#       8
#     2   2   2   2   2   2   2   2
#     4  11  25  42  58  81 118 155 193 239 285 335
#     4  11  22  37  58  90 120 148 184 238 294 336
#     4  10  19  31  55  90 120 147 181 233 290 345
#     4  11  18  32  57  89 123 144 183 238 292 336
#     4  11  21  38  63  87 111 147 197 243 281 332
#     4  11  16  34  58  84 117 150 191 233 281 338
#     4  10  17  31  58  89 116 148 184 238 288 330
#     4  11  24  41  61  83 111 156 199 234 281 342
#
# _framework density 22.574673000000001
#
# number of rings (size 3 to 8) (size 9 to 14) (size 15 to 20)
#    0.000    1.250    5.000    5.250    0.000    1.500 
#    0.000    0.625    0.000    1.500    0.000    0.000 
#    0.000    0.000    0.000    0.000    0.000    0.000 
#
# Total GULP energy -198278.721936 kJ/mol
# GULP energy per Si atom -12392.420121 kJ/mol
# Density = 2.252329 g / cm^3
# Si number density = 22.574673 Si / 1000 Ang^3
#
#
#
# Elastic Constant Matrix: (Units=GPa)
#
#
# Indices 1 2 3 4 5 6 
#
# 1 109.1701 -0.3363 34.8230 -0.7625 6.0872 4.0505
# 2 -0.3363 11.0073 8.1824 6.7633 3.9136 2.0747
# 3 34.8230 8.1824 76.1937 23.3926 1.6397 3.9639
# 4 -0.7625 6.7633 23.3926 17.2817 6.9153 1.1534
# 5 6.0872 3.9136 1.6397 6.9153 53.7357 -1.1071
# 6 4.0505 2.0747 3.9639 1.1534 -1.1071 12.3648
#
#
#
# Elastic Compliance Matrix: (Units=1/GPa)
#
#
# Indices 1 2 3 4 5 6 
#
# 1 0.013061 -0.000221 -0.010966 0.017031 -0.003375 -0.002617
# 2 -0.000221 0.123776 0.003305 -0.050595 -0.002936 -0.017299
# 3 -0.010966 0.003305 0.032553 -0.048148 0.006156 -0.002356
# 4 0.017031 -0.050595 -0.048148 0.149792 -0.015992 0.002941
# 5 -0.003375 -0.002936 0.006156 -0.015992 0.021138 0.003009
# 6 -0.002617 -0.017299 -0.002356 0.002941 0.003009 0.085385
#
#
# Mechanical properties :
#
#
# Convention : Reuss Voigt Hill
#
# Bulk Modulus (GPa) = 6.50922 31.30104 18.90513
# Shear Modulus (GPa) = 10.14861 26.92324 18.53593
#
# Velocity S-wave (km/s) = 2.12258 3.45719 2.86858
# Velocity P-wave (km/s) = 2.98275 5.46186 4.40049
#
# Compressibility (1/GPa) = 0.15362823
#
# Stress axis : x y z
#
# Youngs Moduli (GPa) = 76.56136 8.07908 30.71880
#
# Poissons Ratio (x) = 0.00178 0.33686
# Poissons Ratio (y) = 0.01691 -0.10153
# Poissons Ratio (z) = 0.83956 -0.02670
#
# Static dielectric constant tensor:
#      x y z
#    x 4.597030 0.346990 0.273750 
#    y 0.346990 3.420280 0.355430 
#    z 0.273750 0.355430 4.361440 
# 
# 
# High freq. dielectric constant tensor:
#      x y z
#    x 1.907280 0.018980 -0.000860 
#    y 0.018980 1.822780 0.029300 
#    z -0.000860 0.029300 1.906600 
# 
# From -- ./inp_files/454600.got.cif
#   From: 2010.06.25/outbox.cif.g09.slc.cpg/sg2_228_cif.got.tgz:454600.got - 2010.06.27 13:26:56.
