data_PCOD8036682
_publ_section_title
;
Structure prediction by ZEFSAII (Michael W. Deem and Ramdas Pophale) SiO2 
 PCOD8036682
Probable space group: P -1
;
_chemical_formula_sum "Si O2"
_cell_formula_units_Z 16
_cell_length_a 18.062125
_cell_length_b 12.016635
_cell_length_c 8.719481
_cell_angle_alpha 128.914865
_cell_angle_beta 132.434032
_cell_angle_gamma 32.910408
_cell_volume 749.874563
_symmetry_space_group_name_H-M "P -1"
_symmetry_group_IT_number 2
_symmetry_cell_setting 'triclinic'
loop_
_space_group_symop_operation_xyz
x,y,z
-x,-y,-z
loop_
_atom_site_type_symbol
_atom_site_label
_atom_site_fract_x
_atom_site_fract_y
_atom_site_fract_z
Si Si1 0.618011 0.261164 0.504822
Si Si2 0.846170 0.429002 0.356717
Si Si3 0.656098 0.822807 0.634121
Si Si4 0.160870 0.857529 0.032562
Si Si5 0.857247 0.868726 0.326626
Si Si6 0.129371 0.152453 0.032396
Si Si7 0.850651 0.559724 0.160080
Si Si8 0.577384 0.804037 0.834189
O O1 0.500000 0.500000 0.500000
O O2 0.721395 0.203048 0.737060
O O3 0.528866 0.211484 0.383950
O O4 0.723849 0.115465 0.383693
O O5 0.739426 0.603497 0.485147
O O6 0.873125 0.517665 0.336984
O O7 0.998893 0.225962 0.468255
O O8 0.776614 0.357422 0.126811
O O9 0.734741 0.890694 0.769738
O O10 0.646556 0.810534 0.790628
O O11 0.500000 0.000000 0.500000
O O12 0.150516 0.973613 0.974449
O O13 0.000000 0.000000 0.000000
O O14 0.812646 0.762325 0.243016
O O15 0.892782 0.830547 0.164869
O O16 0.991079 0.370550 0.100156
O O17 0.713974 0.603426 0.950928
O O18 0.500000 0.000000 0.000000
#
# Coordination Sequence:
#
# PCOD8036682 Si02
#       8
#     2   2   2   2   2   2   2   2
#     4  12  27  47  72 104 147 191 239 293 361 428
#     4  12  26  43  74 102 144 190 238 294 351 432
#     4  12  26  43  68 108 138 185 239 296 359 416
#     4  12  26  49  69 105 141 195 240 284 359 434
#     4  12  24  44  73 110 137 183 243 297 359 419
#     4  12  25  44  75 104 145 177 241 307 348 431
#     4  12  22  42  73 106 139 181 239 295 360 419
#     4  12  24  44  71 101 143 185 232 294 358 423
#
# _framework density 21.336903
#
# number of rings (size 3 to 8) (size 9 to 14) (size 15 to 20)
#    0.000    0.000    6.250    3.750    1.750    2.500 
#    0.000    1.875    0.000    0.000    0.000    0.000 
#    0.000    0.000    0.000    0.000    0.000    0.000 
#
# Total GULP energy -198452.878603 kJ/mol
# GULP energy per Si atom -12403.304913 kJ/mol
# Density = 2.128834 g / cm^3
# Si number density = 21.336903 Si / 1000 Ang^3
#
#
#
# Elastic Constant Matrix: (Units=GPa)
#
#
# Indices 1 2 3 4 5 6 
#
# 1 121.8795 62.0438 63.3047 12.1267 -2.8178 -3.6898
# 2 62.0438 131.5198 45.5109 -3.8875 -11.0295 -7.8697
# 3 63.3047 45.5109 125.5499 -3.5773 2.0991 -3.1287
# 4 12.1267 -3.8875 -3.5773 46.5193 -9.4664 5.5792
# 5 -2.8178 -11.0295 2.0991 -9.4664 46.8132 2.0135
# 6 -3.6898 -7.8697 -3.1287 5.5792 2.0135 39.3851
#
#
#
# Elastic Compliance Matrix: (Units=1/GPa)
#
#
# Indices 1 2 3 4 5 6 
#
# 1 0.013962 -0.004926 -0.005356 -0.004756 -0.001069 0.000627
# 2 -0.004926 0.010772 -0.001369 0.002511 0.002764 0.001085
# 3 -0.005356 -0.001369 0.011228 0.002011 -0.000736 -0.000131
# 4 -0.004756 0.002511 0.002011 0.024613 0.005345 -0.003544
# 5 -0.001069 0.002764 -0.000736 0.005345 0.023129 -0.001546
# 6 0.000627 0.001085 -0.000131 -0.003544 -0.001546 0.026237
#
#
# Mechanical properties :
#
#
# Convention : Reuss Voigt Hill
#
# Bulk Modulus (GPa) = 78.98635 80.07423 79.53029
# Shear Modulus (GPa) = 36.37383 40.41619 38.39501
#
# Velocity S-wave (km/s) = 4.13333 4.35695 4.24661
# Velocity P-wave (km/s) = 7.73810 7.93226 7.83578
#
# Compressibility (1/GPa) = 0.01266042
#
# Stress axis : x y z
#
# Youngs Moduli (GPa) = 71.62403 92.83683 89.06131
#
# Poissons Ratio (x) = 0.45728 0.47704
# Poissons Ratio (y) = 0.35279 0.12189
# Poissons Ratio (z) = 0.38364 0.12706
#
# Static dielectric constant tensor:
#      x y z
#    x 3.937390 -0.082620 0.100860 
#    y -0.082620 3.996920 -0.163010 
#    z 0.100860 -0.163010 4.059880 
# 
# 
# High freq. dielectric constant tensor:
#      x y z
#    x 1.838170 -0.009050 0.001050 
#    y -0.009050 1.846370 -0.007910 
#    z 0.001050 -0.007910 1.855830 
# 
# From -- ./inp_files/333810.got.cif
#   From: 2010.06.25/outbox.cif.g09.slc.cpg/sg2_167_cif.got.tgz:333810.got - 2010.06.27 13:26:56.
