data_PCOD8036856
_publ_section_title
;
Structure prediction by ZEFSAII (Michael W. Deem and Ramdas Pophale) SiO2 
 PCOD8036856
Probable space group: P -1
;
_chemical_formula_sum "Si O2"
_cell_formula_units_Z 16
_cell_length_a 25.791766
_cell_length_b 26.301772
_cell_length_c 7.882451
_cell_angle_alpha 45.154003
_cell_angle_beta 135.982845
_cell_angle_gamma 168.697592
_cell_volume 728.217826
_symmetry_space_group_name_H-M "P -1"
_symmetry_group_IT_number 2
_symmetry_cell_setting 'triclinic'
loop_
_space_group_symop_operation_xyz
x,y,z
-x,-y,-z
loop_
_atom_site_type_symbol
_atom_site_label
_atom_site_fract_x
_atom_site_fract_y
_atom_site_fract_z
Si Si1 0.361530 0.000120 0.921878
Si Si2 0.068116 0.000904 0.027154
Si Si3 0.081829 0.499924 0.114534
Si Si4 0.569067 0.500945 0.790550
Si Si5 0.800707 0.999728 0.398411
Si Si6 0.421276 0.999786 0.406071
Si Si7 0.297571 0.499790 0.154192
Si Si8 0.140427 0.500232 0.593920
O O1 0.275069 0.000240 0.667914
O O2 0.159413 0.751494 0.975791
O O3 0.656754 0.248826 0.976021
O O4 0.356207 0.999907 0.113317
O O5 0.139775 0.999667 0.313081
O O6 0.816611 0.752510 0.898844
O O7 0.315984 0.251857 0.901155
O O8 0.000000 0.000000 0.000000
O O9 0.149249 0.500044 0.411705
O O10 0.000000 0.500000 0.000000
O O11 0.500000 0.500000 0.500000
O O12 0.643932 0.499934 0.861964
O O13 0.059361 0.250179 0.298591
O O14 0.557980 0.748702 0.299386
O O15 0.158791 0.746980 0.496189
O O16 0.500000 0.000000 0.500000
O O17 0.664021 0.252280 0.496286
O O18 0.216923 0.500232 0.876394
#
# Coordination Sequence:
#
# PCOD8036856 Si02
#       8
#     2   2   2   2   2   2   2   2
#     4  12  24  42  66  94 131 175 224 276 341 394
#     4  12  26  46  74 107 140 181 222 270 326 393
#     4  12  26  43  64  94 133 174 223 286 343 403
#     4  12  26  46  75 107 141 181 220 270 328 393
#     4  12  25  45  69  99 138 178 224 278 329 397
#     4  12  23  43  67  94 126 174 230 277 333 402
#     4  12  24  45  67  99 138 178 223 278 331 397
#     4  12  24  42  64  96 131 175 222 279 341 393
#
# _framework density 21.971449
#
# number of rings (size 3 to 8) (size 9 to 14) (size 15 to 20)
#    0.000    0.000    2.500    8.250    3.500    0.000 
#    0.000    0.000    0.000    0.000    0.000    0.000 
#    0.000    0.000    0.000    0.000    0.000    0.000 
#
# Total GULP energy -198422.275237 kJ/mol
# GULP energy per Si atom -12401.392202 kJ/mol
# Density = 2.192144 g / cm^3
# Si number density = 21.971449 Si / 1000 Ang^3
#
#
#
# Elastic Constant Matrix: (Units=GPa)
#
#
# Indices 1 2 3 4 5 6 
#
# 1 139.4168 72.9375 20.5377 -4.6682 13.6549 0.2460
# 2 72.9375 219.8225 32.0953 -6.1676 -10.9492 0.0373
# 3 20.5377 32.0953 114.5398 -0.0241 -5.5716 -0.1047
# 4 -4.6682 -6.1676 -0.0241 39.3420 0.3503 -5.5410
# 5 13.6549 -10.9492 -5.5716 0.3503 47.7173 -0.6105
# 6 0.2460 0.0373 -0.1047 -5.5410 -0.6105 39.3039
#
#
#
# Elastic Compliance Matrix: (Units=1/GPa)
#
#
# Indices 1 2 3 4 5 6 
#
# 1 0.009301 -0.003100 -0.000969 0.000645 -0.003491 -0.000021
# 2 -0.003100 0.005841 -0.000978 0.000545 0.002111 0.000121
# 3 -0.000969 -0.000978 0.009233 -0.000271 0.001133 0.000011
# 4 0.000645 0.000545 -0.000271 0.026099 -0.000236 0.003670
# 5 -0.003491 0.002111 0.001133 -0.000236 0.022579 0.000340
# 6 -0.000021 0.000121 0.000011 0.003670 0.000340 0.025966
#
#
# Mechanical properties :
#
#
# Convention : Reuss Voigt Hill
#
# Bulk Modulus (GPa) = 70.02088 80.54666 75.28377
# Shear Modulus (GPa) = 43.90850 48.48654 46.19752
#
# Velocity S-wave (km/s) = 4.47524 4.70275 4.59040
# Velocity P-wave (km/s) = 7.65780 8.13800 7.90155
#
# Compressibility (1/GPa) = 0.01428145
#
# Stress axis : x y z
#
# Youngs Moduli (GPa) = 107.51486 171.20166 108.30291
#
# Poissons Ratio (x) = 0.53080 0.10491
# Poissons Ratio (y) = 0.33335 0.10591
# Poissons Ratio (z) = 0.10414 0.16742
#
# Static dielectric constant tensor:
#      x y z
#    x 4.148340 -0.013620 -0.149940 
#    y -0.013620 4.068970 0.030350 
#    z -0.149940 0.030350 4.444470 
# 
# 
# High freq. dielectric constant tensor:
#      x y z
#    x 1.874410 0.000340 -0.004980 
#    y 0.000340 1.887950 0.000130 
#    z -0.004980 0.000130 1.886010 
# 
# From -- ./inp_files/357988.got.cif
#   From: 2010.06.25/outbox.cif.g09.slc.cpg/sg2_179_cif.got.tgz:357988.got - 2010.06.27 13:26:56.
