data_PCOD8036612
_publ_section_title
;
Structure prediction by ZEFSAII (Michael W. Deem and Ramdas Pophale) SiO2 
 PCOD8036612
Probable space group: P -1
;
_chemical_formula_sum "Si O2"
_cell_formula_units_Z 16
_cell_length_a 16.234955
_cell_length_b 12.183185
_cell_length_c 9.213544
_cell_angle_alpha 44.766157
_cell_angle_beta 33.761830
_cell_angle_gamma 59.623868
_cell_volume 696.355760
_symmetry_space_group_name_H-M "P -1"
_symmetry_group_IT_number 2
_symmetry_cell_setting 'triclinic'
loop_
_space_group_symop_operation_xyz
x,y,z
-x,-y,-z
loop_
_atom_site_type_symbol
_atom_site_label
_atom_site_fract_x
_atom_site_fract_y
_atom_site_fract_z
Si Si1 0.164475 0.966621 0.840415
Si Si2 0.762239 0.202915 0.377943
Si Si3 0.568641 0.410445 0.608507
Si Si4 0.167674 0.984272 0.300450
Si Si5 0.437005 0.258793 0.232350
Si Si6 0.283550 0.305905 0.690827
Si Si7 0.228783 0.763673 0.190323
Si Si8 0.034943 0.441146 0.848504
O O1 0.246912 0.861091 0.711906
O O2 0.286722 0.124179 0.552523
O O3 0.144725 0.863621 0.112200
O O4 0.000000 0.000000 0.000000
O O5 0.614042 0.255502 0.612584
O O6 0.801066 0.048392 0.547192
O O7 0.885542 0.370272 0.042285
O O8 0.500000 0.500000 0.500000
O O9 0.701081 0.546192 0.357529
O O10 0.456793 0.354534 0.961387
O O11 0.192402 0.819646 0.350430
O O12 0.000000 0.000000 0.500000
O O13 0.289929 0.139741 0.917609
O O14 0.402680 0.352490 0.339746
O O15 0.588274 0.200897 0.115264
O O16 0.114761 0.290126 0.889268
O O17 0.149168 0.578367 0.462253
O O18 0.000000 0.500000 0.000000
#
# Coordination Sequence:
#
# PCOD8036612 Si02
#       8
#     2   2   2   2   2   2   2   2
#     4  12  29  48  71 111 150 187 240 309 375 435
#     4  12  26  46  71 108 149 187 237 306 370 426
#     4  12  29  46  69 110 144 193 239 304 373 424
#     4  12  22  41  76 108 135 189 244 295 358 431
#     4  12  26  49  73 104 146 190 249 293 362 442
#     4  12  24  43  75 103 142 187 242 295 356 437
#     4  12  25  46  75 104 140 197 247 292 360 442
#     4  12  21  44  73 102 141 181 244 295 355 437
#
# _framework density 22.976762000000001
#
# number of rings (size 3 to 8) (size 9 to 14) (size 15 to 20)
#    0.000    0.000    7.500    2.250    3.500    2.000 
#    0.000    0.000    0.000    0.000    0.000    0.000 
#    0.000    0.000    0.000    0.000    0.000    0.000 
#
# Total GULP energy -198234.403271 kJ/mol
# GULP energy per Si atom -12389.650204 kJ/mol
# Density = 2.292447 g / cm^3
# Si number density = 22.976762 Si / 1000 Ang^3
#
#
#
# Elastic Constant Matrix: (Units=GPa)
#
#
# Indices 1 2 3 4 5 6 
#
# 1 93.3140 13.8627 31.8638 -1.5343 4.7318 -21.1221
# 2 13.8627 89.7021 20.7003 11.8343 6.1247 -3.3588
# 3 31.8638 20.7003 101.2343 -10.1023 4.7554 -12.0488
# 4 -1.5343 11.8343 -10.1023 49.4831 -10.5926 5.5736
# 5 4.7318 6.1247 4.7554 -10.5926 21.0618 4.6020
# 6 -21.1221 -3.3588 -12.0488 5.5736 4.6020 43.3710
#
#
#
# Elastic Compliance Matrix: (Units=1/GPa)
#
#
# Indices 1 2 3 4 5 6 
#
# 1 0.013579 -0.000542 -0.003382 -0.001799 -0.004418 0.006332
# 2 -0.000542 0.012934 -0.002545 -0.005035 -0.005881 0.001302
# 3 -0.003382 -0.002545 0.011873 0.002802 -0.000011 0.001096
# 4 -0.001799 -0.005035 0.002802 0.025844 0.015423 -0.005445
# 5 -0.004418 -0.005881 -0.000011 0.015423 0.060344 -0.010995
# 6 0.006332 0.001302 0.001096 -0.005445 -0.010995 0.028412
#
#
# Mechanical properties :
#
#
# Convention : Reuss Voigt Hill
#
# Bulk Modulus (GPa) = 39.29528 46.34487 42.82007
# Shear Modulus (GPa) = 28.66841 37.30478 32.98660
#
# Velocity S-wave (km/s) = 3.53613 4.03375 3.79311
# Velocity P-wave (km/s) = 5.81477 6.47371 6.15307
#
# Compressibility (1/GPa) = 0.02544835
#
# Stress axis : x y z
#
# Youngs Moduli (GPa) = 73.64064 77.31689 84.22144
#
# Poissons Ratio (x) = 0.04192 0.28481
# Poissons Ratio (y) = 0.03993 0.21437
# Poissons Ratio (z) = 0.24903 0.19679
#
# Static dielectric constant tensor:
#      x y z
#    x 4.115050 0.040090 0.030250 
#    y 0.040090 4.546220 0.157230 
#    z 0.030250 0.157230 4.517400 
# 
# 
# High freq. dielectric constant tensor:
#      x y z
#    x 1.899530 -0.000750 0.005700 
#    y -0.000750 1.917750 0.002100 
#    z 0.005700 0.002100 1.915330 
# 
# From -- ./inp_files/243582.got.cif
#   From: 2010.06.25/outbox.cif.g09.slc.cpg/sg2_122_cif.got.tgz:243582.got - 2010.06.27 13:26:56.
