data_PCOD8036680
_publ_section_title
;
Structure prediction by ZEFSAII (Michael W. Deem and Ramdas Pophale) SiO2 
 PCOD8036680
Probable space group: P -1
;
_chemical_formula_sum "Si O2"
_cell_formula_units_Z 16
_cell_length_a 15.002065
_cell_length_b 21.908808
_cell_length_c 9.501383
_cell_angle_alpha 56.968976
_cell_angle_beta 113.158280
_cell_angle_gamma 161.139224
_cell_volume 754.896130
_symmetry_space_group_name_H-M "P -1"
_symmetry_group_IT_number 2
_symmetry_cell_setting 'triclinic'
loop_
_space_group_symop_operation_xyz
x,y,z
-x,-y,-z
loop_
_atom_site_type_symbol
_atom_site_label
_atom_site_fract_x
_atom_site_fract_y
_atom_site_fract_z
Si Si1 0.679845 0.053930 0.001964
Si Si2 0.925847 0.389785 0.474878
Si Si3 0.626351 0.406900 0.892477
Si Si4 0.718113 0.883100 0.669583
Si Si5 0.265035 0.944657 0.662083
Si Si6 0.769212 0.358738 0.918240
Si Si7 0.408348 0.353747 0.586804
Si Si8 0.290383 0.516780 0.635522
O O1 0.703263 0.017185 0.198412
O O2 0.512823 0.897055 0.963460
O O3 0.030031 0.312252 0.844894
O O4 0.500000 0.000000 0.000000
O O5 0.000000 0.500000 0.500000
O O6 0.997076 0.483443 0.262249
O O7 0.158950 0.489317 0.498959
O O8 0.565110 0.109460 0.602112
O O9 0.636002 0.343114 0.881915
O O10 0.427108 0.321090 0.784096
O O11 0.965199 0.682675 0.776445
O O12 0.481102 0.280949 0.110553
O O13 0.591602 0.752012 0.617774
O O14 0.725235 0.974823 0.525878
O O15 0.061722 0.100308 0.634854
O O16 0.000000 0.500000 0.000000
O O17 0.500000 0.500000 0.500000
O O18 0.629100 0.486541 0.427316
#
# Coordination Sequence:
#
# PCOD8036680 Si02
#       8
#     2   2   2   2   2   2   2   2
#     4  12  24  45  74 113 153 191 245 303 368 462
#     4  12  22  42  72 105 149 188 234 300 370 447
#     4  12  27  49  73 111 149 193 246 312 379 432
#     4  12  26  49  78 104 145 199 252 306 369 442
#     4  12  24  44  78 109 151 192 245 302 369 456
#     4  12  26  41  69 111 150 193 240 295 380 450
#     4  12  28  52  73 107 151 196 258 320 365 426
#     4  12  25  46  77 106 146 201 244 300 376 441
#
# _framework density 21.194969
#
# number of rings (size 3 to 8) (size 9 to 14) (size 15 to 20)
#    0.000    0.000    7.500    2.250    1.750    1.500 
#    0.000    1.250    0.000    0.000    0.000    0.000 
#    0.000    0.000    0.000    0.000    0.000    0.000 
#
# Total GULP energy -198301.869518 kJ/mol
# GULP energy per Si atom -12393.866845 kJ/mol
# Density = 2.114673 g / cm^3
# Si number density = 21.194969 Si / 1000 Ang^3
#
#
#
# Elastic Constant Matrix: (Units=GPa)
#
#
# Indices 1 2 3 4 5 6 
#
# 1 142.3528 60.0379 51.0119 -0.4973 0.3057 -8.8537
# 2 60.0379 159.0965 40.9145 -2.7108 8.7094 9.6080
# 3 51.0119 40.9145 131.8646 6.1202 0.7587 4.5417
# 4 -0.4973 -2.7108 6.1202 43.2548 4.1890 -0.0724
# 5 0.3057 8.7094 0.7587 4.1890 37.8461 -2.0224
# 6 -8.8537 9.6080 4.5417 -0.0724 -2.0224 34.4157
#
#
#
# Elastic Compliance Matrix: (Units=1/GPa)
#
#
# Indices 1 2 3 4 5 6 
#
# 1 0.009630 -0.003164 -0.002891 0.000242 0.000884 0.003795
# 2 -0.003164 0.008102 -0.001212 0.000838 -0.002070 -0.003036
# 3 -0.002891 -0.001212 0.009199 -0.001432 0.000190 -0.001611
# 4 0.000242 0.000838 -0.001432 0.023647 -0.002789 -0.000097
# 5 0.000884 -0.002070 0.000190 -0.002789 0.027324 0.002380
# 6 0.003795 -0.003036 -0.001611 -0.000097 0.002380 0.031232
#
#
# Mechanical properties :
#
#
# Convention : Reuss Voigt Hill
#
# Bulk Modulus (GPa) = 80.66568 81.91586 81.29077
# Shear Modulus (GPa) = 39.12337 41.85997 40.49167
#
# Velocity S-wave (km/s) = 4.30103 4.44891 4.37560
# Velocity P-wave (km/s) = 7.92507 8.06989 7.99780
#
# Compressibility (1/GPa) = 0.01239685
#
# Stress axis : x y z
#
# Youngs Moduli (GPa) = 103.84070 123.42278 108.70985
#
# Poissons Ratio (x) = 0.39053 0.31425
# Poissons Ratio (y) = 0.32857 0.13179
# Poissons Ratio (z) = 0.30017 0.14963
#
# Static dielectric constant tensor:
#      x y z
#    x 2.684390 -0.143680 0.394670 
#    y -0.143680 4.092360 0.172390 
#    z 0.394670 0.172390 3.957000 
# 
# 
# High freq. dielectric constant tensor:
#      x y z
#    x 1.819200 0.000960 -0.002350 
#    y 0.000960 1.853370 0.005910 
#    z -0.002350 0.005910 1.852030 
# 
# From -- ./inp_files/319313.got.cif
#   From: 2010.06.25/outbox.cif.g09.slc.cpg/sg2_160_cif.got.tgz:319313.got - 2010.06.27 13:26:56.
