data_PCOD8036161
_publ_section_title
;
Structure prediction by ZEFSAII (Michael W. Deem and Ramdas Pophale) SiO2 
 PCOD8036161
Probable space group: P -1
;
_chemical_formula_sum "Si O2"
_cell_formula_units_Z 14
_cell_length_a 11.272872
_cell_length_b 9.861566
_cell_length_c 9.375095
_cell_angle_alpha 134.101028
_cell_angle_beta 108.487494
_cell_angle_gamma 56.920573
_cell_volume 623.699773
_symmetry_space_group_name_H-M "P -1"
_symmetry_group_IT_number 2
_symmetry_cell_setting 'triclinic'
loop_
_space_group_symop_operation_xyz
x,y,z
-x,-y,-z
loop_
_atom_site_type_symbol
_atom_site_label
_atom_site_fract_x
_atom_site_fract_y
_atom_site_fract_z
Si Si1 0.600674 0.517983 0.937311
Si Si2 0.890204 0.189155 0.914443
Si Si3 0.517531 0.611331 0.449623
Si Si4 0.168076 0.559931 0.652046
Si Si5 0.085340 0.227999 0.486906
Si Si6 0.906282 0.753091 0.163717
Si Si7 0.420365 0.062199 0.866038
O O1 0.761918 0.414318 0.976312
O O2 0.597565 0.390279 0.703182
O O3 0.500000 0.500000 0.000000
O O4 0.542027 0.768869 0.070754
O O5 0.029207 0.131687 0.829905
O O6 0.851212 0.997010 0.739403
O O7 0.910430 0.233614 0.120614
O O8 0.500000 0.500000 0.500000
O O9 0.675751 0.476548 0.349207
O O10 0.481232 0.854894 0.637674
O O11 0.178626 0.345101 0.570491
O O12 0.077047 0.616859 0.513010
O O13 0.091649 0.181433 0.623534
O O14 0.748705 0.834195 0.102549
O O15 0.000000 0.500000 0.000000
O O16 0.500000 0.000000 0.000000
#
# Coordination Sequence:
#
# PCOD8036161 Si02
#       7
#     2   2   2   2   2   2   2
#     4  12  26  47  72 108 146 190 243 306 365 435
#     4  12  25  47  75 105 145 188 243 298 367 433
#     4  12  28  46  72 104 148 189 250 293 367 437
#     4  11  26  46  70 109 144 187 242 302 359 436
#     4  11  26  45  74 106 143 192 235 301 367 427
#     4  12  25  48  76 105 147 184 246 294 360 435
#     4  12  28  48  76 108 145 199 243 304 366 433
#
# _framework density 22.446698000000001
#
# number of rings (size 3 to 8) (size 9 to 14) (size 15 to 20)
#    0.000    0.286    5.714    1.714    8.000    0.571 
#    0.000    0.000    0.000    0.000    0.000    0.000 
#    0.000    0.000    0.000    0.000    0.000    0.000 
#
# Total GULP energy -173687.200316 kJ/mol
# GULP energy per Si atom -12406.228594 kJ/mol
# Density = 2.239561 g / cm^3
# Si number density = 22.446698 Si / 1000 Ang^3
#
#
#
# Elastic Constant Matrix: (Units=GPa)
#
#
# Indices 1 2 3 4 5 6 
#
# 1 130.8613 44.7791 36.6647 -10.6574 -6.8169 8.0101
# 2 44.7791 82.4581 42.8913 0.6009 -2.2147 -3.2907
# 3 36.6647 42.8913 149.5984 7.7486 13.8394 14.5393
# 4 -10.6574 0.6009 7.7486 49.0373 4.0040 11.3523
# 5 -6.8169 -2.2147 13.8394 4.0040 33.8171 -0.9421
# 6 8.0101 -3.2907 14.5393 11.3523 -0.9421 45.0354
#
#
#
# Elastic Compliance Matrix: (Units=1/GPa)
#
#
# Indices 1 2 3 4 5 6 
#
# 1 0.010146 -0.004998 -0.001124 0.002877 0.001768 -0.002495
# 2 -0.004998 0.017270 -0.004226 -0.001733 0.002169 0.003997
# 3 -0.001124 -0.004226 0.008868 -0.000581 -0.004145 -0.002912
# 4 0.002877 -0.001733 -0.000581 0.022750 -0.002163 -0.006231
# 5 0.001768 0.002169 -0.004145 -0.002163 0.032088 0.002399
# 6 -0.002495 0.003997 -0.002912 -0.006231 0.002399 0.025502
#
#
# Mechanical properties :
#
#
# Convention : Reuss Voigt Hill
#
# Bulk Modulus (GPa) = 64.14977 67.95420 66.05199
# Shear Modulus (GPa) = 35.08356 41.48348 38.28352
#
# Velocity S-wave (km/s) = 3.95773 4.30360 4.13429
# Velocity P-wave (km/s) = 7.03744 7.41849 7.23048
#
# Compressibility (1/GPa) = 0.01558852
#
# Stress axis : x y z
#
# Youngs Moduli (GPa) = 98.56061 57.90252 112.76333
#
# Poissons Ratio (x) = 0.28942 0.12670
# Poissons Ratio (y) = 0.49265 0.47654
# Poissons Ratio (z) = 0.11074 0.24469
#
# Static dielectric constant tensor:
#      x y z
#    x 4.171550 -0.064710 0.109980 
#    y -0.064710 4.281610 -0.068690 
#    z 0.109980 -0.068690 4.178250 
# 
# 
# High freq. dielectric constant tensor:
#      x y z
#    x 1.885210 0.001770 0.015020 
#    y 0.001770 1.896650 -0.003860 
#    z 0.015020 -0.003860 1.896940 
# 
# From -- ./inp_files/241967.got.cif
#   From: 2010.06.25/outbox.cif.g09.slc.cpg/sg2_121_cif.got.tgz:241967.got - 2010.06.27 13:26:56.
