data_PCOD8036714
_publ_section_title
;
Structure prediction by ZEFSAII (Michael W. Deem and Ramdas Pophale) SiO2 
 PCOD8036714
Probable space group: P -1
;
_chemical_formula_sum "Si O2"
_cell_formula_units_Z 16
_cell_length_a 12.953962
_cell_length_b 8.337237
_cell_length_c 19.643974
_cell_angle_alpha 116.685142
_cell_angle_beta 152.347180
_cell_angle_gamma 51.735762
_cell_volume 743.747198
_symmetry_space_group_name_H-M "P -1"
_symmetry_group_IT_number 2
_symmetry_cell_setting 'triclinic'
loop_
_space_group_symop_operation_xyz
x,y,z
-x,-y,-z
loop_
_atom_site_type_symbol
_atom_site_label
_atom_site_fract_x
_atom_site_fract_y
_atom_site_fract_z
Si Si1 0.981707 0.381640 0.134481
Si Si2 0.283615 0.192557 0.722684
Si Si3 0.447164 0.460450 0.782053
Si Si4 0.218086 0.207420 0.380279
Si Si5 0.008736 0.092265 0.360724
Si Si6 0.501464 0.177325 0.313829
Si Si7 0.700618 0.459866 0.435551
Si Si8 0.234963 0.176241 0.845186
O O1 0.900136 0.620091 0.146821
O O2 0.069790 0.249701 0.230396
O O3 0.216431 0.272363 0.196958
O O4 0.740220 0.378562 0.960637
O O5 0.339169 0.349007 0.744072
O O6 0.309738 0.223042 0.823789
O O7 0.986543 0.258202 0.544125
O O8 0.479442 0.946339 0.768486
O O9 0.449107 0.401186 0.692452
O O10 0.253537 0.715227 0.721289
O O11 0.038595 0.178089 0.322754
O O12 0.255036 0.399987 0.457871
O O13 0.500000 0.000000 0.500000
O O14 0.275172 0.005655 0.542309
O O15 0.972603 0.895430 0.294731
O O16 0.533315 0.374459 0.356222
O O17 0.500000 0.000000 0.000000
#
# Coordination Sequence:
#
# PCOD8036714 Si02
#       8
#     2   2   2   2   2   2   2   2
#     4  12  28  47  67 110 146 182 232 296 356 411
#     4  12  24  46  72 101 136 190 241 284 343 427
#     4  12  26  44  73 102 143 181 239 292 347 416
#     4  12  26  44  71 105 142 183 234 292 355 412
#     4  12  22  43  73 100 134 188 238 286 346 419
#     4  12  26  44  73 102 143 181 239 292 347 416
#     4  12  24  46  72 101 136 190 241 284 343 427
#     4  12  26  44  71 105 142 183 234 292 355 412
#
# _framework density 21.512688000000001
#
# number of rings (size 3 to 8) (size 9 to 14) (size 15 to 20)
#    0.000    0.000    7.500    2.250    3.500    3.000 
#    0.000    0.000    0.000    0.000    0.000    0.000 
#    0.000    0.000    0.000    0.000    0.000    0.000 
#
# Total GULP energy -198493.319578 kJ/mol
# GULP energy per Si atom -12405.832474 kJ/mol
# Density = 2.146372 g / cm^3
# Si number density = 21.512688 Si / 1000 Ang^3
#
#
#
# Elastic Constant Matrix: (Units=GPa)
#
#
# Indices 1 2 3 4 5 6 
#
# 1 110.3698 20.8402 39.2377 -5.0010 -1.2389 2.9897
# 2 20.8402 69.4694 4.4107 -11.5718 -1.8151 -12.6770
# 3 39.2377 4.4107 115.6883 -23.7783 -12.2352 -10.7789
# 4 -5.0010 -11.5718 -23.7783 34.6857 -1.7008 2.8995
# 5 -1.2389 -1.8151 -12.2352 -1.7008 32.8500 -3.7032
# 6 2.9897 -12.6770 -10.7789 2.8995 -3.7032 42.2266
#
#
#
# Elastic Compliance Matrix: (Units=1/GPa)
#
#
# Indices 1 2 3 4 5 6 
#
# 1 0.011550 -0.004315 -0.004902 -0.002960 -0.002160 -0.003351
# 2 -0.004315 0.017902 0.003158 0.007143 0.003079 0.006266
# 3 -0.004902 0.003158 0.013132 0.009259 0.005870 0.004526
# 4 -0.002960 0.007143 0.009259 0.037201 0.005960 0.002686
# 5 -0.002160 0.003079 0.005870 0.005960 0.033602 0.005113
# 6 -0.003351 0.006266 0.004526 0.002686 0.005113 0.027220
#
#
# Mechanical properties :
#
#
# Convention : Reuss Voigt Hill
#
# Bulk Modulus (GPa) = 32.82171 47.16719 39.99445
# Shear Modulus (GPa) = 30.69760 37.35505 34.02632
#
# Velocity S-wave (km/s) = 3.78160 4.17156 3.98136
# Velocity P-wave (km/s) = 5.86152 6.72127 6.30606
#
# Compressibility (1/GPa) = 0.03046764
#
# Stress axis : x y z
#
# Youngs Moduli (GPa) = 86.57808 55.85866 76.15168
#
# Poissons Ratio (x) = 0.24101 0.37330
# Poissons Ratio (y) = 0.37356 -0.24052
# Poissons Ratio (z) = 0.42441 -0.17643
#
# Static dielectric constant tensor:
#      x y z
#    x 3.799600 -0.275390 -0.061560 
#    y -0.275390 3.714250 0.040070 
#    z -0.061560 0.040070 3.899710 
# 
# 
# High freq. dielectric constant tensor:
#      x y z
#    x 1.854000 0.003940 -0.006550 
#    y 0.003940 1.851190 -0.002560 
#    z -0.006550 -0.002560 1.843580 
# 
# From -- ./inp_files/216350.got.cif
#   From: 2010.06.25/outbox.cif.g09.slc.cpg/sg2_109_cif.got.tgz:216350.got - 2010.06.27 13:26:56.
