data_PCOD8036507
_publ_section_title
;
Structure prediction by ZEFSAII (Michael W. Deem and Ramdas Pophale) SiO2 
 PCOD8036507
Probable space group: P -1
;
_chemical_formula_sum "Si O2"
_cell_formula_units_Z 10
_cell_length_a 4.900610
_cell_length_b 13.589982
_cell_length_c 8.597608
_cell_angle_alpha 136.624035
_cell_angle_beta 103.379681
_cell_angle_gamma 69.683840
_cell_volume 368.588583
_symmetry_space_group_name_H-M "P -1"
_symmetry_group_IT_number 2
_symmetry_cell_setting 'triclinic'
loop_
_space_group_symop_operation_xyz
x,y,z
-x,-y,-z
loop_
_atom_site_type_symbol
_atom_site_label
_atom_site_fract_x
_atom_site_fract_y
_atom_site_fract_z
Si Si1 0.811596 0.219259 0.347517
Si Si2 0.827381 0.901403 0.034602
Si Si3 0.567412 0.224452 0.935909
Si Si4 0.154206 0.349048 0.757816
Si Si5 0.297511 0.474388 0.604488
O O1 0.568497 0.366587 0.420840
O O2 0.923718 0.257897 0.574585
O O3 0.066959 0.185865 0.213341
O O4 0.676996 0.076789 0.182903
O O5 0.115606 0.893817 0.169862
O O6 0.608208 0.825871 0.005087
O O7 0.396030 0.237972 0.767465
O O8 0.628307 0.378533 0.162576
O O9 0.293019 0.384663 0.658999
O O10 0.000000 0.500000 0.000000
O O11 0.000000 0.500000 0.500000
#
# Coordination Sequence:
#
# PCOD8036507 Si02
#       5
#     2   2   2   2   2
#     4  11  29  53  83 117 164 213 273 329 404 479
#     4  11  30  53  82 121 163 213 268 332 403 483
#     4  12  28  52  80 123 160 212 269 331 409 474
#     4  12  27  49  80 121 163 207 270 336 404 477
#     4  12  29  53  84 119 159 219 274 333 395 481
#
# _framework density 27.130517999999999
#
# number of rings (size 3 to 8) (size 9 to 14) (size 15 to 20)
#    0.000    0.400    2.000    3.000   14.000    5.600 
#    0.000    0.000    0.000    0.000    0.000    0.000 
#    0.000    0.000    0.000    0.000    0.000    0.000 
#
# Total GULP energy -124024.382099 kJ/mol
# GULP energy per Si atom -12402.438210 kJ/mol
# Density = 2.706877 g / cm^3
# Si number density = 27.130518 Si / 1000 Ang^3
#
#
#
# Elastic Constant Matrix: (Units=GPa)
#
#
# Indices 1 2 3 4 5 6 
#
# 1 96.1008 13.9120 4.1162 18.5994 17.6741 -9.1257
# 2 13.9120 123.9349 27.4325 -18.8709 23.4722 -23.1607
# 3 4.1162 27.4325 120.8947 -0.3092 28.9639 -11.7217
# 4 18.5994 -18.8709 -0.3092 45.9782 -2.1373 7.8248
# 5 17.6741 23.4722 28.9639 -2.1373 38.9298 7.1184
# 6 -9.1257 -23.1607 -11.7217 7.8248 7.1184 64.6382
#
#
#
# Elastic Compliance Matrix: (Units=1/GPa)
#
#
# Indices 1 2 3 4 5 6 
#
# 1 0.013641 -0.000741 0.002050 -0.006839 -0.008338 0.003778
# 2 -0.000741 0.010753 -0.000529 0.003757 -0.006257 0.003886
# 3 0.002050 -0.000529 0.010906 -0.001984 -0.009449 0.003358
# 4 -0.006839 0.003757 -0.001984 0.026887 0.004473 -0.003726
# 5 -0.008338 -0.006257 -0.009449 0.004473 0.042413 -0.010345
# 6 0.003778 0.003886 0.003358 -0.003726 -0.010345 0.019596
#
#
# Mechanical properties :
#
#
# Convention : Reuss Voigt Hill
#
# Bulk Modulus (GPa) = 27.13014 47.98355 37.55685
# Shear Modulus (GPa) = 37.05839 49.60724 43.33281
#
# Velocity S-wave (km/s) = 3.69986 4.28070 4.00083
# Velocity P-wave (km/s) = 5.31728 6.49285 5.93425
#
# Compressibility (1/GPa) = 0.03685937
#
# Stress axis : x y z
#
# Youngs Moduli (GPa) = 73.30805 93.00143 91.69061
#
# Poissons Ratio (x) = 0.06894 -0.18798
# Poissons Ratio (y) = 0.05434 0.04851
# Poissons Ratio (z) = -0.15029 0.04921
#
# Static dielectric constant tensor:
#      x y z
#    x 5.307660 -0.313310 0.074200 
#    y -0.313310 5.888900 0.000240 
#    z 0.074200 0.000240 5.220260 
# 
# 
# High freq. dielectric constant tensor:
#      x y z
#    x 2.104560 -0.003400 0.016800 
#    y -0.003400 2.121590 -0.001260 
#    z 0.016800 -0.001260 2.094940 
# 
# From -- ./inp_files/132695.got.cif
#   From: 2010.06.25/outbox.cif.g09.slc.cpg/sg2_67_cif.got.tgz:132695.got - 2010.06.27 13:26:56.
