data_PCOD8036746
_publ_section_title
;
Structure prediction by ZEFSAII (Michael W. Deem and Ramdas Pophale) SiO2 
 PCOD8036746
Probable space group: P -1
;
_chemical_formula_sum "Si O2"
_cell_formula_units_Z 12
_cell_length_a 9.358156
_cell_length_b 11.547324
_cell_length_c 9.267617
_cell_angle_alpha 45.302435
_cell_angle_beta 69.524678
_cell_angle_gamma 54.105922
_cell_volume 573.278745
_symmetry_space_group_name_H-M "P -1"
_symmetry_group_IT_number 2
_symmetry_cell_setting 'triclinic'
loop_
_space_group_symop_operation_xyz
x,y,z
-x,-y,-z
loop_
_atom_site_type_symbol
_atom_site_label
_atom_site_fract_x
_atom_site_fract_y
_atom_site_fract_z
Si Si1 0.455830 0.384898 0.497261
Si Si2 0.806626 0.543572 0.038578
Si Si3 0.158461 0.826552 0.510348
Si Si4 0.685389 0.813966 0.094200
Si Si5 0.320239 0.550981 0.094032
Si Si6 0.021914 0.067806 0.085209
O O1 0.500000 0.500000 0.500000
O O2 0.641836 0.203723 0.531382
O O3 0.321890 0.325014 0.662623
O O4 0.345601 0.512788 0.288180
O O5 0.809784 0.372449 0.273656
O O6 0.693284 0.734501 0.000910
O O7 0.737909 0.573867 0.871069
O O8 0.000000 0.500000 0.000000
O O9 0.096894 0.879208 0.320636
O O10 0.000000 0.000000 0.500000
O O11 0.847133 0.847663 0.039983
O O12 0.500000 0.000000 0.000000
O O13 0.500000 0.500000 0.000000
O O14 0.169505 0.770132 0.930100
O O15 0.000000 0.000000 0.000000
#
# Coordination Sequence:
#
# PCOD8036746 Si02
#       6
#     2   2   2   2   2   2
#     4  12  24  44  74 102 140 189 234 290 355 417
#     4  12  25  46  72 102 145 187 235 293 350 424
#     4  12  22  45  69 100 141 186 226 285 358 413
#     4  12  26  46  71 102 142 187 237 290 354 419
#     4  12  24  44  71 103 136 185 239 284 354 414
#     4  12  27  44  70 104 143 182 240 292 349 421
#
# _framework density 20.932224999999999
#
# number of rings (size 3 to 8) (size 9 to 14) (size 15 to 20)
#    0.000    0.000    8.333    1.000    2.333    2.000 
#    0.000    0.833    0.000    0.000    0.000    0.000 
#    0.000    0.000    0.000    0.000    0.000    0.000 
#
# Total GULP energy -148682.447846 kJ/mol
# GULP energy per Si atom -12390.203987 kJ/mol
# Density = 2.088458 g / cm^3
# Si number density = 20.932225 Si / 1000 Ang^3
#
#
#
# Elastic Constant Matrix: (Units=GPa)
#
#
# Indices 1 2 3 4 5 6 
#
# 1 134.5014 54.5997 45.0487 12.6264 13.7940 9.5188
# 2 54.5997 136.8432 14.3924 2.8724 4.5886 0.1316
# 3 45.0487 14.3924 111.1144 13.4723 20.0315 15.8824
# 4 12.6264 2.8724 13.4723 32.0011 -3.7077 6.3131
# 5 13.7940 4.5886 20.0315 -3.7077 36.8094 6.1972
# 6 9.5188 0.1316 15.8824 6.3131 6.1972 49.2672
#
#
#
# Elastic Compliance Matrix: (Units=1/GPa)
#
#
# Indices 1 2 3 4 5 6 
#
# 1 0.010441 -0.003726 -0.003001 -0.002666 -0.002008 -0.000445
# 2 -0.003726 0.008756 0.000210 0.000506 0.000150 0.000545
# 3 -0.003001 0.000210 0.011970 -0.004102 -0.005481 -0.002064
# 4 -0.002666 0.000506 -0.004102 0.035555 0.007364 -0.003646
# 5 -0.002008 0.000150 -0.005481 0.007364 0.032101 -0.002827
# 6 -0.000445 0.000545 -0.002064 -0.003646 -0.002827 0.021870
#
#
# Mechanical properties :
#
#
# Convention : Reuss Voigt Hill
#
# Bulk Modulus (GPa) = 55.15043 67.83783 61.49413
# Shear Modulus (GPa) = 35.77271 41.51007 38.64139
#
# Velocity S-wave (km/s) = 4.13846 4.45800 4.30120
# Velocity P-wave (km/s) = 7.01713 7.67965 7.35585
#
# Compressibility (1/GPa) = 0.01813223
#
# Stress axis : x y z
#
# Youngs Moduli (GPa) = 95.78060 114.20556 83.54385
#
# Poissons Ratio (x) = 0.42557 0.25073
# Poissons Ratio (y) = 0.35691 -0.01758
# Poissons Ratio (z) = 0.28746 -0.02403
#
# Static dielectric constant tensor:
#      x y z
#    x 4.668860 -1.167870 -0.585230 
#    y -1.167870 6.209640 1.200190 
#    z -0.585230 1.200190 4.829670 
# 
# 
# High freq. dielectric constant tensor:
#      x y z
#    x 1.819660 -0.017500 0.006360 
#    y -0.017500 1.844800 0.014470 
#    z 0.006360 0.014470 1.822350 
# 
# From -- ./inp_files/144419.got.cif
#   From: 2010.06.25/outbox.cif.g09.slc.cpg/sg2_73_cif.got.tgz:144419.got - 2010.06.27 13:26:56.
