data_PCOD8036341
_publ_section_title
;
Structure prediction by ZEFSAII (Michael W. Deem and Ramdas Pophale) SiO2 
 PCOD8036341
Probable space group: P -1
;
_chemical_formula_sum "Si O2"
_cell_formula_units_Z 14
_cell_length_a 5.190654
_cell_length_b 14.085029
_cell_length_c 11.722320
_cell_angle_alpha 59.765510
_cell_angle_beta 120.297316
_cell_angle_gamma 113.139157
_cell_volume 628.128332
_symmetry_space_group_name_H-M "P -1"
_symmetry_group_IT_number 2
_symmetry_cell_setting 'triclinic'
loop_
_space_group_symop_operation_xyz
x,y,z
-x,-y,-z
loop_
_atom_site_type_symbol
_atom_site_label
_atom_site_fract_x
_atom_site_fract_y
_atom_site_fract_z
Si Si1 0.170792 0.378094 0.406491
Si Si2 0.200402 0.241814 0.859153
Si Si3 0.312450 0.040305 0.610344
Si Si4 0.491636 0.746453 0.612331
Si Si5 0.663183 0.370307 0.711661
Si Si6 0.675230 0.846437 0.825293
Si Si7 0.229147 0.035177 0.848285
O O1 0.254698 0.312874 0.353818
O O2 0.441163 0.373926 0.555559
O O3 0.156567 0.505591 0.293846
O O4 0.849362 0.324081 0.423696
O O5 0.467291 0.322698 0.805100
O O6 0.091152 0.124302 0.839319
O O7 0.901719 0.293583 0.777103
O O8 0.357065 0.224581 0.024057
O O9 0.519501 0.134842 0.522732
O O10 0.299478 0.090585 0.705037
O O11 0.441133 0.928748 0.719232
O O12 0.000000 0.000000 0.500000
O O13 0.608978 0.760519 0.758860
O O14 0.009050 0.918667 0.848746
O O15 0.500000 0.000000 0.000000
#
# Coordination Sequence:
#
# PCOD8036341 Si02
#       7
#     2   2   2   2   2   2   2
#     4  11  26  48  75 106 138 182 250 311 361 427
#     4  12  26  45  74 103 144 196 233 298 377 418
#     4  12  26  45  69 104 151 194 239 293 360 437
#     4  12  26  45  74 103 144 196 233 298 377 418
#     4  11  26  48  75 106 138 182 250 311 361 427
#     4  12  28  44  65 108 151 184 242 298 346 462
#     4  12  26  45  69 104 151 194 239 293 360 437
#
# _framework density 22.288436999999998
#
# number of rings (size 3 to 8) (size 9 to 14) (size 15 to 20)
#    0.000    0.286    2.857    5.143    8.000    2.286 
#    0.000    4.286    0.000    0.000    0.000    0.000 
#    0.000    0.000    0.000    0.000    0.000    0.000 
#
# Total GULP energy -173654.840386 kJ/mol
# GULP energy per Si atom -12403.917170 kJ/mol
# Density = 2.223771 g / cm^3
# Si number density = 22.288437 Si / 1000 Ang^3
#
#
#
# Elastic Constant Matrix: (Units=GPa)
#
#
# Indices 1 2 3 4 5 6 
#
# 1 144.8707 44.5631 54.2836 -15.2266 -5.2901 6.5488
# 2 44.5631 101.4279 57.1148 -15.7798 -5.5812 4.2015
# 3 54.2836 57.1148 122.3300 8.3612 -12.4745 -7.5551
# 4 -15.2266 -15.7798 8.3612 40.1718 -2.0531 -5.7994
# 5 -5.2901 -5.5812 -12.4745 -2.0531 50.1556 2.6393
# 6 6.5488 4.2015 -7.5551 -5.7994 2.6393 48.1709
#
#
#
# Elastic Compliance Matrix: (Units=1/GPa)
#
#
# Indices 1 2 3 4 5 6 
#
# 1 0.009149 -0.001278 -0.003777 0.003569 0.000098 -0.001300
# 2 -0.001278 0.015702 -0.007320 0.006997 0.000158 -0.001510
# 3 -0.003777 -0.007320 0.014075 -0.006788 0.001881 0.002439
# 4 0.003569 0.006997 -0.006788 0.030656 0.000643 0.001495
# 5 0.000098 0.000158 0.001881 0.000643 0.020501 -0.000778
# 6 -0.001300 -0.001510 0.002439 0.001495 -0.000778 0.021673
#
#
# Mechanical properties :
#
#
# Convention : Reuss Voigt Hill
#
# Bulk Modulus (GPa) = 70.54220 75.61684 73.07952
# Shear Modulus (GPa) = 35.40307 41.87746 38.64027
#
# Velocity S-wave (km/s) = 3.98980 4.33932 4.16822
# Velocity P-wave (km/s) = 7.27620 7.68807 7.48497
#
# Compressibility (1/GPa) = 0.01417591
#
# Stress axis : x y z
#
# Youngs Moduli (GPa) = 109.30531 63.68531 71.04966
#
# Poissons Ratio (x) = 0.08139 0.26838
# Poissons Ratio (y) = 0.13969 0.52005
# Poissons Ratio (z) = 0.41288 0.46615
#
# Static dielectric constant tensor:
#      x y z
#    x 4.241640 -0.109140 -0.197450 
#    y -0.109140 4.278690 -0.110930 
#    z -0.197450 -0.110930 4.136140 
# 
# 
# High freq. dielectric constant tensor:
#      x y z
#    x 1.892590 -0.001120 -0.005200 
#    y -0.001120 1.880750 0.002710 
#    z -0.005200 0.002710 1.887430 
# 
# From -- ./inp_files/367557.got.cif
#   From: 2010.06.25/outbox.cif.g09.slc.cpg/sg2_184_cif.got.tgz:367557.got - 2010.06.27 13:26:56.
