data_PCOD8036449
_publ_section_title
;
Structure prediction by ZEFSAII (Michael W. Deem and Ramdas Pophale) SiO2 
 PCOD8036449
Probable space group: P -1
;
_chemical_formula_sum "Si O2"
_cell_formula_units_Z 12
_cell_length_a 24.725697
_cell_length_b 22.523422
_cell_length_c 8.471440
_cell_angle_alpha 31.939497
_cell_angle_beta 30.331874
_cell_angle_gamma 10.808290
_cell_volume 446.764025
_symmetry_space_group_name_H-M "P -1"
_symmetry_group_IT_number 2
_symmetry_cell_setting 'triclinic'
loop_
_space_group_symop_operation_xyz
x,y,z
-x,-y,-z
loop_
_atom_site_type_symbol
_atom_site_label
_atom_site_fract_x
_atom_site_fract_y
_atom_site_fract_z
Si Si1 0.911372 0.161876 0.666171
Si Si2 0.418768 0.484686 0.616165
Si Si3 0.202769 0.221042 0.714769
Si Si4 0.472389 0.781869 0.808613
Si Si5 0.329661 0.838501 0.732621
Si Si6 0.009080 0.617526 0.774706
O O1 0.836090 0.240834 0.489707
O O2 0.685090 0.468251 0.633904
O O3 0.867856 0.074194 0.031865
O O4 0.257089 0.861942 0.504116
O O5 0.500000 0.500000 0.500000
O O6 0.313083 0.487003 0.993117
O O7 0.000000 0.500000 0.500000
O O8 0.500000 0.000000 0.500000
O O9 0.239054 0.082040 0.819388
O O10 0.033055 0.342846 0.021484
O O11 0.297544 0.866376 0.942660
O O12 0.658577 0.671768 0.461775
O O13 0.230787 0.057281 0.423392
O O14 0.000000 0.500000 0.000000
#
# Coordination Sequence:
#
# PCOD8036449 Si02
#       6
#     2   2   2   2   2   2
#     4  11  27  48  76 114 159 204 251 323 377 459
#     4  12  25  48  74 114 157 200 257 309 386 454
#     4  12  29  52  76 109 149 199 256 317 381 449
#     4  12  28  45  80 110 150 207 252 310 389 454
#     4  11  27  46  77 113 153 204 261 311 390 453
#     4  12  27  51  77 111 156 199 260 320 380 457
#
# _framework density 26.859818000000001
#
# number of rings (size 3 to 8) (size 9 to 14) (size 15 to 20)
#    0.000    0.333    3.333    3.500    9.333    2.667 
#    0.000    0.000    0.000    0.000    0.000    0.000 
#    0.000    0.000    0.000    0.000    0.000    0.000 
#
# Total GULP energy -148741.213888 kJ/mol
# GULP energy per Si atom -12395.101157 kJ/mol
# Density = 2.679868 g / cm^3
# Si number density = 26.859818 Si / 1000 Ang^3
#
#
#
# Elastic Constant Matrix: (Units=GPa)
#
#
# Indices 1 2 3 4 5 6 
#
# 1 89.2938 11.8405 22.6959 -0.9010 12.1135 42.9044
# 2 11.8405 80.0450 27.8675 -10.0515 8.0935 15.7650
# 3 22.6959 27.8675 159.6766 -10.8945 28.8484 15.4156
# 4 -0.9010 -10.0515 -10.8945 59.6894 7.2123 1.4776
# 5 12.1135 8.0935 28.8484 7.2123 52.4718 -0.5016
# 6 42.9044 15.7650 15.4156 1.4776 -0.5016 60.9629
#
#
#
# Elastic Compliance Matrix: (Units=1/GPa)
#
#
# Indices 1 2 3 4 5 6 
#
# 1 0.017951 0.000615 -0.000604 0.001083 -0.004177 -0.012700
# 2 0.000615 0.014219 -0.001728 0.002392 -0.001750 -0.003745
# 3 -0.000604 -0.001728 0.007589 0.001596 -0.003996 -0.001119
# 4 0.001083 0.002392 0.001596 0.018002 -0.003992 -0.002254
# 5 -0.004177 -0.001750 -0.003996 -0.003992 0.023083 0.004689
# 6 -0.012700 -0.003745 -0.001119 -0.002254 0.004689 0.026686
#
#
# Mechanical properties :
#
#
# Convention : Reuss Voigt Hill
#
# Bulk Modulus (GPa) = 27.53017 50.42479 38.97748
# Shear Modulus (GPa) = 40.62665 52.39894 46.51280
#
# Velocity S-wave (km/s) = 3.89336 4.42161 4.16587
# Velocity P-wave (km/s) = 5.52113 6.69937 6.13859
#
# Compressibility (1/GPa) = 0.03632378
#
# Stress axis : x y z
#
# Youngs Moduli (GPa) = 55.70740 70.33075 131.77038
#
# Poissons Ratio (x) = -0.04323 0.07960
# Poissons Ratio (y) = -0.03424 0.22770
# Poissons Ratio (z) = 0.03365 0.12153
#
# Static dielectric constant tensor:
#      x y z
#    x 5.188750 0.375430 0.243910 
#    y 0.375430 5.167840 0.099590 
#    z 0.243910 0.099590 5.323520 
# 
# 
# High freq. dielectric constant tensor:
#      x y z
#    x 2.096660 0.019510 0.014060 
#    y 0.019510 2.083570 -0.004740 
#    z 0.014060 -0.004740 2.096030 
# 
# From -- ./inp_files/28666.got.cif
#   From: 2010.06.25/outbox.cif.g09.slc.cpg/sg2_15_cif.got.tgz:28666.got - 2010.06.27 13:26:56.
