data_PCOD8036415
_publ_section_title
;
Structure prediction by ZEFSAII (Michael W. Deem and Ramdas Pophale) SiO2 
 PCOD8036415
Probable space group: P -1
;
_chemical_formula_sum "Si O2"
_cell_formula_units_Z 16
_cell_length_a 8.237278
_cell_length_b 6.745300
_cell_length_c 12.945351
_cell_angle_alpha 93.045555
_cell_angle_beta 96.141471
_cell_angle_gamma 107.713947
_cell_volume 678.452660
_symmetry_space_group_name_H-M "P -1"
_symmetry_group_IT_number 2
_symmetry_cell_setting 'triclinic'
loop_
_space_group_symop_operation_xyz
x,y,z
-x,-y,-z
loop_
_atom_site_type_symbol
_atom_site_label
_atom_site_fract_x
_atom_site_fract_y
_atom_site_fract_z
Si Si1 0.528816 0.029947 0.708009
Si Si2 0.688375 0.597171 0.051425
Si Si3 0.145460 0.059765 0.363002
Si Si4 0.696649 0.414672 0.270099
Si Si5 0.250220 0.670419 0.124284
Si Si6 0.987116 0.648653 0.766085
Si Si7 0.234933 0.177200 0.602505
Si Si8 0.156471 0.945764 0.964015
O O1 0.711516 0.050488 0.663193
O O2 0.464548 0.796049 0.744262
O O3 0.567640 0.217664 0.801672
O O4 0.372250 0.051690 0.627818
O O5 0.724367 0.507271 0.159222
O O6 0.716514 0.842360 0.068448
O O7 0.500000 0.500000 0.000000
O O8 0.785882 0.529120 0.960119
O O9 0.145614 0.240238 0.285274
O O10 0.198015 0.170001 0.478981
O O11 0.946870 0.906428 0.349762
O O12 0.669351 0.582434 0.353549
O O13 0.877086 0.374692 0.311883
O O14 0.112658 0.580957 0.202940
O O15 0.232776 0.865794 0.065957
O O16 0.111815 0.782296 0.865530
O O17 0.000000 0.000000 0.000000
#
# Coordination Sequence:
#
# PCOD8036415 Si02
#       8
#     2   2   2   2   2   2   2   2
#     4  12  27  48  74 110 147 188 243 304 359 435
#     4  12  26  40  66 102 143 193 236 294 353 425
#     4  11  26  50  80 105 144 191 242 299 374 430
#     4  12  26  45  73 106 149 187 241 301 361 426
#     4  12  26  43  68 103 145 192 241 285 362 425
#     4  12  24  46  70 108 146 194 242 301 359 437
#     4  11  26  53  76 108 143 189 241 307 365 433
#     4  12  23  43  68  97 142 190 242 293 348 427
#
# _framework density 23.583074
#
# number of rings (size 3 to 8) (size 9 to 14) (size 15 to 20)
#    0.000    0.250    3.750    5.250    5.250    2.000 
#    2.250    0.000    0.000    0.000    0.000    0.000 
#    0.000    0.000    0.000    0.000    0.000    0.000 
#
# Total GULP energy -198278.496068 kJ/mol
# GULP energy per Si atom -12392.406004 kJ/mol
# Density = 2.352940 g / cm^3
# Si number density = 23.583074 Si / 1000 Ang^3
#
#
#
# Elastic Constant Matrix: (Units=GPa)
#
#
# Indices 1 2 3 4 5 6 
#
# 1 124.0440 22.7124 15.2940 -5.0181 8.3921 -1.0720
# 2 22.7124 143.7588 37.4054 11.0465 6.5661 24.3321
# 3 15.2940 37.4054 93.0818 8.0823 14.7686 11.3004
# 4 -5.0181 11.0465 8.0823 29.9797 -1.0362 0.4778
# 5 8.3921 6.5661 14.7686 -1.0362 34.3519 1.2152
# 6 -1.0720 24.3321 11.3004 0.4778 1.2152 35.2376
#
#
#
# Elastic Compliance Matrix: (Units=1/GPa)
#
#
# Indices 1 2 3 4 5 6 
#
# 1 0.008653 -0.001490 -0.000990 0.002190 -0.001395 0.001628
# 2 -0.001490 0.008964 -0.002424 -0.002820 -0.000201 -0.005413
# 3 -0.000990 -0.002424 0.013218 -0.002970 -0.004983 -0.002383
# 4 0.002190 -0.002820 -0.002970 0.035602 0.002270 0.002405
# 5 -0.001395 -0.000201 -0.004983 0.002270 0.031680 0.000571
# 6 0.001628 -0.005413 -0.002383 0.002405 0.000571 0.032878
#
#
# Mechanical properties :
#
#
# Convention : Reuss Voigt Hill
#
# Bulk Modulus (GPa) = 47.55262 56.85647 52.20455
# Shear Modulus (GPa) = 33.82697 38.94536 36.38616
#
# Velocity S-wave (km/s) = 3.79142 4.06816 3.93223
# Velocity P-wave (km/s) = 6.27488 6.79912 6.54225
#
# Compressibility (1/GPa) = 0.02102934
#
# Stress axis : x y z
#
# Youngs Moduli (GPa) = 115.56030 111.55664 75.65674
#
# Poissons Ratio (x) = 0.16619 0.07486
# Poissons Ratio (y) = 0.17215 0.18336
# Poissons Ratio (z) = 0.11435 0.27037
#
# Static dielectric constant tensor:
#      x y z
#    x 4.319230 -0.076810 0.058810 
#    y -0.076810 3.386670 -0.193840 
#    z 0.058810 -0.193840 3.908310 
# 
# 
# High freq. dielectric constant tensor:
#      x y z
#    x 1.944130 0.000560 0.005720 
#    y 0.000560 1.943420 0.006090 
#    z 0.005720 0.006090 1.926840 
# 
# From -- ./inp_files/488447.got.cif
#   From: 2010.06.25/outbox.cif.g09.slc.cpg/sg2_245_cif.got.tgz:488447.got - 2010.06.27 13:26:56.
