data_PCOD8036173
_publ_section_title
;
Structure prediction by ZEFSAII (Michael W. Deem and Ramdas Pophale) SiO2 
 PCOD8036173
Probable space group: P -1
;
_chemical_formula_sum "Si O2"
_cell_formula_units_Z 16
_cell_length_a 23.165217
_cell_length_b 9.238846
_cell_length_c 9.258731
_cell_angle_alpha 127.170405
_cell_angle_beta 125.369945
_cell_angle_gamma 29.205547
_cell_volume 763.674923
_symmetry_space_group_name_H-M "P -1"
_symmetry_group_IT_number 2
_symmetry_cell_setting 'triclinic'
loop_
_space_group_symop_operation_xyz
x,y,z
-x,-y,-z
loop_
_atom_site_type_symbol
_atom_site_label
_atom_site_fract_x
_atom_site_fract_y
_atom_site_fract_z
Si Si1 0.682441 0.869387 0.039258
Si Si2 0.711142 0.414717 0.798203
Si Si3 0.136171 0.189399 0.176501
Si Si4 0.861229 0.805217 0.152589
Si Si5 0.479880 0.726249 0.192045
Si Si6 0.722418 0.389835 0.457430
Si Si7 0.460790 0.769842 0.675478
Si Si8 0.301186 0.170380 0.434111
O O1 0.781725 0.801183 0.085426
O O2 0.607405 0.125466 0.209794
O O3 0.741839 0.555643 0.981548
O O4 0.592791 0.994953 0.855406
O O5 0.722958 0.364485 0.613910
O O6 0.577237 0.649789 0.799130
O O7 0.804976 0.092029 0.817095
O O8 0.186687 0.279069 0.356025
O O9 0.996736 0.472805 0.179619
O O10 0.162465 0.105060 0.995178
O O11 0.830391 0.049255 0.344498
O O12 0.599310 0.577890 0.323108
O O13 0.397849 0.859139 0.292047
O O14 0.500000 0.500000 0.000000
O O15 0.742275 0.556702 0.541288
O O16 0.500000 0.500000 0.500000
O O17 0.365921 0.074182 0.622016
#
# Coordination Sequence:
#
# PCOD8036173 Si02
#       8
#     2   2   2   2   2   2   2   2
#     4  12  25  43  66  99 134 173 214 264 328 390
#     4  12  25  43  67  99 134 169 213 271 326 384
#     4  11  26  46  68  93 128 173 222 273 317 378
#     4  11  26  47  67  93 127 175 226 263 321 386
#     4  12  21  39  70  96 129 173 208 257 329 394
#     4  12  24  42  69  99 131 172 214 264 328 395
#     4  12  24  40  66 104 136 165 212 270 327 393
#     4  12  23  43  66  98 135 170 210 268 328 385
#
# _framework density 20.951322000000001
#
# number of rings (size 3 to 8) (size 9 to 14) (size 15 to 20)
#    0.000    0.250    6.250    3.000    3.500    1.500 
#    0.000    0.000    0.000    0.000    0.000    0.000 
#    0.000    0.000    0.000    0.000    0.000    0.000 
#
# Total GULP energy -198472.451499 kJ/mol
# GULP energy per Si atom -12404.528219 kJ/mol
# Density = 2.090364 g / cm^3
# Si number density = 20.951322 Si / 1000 Ang^3
#
#
#
# Elastic Constant Matrix: (Units=GPa)
#
#
# Indices 1 2 3 4 5 6 
#
# 1 129.6233 82.8945 49.2165 7.4035 -3.1655 5.4784
# 2 82.8945 126.7607 60.1090 -5.8660 -0.2771 1.0012
# 3 49.2165 60.1090 88.7108 8.1209 -3.1131 -4.6286
# 4 7.4035 -5.8660 8.1209 36.9387 9.5256 -5.3733
# 5 -3.1655 -0.2771 -3.1131 9.5256 34.3539 11.0712
# 6 5.4784 1.0012 -4.6286 -5.3733 11.0712 34.2846
#
#
#
# Elastic Compliance Matrix: (Units=1/GPa)
#
#
# Indices 1 2 3 4 5 6 
#
# 1 0.014797 -0.009164 -0.001556 -0.005843 0.004250 -0.004595
# 2 -0.009164 0.017917 -0.007803 0.007910 -0.004424 0.002556
# 3 -0.001556 -0.007803 0.018068 -0.005363 0.002510 0.001265
# 4 -0.005843 0.007910 -0.005363 0.035810 -0.014166 0.010165
# 5 0.004250 -0.004424 0.002510 -0.014166 0.038400 -0.014831
# 6 -0.004595 0.002556 0.001265 0.010165 -0.014831 0.036380
#
#
# Mechanical properties :
#
#
# Convention : Reuss Voigt Hill
#
# Bulk Modulus (GPa) = 72.79107 81.05941 76.92524
# Shear Modulus (GPa) = 24.63092 31.30710 27.96901
#
# Velocity S-wave (km/s) = 3.43246 3.86978 3.65766
# Velocity P-wave (km/s) = 7.10826 7.66423 7.39147
#
# Compressibility (1/GPa) = 0.01373795
#
# Stress axis : x y z
#
# Youngs Moduli (GPa) = 67.57961 55.81138 55.34668
#
# Poissons Ratio (x) = 0.51143 0.08613
# Poissons Ratio (y) = 0.61927 0.43185
# Poissons Ratio (z) = 0.10517 0.43548
#
# Static dielectric constant tensor:
#      x y z
#    x 3.625450 0.236480 -1.168230 
#    y 0.236480 3.833890 0.391480 
#    z -1.168230 0.391480 0.172190 
# 
# 
# High freq. dielectric constant tensor:
#      x y z
#    x 1.829650 0.011490 -0.007120 
#    y 0.011490 1.817180 0.002120 
#    z -0.007120 0.002120 1.829120 
# 
# From -- ./inp_files/206770.got.cif
#   From: 2010.06.25/outbox.cif.g09.slc.cpg/sg2_104_cif.got.tgz:206770.got - 2010.06.27 13:26:56.
