data_PCOD8036071
_publ_section_title
;
Structure prediction by ZEFSAII (Michael W. Deem and Ramdas Pophale) SiO2 
 PCOD8036071
Probable space group: P -1
;
_chemical_formula_sum "Si O2"
_cell_formula_units_Z 16
_cell_length_a 15.681608
_cell_length_b 5.090311
_cell_length_c 16.834617
_cell_angle_alpha 91.783634
_cell_angle_beta 34.454081
_cell_angle_gamma 75.976653
_cell_volume 669.135973
_symmetry_space_group_name_H-M "P -1"
_symmetry_group_IT_number 2
_symmetry_cell_setting 'triclinic'
loop_
_space_group_symop_operation_xyz
x,y,z
-x,-y,-z
loop_
_atom_site_type_symbol
_atom_site_label
_atom_site_fract_x
_atom_site_fract_y
_atom_site_fract_z
Si Si1 0.451092 0.835809 0.364760
Si Si2 0.082644 0.240200 0.373773
Si Si3 0.779229 0.969653 0.303880
Si Si4 0.003643 0.282566 0.135931
Si Si5 0.548329 0.452778 0.053982
Si Si6 0.755042 0.189314 0.620034
Si Si7 0.763323 0.773920 0.902748
Si Si8 0.670872 0.142630 0.215202
O O1 0.306012 0.927075 0.409697
O O2 0.588914 0.486394 0.254920
O O3 0.359658 0.956568 0.520158
O O4 0.552496 0.015591 0.267818
O O5 0.934587 0.166115 0.455798
O O6 0.000000 0.500000 0.500000
O O7 0.154486 0.353786 0.247555
O O8 0.230133 0.979035 0.308938
O O9 0.880156 0.616104 0.201648
O O10 0.897473 0.114486 0.242184
O O11 0.676037 0.134667 0.306075
O O12 0.092507 0.349857 0.142638
O O13 0.137294 0.062708 0.966327
O O14 0.617703 0.680419 0.031086
O O15 0.696839 0.124280 0.951932
O O16 0.500000 0.500000 0.000000
O O17 0.396078 0.490151 0.231583
#
# Coordination Sequence:
#
# PCOD8036071 Si02
#       8
#     2   2   2   2   2   2   2   2
#     4  12  26  44  71 100 138 174 226 275 334 397
#     4  11  26  42  67  92 136 176 222 269 331 387
#     4  12  25  45  72 101 136 176 221 275 342 400
#     4  12  25  44  71 102 137 175 224 278 331 398
#     4  12  24  44  66  95 129 180 226 267 328 380
#     4  11  26  43  65  98 131 177 221 274 326 391
#     4  12  26  44  68  98 134 175 225 271 324 391
#     4  12  25  47  70 102 135 177 220 277 338 406
#
# _framework density 23.911432000000001
#
# number of rings (size 3 to 8) (size 9 to 14) (size 15 to 20)
#    0.000    0.250    1.250    7.875    7.000    0.000 
#    0.000    0.000    0.000    0.000    0.000    0.000 
#    0.000    0.000    0.000    0.000    0.000    0.000 
#
# Total GULP energy -198420.703305 kJ/mol
# GULP energy per Si atom -12401.293957 kJ/mol
# Density = 2.385701 g / cm^3
# Si number density = 23.911432 Si / 1000 Ang^3
#
#
#
# Elastic Constant Matrix: (Units=GPa)
#
#
# Indices 1 2 3 4 5 6 
#
# 1 96.1406 15.6703 -1.7827 11.1908 0.8491 -3.2792
# 2 15.6703 82.4282 21.0622 2.3690 -10.3360 16.3705
# 3 -1.7827 21.0622 84.2334 17.9232 8.0266 -3.1181
# 4 11.1908 2.3690 17.9232 25.9120 2.2143 5.4449
# 5 0.8491 -10.3360 8.0266 2.2143 34.3173 -2.8332
# 6 -3.2792 16.3705 -3.1181 5.4449 -2.8332 33.9003
#
#
#
# Elastic Compliance Matrix: (Units=1/GPa)
#
#
# Indices 1 2 3 4 5 6 
#
# 1 0.012218 -0.004013 0.003270 -0.008019 -0.001379 0.004593
# 2 -0.004013 0.017029 -0.006574 0.006301 0.005553 -0.009764
# 3 0.003270 -0.006574 0.017211 -0.013770 -0.004629 0.006899
# 4 -0.008019 0.006301 -0.013770 0.053815 0.000716 -0.013669
# 5 -0.001379 0.005553 -0.004629 0.000716 0.031825 -0.000696
# 6 0.004593 -0.009764 0.006899 -0.013669 -0.000696 0.037429
#
#
# Mechanical properties :
#
#
# Convention : Reuss Voigt Hill
#
# Bulk Modulus (GPa) = 31.42320 36.96688 34.19504
# Shear Modulus (GPa) = 25.67112 34.01609 29.84360
#
# Velocity S-wave (km/s) = 3.28013 3.77581 3.53666
# Velocity P-wave (km/s) = 5.24554 5.87388 5.56858
#
# Compressibility (1/GPa) = 0.03182362
#
# Stress axis : x y z
#
# Youngs Moduli (GPa) = 81.84370 58.72348 58.10139
#
# Poissons Ratio (x) = 0.23566 -0.18998
# Poissons Ratio (y) = 0.32844 0.38197
# Poissons Ratio (z) = -0.26761 0.38606
#
# Static dielectric constant tensor:
#      x y z
#    x 4.950070 0.293470 0.234870 
#    y 0.293470 3.612840 0.429640 
#    z 0.234870 0.429640 3.974000 
# 
# 
# High freq. dielectric constant tensor:
#      x y z
#    x 1.964600 -0.001210 -0.000070 
#    y -0.001210 1.947540 0.005460 
#    z -0.000070 0.005460 1.962420 
# 
# From -- ./inp_files/525763.got.cif
#   From: 2010.06.25/outbox.cif.g09.slc.cpg/sg2_263_cif.got.tgz:525763.got - 2010.06.27 13:26:56.
