data_PCOD8036011
_publ_section_title
;
Structure prediction by ZEFSAII (Michael W. Deem and Ramdas Pophale) SiO2 
 PCOD8036011
Probable space group: P -1
;
_chemical_formula_sum "Si O2"
_cell_formula_units_Z 16
_cell_length_a 9.437688
_cell_length_b 15.491769
_cell_length_c 16.028323
_cell_angle_alpha 26.196934
_cell_angle_beta 76.582931
_cell_angle_gamma 94.312980
_cell_volume 756.000132
_symmetry_space_group_name_H-M "P -1"
_symmetry_group_IT_number 2
_symmetry_cell_setting 'triclinic'
loop_
_space_group_symop_operation_xyz
x,y,z
-x,-y,-z
loop_
_atom_site_type_symbol
_atom_site_label
_atom_site_fract_x
_atom_site_fract_y
_atom_site_fract_z
Si Si1 0.651340 0.489337 0.447618
Si Si2 0.205611 0.767948 0.764380
Si Si3 0.484656 0.256137 0.197314
Si Si4 0.476063 0.662704 0.069220
Si Si5 0.645546 0.046695 0.103065
Si Si6 0.823765 0.861783 0.959568
Si Si7 0.773007 0.934126 0.341788
Si Si8 0.040612 0.749445 0.250248
O O1 0.500000 0.500000 0.500000
O O2 0.837663 0.671189 0.323590
O O3 0.550782 0.187202 0.717365
O O4 0.707493 0.586523 0.260209
O O5 0.343067 0.701667 0.814583
O O6 0.284209 0.983828 0.494364
O O7 0.185296 0.871096 0.762162
O O8 0.000000 0.500000 0.000000
O O9 0.500000 0.500000 0.000000
O O10 0.496995 0.230890 0.119285
O O11 0.355848 0.356128 0.352526
O O12 0.357409 0.722249 0.085281
O O13 0.690695 0.827860 0.933633
O O14 0.654216 0.936095 0.284010
O O15 0.831609 0.142864 0.943268
O O16 0.855293 0.051272 0.861584
O O17 0.022968 0.967314 0.801897
O O18 0.000000 0.500000 0.500000
#
# Coordination Sequence:
#
# PCOD8036011 Si02
#       8
#     2   2   2   2   2   2   2   2
#     4  12  24  42  69  94 137 189 234 288 352 404
#     4  11  27  47  78 107 144 189 232 288 369 429
#     4  11  25  49  75 107 147 185 230 293 359 438
#     4  12  27  45  72 107 139 184 239 291 354 421
#     4  12  25  45  71  98 142 184 236 294 348 414
#     4  12  26  42  69 101 139 187 234 287 352 414
#     4  12  25  47  69 105 143 179 232 297 350 420
#     4  12  26  44  65 100 139 187 241 286 347 420
#
# _framework density 21.164019
#
# number of rings (size 3 to 8) (size 9 to 14) (size 15 to 20)
#    0.000    0.250    6.250    2.625    3.500    3.500 
#    2.250    0.000    0.000    0.000    0.000    0.000 
#    0.000    0.000    0.000    0.000    0.000    0.000 
#
# Total GULP energy -198448.641811 kJ/mol
# GULP energy per Si atom -12403.040113 kJ/mol
# Density = 2.111585 g / cm^3
# Si number density = 21.164019 Si / 1000 Ang^3
#
#
#
# Elastic Constant Matrix: (Units=GPa)
#
#
# Indices 1 2 3 4 5 6 
#
# 1 91.3203 26.1760 37.5563 -13.0479 -3.6804 0.4288
# 2 26.1760 105.7764 55.2771 -14.0024 -6.3873 -9.2556
# 3 37.5563 55.2771 126.7200 -8.0111 3.4628 10.9325
# 4 -13.0479 -14.0024 -8.0111 42.0330 -0.4711 1.8090
# 5 -3.6804 -6.3873 3.4628 -0.4711 37.7270 -6.7321
# 6 0.4288 -9.2556 10.9325 1.8090 -6.7321 35.7917
#
#
#
# Elastic Compliance Matrix: (Units=1/GPa)
#
#
# Indices 1 2 3 4 5 6 
#
# 1 0.013115 -0.000876 -0.003423 0.003111 0.001629 0.000811
# 2 -0.000876 0.014204 -0.006396 0.003018 0.004059 0.006248
# 3 -0.003423 -0.006396 0.012273 -0.000636 -0.003624 -0.006011
# 4 0.003111 0.003018 -0.000636 0.025660 0.001168 -0.000140
# 5 0.001629 0.004059 -0.003624 0.001168 0.029045 0.007541
# 6 0.000811 0.006248 -0.006011 -0.000140 0.007541 0.032807
#
#
# Mechanical properties :
#
#
# Convention : Reuss Voigt Hill
#
# Bulk Modulus (GPa) = 54.93263 62.42619 58.67941
# Shear Modulus (GPa) = 32.34955 36.76414 34.55684
#
# Velocity S-wave (km/s) = 3.91387 4.17238 4.04519
# Velocity P-wave (km/s) = 6.81443 7.26444 7.04303
#
# Compressibility (1/GPa) = 0.01820412
#
# Stress axis : x y z
#
# Youngs Moduli (GPa) = 76.24580 70.40149 81.47828
#
# Poissons Ratio (x) = 0.06166 0.27889
# Poissons Ratio (y) = 0.06677 0.52111
# Poissons Ratio (z) = 0.26098 0.45027
#
# Static dielectric constant tensor:
#      x y z
#    x 3.799510 0.038120 0.074720 
#    y 0.038120 4.040940 -0.006550 
#    z 0.074720 -0.006550 4.095040 
# 
# 
# High freq. dielectric constant tensor:
#      x y z
#    x 1.836110 -0.003360 0.001630 
#    y -0.003360 1.839380 -0.000380 
#    z 0.001630 -0.000380 1.845860 
# 
# From -- ./inp_files/112376.got.cif
#   From: 2010.06.25/outbox.cif.g09.slc.cpg/sg2_57_cif.got.tgz:112376.got - 2010.06.27 13:26:56.
