data_PCOD8036921
_publ_section_title
;
Structure prediction by ZEFSAII (Michael W. Deem and Ramdas Pophale) SiO2 
 PCOD8036921
Probable space group: P -1
;
_chemical_formula_sum "Si O2"
_cell_formula_units_Z 16
_cell_length_a 26.733400
_cell_length_b 8.810666
_cell_length_c 12.270303
_cell_angle_alpha 143.952678
_cell_angle_beta 29.722532
_cell_angle_gamma 151.296935
_cell_volume 674.766551
_symmetry_space_group_name_H-M "P -1"
_symmetry_group_IT_number 2
_symmetry_cell_setting 'triclinic'
loop_
_space_group_symop_operation_xyz
x,y,z
-x,-y,-z
loop_
_atom_site_type_symbol
_atom_site_label
_atom_site_fract_x
_atom_site_fract_y
_atom_site_fract_z
Si Si1 0.382295 0.416035 0.410325
Si Si2 0.934434 0.669353 0.745196
Si Si3 0.776766 0.416407 0.111236
Si Si4 0.496712 0.205273 0.798281
Si Si5 0.585916 0.608789 0.296683
Si Si6 0.909761 0.587808 0.175894
Si Si7 0.299438 0.731186 0.190969
Si Si8 0.291014 0.761300 0.480183
O O1 0.258025 0.335592 0.658747
O O2 0.408097 0.652720 0.401389
O O3 0.510409 0.647674 0.370303
O O4 0.356622 0.079082 0.232172
O O5 0.827511 0.545690 0.786878
O O6 0.000000 0.500000 0.500000
O O7 0.882200 0.572301 0.909993
O O8 0.022779 0.052458 0.787393
O O9 0.830284 0.363892 0.090426
O O10 0.647713 0.086422 0.122134
O O11 0.567119 0.133045 0.711164
O O12 0.500000 0.500000 0.000000
O O13 0.500000 0.500000 0.500000
O O14 0.712980 0.954799 0.293389
O O15 0.603429 0.348711 0.065966
O O16 0.821026 0.550980 0.422926
O O17 0.000000 0.500000 0.000000
O O18 0.268378 0.724844 0.373099
#
# Coordination Sequence:
#
# PCOD8036921 Si02
#       8
#     2   2   2   2   2   2   2   2
#     4  12  23  44  76 112 154 196 251 308 392 472
#     4  12  30  53  76 110 152 213 275 320 379 458
#     4  12  26  51  81 110 156 207 260 323 391 469
#     4  12  26  44  74 117 154 194 246 319 395 467
#     4  12  24  44  72 113 156 196 246 307 392 472
#     4  12  29  51  79 109 151 209 269 324 383 452
#     4  12  28  46  76 112 155 206 255 314 385 464
#     4  12  27  49  75 115 157 196 253 320 397 463
#
# _framework density 23.711905000000002
#
# number of rings (size 3 to 8) (size 9 to 14) (size 15 to 20)
#    0.000    0.000    3.750    5.625    7.000    1.500 
#    0.000    0.000    0.000    0.000    0.000    0.000 
#    0.000    0.000    0.000    0.000    0.000    0.000 
#
# Total GULP energy -198312.821771 kJ/mol
# GULP energy per Si atom -12394.551361 kJ/mol
# Density = 2.365794 g / cm^3
# Si number density = 23.711905 Si / 1000 Ang^3
#
#
#
# Elastic Constant Matrix: (Units=GPa)
#
#
# Indices 1 2 3 4 5 6 
#
# 1 113.1965 17.7440 23.3264 2.9807 -7.3824 4.9739
# 2 17.7440 96.1631 28.8681 -4.2725 8.6493 -11.4533
# 3 23.3264 28.8681 127.9562 7.3925 -0.8495 -15.3216
# 4 2.9807 -4.2725 7.3925 40.6345 -1.7483 1.7896
# 5 -7.3824 8.6493 -0.8495 -1.7483 38.8224 -1.5202
# 6 4.9739 -11.4533 -15.3216 1.7896 -1.5202 38.5803
#
#
#
# Elastic Compliance Matrix: (Units=1/GPa)
#
#
# Indices 1 2 3 4 5 6 
#
# 1 0.009695 -0.001791 -0.001603 -0.000416 0.002098 -0.002316
# 2 -0.001791 0.012037 -0.002168 0.001545 -0.002892 0.002758
# 3 -0.001603 -0.002168 0.009101 -0.001893 0.000421 0.003282
# 4 -0.000416 0.001545 -0.001893 0.025235 0.000617 -0.001385
# 5 0.002098 -0.002892 0.000421 0.000617 0.026841 0.000067
# 6 -0.002316 0.002758 0.003282 -0.001385 0.000067 0.028408
#
#
# Mechanical properties :
#
#
# Convention : Reuss Voigt Hill
#
# Bulk Modulus (GPa) = 50.73159 53.02142 51.87650
# Shear Modulus (GPa) = 38.75681 41.43258 40.09469
#
# Velocity S-wave (km/s) = 4.04727 4.18465 4.11653
# Velocity P-wave (km/s) = 6.57890 6.76443 6.67231
#
# Compressibility (1/GPa) = 0.01971158
#
# Stress axis : x y z
#
# Youngs Moduli (GPa) = 103.14895 83.07440 109.87203
#
# Poissons Ratio (x) = 0.14876 0.17609
# Poissons Ratio (y) = 0.18471 0.23815
# Poissons Ratio (z) = 0.16532 0.18007
#
# Static dielectric constant tensor:
#      x y z
#    x 31.481980 -6.623010 -20.826770 
#    y -6.623010 5.319340 5.840550 
#    z -20.826770 5.840550 19.931520 
# 
# 
# High freq. dielectric constant tensor:
#      x y z
#    x 1.955630 0.000070 0.006020 
#    y 0.000070 1.944640 0.002310 
#    z 0.006020 0.002310 1.949060 
# 
# From -- ./inp_files/476405.got.cif
#   From: 2010.06.25/outbox.cif.g09.slc.cpg/sg2_239_cif.got.tgz:476405.got - 2010.06.27 13:26:56.
