data_PCOD8036845
_publ_section_title
;
Structure prediction by ZEFSAII (Michael W. Deem and Ramdas Pophale) SiO2 
 PCOD8036845
Probable space group: P -1
;
_chemical_formula_sum "Si O2"
_cell_formula_units_Z 16
_cell_length_a 14.956819
_cell_length_b 12.657457
_cell_length_c 9.739336
_cell_angle_alpha 33.604906
_cell_angle_beta 133.854376
_cell_angle_gamma 134.602392
_cell_volume 698.757522
_symmetry_space_group_name_H-M "P -1"
_symmetry_group_IT_number 2
_symmetry_cell_setting 'triclinic'
loop_
_space_group_symop_operation_xyz
x,y,z
-x,-y,-z
loop_
_atom_site_type_symbol
_atom_site_label
_atom_site_fract_x
_atom_site_fract_y
_atom_site_fract_z
Si Si1 0.249840 0.580441 0.617714
Si Si2 0.865272 0.169909 0.970514
Si Si3 0.734008 0.729210 0.224342
Si Si4 0.462869 0.200463 0.255031
Si Si5 0.666164 0.805741 0.600602
Si Si6 0.224568 0.782103 0.875238
Si Si7 0.148250 0.452120 0.933695
Si Si8 0.421315 0.607189 0.390320
O O1 0.230194 0.752811 0.311623
O O2 0.197547 0.362277 0.724413
O O3 0.404703 0.618833 0.767424
O O4 0.172991 0.574896 0.683811
O O5 0.013673 0.273769 0.972528
O O6 0.848553 0.213254 0.065102
O O7 0.834016 0.932344 0.170106
O O8 0.700081 0.562524 0.487949
O O9 0.598394 0.760532 0.996439
O O10 0.347721 0.172487 0.274668
O O11 0.500000 0.000000 0.500000
O O12 0.518243 0.744773 0.455334
O O13 0.754683 0.012117 0.405842
O O14 0.733430 0.637407 0.817871
O O15 0.138596 0.600649 0.884993
O O16 0.365047 0.753463 0.082319
O O17 0.500000 0.500000 0.500000
#
# Coordination Sequence:
#
# PCOD8036845 Si02
#       8
#     2   2   2   2   2   2   2   2
#     4  12  24  48  73 105 141 182 235 294 355 416
#     4  12  28  48  71 102 140 195 241 287 342 415
#     4  12  25  44  72 103 146 183 231 292 356 416
#     4  12  23  42  73 106 143 176 224 292 362 419
#     4  12  25  45  70 108 140 180 230 288 361 421
#     4  12  27  47  72 104 143 185 239 291 354 415
#     4  12  28  48  72 102 142 190 242 288 345 418
#     4  12  24  43  71 104 140 179 229 289 355 423
#
# _framework density 22.897784999999999
#
# number of rings (size 3 to 8) (size 9 to 14) (size 15 to 20)
#    0.000    0.000    6.250    3.750    1.750    2.000 
#    0.000    0.000    0.000    0.000    0.000    0.000 
#    0.000    0.000    0.000    0.000    0.000    0.000 
#
# Total GULP energy -198506.864518 kJ/mol
# GULP energy per Si atom -12406.679032 kJ/mol
# Density = 2.284567 g / cm^3
# Si number density = 22.897785 Si / 1000 Ang^3
#
#
#
# Elastic Constant Matrix: (Units=GPa)
#
#
# Indices 1 2 3 4 5 6 
#
# 1 101.0325 33.5411 15.5433 1.0498 -25.2908 -7.1125
# 2 33.5411 127.9538 22.6922 -12.5940 -13.4933 -5.5047
# 3 15.5433 22.6922 70.0476 -12.1042 -18.4408 -4.0059
# 4 1.0498 -12.5940 -12.1042 33.1951 -1.8939 2.3688
# 5 -25.2908 -13.4933 -18.4408 -1.8939 31.8443 -2.7565
# 6 -7.1125 -5.5047 -4.0059 2.3688 -2.7565 44.9947
#
#
#
# Elastic Compliance Matrix: (Units=1/GPa)
#
#
# Indices 1 2 3 4 5 6 
#
# 1 0.013336 -0.002501 0.000482 -0.000804 0.009980 0.002499
# 2 -0.002501 0.009197 -0.001543 0.003040 0.001242 0.000509
# 3 0.000482 -0.001543 0.018915 0.006803 0.011252 0.001903
# 4 -0.000804 0.003040 0.006803 0.034199 0.006576 -0.000547
# 5 0.009980 0.001242 0.011252 0.006576 0.047219 0.005278
# 6 0.002499 0.000509 0.001903 -0.000547 0.005278 0.023204
#
#
# Mechanical properties :
#
#
# Convention : Reuss Voigt Hill
#
# Bulk Modulus (GPa) = 29.13284 49.17636 39.15460
# Shear Modulus (GPa) = 30.37035 37.15730 33.76383
#
# Velocity S-wave (km/s) = 3.64585 4.03270 3.84415
# Velocity P-wave (km/s) = 5.52029 6.57318 6.06961
#
# Compressibility (1/GPa) = 0.03432552
#
# Stress axis : x y z
#
# Youngs Moduli (GPa) = 74.98376 108.73650 52.86672
#
# Poissons Ratio (x) = 0.27190 -0.02549
# Poissons Ratio (y) = 0.18750 0.08157
# Poissons Ratio (z) = -0.03615 0.16778
#
# Static dielectric constant tensor:
#      x y z
#    x 3.925340 -0.151010 -0.115270 
#    y -0.151010 4.158470 0.043260 
#    z -0.115270 0.043260 4.248930 
# 
# 
# High freq. dielectric constant tensor:
#      x y z
#    x 1.898930 -0.015710 -0.007460 
#    y -0.015710 1.905110 -0.005580 
#    z -0.007460 -0.005580 1.914940 
# 
# From -- ./inp_files/306369.got.cif
#   From: 2010.06.25/outbox.cif.g09.slc.cpg/sg2_154_cif.got.tgz:306369.got - 2010.06.27 13:26:56.
