data_PCOD8036557
_publ_section_title
;
Structure prediction by ZEFSAII (Michael W. Deem and Ramdas Pophale) SiO2 
 PCOD8036557
Probable space group: P -1
;
_chemical_formula_sum "Si O2"
_cell_formula_units_Z 14
_cell_length_a 15.226063
_cell_length_b 26.343123
_cell_length_c 26.050668
_cell_angle_alpha 11.079622
_cell_angle_beta 18.795683
_cell_angle_gamma 17.884138
_cell_volume 602.123731
_symmetry_space_group_name_H-M "P -1"
_symmetry_group_IT_number 2
_symmetry_cell_setting 'triclinic'
loop_
_space_group_symop_operation_xyz
x,y,z
-x,-y,-z
loop_
_atom_site_type_symbol
_atom_site_label
_atom_site_fract_x
_atom_site_fract_y
_atom_site_fract_z
Si Si1 0.700010 0.180436 0.203287
Si Si2 0.524946 0.234462 0.715078
Si Si3 0.859867 0.129532 0.274384
Si Si4 0.985731 0.992102 0.905686
Si Si5 0.354815 0.375683 0.559470
Si Si6 0.016841 0.736629 0.718260
Si Si7 0.592326 0.761131 0.839367
O O1 0.918715 0.137473 0.173153
O O2 0.878822 0.126103 0.106590
O O3 0.500000 0.000000 0.500000
O O4 0.500000 0.500000 0.000000
O O5 0.500000 0.500000 0.500000
O O6 0.301073 0.352180 0.674216
O O7 0.828779 0.081670 0.666850
O O8 0.500000 0.000000 0.000000
O O9 0.627919 0.976546 0.563068
O O10 0.751884 0.434809 0.058271
O O11 0.238213 0.858635 0.942104
O O12 0.864988 0.330954 0.634255
O O13 0.723872 0.873221 0.178312
O O14 0.680876 0.364562 0.379810
O O15 0.734796 0.817605 0.756775
O O16 0.000000 0.000000 0.500000
O O17 0.000000 0.500000 0.000000
#
# Coordination Sequence:
#
# PCOD8036557 Si02
#       7
#     2   2   2   2   2   2   2
#     4  12  21  37  60 100 150 196 241 269 329 424
#     4  12  25  41  65 101 150 195 238 287 346 418
#     4  12  22  40  67  98 143 193 244 282 332 415
#     4  12  25  44  69 107 151 192 228 296 357 412
#     4  12  26  47  72 106 147 184 240 301 359 425
#     4  12  28  53  81 105 133 184 245 308 379 437
#     4  12  25  46  73 102 139 183 238 293 357 430
#
# _framework density 23.251035999999999
#
# number of rings (size 3 to 8) (size 9 to 14) (size 15 to 20)
#    0.000    0.000    4.286    6.857    2.000    0.000 
#    0.000    4.286    0.000    0.000    0.000    0.000 
#    0.000    0.000    0.000    0.000    0.000    0.000 
#
# Total GULP energy -173537.749989 kJ/mol
# GULP energy per Si atom -12395.553571 kJ/mol
# Density = 2.319812 g / cm^3
# Si number density = 23.251036 Si / 1000 Ang^3
#
#
#
# Elastic Constant Matrix: (Units=GPa)
#
#
# Indices 1 2 3 4 5 6 
#
# 1 108.9271 49.0217 36.2706 -0.1347 -0.7918 -31.3620
# 2 49.0217 79.6468 41.1057 -11.3160 -1.3862 -21.3946
# 3 36.2706 41.1057 174.1547 -18.5845 -2.6633 -9.4766
# 4 -0.1347 -11.3160 -18.5845 49.5462 2.1995 -3.0737
# 5 -0.7918 -1.3862 -2.6633 2.1995 36.2016 3.3449
# 6 -31.3620 -21.3946 -9.4766 -3.0737 3.3449 37.6423
#
#
#
# Elastic Compliance Matrix: (Units=1/GPa)
#
#
# Indices 1 2 3 4 5 6 
#
# 1 0.014932 -0.006485 -0.001280 -0.001369 -0.000707 0.008384
# 2 -0.006485 0.019976 -0.002645 0.003917 -0.000330 0.005634
# 3 -0.001280 -0.002645 0.006799 0.001883 0.000324 -0.000733
# 4 -0.001369 0.003917 0.001883 0.022059 -0.001404 0.003486
# 5 -0.000707 -0.000330 0.000324 -0.001404 0.028009 -0.003299
# 6 0.008384 0.005634 -0.000733 0.003486 -0.003299 0.037146
#
#
# Mechanical properties :
#
#
# Convention : Reuss Voigt Hill
#
# Bulk Modulus (GPa) = 47.87489 68.39163 58.13326
# Shear Modulus (GPa) = 31.90760 40.43339 36.17050
#
# Velocity S-wave (km/s) = 3.70849 4.17465 3.94845
# Velocity P-wave (km/s) = 6.24278 7.26052 6.77080
#
# Compressibility (1/GPa) = 0.02088777
#
# Stress axis : x y z
#
# Youngs Moduli (GPa) = 66.96998 50.06045 147.08376
#
# Poissons Ratio (x) = 0.32463 0.18826
# Poissons Ratio (y) = 0.43428 0.38901
# Poissons Ratio (z) = 0.08572 0.13240
#
# Static dielectric constant tensor:
#      x y z
#    x 4.350620 -0.381150 -0.014160 
#    y -0.381150 4.316760 0.192180 
#    z -0.014160 0.192180 4.423630 
# 
# 
# High freq. dielectric constant tensor:
#      x y z
#    x 1.915750 -0.024060 0.000080 
#    y -0.024060 1.916890 -0.002610 
#    z 0.000080 -0.002610 1.942500 
# 
# From -- ./inp_files/534295.got.cif
#   From: 2010.06.25/outbox.cif.g09.slc.cpg/sg2_268_cif.got.tgz:534295.got - 2010.06.27 13:26:56.
