data_PCOD8036446
_publ_section_title
;
Structure prediction by ZEFSAII (Michael W. Deem and Ramdas Pophale) SiO2 
 PCOD8036446
Probable space group: P -1
;
_chemical_formula_sum "Si O2"
_cell_formula_units_Z 12
_cell_length_a 22.341096
_cell_length_b 12.725317
_cell_length_c 5.144191
_cell_angle_alpha 83.385046
_cell_angle_beta 83.262255
_cell_angle_gamma 19.501574
_cell_volume 484.805391
_symmetry_space_group_name_H-M "P -1"
_symmetry_group_IT_number 2
_symmetry_cell_setting 'triclinic'
loop_
_space_group_symop_operation_xyz
x,y,z
-x,-y,-z
loop_
_atom_site_type_symbol
_atom_site_label
_atom_site_fract_x
_atom_site_fract_y
_atom_site_fract_z
Si Si1 0.342934 0.249542 0.709987
Si Si2 0.465633 0.875428 0.124394
Si Si3 0.036031 0.056967 0.388714
Si Si4 0.230164 0.786642 0.873433
Si Si5 0.785880 0.850293 0.530050
Si Si6 0.312383 0.866639 0.991562
O O1 0.373920 0.306917 0.840464
O O2 0.145872 0.574713 0.594912
O O3 0.500000 0.000000 0.500000
O O4 0.356404 0.114723 0.885805
O O5 0.565844 0.597991 0.080376
O O6 0.311812 0.099679 0.353464
O O7 0.183192 0.858590 0.571451
O O8 0.000000 0.000000 0.500000
O O9 0.101990 0.936500 0.093213
O O10 0.188125 0.976291 0.925759
O O11 0.000000 0.500000 0.500000
O O12 0.702779 0.013762 0.243679
O O13 0.740671 0.010991 0.728051
O O14 0.500000 0.500000 0.000000
#
# Coordination Sequence:
#
# PCOD8036446 Si02
#       6
#     2   2   2   2   2   2
#     4  11  27  46  75 109 154 198 250 309 391 457
#     4  11  27  47  75 109 152 203 249 317 386 453
#     4  12  26  45  75 109 149 195 255 309 380 449
#     4  12  27  47  76 108 152 196 252 317 375 450
#     4  12  29  51  79 114 157 199 259 319 388 455
#     4  12  27  50  78 112 146 205 261 311 381 456
#
# _framework density 24.752200999999999
#
# number of rings (size 3 to 8) (size 9 to 14) (size 15 to 20)
#    0.000    0.333    3.333    3.500   11.667    1.333 
#    0.000    0.000    0.000    0.000    0.000    0.000 
#    0.000    0.000    0.000    0.000    0.000    0.000 
#
# Total GULP energy -148693.933071 kJ/mol
# GULP energy per Si atom -12391.161089 kJ/mol
# Density = 2.469586 g / cm^3
# Si number density = 24.752201 Si / 1000 Ang^3
#
#
#
# Elastic Constant Matrix: (Units=GPa)
#
#
# Indices 1 2 3 4 5 6 
#
# 1 67.0438 3.1180 -7.8552 -5.5919 -21.2302 5.6532
# 2 3.1180 178.3851 57.4955 -4.8990 -20.4305 -4.7949
# 3 -7.8552 57.4955 98.9728 -3.7420 -19.3618 -1.7906
# 4 -5.5919 -4.8990 -3.7420 52.1894 2.1371 -1.3604
# 5 -21.2302 -20.4305 -19.3618 2.1371 55.1284 5.2857
# 6 5.6532 -4.7949 -1.7906 -1.3604 5.2857 36.1682
#
#
#
# Elastic Compliance Matrix: (Units=1/GPa)
#
#
# Indices 1 2 3 4 5 6 
#
# 1 0.018490 -0.000515 0.003412 0.001729 0.008440 -0.003958
# 2 -0.000515 0.007008 -0.003902 0.000302 0.000951 0.000689
# 3 0.003412 -0.003902 0.013571 0.000753 0.004704 -0.001038
# 4 0.001729 0.000302 0.000753 0.019432 0.000240 0.000503
# 5 0.008440 0.000951 0.004704 0.000240 0.023810 -0.004431
# 6 -0.003958 0.000689 -0.001038 0.000503 -0.004431 0.028974
#
#
# Mechanical properties :
#
#
# Convention : Reuss Voigt Hill
#
# Bulk Modulus (GPa) = 26.98455 49.99092 38.48774
# Shear Modulus (GPa) = 39.79333 48.14009 43.96671
#
# Velocity S-wave (km/s) = 4.01392 4.41487 4.21916
# Velocity P-wave (km/s) = 5.69277 6.79915 6.27041
#
# Compressibility (1/GPa) = 0.03705824
#
# Stress axis : x y z
#
# Youngs Moduli (GPa) = 54.08349 142.68816 73.68396
#
# Poissons Ratio (x) = 0.07349 -0.25138
# Poissons Ratio (y) = 0.02785 0.28754
# Poissons Ratio (z) = -0.18451 0.55681
#
# Static dielectric constant tensor:
#      x y z
#    x 11.290600 -0.060500 5.285710 
#    y -0.060500 4.628550 -0.594820 
#    z 5.285710 -0.594820 8.335020 
# 
# 
# High freq. dielectric constant tensor:
#      x y z
#    x 2.004590 0.000170 -0.008150 
#    y 0.000170 1.988330 -0.002490 
#    z -0.008150 -0.002490 1.990810 
# 
# From -- ./inp_files/69747.got.cif
#   From: 2010.06.25/outbox.cif.g09.slc.cpg/sg2_35_cif.got.tgz:69747.got - 2010.06.27 13:26:56.
