data_PCOD8036261
_publ_section_title
;
Structure prediction by ZEFSAII (Michael W. Deem and Ramdas Pophale) SiO2 
 PCOD8036261
Probable space group: P -1
;
_chemical_formula_sum "Si O2"
_cell_formula_units_Z 16
_cell_length_a 13.792184
_cell_length_b 9.514629
_cell_length_c 8.279976
_cell_angle_alpha 103.635053
_cell_angle_beta 79.337218
_cell_angle_gamma 139.205878
_cell_volume 689.852858
_symmetry_space_group_name_H-M "P -1"
_symmetry_group_IT_number 2
_symmetry_cell_setting 'triclinic'
loop_
_space_group_symop_operation_xyz
x,y,z
-x,-y,-z
loop_
_atom_site_type_symbol
_atom_site_label
_atom_site_fract_x
_atom_site_fract_y
_atom_site_fract_z
Si Si1 0.899570 0.996071 0.934920
Si Si2 0.378108 0.750159 0.819676
Si Si3 0.627892 0.553010 0.389428
Si Si4 0.037990 0.408362 0.845339
Si Si5 0.195617 0.362119 0.345489
Si Si6 0.933955 0.274614 0.496825
Si Si7 0.704759 0.894267 0.241827
Si Si8 0.563250 0.214409 0.811652
O O1 0.803518 0.789890 0.789906
O O2 0.797070 0.984546 0.073769
O O3 0.018979 0.233866 0.886667
O O4 0.000000 0.000000 0.000000
O O5 0.441280 0.663920 0.728357
O O6 0.208161 0.603952 0.786156
O O7 0.476597 0.969199 0.741928
O O8 0.390535 0.758657 0.010595
O O9 0.500000 0.500000 0.500000
O O10 0.749065 0.622624 0.492191
O O11 0.700336 0.730884 0.277831
O O12 0.922813 0.268398 0.692873
O O13 0.000000 0.500000 0.000000
O O14 0.292353 0.594244 0.290134
O O15 0.033229 0.251719 0.390124
O O16 0.000000 0.500000 0.500000
O O17 0.775707 0.081041 0.403866
O O18 0.544462 0.771359 0.198433
#
# Coordination Sequence:
#
# PCOD8036261 Si02
#       8
#     2   2   2   2   2   2   2   2
#     4  12  25  43  74 105 142 186 238 292 354 426
#     4  11  26  47  73 101 145 193 240 295 357 432
#     4  12  26  46  69 105 144 188 237 294 363 423
#     4  12  26  49  74 105 143 189 245 298 358 424
#     4  12  26  46  74 106 144 192 237 302 363 423
#     4  12  27  46  74 108 143 186 246 301 359 426
#     4  12  26  47  72 108 144 188 240 297 359 428
#     4  11  26  48  72 103 146 189 240 292 361 429
#
# _framework density 23.193351
#
# number of rings (size 3 to 8) (size 9 to 14) (size 15 to 20)
#    0.000    0.250    3.750    5.250    3.500    3.500 
#    2.250    0.000    0.000    0.000    0.000    0.000 
#    0.000    0.000    0.000    0.000    0.000    0.000 
#
# Total GULP energy -198317.674575 kJ/mol
# GULP energy per Si atom -12394.854661 kJ/mol
# Density = 2.314056 g / cm^3
# Si number density = 23.193351 Si / 1000 Ang^3
#
#
#
# Elastic Constant Matrix: (Units=GPa)
#
#
# Indices 1 2 3 4 5 6 
#
# 1 59.5252 5.3404 0.5077 -2.8120 -2.9468 -10.2923
# 2 5.3404 123.1384 14.5610 9.2834 -5.4160 -28.9787
# 3 0.5077 14.5610 80.4544 5.5618 -9.9487 -7.1439
# 4 -2.8120 9.2834 5.5618 32.9694 -9.6719 0.3013
# 5 -2.9468 -5.4160 -9.9487 -9.6719 43.8572 -2.7409
# 6 -10.2923 -28.9787 -7.1439 0.3013 -2.7409 46.5708
#
#
#
# Elastic Compliance Matrix: (Units=1/GPa)
#
#
# Indices 1 2 3 4 5 6 
#
# 1 0.017692 0.000103 0.000345 0.001962 0.001970 0.004130
# 2 0.000103 0.009885 -0.000976 -0.002415 0.000854 0.006090
# 3 0.000345 -0.000976 0.013168 -0.001127 0.002745 0.001657
# 4 0.001962 -0.002415 -0.001127 0.033396 0.006877 -0.001053
# 5 0.001970 0.000854 0.002745 0.006877 0.025356 0.002836
# 6 0.004130 0.006090 0.001657 -0.001053 0.002836 0.026603
#
#
# Mechanical properties :
#
#
# Convention : Reuss Voigt Hill
#
# Bulk Modulus (GPa) = 25.19753 33.77070 29.48412
# Shear Modulus (GPa) = 35.61608 40.86005 38.23807
#
# Velocity S-wave (km/s) = 3.92294 4.20183 4.06478
# Velocity P-wave (km/s) = 5.60420 6.17516 5.89660
#
# Compressibility (1/GPa) = 0.03968642
#
# Stress axis : x y z
#
# Youngs Moduli (GPa) = 56.52336 101.16709 75.93916
#
# Poissons Ratio (x) = -0.01038 -0.02616
# Poissons Ratio (y) = -0.00580 0.07414
# Poissons Ratio (z) = -0.01947 0.09877
#
# Static dielectric constant tensor:
#      x y z
#    x 21.212600 -8.989740 -10.413120 
#    y -8.989740 9.253390 5.867020 
#    z -10.413120 5.867020 10.844640 
# 
# 
# High freq. dielectric constant tensor:
#      x y z
#    x 1.922790 -0.014530 0.009500 
#    y -0.014530 1.928160 0.003360 
#    z 0.009500 0.003360 1.927180 
# 
# From -- ./inp_files/209349.got.cif
#   From: 2010.06.25/outbox.cif.g09.slc.cpg/sg2_105_cif.got.tgz:209349.got - 2010.06.27 13:26:56.
