data_PCOD8036331
_publ_section_title
;
Structure prediction by ZEFSAII (Michael W. Deem and Ramdas Pophale) SiO2 
 PCOD8036331
Probable space group: P -1
;
_chemical_formula_sum "Si O2"
_cell_formula_units_Z 16
_cell_length_a 23.434221
_cell_length_b 9.383633
_cell_length_c 4.951201
_cell_angle_alpha 98.171842
_cell_angle_beta 112.557044
_cell_angle_gamma 130.600110
_cell_volume 633.136502
_symmetry_space_group_name_H-M "P -1"
_symmetry_group_IT_number 2
_symmetry_cell_setting 'triclinic'
loop_
_space_group_symop_operation_xyz
x,y,z
-x,-y,-z
loop_
_atom_site_type_symbol
_atom_site_label
_atom_site_fract_x
_atom_site_fract_y
_atom_site_fract_z
Si Si1 0.381059 0.960627 0.256295
Si Si2 0.058043 0.480259 0.252812
Si Si3 0.107883 0.188909 0.638850
Si Si4 0.604570 0.718782 0.860212
Si Si5 0.824694 0.379991 0.013649
Si Si6 0.326027 0.311508 0.520858
Si Si7 0.437184 0.787908 0.022842
Si Si8 0.875916 0.960425 0.883369
O O1 0.369567 0.777261 0.068540
O O2 0.377694 0.077148 0.050375
O O3 0.486470 0.163315 0.643529
O O4 0.292154 0.843816 0.263916
O O5 0.120898 0.633546 0.678536
O O6 0.134728 0.557187 0.197362
O O7 0.000000 0.500000 0.000000
O O8 0.978556 0.225151 0.146903
O O9 0.157388 0.430801 0.787015
O O10 0.112490 0.149133 0.329662
O O11 0.158298 0.163998 0.921994
O O12 0.000000 0.000000 0.500000
O O13 0.500000 0.500000 0.500000
O O14 0.675305 0.753928 0.801830
O O15 0.613166 0.684087 0.174402
O O16 0.215351 0.103289 0.377057
O O17 0.368826 0.551827 0.677263
O O18 0.500000 0.000000 0.000000
#
# Coordination Sequence:
#
# PCOD8036331 Si02
#       8
#     2   2   2   2   2   2   2   2
#     4  11  28  45  74 106 144 189 236 295 359 429
#     4  12  27  46  67  99 145 185 233 283 346 408
#     4  12  22  44  69  99 135 176 231 283 348 395
#     4  12  26  49  73 104 143 186 240 292 354 419
#     4  12  27  44  73 102 138 184 233 287 346 422
#     4  12  28  46  76 105 142 189 239 291 353 428
#     4  11  26  48  73 105 149 185 235 297 366 420
#     4  12  25  44  71 100 138 182 228 289 344 412
#
# _framework density 25.271015999999999
#
# number of rings (size 3 to 8) (size 9 to 14) (size 15 to 20)
#    0.000    0.250    3.750    4.125   10.500    0.000 
#    0.000    0.000    0.000    0.000    0.000    0.000 
#    0.000    0.000    0.000    0.000    0.000    0.000 
#
# Total GULP energy -198359.323360 kJ/mol
# GULP energy per Si atom -12397.457710 kJ/mol
# Density = 2.521350 g / cm^3
# Si number density = 25.271016 Si / 1000 Ang^3
#
#
#
# Elastic Constant Matrix: (Units=GPa)
#
#
# Indices 1 2 3 4 5 6 
#
# 1 88.5335 14.8943 15.4198 8.9376 15.1559 9.0449
# 2 14.8943 89.1232 11.3078 -7.1411 8.8164 -2.2521
# 3 15.4198 11.3078 65.4657 -5.5236 5.2200 6.2099
# 4 8.9376 -7.1411 -5.5236 37.5465 5.2820 5.6414
# 5 15.1559 8.8164 5.2200 5.2820 40.7092 5.3285
# 6 9.0449 -2.2521 6.2099 5.6414 5.3285 44.7940
#
#
#
# Elastic Compliance Matrix: (Units=1/GPa)
#
#
# Indices 1 2 3 4 5 6 
#
# 1 0.013137 -0.001801 -0.002614 -0.003119 -0.003556 -0.001565
# 2 -0.001801 0.012165 -0.001372 0.002697 -0.002282 0.001097
# 3 -0.002614 -0.001372 0.016689 0.003282 -0.001014 -0.002147
# 4 -0.003119 0.002697 0.003282 0.029279 -0.003251 -0.002990
# 5 -0.003556 -0.002282 -0.001014 -0.003251 0.027207 -0.002083
# 6 -0.001565 0.001097 -0.002147 -0.002990 -0.002083 0.023618
#
#
# Mechanical properties :
#
#
# Convention : Reuss Voigt Hill
#
# Bulk Modulus (GPa) = 32.87657 36.26292 34.56974
# Shear Modulus (GPa) = 34.76850 38.04329 36.40590
#
# Velocity S-wave (km/s) = 3.71324 3.88417 3.79967
# Velocity P-wave (km/s) = 5.60553 5.87337 5.74101
#
# Compressibility (1/GPa) = 0.03041680
#
# Stress axis : x y z
#
# Youngs Moduli (GPa) = 76.12057 82.20295 59.91842
#
# Poissons Ratio (x) = 0.14809 0.15665
# Poissons Ratio (y) = 0.13713 0.08218
# Poissons Ratio (z) = 0.19900 0.11274
#
# Static dielectric constant tensor:
#      x y z
#    x 6.037980 1.331700 -1.005450 
#    y 1.331700 7.087610 -2.166970 
#    z -1.005450 -2.166970 6.487840 
# 
# 
# High freq. dielectric constant tensor:
#      x y z
#    x 2.017720 0.004390 0.013600 
#    y 0.004390 2.011070 -0.005960 
#    z 0.013600 -0.005960 2.009420 
# 
# From -- ./inp_files/122923.got.cif
#   From: 2010.06.25/outbox.cif.g09.slc.cpg/sg2_62_cif.got.tgz:122923.got - 2010.06.27 13:26:56.
