data_PCOD8036074
_publ_section_title
;
Structure prediction by ZEFSAII (Michael W. Deem and Ramdas Pophale) SiO2 
 PCOD8036074
Probable space group: P -1
;
_chemical_formula_sum "Si O2"
_cell_formula_units_Z 16
_cell_length_a 6.745526
_cell_length_b 14.732046
_cell_length_c 15.318354
_cell_angle_alpha 143.417513
_cell_angle_beta 51.481341
_cell_angle_gamma 114.374441
_cell_volume 697.253644
_symmetry_space_group_name_H-M "P -1"
_symmetry_group_IT_number 2
_symmetry_cell_setting 'triclinic'
loop_
_space_group_symop_operation_xyz
x,y,z
-x,-y,-z
loop_
_atom_site_type_symbol
_atom_site_label
_atom_site_fract_x
_atom_site_fract_y
_atom_site_fract_z
Si Si1 0.039380 0.414142 0.513945
Si Si2 0.346548 0.008490 0.823329
Si Si3 0.937105 0.013216 0.630064
Si Si4 0.539878 0.153535 0.158311
Si Si5 0.833880 0.715928 0.251472
Si Si6 0.009744 0.686077 0.866232
Si Si7 0.784797 0.523275 0.955744
Si Si8 0.268810 0.827105 0.541800
O O1 0.270788 0.267877 0.334329
O O2 0.000000 0.500000 0.500000
O O3 0.087654 0.536607 0.668076
O O4 0.786084 0.343322 0.551418
O O5 0.641431 0.013584 0.727791
O O6 0.330095 0.895960 0.822271
O O7 0.199541 0.946123 0.733664
O O8 0.197442 0.180784 0.021217
O O9 0.008473 0.176854 0.764812
O O10 0.000000 0.000000 0.500000
O O11 0.112057 0.882185 0.539421
O O12 0.733414 0.246943 0.127627
O O13 0.500000 0.000000 0.000000
O O14 0.572713 0.817039 0.438292
O O15 0.008181 0.638600 0.226009
O O16 0.766088 0.585176 0.106828
O O17 0.874666 0.642360 0.956953
O O18 0.500000 0.500000 0.000000
#
# Coordination Sequence:
#
# PCOD8036074 Si02
#       8
#     2   2   2   2   2   2   2   2
#     4  12  27  48  74 108 151 189 248 310 376 443
#     4  12  26  48  76 108 149 193 252 313 371 438
#     4  12  26  44  74 109 147 195 250 305 371 438
#     4  12  27  50  77 108 147 195 254 310 375 444
#     4  11  26  42  71 105 148 191 246 298 369 444
#     4  12  27  45  77 104 148 193 247 303 379 440
#     4  11  26  46  69 106 152 193 240 303 374 445
#     4  12  26  46  76 110 147 196 252 308 367 449
#
# _framework density 22.947172999999999
#
# number of rings (size 3 to 8) (size 9 to 14) (size 15 to 20)
#    0.000    0.250    2.500    5.625   10.500    1.000 
#    0.000    0.000    0.000    0.000    0.000    0.000 
#    0.000    0.000    0.000    0.000    0.000    0.000 
#
# Total GULP energy -198449.722860 kJ/mol
# GULP energy per Si atom -12403.107679 kJ/mol
# Density = 2.289494 g / cm^3
# Si number density = 22.947173 Si / 1000 Ang^3
#
#
#
# Elastic Constant Matrix: (Units=GPa)
#
#
# Indices 1 2 3 4 5 6 
#
# 1 126.0717 52.3909 51.6279 4.7061 1.6080 4.7088
# 2 52.3909 149.9014 25.0870 7.1109 3.6377 9.8265
# 3 51.6279 25.0870 120.3867 14.5068 1.1642 -1.7472
# 4 4.7061 7.1109 14.5068 36.2361 -0.3522 -0.7681
# 5 1.6080 3.6377 1.1642 -0.3522 41.0702 4.3474
# 6 4.7088 9.8265 -1.7472 -0.7681 4.3474 56.4437
#
#
#
# Elastic Compliance Matrix: (Units=1/GPa)
#
#
# Indices 1 2 3 4 5 6 
#
# 1 0.010913 -0.003131 -0.004137 0.000843 0.000026 -0.000484
# 2 -0.003131 0.007933 -0.000189 -0.001102 -0.000467 -0.001105
# 3 -0.004137 -0.000189 0.010571 -0.003646 -0.000223 0.000673
# 4 0.000843 -0.001102 -0.003646 0.029175 0.000378 0.000377
# 5 0.000026 -0.000467 -0.000223 0.000378 0.024591 -0.001817
# 6 -0.000484 -0.001105 0.000673 0.000377 -0.001817 0.018115
#
#
# Mechanical properties :
#
#
# Convention : Reuss Voigt Hill
#
# Bulk Modulus (GPa) = 68.94505 72.73016 70.83760
# Shear Modulus (GPa) = 41.30643 44.56692 42.93667
#
# Velocity S-wave (km/s) = 4.24732 4.41177 4.33033
# Velocity P-wave (km/s) = 7.35957 7.59704 7.47925
#
# Compressibility (1/GPa) = 0.01450430
#
# Stress axis : x y z
#
# Youngs Moduli (GPa) = 91.63100 126.05580 94.59661
#
# Poissons Ratio (x) = 0.39466 0.39131
# Poissons Ratio (y) = 0.28688 0.01789
# Poissons Ratio (z) = 0.37904 0.02384
#
# Static dielectric constant tensor:
#      x y z
#    x 4.294810 0.009570 -0.017180 
#    y 0.009570 4.641440 0.117230 
#    z -0.017180 0.117230 4.234650 
# 
# 
# High freq. dielectric constant tensor:
#      x y z
#    x 1.917250 0.007060 -0.001700 
#    y 0.007060 1.924040 0.005730 
#    z -0.001700 0.005730 1.911180 
# 
# From -- ./inp_files/484422.got.cif
#   From: 2010.06.25/outbox.cif.g09.slc.cpg/sg2_243_cif.got.tgz:484422.got - 2010.06.27 13:26:56.
