data_PCOD8036944
_publ_section_title
;
Structure prediction by ZEFSAII (Michael W. Deem and Ramdas Pophale) SiO2 
 PCOD8036944
Probable space group: P -1
;
_chemical_formula_sum "Si O2"
_cell_formula_units_Z 16
_cell_length_a 11.736539
_cell_length_b 12.071304
_cell_length_c 9.578672
_cell_angle_alpha 79.851014
_cell_angle_beta 126.114282
_cell_angle_gamma 61.353033
_cell_volume 733.498116
_symmetry_space_group_name_H-M "P -1"
_symmetry_group_IT_number 2
_symmetry_cell_setting 'triclinic'
loop_
_space_group_symop_operation_xyz
x,y,z
-x,-y,-z
loop_
_atom_site_type_symbol
_atom_site_label
_atom_site_fract_x
_atom_site_fract_y
_atom_site_fract_z
Si Si1 0.655730 0.980053 0.205733
Si Si2 0.420943 0.121685 0.286582
Si Si3 0.309658 0.577889 0.937714
Si Si4 0.948382 0.353052 0.802593
Si Si5 0.590047 0.624084 0.677721
Si Si6 0.128774 0.850204 0.228426
Si Si7 0.951272 0.396687 0.478041
Si Si8 0.129791 0.927999 0.746005
O O1 0.865980 0.790801 0.391987
O O2 0.584617 0.012862 0.305746
O O3 0.680533 0.093409 0.136572
O O4 0.500000 0.000000 0.000000
O O5 0.440454 0.237636 0.312934
O O6 0.500000 0.000000 0.500000
O O7 0.187195 0.238477 0.037518
O O8 0.194570 0.761121 0.858788
O O9 0.204360 0.542553 0.773557
O O10 0.500000 0.500000 0.000000
O O11 0.373462 0.487054 0.149895
O O12 0.881249 0.406825 0.581121
O O13 0.786563 0.519785 0.739514
O O14 0.912742 0.246999 0.841049
O O15 0.375825 0.722012 0.422460
O O16 0.033420 0.926799 0.294163
O O17 0.000000 0.000000 0.000000
O O18 0.000000 0.500000 0.500000
O O19 0.000000 0.000000 0.500000
#
# Coordination Sequence:
#
# PCOD8036944 Si02
#       8
#     2   2   2   2   2   2   2   2
#     4  12  25  47  72 103 141 185 242 295 346 425
#     4  12  27  46  72 103 139 191 241 292 356 419
#     4  12  26  45  73 106 142 188 236 297 360 418
#     4  12  25  49  66 105 145 183 235 291 352 427
#     4  12  28  46  71 105 146 184 236 294 358 425
#     4  12  25  47  71 104 138 187 231 288 355 424
#     4  12  27  45  72 102 143 187 236 293 358 418
#     4  12  23  45  74 103 142 183 241 293 349 424
#
# _framework density 21.813282000000001
#
# number of rings (size 3 to 8) (size 9 to 14) (size 15 to 20)
#    0.000    0.000    3.750    6.000    5.250    1.000 
#    0.000    0.000    0.000    0.000    0.000    0.000 
#    0.000    0.000    0.000    0.000    0.000    0.000 
#
# Total GULP energy -198272.250971 kJ/mol
# GULP energy per Si atom -12392.015686 kJ/mol
# Density = 2.176363 g / cm^3
# Si number density = 21.813282 Si / 1000 Ang^3
#
#
#
# Elastic Constant Matrix: (Units=GPa)
#
#
# Indices 1 2 3 4 5 6 
#
# 1 110.6576 38.9787 30.8551 -1.3376 -7.9149 -2.7089
# 2 38.9787 102.6668 17.2693 9.3253 -10.6809 7.0500
# 3 30.8551 17.2693 110.1447 0.3132 -4.8590 9.5830
# 4 -1.3376 9.3253 0.3132 36.4913 10.3256 1.6437
# 5 -7.9149 -10.6809 -4.8590 10.3256 44.7428 8.9354
# 6 -2.7089 7.0500 9.5830 1.6437 8.9354 65.9622
#
#
#
# Elastic Compliance Matrix: (Units=1/GPa)
#
#
# Indices 1 2 3 4 5 6 
#
# 1 0.011241 -0.004013 -0.002621 0.001351 0.000192 0.001212
# 2 -0.004013 0.012203 -0.000471 -0.004162 0.003465 -0.001766
# 3 -0.002621 -0.000471 0.010070 -0.000243 0.000901 -0.001636
# 4 0.001351 -0.004162 -0.000243 0.030759 -0.008051 0.000860
# 5 0.000192 0.003465 0.000901 -0.008051 0.025927 -0.003805
# 6 0.001212 -0.001766 -0.001636 0.000860 -0.003805 0.016130
#
#
# Mechanical properties :
#
#
# Convention : Reuss Voigt Hill
#
# Bulk Modulus (GPa) = 51.79977 55.29726 53.54851
# Shear Modulus (GPa) = 39.37866 45.19700 42.28783
#
# Velocity S-wave (km/s) = 4.25345 4.55686 4.40776
# Velocity P-wave (km/s) = 6.92249 7.28642 7.10678
#
# Compressibility (1/GPa) = 0.01930511
#
# Stress axis : x y z
#
# Youngs Moduli (GPa) = 88.96148 81.94814 99.30844
#
# Poissons Ratio (x) = 0.32884 0.26024
# Poissons Ratio (y) = 0.35699 0.04675
# Poissons Ratio (z) = 0.23313 0.03858
#
# Static dielectric constant tensor:
#      x y z
#    x 4.085390 -0.118410 0.103110 
#    y -0.118410 4.356030 0.191140 
#    z 0.103110 0.191140 3.861430 
# 
# 
# High freq. dielectric constant tensor:
#      x y z
#    x 1.871030 0.002230 0.001560 
#    y 0.002230 1.886060 0.006830 
#    z 0.001560 0.006830 1.868440 
# 
# From -- ./inp_files/262606.got.cif
#   From: 2010.06.25/outbox.cif.g09.slc.cpg/sg2_132_cif.got.tgz:262606.got - 2010.06.27 13:26:56.
