data_PCOD8036162
_publ_section_title
;
Structure prediction by ZEFSAII (Michael W. Deem and Ramdas Pophale) SiO2 
 PCOD8036162
Probable space group: P -1
;
_chemical_formula_sum "Si O2"
_cell_formula_units_Z 12
_cell_length_a 9.679805
_cell_length_b 15.491170
_cell_length_c 5.773566
_cell_angle_alpha 98.298697
_cell_angle_beta 76.351257
_cell_angle_gamma 144.359945
_cell_volume 488.498656
_symmetry_space_group_name_H-M "P -1"
_symmetry_group_IT_number 2
_symmetry_cell_setting 'triclinic'
loop_
_space_group_symop_operation_xyz
x,y,z
-x,-y,-z
loop_
_atom_site_type_symbol
_atom_site_label
_atom_site_fract_x
_atom_site_fract_y
_atom_site_fract_z
Si Si1 0.993692 0.119313 0.426093
Si Si2 0.270608 0.169858 0.723306
Si Si3 0.766756 0.671140 0.962031
Si Si4 0.799788 0.390497 0.724243
Si Si5 0.517077 0.958740 0.725186
Si Si6 0.938147 0.335129 0.016828
O O1 0.213848 0.184887 0.503574
O O2 0.898499 0.998750 0.233351
O O3 0.770175 0.032145 0.652058
O O4 0.100186 0.259631 0.314978
O O5 0.235463 0.227779 0.945853
O O6 0.543212 0.271240 0.658685
O O7 0.500000 0.500000 0.000000
O O8 0.934381 0.696510 0.075800
O O9 0.000000 0.500000 0.500000
O O10 0.848346 0.492387 0.928271
O O11 0.823504 0.307991 0.807163
O O12 0.282335 0.778237 0.752905
O O13 0.500000 0.000000 0.500000
O O14 0.500000 0.000000 0.000000
#
# Coordination Sequence:
#
# PCOD8036162 Si02
#       6
#     2   2   2   2   2   2
#     4  11  27  47  77 114 154 212 265 332 407 481
#     4  11  26  48  74 110 156 207 263 329 401 488
#     4  12  25  47  76 113 158 203 263 327 404 481
#     4  11  26  45  74 106 155 207 261 332 408 479
#     4  12  27  49  81 120 161 210 272 341 404 483
#     4  11  26  46  73 112 150 204 268 327 402 476
#
# _framework density 24.565066000000002
#
# number of rings (size 3 to 8) (size 9 to 14) (size 15 to 20)
#    0.000    0.667    3.333    2.500    7.000    4.667 
#    0.000    0.000    0.000    0.000    0.000    0.000 
#    0.000    0.000    0.000    0.000    0.000    0.000 
#
# Total GULP energy -148705.412125 kJ/mol
# GULP energy per Si atom -12392.117677 kJ/mol
# Density = 2.450915 g / cm^3
# Si number density = 24.565066 Si / 1000 Ang^3
#
#
#
# Elastic Constant Matrix: (Units=GPa)
#
#
# Indices 1 2 3 4 5 6 
#
# 1 198.1240 63.2056 64.1006 -22.9875 21.7045 28.9990
# 2 63.2056 140.9500 54.0071 -24.7522 16.0412 21.2461
# 3 64.1006 54.0071 107.1847 -21.2208 16.1209 2.6651
# 4 -22.9875 -24.7522 -21.2208 47.4336 -6.0700 3.0175
# 5 21.7045 16.0412 16.1209 -6.0700 40.2503 4.0797
# 6 28.9990 21.2461 2.6651 3.0175 4.0797 44.2077
#
#
#
# Elastic Compliance Matrix: (Units=1/GPa)
#
#
# Indices 1 2 3 4 5 6 
#
# 1 0.007387 -0.000960 -0.003254 0.001680 -0.001623 -0.004153
# 2 -0.000960 0.010292 -0.003659 0.003386 -0.001180 -0.004218
# 3 -0.003254 -0.003659 0.013825 0.002205 -0.002308 0.003122
# 4 0.001680 0.003386 0.002205 0.025090 0.001120 -0.004678
# 5 -0.001623 -0.001180 -0.002308 0.001120 0.027368 -0.000831
# 6 -0.004153 -0.004218 0.003122 -0.004678 -0.000831 0.027580
#
#
# Mechanical properties :
#
#
# Convention : Reuss Voigt Hill
#
# Bulk Modulus (GPa) = 63.45828 89.87615 76.66721
# Shear Modulus (GPa) = 37.72423 44.04134 40.88278
#
# Velocity S-wave (km/s) = 3.92303 4.23879 4.08397
# Velocity P-wave (km/s) = 6.81242 7.78607 7.31546
#
# Compressibility (1/GPa) = 0.01575839
#
# Stress axis : x y z
#
# Youngs Moduli (GPa) = 135.37347 97.16388 72.33038
#
# Poissons Ratio (x) = 0.09327 0.23537
# Poissons Ratio (y) = 0.12995 0.26465
# Poissons Ratio (z) = 0.44051 0.35552
#
# Static dielectric constant tensor:
#      x y z
#    x 4.613630 -0.093390 0.005290 
#    y -0.093390 5.293840 0.117240 
#    z 0.005290 0.117240 4.250500 
# 
# 
# High freq. dielectric constant tensor:
#      x y z
#    x 1.989550 0.003810 0.005320 
#    y 0.003810 1.995940 -0.006070 
#    z 0.005320 -0.006070 1.963090 
# 
# From -- ./inp_files/28949.got.cif
#   From: 2010.06.25/outbox.cif.g09.slc.cpg/sg2_15_cif.got.tgz:28949.got - 2010.06.27 13:26:56.
