data_PCOD8036448
_publ_section_title
;
Structure prediction by ZEFSAII (Michael W. Deem and Ramdas Pophale) SiO2 
 PCOD8036448
Probable space group: P -1
;
_chemical_formula_sum "Si O2"
_cell_formula_units_Z 10
_cell_length_a 9.534198
_cell_length_b 8.671017
_cell_length_c 12.918010
_cell_angle_alpha 131.976761
_cell_angle_beta 52.992336
_cell_angle_gamma 87.995286
_cell_volume 428.469024
_symmetry_space_group_name_H-M "P -1"
_symmetry_group_IT_number 2
_symmetry_cell_setting 'triclinic'
loop_
_space_group_symop_operation_xyz
x,y,z
-x,-y,-z
loop_
_atom_site_type_symbol
_atom_site_label
_atom_site_fract_x
_atom_site_fract_y
_atom_site_fract_z
Si Si1 0.150283 0.687711 0.006833
Si Si2 0.963013 0.811231 0.479357
Si Si3 0.295955 0.595935 0.410708
Si Si4 0.108404 0.393502 0.065956
Si Si5 0.449789 0.054479 0.168568
O O1 0.030199 0.680808 0.956921
O O2 0.419467 0.552244 0.789786
O O3 0.221573 0.454074 0.957018
O O4 0.934089 0.039910 0.299914
O O5 0.724220 0.994523 0.747090
O O6 0.230110 0.543245 0.304936
O O7 0.000000 0.000000 0.500000
O O8 0.904971 0.700087 0.363261
O O9 0.299019 0.407969 0.409521
O O10 0.316150 0.132914 0.939208
O O11 0.500000 0.000000 0.000000
#
# Coordination Sequence:
#
# PCOD8036448 Si02
#       5
#     2   2   2   2   2
#     4  11  28  49  74 111 149 200 243 312 364 452
#     4  12  25  46  78 106 146 200 256 301 362 447
#     4  12  26  47  75 108 152 191 248 301 382 430
#     4  11  27  46  76 106 150 195 254 298 373 439
#     4  12  27  45  75 114 150 190 249 314 373 438
#
# _framework density 23.338909000000001
#
# number of rings (size 3 to 8) (size 9 to 14) (size 15 to 20)
#    0.000    0.400    4.000    3.000    5.600    4.800 
#    0.000    0.000    0.000    0.000    0.000    0.000 
#    0.000    0.000    0.000    0.000    0.000    0.000 
#
# Total GULP energy -123906.571268 kJ/mol
# GULP energy per Si atom -12390.657127 kJ/mol
# Density = 2.328579 g / cm^3
# Si number density = 23.338909 Si / 1000 Ang^3
#
#
#
# Elastic Constant Matrix: (Units=GPa)
#
#
# Indices 1 2 3 4 5 6 
#
# 1 146.1071 44.6283 44.5353 -21.3169 -0.0394 -24.8571
# 2 44.6283 124.2044 37.2431 -15.4656 -9.8055 -18.7512
# 3 44.5353 37.2431 97.4119 -12.2501 -12.1218 0.0058
# 4 -21.3169 -15.4656 -12.2501 36.2732 6.2453 -14.7758
# 5 -0.0394 -9.8055 -12.1218 6.2453 40.9967 -5.8126
# 6 -24.8571 -18.7512 0.0058 -14.7758 -5.8126 44.9979
#
#
#
# Elastic Compliance Matrix: (Units=1/GPa)
#
#
# Indices 1 2 3 4 5 6 
#
# 1 0.010848 -0.000522 -0.003861 0.008501 -0.001361 0.008391
# 2 -0.000522 0.010941 -0.003018 0.005619 0.001768 0.006344
# 3 -0.003861 -0.003018 0.013439 -0.000862 0.002912 -0.003299
# 4 0.008501 0.005619 -0.000862 0.043687 -0.002574 0.021050
# 5 -0.001361 0.001768 0.002912 -0.002574 0.026429 0.002553
# 6 0.008391 0.006344 -0.003299 0.021050 0.002553 0.036745
#
#
# Mechanical properties :
#
#
# Convention : Reuss Voigt Hill
#
# Bulk Modulus (GPa) = 48.95860 68.94855 58.95358
# Shear Modulus (GPa) = 30.54399 40.54135 35.54267
#
# Velocity S-wave (km/s) = 3.62154 4.17234 3.90666
# Velocity P-wave (km/s) = 6.20566 7.26758 6.75751
#
# Compressibility (1/GPa) = 0.02042542
#
# Stress axis : x y z
#
# Youngs Moduli (GPa) = 92.18153 91.40053 74.41198
#
# Poissons Ratio (x) = 0.04775 0.28729
# Poissons Ratio (y) = 0.04815 0.22458
# Poissons Ratio (z) = 0.35589 0.27585
#
# Static dielectric constant tensor:
#      x y z
#    x 4.706980 -0.110990 0.191500 
#    y -0.110990 4.783260 0.308200 
#    z 0.191500 0.308200 4.362910 
# 
# 
# High freq. dielectric constant tensor:
#      x y z
#    x 1.936450 -0.002320 0.003250 
#    y -0.002320 1.949100 0.010450 
#    z 0.003250 0.010450 1.915390 
# 
# From -- ./inp_files/15145.got.cif
#   From: 2010.06.25/outbox.cif.g09.slc.cpg/sg2_8_cif.got.tgz:15145.got - 2010.06.27 13:26:56.
