data_PCOD8036039
_publ_section_title
;
Structure prediction by ZEFSAII (Michael W. Deem and Ramdas Pophale) SiO2 
 PCOD8036039
Probable space group: P -1
;
_chemical_formula_sum "Si O2"
_cell_formula_units_Z 16
_cell_length_a 13.101211
_cell_length_b 15.806069
_cell_length_c 8.350332
_cell_angle_alpha 86.811730
_cell_angle_beta 79.598369
_cell_angle_gamma 26.992300
_cell_volume 750.158179
_symmetry_space_group_name_H-M "P -1"
_symmetry_group_IT_number 2
_symmetry_cell_setting 'triclinic'
loop_
_space_group_symop_operation_xyz
x,y,z
-x,-y,-z
loop_
_atom_site_type_symbol
_atom_site_label
_atom_site_fract_x
_atom_site_fract_y
_atom_site_fract_z
Si Si1 0.202627 0.419828 0.478948
Si Si2 0.463452 0.097855 0.630543
Si Si3 0.075221 0.247740 0.273591
Si Si4 0.660039 0.577573 0.855339
Si Si5 0.816703 0.123879 0.896748
Si Si6 0.344662 0.597455 0.284164
Si Si7 0.063351 0.357896 0.960492
Si Si8 0.151188 0.758228 0.672595
O O1 0.398981 0.234392 0.554579
O O2 0.322830 0.359458 0.285859
O O3 0.000000 0.500000 0.500000
O O4 0.103608 0.574944 0.576065
O O5 0.261239 0.208455 0.786990
O O6 0.500000 0.000000 0.500000
O O7 0.695898 0.948963 0.676447
O O8 0.944541 0.261841 0.239369
O O9 0.159207 0.246893 0.107673
O O10 0.727360 0.438748 0.770419
O O11 0.840027 0.466927 0.957506
O O12 0.401579 0.769580 0.984228
O O13 0.716272 0.285683 0.839956
O O14 0.950300 0.975641 0.733984
O O15 0.000000 0.000000 0.000000
O O16 0.201429 0.720064 0.473400
O O17 0.620886 0.390101 0.268189
O O18 0.000000 0.500000 0.000000
#
# Coordination Sequence:
#
# PCOD8036039 Si02
#       8
#     2   2   2   2   2   2   2   2
#     4  12  23  49  70 101 146 184 243 289 348 423
#     4  12  26  44  72  99 138 188 237 293 344 419
#     4  12  25  44  72 104 138 185 239 290 358 417
#     4  12  25  47  77 100 143 199 227 292 367 413
#     4  12  27  45  72 112 142 178 241 299 348 426
#     4  11  25  50  74 100 146 189 233 290 358 430
#     4  12  26  45  70 102 146 188 233 296 353 413
#     4  11  26  47  74 105 140 186 236 293 356 426
#
# _framework density 21.328835999999999
#
# number of rings (size 3 to 8) (size 9 to 14) (size 15 to 20)
#    0.000    0.250    6.250    1.875    3.500    3.000 
#    0.000    0.000    0.000    0.000    0.000    0.000 
#    0.000    0.000    0.000    0.000    0.000    0.000 
#
# Total GULP energy -198504.830749 kJ/mol
# GULP energy per Si atom -12406.551922 kJ/mol
# Density = 2.128029 g / cm^3
# Si number density = 21.328836 Si / 1000 Ang^3
#
#
#
# Elastic Constant Matrix: (Units=GPa)
#
#
# Indices 1 2 3 4 5 6 
#
# 1 129.9416 47.3656 30.0795 2.9010 2.3361 -3.3368
# 2 47.3656 138.7531 56.1340 -4.0045 -3.9576 -1.8816
# 3 30.0795 56.1340 124.2340 3.7491 -12.7045 -1.4115
# 4 2.9010 -4.0045 3.7491 49.8543 5.7838 0.2842
# 5 2.3361 -3.9576 -12.7045 5.7838 40.5165 -3.5144
# 6 -3.3368 -1.8816 -1.4115 0.2842 -3.5144 27.0243
#
#
#
# Elastic Compliance Matrix: (Units=1/GPa)
#
#
# Indices 1 2 3 4 5 6 
#
# 1 0.008958 -0.002673 -0.001034 -0.000551 -0.000958 0.000747
# 2 -0.002673 0.009683 -0.003791 0.001248 -0.000258 0.000099
# 3 -0.001034 -0.003791 0.010388 -0.001400 0.003197 0.000581
# 4 -0.000551 0.001248 -0.001400 0.020683 -0.003298 -0.000701
# 5 -0.000958 -0.000258 0.003197 -0.003298 0.026489 0.003510
# 6 0.000747 0.000099 0.000581 -0.000701 0.003510 0.037597
#
#
# Mechanical properties :
#
#
# Convention : Reuss Voigt Hill
#
# Bulk Modulus (GPa) = 71.25650 73.34299 72.29975
# Shear Modulus (GPa) = 37.46092 40.76900 39.11496
#
# Velocity S-wave (km/s) = 4.19543 4.37676 4.28705
# Velocity P-wave (km/s) = 7.54652 7.74614 7.64698
#
# Compressibility (1/GPa) = 0.01403381
#
# Stress axis : x y z
#
# Youngs Moduli (GPa) = 111.63042 103.27244 96.26073
#
# Poissons Ratio (x) = 0.27602 0.09955
# Poissons Ratio (y) = 0.29836 0.36493
# Poissons Ratio (z) = 0.11545 0.39151
#
# Static dielectric constant tensor:
#      x y z
#    x 3.778830 0.021920 0.097440 
#    y 0.021920 4.276280 0.080930 
#    z 0.097440 0.080930 4.011520 
# 
# 
# High freq. dielectric constant tensor:
#      x y z
#    x 1.844890 0.000920 0.002450 
#    y 0.000920 1.842470 -0.000300 
#    z 0.002450 -0.000300 1.856010 
# 
# From -- ./inp_files/272860.got.cif
#   From: 2010.06.25/outbox.cif.g09.slc.cpg/sg2_137_cif.got.tgz:272860.got - 2010.06.27 13:26:56.
