data_PCOD8036047
_publ_section_title
;
Structure prediction by ZEFSAII (Michael W. Deem and Ramdas Pophale) SiO2 
 PCOD8036047
Probable space group: P -1
;
_chemical_formula_sum "Si O2"
_cell_formula_units_Z 16
_cell_length_a 25.879491
_cell_length_b 21.266805
_cell_length_c 10.546746
_cell_angle_alpha 143.546155
_cell_angle_beta 143.039548
_cell_angle_gamma 12.079021
_cell_volume 718.065696
_symmetry_space_group_name_H-M "P -1"
_symmetry_group_IT_number 2
_symmetry_cell_setting 'triclinic'
loop_
_space_group_symop_operation_xyz
x,y,z
-x,-y,-z
loop_
_atom_site_type_symbol
_atom_site_label
_atom_site_fract_x
_atom_site_fract_y
_atom_site_fract_z
Si Si1 0.947703 0.826269 0.402086
Si Si2 0.796642 0.143900 0.851034
Si Si3 0.488309 0.812382 0.500642
Si Si4 0.567181 0.879938 0.102526
Si Si5 0.299549 0.838400 0.044301
Si Si6 0.099276 0.171650 0.959385
Si Si7 0.154396 0.241849 0.746546
Si Si8 0.347150 0.092667 0.268762
O O1 0.933161 0.718072 0.234490
O O2 0.230197 0.535702 0.477804
O O3 0.809186 0.054088 0.606989
O O4 0.835010 0.966131 0.266656
O O5 0.845739 0.031115 0.901608
O O6 0.513612 0.509934 0.891643
O O7 0.000000 0.000000 0.000000
O O8 0.421911 0.812698 0.256030
O O9 0.420093 0.012059 0.656854
O O10 0.315754 0.975314 0.544350
O O11 0.825011 0.537511 0.000452
O O12 0.502509 0.888671 0.115888
O O13 0.343668 0.120555 0.952223
O O14 0.112133 0.071491 0.936361
O O15 0.296991 0.039082 0.153727
O O16 0.918449 0.551153 0.707769
O O17 0.500000 0.000000 0.500000
#
# Coordination Sequence:
#
# PCOD8036047 Si02
#       8
#     2   2   2   2   2   2   2   2
#     4  12  24  44  75 102 137 188 238 284 346 409
#     4  11  25  50  77  98 126 184 238 295 360 425
#     4  12  22  40  72 101 137 191 231 276 333 420
#     4  12  24  40  66 102 148 190 228 271 335 420
#     4  11  27  46  72 103 137 172 237 298 356 410
#     4  12  27  44  66 108 147 181 228 293 346 406
#     4  12  23  42  66 102 145 192 236 271 329 426
#     4  12  26  39  63 101 149 195 233 273 335 405
#
# _framework density 22.282084000000001
#
# number of rings (size 3 to 8) (size 9 to 14) (size 15 to 20)
#    0.000    0.250    7.500    2.250    1.750    2.500 
#    0.000    0.625    0.000    0.000    0.000    0.000 
#    0.000    0.000    0.000    0.000    0.000    0.000 
#
# Total GULP energy -198336.273699 kJ/mol
# GULP energy per Si atom -12396.017106 kJ/mol
# Density = 2.223137 g / cm^3
# Si number density = 22.282084 Si / 1000 Ang^3
#
#
#
# Elastic Constant Matrix: (Units=GPa)
#
#
# Indices 1 2 3 4 5 6 
#
# 1 131.4746 57.7993 57.1164 -7.0360 -12.2676 8.2624
# 2 57.7993 89.0048 46.5810 -6.7389 -11.2718 -2.4678
# 3 57.1164 46.5810 109.2101 -3.1604 -14.0101 1.7824
# 4 -7.0360 -6.7389 -3.1604 36.7708 -7.7653 -3.7843
# 5 -12.2676 -11.2718 -14.0101 -7.7653 35.0227 -0.2322
# 6 8.2624 -2.4678 1.7824 -3.7843 -0.2322 41.4901
#
#
#
# Elastic Compliance Matrix: (Units=1/GPa)
#
#
# Indices 1 2 3 4 5 6 
#
# 1 0.012025 -0.005778 -0.003618 0.000904 0.001089 -0.002494
# 2 -0.005778 0.017787 -0.004196 0.002619 0.002620 0.002642
# 3 -0.003618 -0.004196 0.013194 0.000240 0.002713 -0.000059
# 4 0.000904 0.002619 0.000240 0.029815 0.007884 0.002729
# 5 0.001089 0.002620 0.002713 0.007884 0.032616 0.000724
# 6 -0.002494 0.002642 -0.000059 0.002729 0.000724 0.025012
#
#
# Mechanical properties :
#
#
# Convention : Reuss Voigt Hill
#
# Bulk Modulus (GPa) = 63.20116 72.52033 67.86074
# Shear Modulus (GPa) = 30.69252 33.86955 32.28104
#
# Velocity S-wave (km/s) = 3.71543 3.90299 3.81037
# Velocity P-wave (km/s) = 6.84336 7.27518 7.06257
#
# Compressibility (1/GPa) = 0.01582250
#
# Stress axis : x y z
#
# Youngs Moduli (GPa) = 83.16244 56.22092 75.79017
#
# Poissons Ratio (x) = 0.32485 0.27419
# Poissons Ratio (y) = 0.48053 0.31800
# Poissons Ratio (z) = 0.30086 0.23589
#
# Static dielectric constant tensor:
#      x y z
#    x 4.409710 -0.336380 -0.114160 
#    y -0.336380 3.813350 -0.014210 
#    z -0.114160 -0.014210 4.103570 
# 
# 
# High freq. dielectric constant tensor:
#      x y z
#    x 1.894300 -0.023640 -0.010670 
#    y -0.023640 1.859370 -0.004190 
#    z -0.010670 -0.004190 1.878810 
# 
# From -- ./inp_files/477777.got.cif
#   From: 2010.06.25/outbox.cif.g09.slc.cpg/sg2_239_cif.got.tgz:477777.got - 2010.06.27 13:26:56.
