data_PCOD8036307
_publ_section_title
;
Structure prediction by ZEFSAII (Michael W. Deem and Ramdas Pophale) SiO2 
 PCOD8036307
Probable space group: P -1
;
_chemical_formula_sum "Si O2"
_cell_formula_units_Z 16
_cell_length_a 11.082652
_cell_length_b 23.400290
_cell_length_c 6.669892
_cell_angle_alpha 66.514031
_cell_angle_beta 82.786568
_cell_angle_gamma 139.922706
_cell_volume 699.075947
_symmetry_space_group_name_H-M "P -1"
_symmetry_group_IT_number 2
_symmetry_cell_setting 'triclinic'
loop_
_space_group_symop_operation_xyz
x,y,z
-x,-y,-z
loop_
_atom_site_type_symbol
_atom_site_label
_atom_site_fract_x
_atom_site_fract_y
_atom_site_fract_z
Si Si1 0.514269 0.785822 0.018730
Si Si2 0.975125 0.049838 0.802865
Si Si3 0.679597 0.036967 0.061124
Si Si4 0.943074 0.413027 0.262788
Si Si5 0.417760 0.430487 0.908690
Si Si6 0.942608 0.692569 0.178524
Si Si7 0.313764 0.782947 0.745775
Si Si8 0.459326 0.314457 0.097962
O O1 0.284285 0.683958 0.381439
O O2 0.454615 0.787114 0.808261
O O3 0.558608 0.732934 0.038410
O O4 0.794231 0.947454 0.794071
O O5 0.292039 0.205388 0.464590
O O6 0.826970 0.044119 0.924442
O O7 0.000000 0.000000 0.000000
O O8 0.496513 0.924812 0.434997
O O9 0.918859 0.186518 0.904825
O O10 0.500000 0.000000 0.000000
O O11 0.859883 0.318446 0.267554
O O12 0.000000 0.500000 0.000000
O O13 0.227829 0.525797 0.144407
O O14 0.685582 0.551056 0.550358
O O15 0.158572 0.342818 0.979130
O O16 0.500000 0.500000 0.000000
O O17 0.305969 0.309409 0.117715
O O18 0.152798 0.732874 0.046675
#
# Coordination Sequence:
#
# PCOD8036307 Si02
#       8
#     2   2   2   2   2   2   2   2
#     4  12  26  48  74 112 149 197 251 309 375 455
#     4  12  27  49  76 111 155 196 249 317 380 444
#     4  12  28  49  77 109 152 203 257 314 378 454
#     4  12  25  47  73 111 153 193 247 306 380 448
#     4  11  26  48  69 105 147 189 240 312 377 441
#     4  11  27  45  74 103 143 194 251 301 372 450
#     4  12  26  47  77 106 147 194 255 306 372 445
#     4  12  26  42  78 104 148 192 247 303 377 446
#
# _framework density 22.887353999999998
#
# number of rings (size 3 to 8) (size 9 to 14) (size 15 to 20)
#    0.000    0.250    2.500    5.625   10.500    1.000 
#    0.000    0.000    0.000    0.000    0.000    0.000 
#    0.000    0.000    0.000    0.000    0.000    0.000 
#
# Total GULP energy -198273.776393 kJ/mol
# GULP energy per Si atom -12392.111025 kJ/mol
# Density = 2.283526 g / cm^3
# Si number density = 22.887354 Si / 1000 Ang^3
#
#
#
# Elastic Constant Matrix: (Units=GPa)
#
#
# Indices 1 2 3 4 5 6 
#
# 1 112.4799 41.0689 30.4808 13.1132 0.2940 -21.9343
# 2 41.0689 143.3118 14.3180 7.0521 -0.7098 -15.4238
# 3 30.4808 14.3180 85.0951 -2.9660 11.2421 0.4875
# 4 13.1132 7.0521 -2.9660 38.3229 -3.5722 -2.8124
# 5 0.2940 -0.7098 11.2421 -3.5722 38.1986 1.0147
# 6 -21.9343 -15.4238 0.4875 -2.8124 1.0147 38.1649
#
#
#
# Elastic Compliance Matrix: (Units=1/GPa)
#
#
# Indices 1 2 3 4 5 6 
#
# 1 0.012517 -0.002320 -0.004340 -0.003691 0.000633 0.006023
# 2 -0.002320 0.007924 -0.000562 -0.000552 0.000230 0.001829
# 3 -0.004340 -0.000562 0.013995 0.002121 -0.003827 -0.002642
# 4 -0.003691 -0.000552 0.002121 0.027782 0.002002 -0.000377
# 5 0.000633 0.000230 -0.003827 0.002002 0.027494 -0.000078
# 6 0.006023 0.001829 -0.002642 -0.000377 -0.000078 0.030411
#
#
# Mechanical properties :
#
#
# Convention : Reuss Voigt Hill
#
# Bulk Modulus (GPa) = 50.02173 56.95801 53.48987
# Shear Modulus (GPa) = 35.40284 39.93854 37.67069
#
# Velocity S-wave (km/s) = 3.93724 4.18186 4.06139
# Velocity P-wave (km/s) = 6.52474 6.94676 6.73906
#
# Compressibility (1/GPa) = 0.01999131
#
# Stress axis : x y z
#
# Youngs Moduli (GPa) = 79.89233 126.19718 71.45213
#
# Poissons Ratio (x) = 0.29283 0.31009
# Poissons Ratio (y) = 0.18539 0.04018
# Poissons Ratio (z) = 0.34672 0.07096
#
# Static dielectric constant tensor:
#      x y z
#    x 4.450540 0.164090 0.011460 
#    y 0.164090 4.452130 -0.099900 
#    z 0.011460 -0.099900 4.217030 
# 
# 
# High freq. dielectric constant tensor:
#      x y z
#    x 1.918700 -0.009120 -0.000060 
#    y -0.009120 1.915870 -0.005630 
#    z -0.000060 -0.005630 1.917120 
# 
# From -- ./inp_files/84299.got.cif
#   From: 2010.06.25/outbox.cif.g09.slc.cpg/sg2_43_cif.got.tgz:84299.got - 2010.06.27 13:26:56.
