data_PCOD8036053
_publ_section_title
;
Structure prediction by ZEFSAII (Michael W. Deem and Ramdas Pophale) SiO2 
 PCOD8036053
Probable space group: P -1
;
_chemical_formula_sum "Si O2"
_cell_formula_units_Z 16
_cell_length_a 9.013184
_cell_length_b 8.665376
_cell_length_c 12.705348
_cell_angle_alpha 88.171622
_cell_angle_beta 100.004572
_cell_angle_gamma 131.347708
_cell_volume 728.999194
_symmetry_space_group_name_H-M "P -1"
_symmetry_group_IT_number 2
_symmetry_cell_setting 'triclinic'
loop_
_space_group_symop_operation_xyz
x,y,z
-x,-y,-z
loop_
_atom_site_type_symbol
_atom_site_label
_atom_site_fract_x
_atom_site_fract_y
_atom_site_fract_z
Si Si1 0.529475 0.351090 0.886980
Si Si2 0.711900 0.511442 0.118853
Si Si3 0.206499 0.540722 0.516063
Si Si4 0.184402 0.505669 0.274361
Si Si5 0.203865 0.959139 0.761996
Si Si6 0.873425 0.178711 0.755241
Si Si7 0.067784 0.141676 0.604115
Si Si8 0.423299 0.819690 0.720531
O O1 0.460193 0.480503 0.881645
O O2 0.637723 0.399885 0.787732
O O3 0.339793 0.101726 0.876845
O O4 0.680491 0.417477 0.000899
O O5 0.694058 0.368124 0.208189
O O6 0.936402 0.740626 0.149322
O O7 0.264653 0.542777 0.402850
O O8 0.388388 0.749209 0.595732
O O9 0.000000 0.500000 0.500000
O O10 0.203158 0.374618 0.577458
O O11 0.099024 0.619385 0.255588
O O12 0.012097 0.261363 0.230698
O O13 0.329784 0.925781 0.708865
O O14 0.190312 0.110366 0.694215
O O15 0.884575 0.095890 0.647342
O O16 0.657604 0.984860 0.780293
O O17 0.000000 0.000000 0.500000
#
# Coordination Sequence:
#
# PCOD8036053 Si02
#       8
#     2   2   2   2   2   2   2   2
#     4  11  27  46  73 103 133 183 234 289 347 409
#     4  11  25  51  70  97 146 176 228 298 346 404
#     4  12  21  44  71 101 149 183 221 283 346 408
#     4  12  25  44  71 102 142 181 230 284 341 415
#     4  12  23  44  68 103 142 175 233 288 334 413
#     4  12  25  45  69 101 139 183 233 280 345 417
#     4  12  23  41  70 102 142 186 221 281 342 406
#     4  12  25  44  73 103 138 187 226 281 355 408
#
# _framework density 21.947900000000001
#
# number of rings (size 3 to 8) (size 9 to 14) (size 15 to 20)
#    0.000    0.250    8.750    0.000    1.750    3.500 
#    0.000    4.375    0.000    0.000    0.000    0.000 
#    0.000    0.000    0.000    0.000    0.000    0.000 
#
# Total GULP energy -198314.519454 kJ/mol
# GULP energy per Si atom -12394.657466 kJ/mol
# Density = 2.189795 g / cm^3
# Si number density = 21.947900 Si / 1000 Ang^3
#
#
#
# Elastic Constant Matrix: (Units=GPa)
#
#
# Indices 1 2 3 4 5 6 
#
# 1 97.4506 35.2947 35.0139 -2.4644 -1.7237 -5.7280
# 2 35.2947 107.1827 56.5627 25.3491 3.5132 4.5710
# 3 35.0139 56.5627 100.6985 15.6464 -1.4384 9.8126
# 4 -2.4644 25.3491 15.6464 31.6703 5.3608 1.8421
# 5 -1.7237 3.5132 -1.4384 5.3608 28.7295 9.4686
# 6 -5.7280 4.5710 9.8126 1.8421 9.4686 39.1951
#
#
#
# Elastic Compliance Matrix: (Units=1/GPa)
#
#
# Indices 1 2 3 4 5 6 
#
# 1 0.013359 -0.003991 -0.003683 0.006050 -0.001120 0.003326
# 2 -0.003991 0.016363 -0.006187 -0.010242 -0.000529 -0.000333
# 3 -0.003683 -0.006187 0.015695 -0.003409 0.003411 -0.004410
# 4 0.006050 -0.010242 -0.003409 0.043037 -0.007481 0.002717
# 5 -0.001120 -0.000529 0.003411 -0.007481 0.039734 -0.010203
# 6 0.003326 -0.000333 -0.004410 0.002717 -0.010203 0.029480
#
#
# Mechanical properties :
#
#
# Convention : Reuss Voigt Hill
#
# Bulk Modulus (GPa) = 56.51740 62.11938 59.31839
# Shear Modulus (GPa) = 26.13842 31.81633 28.97737
#
# Velocity S-wave (km/s) = 3.45473 3.81153 3.63751
# Velocity P-wave (km/s) = 6.45911 6.90905 6.68786
#
# Compressibility (1/GPa) = 0.01769367
#
# Stress axis : x y z
#
# Youngs Moduli (GPa) = 74.85393 61.11310 63.71533
#
# Poissons Ratio (x) = 0.24393 0.23469
# Poissons Ratio (y) = 0.29877 0.39421
# Poissons Ratio (z) = 0.27572 0.37811
#
# Static dielectric constant tensor:
#      x y z
#    x 3.760410 -0.038910 -0.033560 
#    y -0.038910 4.005310 0.374170 
#    z -0.033560 0.374170 4.191580 
# 
# 
# High freq. dielectric constant tensor:
#      x y z
#    x 1.867070 -0.014920 0.001420 
#    y -0.014920 1.865850 0.024630 
#    z 0.001420 0.024630 1.857810 
# 
# From -- ./inp_files/208042.got.cif
#   From: 2010.06.25/outbox.cif.g09.slc.cpg/sg2_105_cif.got.tgz:208042.got - 2010.06.27 13:26:56.
