data_PCOD8036293
_publ_section_title
;
Structure prediction by ZEFSAII (Michael W. Deem and Ramdas Pophale) SiO2 
 PCOD8036293
Probable space group: P -1
;
_chemical_formula_sum "Si O2"
_cell_formula_units_Z 16
_cell_length_a 8.529911
_cell_length_b 10.097577
_cell_length_c 11.803270
_cell_angle_alpha 99.934501
_cell_angle_beta 86.599616
_cell_angle_gamma 45.074687
_cell_volume 684.676965
_symmetry_space_group_name_H-M "P -1"
_symmetry_group_IT_number 2
_symmetry_cell_setting 'triclinic'
loop_
_space_group_symop_operation_xyz
x,y,z
-x,-y,-z
loop_
_atom_site_type_symbol
_atom_site_label
_atom_site_fract_x
_atom_site_fract_y
_atom_site_fract_z
Si Si1 0.306975 0.728209 0.499983
Si Si2 0.127126 0.678961 0.297720
Si Si3 0.835960 0.852484 0.121184
Si Si4 0.457156 0.231270 0.878816
Si Si5 0.164851 0.648442 0.872079
Si Si6 0.713144 0.954141 0.500015
Si Si7 0.536899 0.276389 0.127922
Si Si8 0.924846 0.881253 0.702282
O O1 0.500000 0.500000 0.500000
O O2 0.219997 0.745129 0.379451
O O3 0.099395 0.865700 0.620491
O O4 0.373573 0.841773 0.499985
O O5 0.330649 0.444462 0.245446
O O6 0.041472 0.760637 0.185550
O O7 0.905191 0.765175 0.385609
O O8 0.673858 0.826149 0.152199
O O9 0.676185 0.081419 0.163865
O O10 0.949597 0.760470 0.980260
O O11 0.339966 0.417549 0.836139
O O12 0.727036 0.075097 0.814454
O O13 0.429866 0.280174 0.019740
O O14 0.297331 0.702668 0.905478
O O15 0.076160 0.699020 0.754551
O O16 0.790731 0.879603 0.614437
O O17 0.500000 0.000000 0.500000
#
# Coordination Sequence:
#
# PCOD8036293 Si02
#       8
#     2   2   2   2   2   2   2   2
#     4  11  27  51  79 106 142 195 250 302 362 438
#     4  11  26  47  77 104 149 192 242 298 364 430
#     4  12  27  48  71 111 154 194 243 300 366 430
#     4  12  27  48  71 111 154 194 243 300 366 430
#     4  12  27  43  75 109 148 195 246 291 363 442
#     4  11  27  53  77 107 144 191 247 308 365 432
#     4  12  27  43  75 109 148 195 246 291 363 442
#     4  11  26  47  77 104 149 192 242 298 364 430
#
# _framework density 23.368686
#
# number of rings (size 3 to 8) (size 9 to 14) (size 15 to 20)
#    0.000    0.500    2.500    4.500   10.500    0.000 
#    4.500    1.250    0.000    0.000    0.000    0.000 
#    0.000    0.000    0.000    0.000    0.000    0.000 
#
# Total GULP energy -198302.680420 kJ/mol
# GULP energy per Si atom -12393.917526 kJ/mol
# Density = 2.331550 g / cm^3
# Si number density = 23.368686 Si / 1000 Ang^3
#
#
#
# Elastic Constant Matrix: (Units=GPa)
#
#
# Indices 1 2 3 4 5 6 
#
# 1 153.4353 64.0338 35.7709 -3.8418 -1.8163 3.7994
# 2 64.0338 166.6198 34.9252 -2.1648 -4.9202 -5.4968
# 3 35.7709 34.9252 118.1957 0.0903 5.7886 -3.3585
# 4 -3.8418 -2.1648 0.0903 51.6476 -30.2346 -1.8451
# 5 -1.8163 -4.9202 5.7886 -30.2346 25.4626 -1.6556
# 6 3.7994 -5.4968 -3.3585 -1.8451 -1.6556 34.8664
#
#
#
# Elastic Compliance Matrix: (Units=1/GPa)
#
#
# Indices 1 2 3 4 5 6 
#
# 1 0.008197 -0.002673 -0.001881 0.002299 0.003146 -0.001225
# 2 -0.002673 0.007710 -0.001748 0.004129 0.006721 0.001876
# 3 -0.001881 -0.001748 0.010039 -0.006019 -0.009894 0.000108
# 4 0.002299 0.004129 -0.006019 0.071010 0.087150 0.007717
# 5 0.003146 0.006721 -0.009894 0.087150 0.147268 0.011368
# 6 -0.001225 0.001876 0.000108 0.007717 0.011368 0.030069
#
#
# Mechanical properties :
#
#
# Convention : Reuss Voigt Hill
#
# Bulk Modulus (GPa) = 74.96547 78.63449 76.79998
# Shear Modulus (GPa) = 17.16189 42.63003 29.89596
#
# Velocity S-wave (km/s) = 2.71292 4.27574 3.58063
# Velocity P-wave (km/s) = 6.47783 7.62224 7.07322
#
# Compressibility (1/GPa) = 0.01333947
#
# Stress axis : x y z
#
# Youngs Moduli (GPa) = 121.99802 129.70977 99.61513
#
# Poissons Ratio (x) = 0.34677 0.18741
# Poissons Ratio (y) = 0.32616 0.17412
# Poissons Ratio (z) = 0.22952 0.22673
#
# Static dielectric constant tensor:
#      x y z
#    x 3.676480 -0.280260 0.041800 
#    y -0.280260 4.378790 0.016390 
#    z 0.041800 0.016390 4.499700 
# 
# 
# High freq. dielectric constant tensor:
#      x y z
#    x 1.922410 -0.024020 0.002380 
#    y -0.024020 1.931140 0.001600 
#    z 0.002380 0.001600 1.944030 
# 
# From -- ./inp_files/382264.got.cif
#   From: 2010.06.25/outbox.cif.g09.slc.cpg/sg2_192_cif.got.tgz:382264.got - 2010.06.27 13:26:56.
