data_PCOD8036851
_publ_section_title
;
Structure prediction by ZEFSAII (Michael W. Deem and Ramdas Pophale) SiO2 
 PCOD8036851
Probable space group: P -1
;
_chemical_formula_sum "Si O2"
_cell_formula_units_Z 14
_cell_length_a 18.395154
_cell_length_b 7.780604
_cell_length_c 5.455421
_cell_angle_alpha 62.049930
_cell_angle_beta 115.268455
_cell_angle_gamma 120.119835
_cell_volume 577.529787
_symmetry_space_group_name_H-M "P -1"
_symmetry_group_IT_number 2
_symmetry_cell_setting 'triclinic'
loop_
_space_group_symop_operation_xyz
x,y,z
-x,-y,-z
loop_
_atom_site_type_symbol
_atom_site_label
_atom_site_fract_x
_atom_site_fract_y
_atom_site_fract_z
Si Si1 0.156414 0.428808 0.026812
Si Si2 0.835442 0.211013 0.901272
Si Si3 0.601214 0.627669 0.063406
Si Si4 0.979260 0.263639 0.693404
Si Si5 0.296670 0.662793 0.686260
Si Si6 0.340846 0.111034 0.528368
Si Si7 0.172114 0.067928 0.529922
O O1 0.126412 0.614926 0.943744
O O2 0.179354 0.308269 0.370852
O O3 0.239963 0.518266 0.916783
O O4 0.073061 0.250050 0.892031
O O5 0.916229 0.209087 0.870181
O O6 0.763539 0.285833 0.633564
O O7 0.791912 0.981464 0.125262
O O8 0.647324 0.460056 0.262746
O O9 0.623228 0.760409 0.257640
O O10 0.500000 0.500000 0.000000
O O11 0.623137 0.762907 0.753820
O O12 0.928048 0.094414 0.526923
O O13 0.000000 0.500000 0.500000
O O14 0.360292 0.896087 0.714635
O O15 0.234269 0.036769 0.422697
#
# Coordination Sequence:
#
# PCOD8036851 Si02
#       7
#     2   2   2   2   2   2   2
#     4  12  25  43  67 105 144 203 253 311 377 443
#     4  12  23  43  68  99 144 199 255 309 376 441
#     4  12  30  52  82 121 155 194 255 323 393 478
#     4  12  23  43  64  99 152 193 257 317 368 441
#     4  12  26  47  81 106 155 205 252 309 396 455
#     4  12  25  50  81 114 159 198 255 318 388 469
#     4  12  25  42  69 104 142 196 254 308 375 442
#
# _framework density 24.241174000000001
#
# number of rings (size 3 to 8) (size 9 to 14) (size 15 to 20)
#    0.000    0.000    7.143    3.000    0.000    2.857 
#    0.000    0.000    0.000    0.000    0.000    0.000 
#    0.000    0.000    0.000    0.000    0.000    0.000 
#
# Total GULP energy -173517.371359 kJ/mol
# GULP energy per Si atom -12394.097954 kJ/mol
# Density = 2.418600 g / cm^3
# Si number density = 24.241174 Si / 1000 Ang^3
#
#
#
# Elastic Constant Matrix: (Units=GPa)
#
#
# Indices 1 2 3 4 5 6 
#
# 1 87.6006 51.8907 50.1809 -14.1060 -5.4302 9.6349
# 2 51.8907 127.4766 60.0281 -0.1430 -1.2716 4.8627
# 3 50.1809 60.0281 189.2577 -36.9209 -13.2367 3.9820
# 4 -14.1060 -0.1430 -36.9209 39.2037 -3.1608 -4.5921
# 5 -5.4302 -1.2716 -13.2367 -3.1608 36.4861 -3.4633
# 6 9.6349 4.8627 3.9820 -4.5921 -3.4633 33.7055
#
#
#
# Elastic Compliance Matrix: (Units=1/GPa)
#
#
# Indices 1 2 3 4 5 6 
#
# 1 0.017066 -0.006090 -0.001525 0.004480 0.001876 -0.003016
# 2 -0.006090 0.011921 -0.003406 -0.005606 -0.002267 -0.000573
# 3 -0.001525 -0.003406 0.008535 0.007925 0.003567 0.001365
# 4 0.004480 -0.005606 0.007925 0.035598 0.006824 0.004143
# 5 0.001876 -0.002267 0.003567 0.006824 0.029812 0.003362
# 6 -0.003016 -0.000573 0.001365 0.004143 0.003362 0.031362
#
#
# Mechanical properties :
#
#
# Convention : Reuss Voigt Hill
#
# Bulk Modulus (GPa) = 64.60025 80.94828 72.77427
# Shear Modulus (GPa) = 30.96060 38.02807 34.49434
#
# Velocity S-wave (km/s) = 3.57766 3.96503 3.77631
# Velocity P-wave (km/s) = 6.61612 7.37749 7.00715
#
# Compressibility (1/GPa) = 0.01547982
#
# Stress axis : x y z
#
# Youngs Moduli (GPa) = 58.59667 83.88889 117.16372
#
# Poissons Ratio (x) = 0.51089 0.17862
# Poissons Ratio (y) = 0.35686 0.39908
# Poissons Ratio (z) = 0.08933 0.28574
#
# Static dielectric constant tensor:
#      x y z
#    x 4.098240 -0.007970 -0.038130 
#    y -0.007970 4.880780 -0.119580 
#    z -0.038130 -0.119580 4.470800 
# 
# 
# High freq. dielectric constant tensor:
#      x y z
#    x 1.942730 -0.005000 -0.002720 
#    y -0.005000 1.979590 -0.013060 
#    z -0.002720 -0.013060 1.980780 
# 
# From -- ./inp_files/106137.got.cif
#   From: 2010.06.25/outbox.cif.g09.slc.cpg/sg2_54_cif.got.tgz:106137.got - 2010.06.27 13:26:56.
