data_PCOD8036015
_publ_section_title
;
Structure prediction by ZEFSAII (Michael W. Deem and Ramdas Pophale) SiO2 
 PCOD8036015
Probable space group: P -1
;
_chemical_formula_sum "Si O2"
_cell_formula_units_Z 14
_cell_length_a 24.493219
_cell_length_b 5.860040
_cell_length_c 14.437326
_cell_angle_alpha 56.525844
_cell_angle_beta 20.506559
_cell_angle_gamma 55.871114
_cell_volume 598.473099
_symmetry_space_group_name_H-M "P -1"
_symmetry_group_IT_number 2
_symmetry_cell_setting 'triclinic'
loop_
_space_group_symop_operation_xyz
x,y,z
-x,-y,-z
loop_
_atom_site_type_symbol
_atom_site_label
_atom_site_fract_x
_atom_site_fract_y
_atom_site_fract_z
Si Si1 0.060960 0.792241 0.363284
Si Si2 0.322051 0.475803 0.766121
Si Si3 0.733758 0.075199 0.562238
Si Si4 0.928728 0.040662 0.886799
Si Si5 0.465975 0.823074 0.966425
Si Si6 0.288045 0.389883 0.634135
Si Si7 0.373986 0.889691 0.891238
O O1 0.025730 0.997920 0.284878
O O2 0.000000 0.500000 0.500000
O O3 0.248378 0.688161 0.108626
O O4 0.000000 0.000000 0.500000
O O5 0.500000 0.500000 0.500000
O O6 0.284510 0.544349 0.703091
O O7 0.292938 0.174723 0.910221
O O8 0.199193 0.686041 0.971322
O O9 0.728941 0.396839 0.471630
O O10 0.634502 0.933115 0.676051
O O11 0.653553 0.039140 0.796571
O O12 0.914924 0.928305 0.309292
O O13 0.854495 0.786475 0.104827
O O14 0.383954 0.912929 0.980289
O O15 0.500000 0.500000 0.000000
O O16 0.455843 0.195896 0.404677
#
# Coordination Sequence:
#
# PCOD8036015 Si02
#       7
#     2   2   2   2   2   2   2
#     4  12  28  48  77 114 153 204 253 325 389 456
#     4  12  24  44  73 107 149 196 249 309 384 458
#     4  11  27  46  74 108 147 193 255 311 377 455
#     4  12  27  47  73 111 152 194 250 316 386 455
#     4  11  25  49  76 104 143 203 248 306 374 453
#     4  12  25  46  72 109 142 197 249 311 384 453
#     4  12  24  49  76 109 147 193 260 313 380 462
#
# _framework density 23.392865
#
# number of rings (size 3 to 8) (size 9 to 14) (size 15 to 20)
#    0.000    0.286    4.286    4.286    2.000    2.857 
#    0.000    0.000    0.000    0.000    0.000    0.000 
#    0.000    0.000    0.000    0.000    0.000    0.000 
#
# Total GULP energy -173572.992539 kJ/mol
# GULP energy per Si atom -12398.070896 kJ/mol
# Density = 2.333962 g / cm^3
# Si number density = 23.392865 Si / 1000 Ang^3
#
#
#
# Elastic Constant Matrix: (Units=GPa)
#
#
# Indices 1 2 3 4 5 6 
#
# 1 119.7699 20.2317 52.2257 -15.4446 -8.0847 -3.5043
# 2 20.2317 100.7740 52.0076 -8.8680 -5.0869 2.8359
# 3 52.2257 52.0076 162.5069 -20.5369 -33.9266 -1.5666
# 4 -15.4446 -8.8680 -20.5369 37.2064 -0.6511 -3.2791
# 5 -8.0847 -5.0869 -33.9266 -0.6511 51.4596 -3.3255
# 6 -3.5043 2.8359 -1.5666 -3.2791 -3.3255 35.1263
#
#
#
# Elastic Compliance Matrix: (Units=1/GPa)
#
#
# Indices 1 2 3 4 5 6 
#
# 1 0.009986 -0.000377 -0.002790 0.002611 -0.000202 0.001127
# 2 -0.000377 0.012074 -0.004050 0.000342 -0.001616 -0.001314
# 3 -0.002790 -0.004050 0.010060 0.003657 0.005931 0.001400
# 4 0.002611 0.000342 0.003657 0.030436 0.003470 0.003566
# 5 -0.000202 -0.001616 0.005931 0.003470 0.023383 0.002913
# 6 0.001127 -0.001314 0.001400 0.003566 0.002913 0.029358
#
#
# Mechanical properties :
#
#
# Convention : Reuss Voigt Hill
#
# Bulk Modulus (GPa) = 56.54059 70.22011 63.38035
# Shear Modulus (GPa) = 36.86595 41.99750 39.43172
#
# Velocity S-wave (km/s) = 3.97413 4.24171 4.11010
# Velocity P-wave (km/s) = 6.72910 7.35339 7.04816
#
# Compressibility (1/GPa) = 0.01768641
#
# Stress axis : x y z
#
# Youngs Moduli (GPa) = 100.14460 82.81928 99.40381
#
# Poissons Ratio (x) = 0.03123 0.27731
# Poissons Ratio (y) = 0.03777 0.40258
# Poissons Ratio (z) = 0.27937 0.33541
#
# Static dielectric constant tensor:
#      x y z
#    x 4.305370 0.016170 -0.103360 
#    y 0.016170 4.045670 -0.277320 
#    z -0.103360 -0.277320 4.449880 
# 
# 
# High freq. dielectric constant tensor:
#      x y z
#    x 1.938640 -0.002710 -0.001920 
#    y -0.002710 1.912170 -0.011700 
#    z -0.001920 -0.011700 1.947540 
# 
# From -- ./inp_files/71041.got.cif
#   From: 2010.06.25/outbox.cif.g09.slc.cpg/sg2_36_cif.got.tgz:71041.got - 2010.06.27 13:26:56.
