data_PCOD8036300
_publ_section_title
;
Structure prediction by ZEFSAII (Michael W. Deem and Ramdas Pophale) SiO2 
 PCOD8036300
Probable space group: P -1
;
_chemical_formula_sum "Si O2"
_cell_formula_units_Z 16
_cell_length_a 6.515019
_cell_length_b 11.318223
_cell_length_c 15.996305
_cell_angle_alpha 48.501991
_cell_angle_beta 50.820765
_cell_angle_gamma 58.393768
_cell_volume 673.430698
_symmetry_space_group_name_H-M "P -1"
_symmetry_group_IT_number 2
_symmetry_cell_setting 'triclinic'
loop_
_space_group_symop_operation_xyz
x,y,z
-x,-y,-z
loop_
_atom_site_type_symbol
_atom_site_label
_atom_site_fract_x
_atom_site_fract_y
_atom_site_fract_z
Si Si1 0.137249 0.058675 0.606001
Si Si2 0.338208 0.251758 0.971741
Si Si3 0.241280 0.802993 0.834600
Si Si4 0.253026 0.444157 0.745258
Si Si5 0.297585 0.963817 0.908667
Si Si6 0.443079 0.770666 0.358367
Si Si7 0.385627 0.497161 0.123480
Si Si8 0.388359 0.776955 0.567184
O O1 0.216033 0.971316 0.714886
O O2 0.155313 0.923042 0.591436
O O3 0.337001 0.184917 0.481029
O O4 0.843842 0.163338 0.640186
O O5 0.338039 0.285535 0.856453
O O6 0.497799 0.376849 0.911429
O O7 0.501400 0.079672 0.043032
O O8 0.031308 0.269520 0.072901
O O9 0.310788 0.818175 0.907679
O O10 0.489169 0.679148 0.788958
O O11 0.420366 0.401993 0.635501
O O12 0.330349 0.603852 0.692996
O O13 0.934420 0.475887 0.797841
O O14 0.353353 0.113212 0.771733
O O15 0.000000 0.000000 0.000000
O O16 0.400345 0.764935 0.470259
O O17 0.500000 0.500000 0.000000
#
# Coordination Sequence:
#
# PCOD8036300 Si02
#       8
#     2   2   2   2   2   2   2   2
#     4  11  26  47  78 109 136 195 249 299 365 427
#     4  12  24  44  70 106 147 187 239 293 365 433
#     4  12  24  43  71 106 143 192 239 299 359 429
#     4  12  29  46  75 110 147 200 236 298 371 436
#     4  12  26  42  71 108 149 190 236 300 362 433
#     4  12  26  48  74 106 148 191 243 303 361 432
#     4  12  25  42  68 107 149 190 240 293 365 429
#     4  11  27  50  73 106 147 189 249 301 361 431
#
# _framework density 23.758939000000002
#
# number of rings (size 3 to 8) (size 9 to 14) (size 15 to 20)
#    0.000    0.250    5.000    3.375    5.250    5.500 
#    0.000    0.000    0.000    0.000    0.000    0.000 
#    0.000    0.000    0.000    0.000    0.000    0.000 
#
# Total GULP energy -198361.299562 kJ/mol
# GULP energy per Si atom -12397.581223 kJ/mol
# Density = 2.370486 g / cm^3
# Si number density = 23.758939 Si / 1000 Ang^3
#
#
#
# Elastic Constant Matrix: (Units=GPa)
#
#
# Indices 1 2 3 4 5 6 
#
# 1 96.4370 38.1178 31.3846 11.4983 -4.7697 -10.5335
# 2 38.1178 114.0676 23.1648 20.3011 -15.1979 -8.9662
# 3 31.3846 23.1648 85.7641 6.6256 -10.0861 -6.8228
# 4 11.4983 20.3011 6.6256 42.1008 5.8042 -5.8999
# 5 -4.7697 -15.1979 -10.0861 5.8042 45.4878 1.2116
# 6 -10.5335 -8.9662 -6.8228 -5.8999 1.2116 40.7757
#
#
#
# Elastic Compliance Matrix: (Units=1/GPa)
#
#
# Indices 1 2 3 4 5 6 
#
# 1 0.013241 -0.003390 -0.003754 -0.001055 -0.000493 0.001909
# 2 -0.003390 0.011549 -0.000986 -0.004931 0.003896 0.000669
# 3 -0.003754 -0.000986 0.013722 -0.000862 0.002405 0.000913
# 4 -0.001055 -0.004931 -0.000862 0.027694 -0.005554 0.002671
# 5 -0.000493 0.003896 0.002405 -0.005554 0.024487 -0.000399
# 6 0.001909 0.000669 0.000913 0.002671 -0.000399 0.025716
#
#
# Mechanical properties :
#
#
# Convention : Reuss Voigt Hill
#
# Bulk Modulus (GPa) = 44.94237 53.51147 49.22692
# Shear Modulus (GPa) = 35.69168 39.24627 37.46898
#
# Velocity S-wave (km/s) = 3.88008 4.06871 3.97551
# Velocity P-wave (km/s) = 6.24743 6.68162 6.46817
#
# Compressibility (1/GPa) = 0.02225072
#
# Stress axis : x y z
#
# Youngs Moduli (GPa) = 75.52145 86.58544 72.87398
#
# Poissons Ratio (x) = 0.29354 0.27360
# Poissons Ratio (y) = 0.25603 0.07189
# Poissons Ratio (z) = 0.28354 0.08541
#
# Static dielectric constant tensor:
#      x y z
#    x 4.600940 -0.054630 0.385970 
#    y -0.054630 4.428700 -0.007800 
#    z 0.385970 -0.007800 4.578840 
# 
# 
# High freq. dielectric constant tensor:
#      x y z
#    x 1.944930 0.003700 -0.000150 
#    y 0.003700 1.946620 -0.003740 
#    z -0.000150 -0.003740 1.951370 
# 
# From -- ./inp_files/549399.got.cif
#   From: 2010.06.25/outbox.cif.g09.slc.cpg/sg2_275_cif.got.tgz:549399.got - 2010.06.27 13:26:56.
