data_PCOD8036493
_publ_section_title
;
Structure prediction by ZEFSAII (Michael W. Deem and Ramdas Pophale) SiO2 
 PCOD8036493
Probable space group: P -1
;
_chemical_formula_sum "Si O2"
_cell_formula_units_Z 14
_cell_length_a 8.917943
_cell_length_b 5.040485
_cell_length_c 17.171236
_cell_angle_alpha 70.047506
_cell_angle_beta 118.999513
_cell_angle_gamma 124.397981
_cell_volume 554.605438
_symmetry_space_group_name_H-M "P -1"
_symmetry_group_IT_number 2
_symmetry_cell_setting 'triclinic'
loop_
_space_group_symop_operation_xyz
x,y,z
-x,-y,-z
loop_
_atom_site_type_symbol
_atom_site_label
_atom_site_fract_x
_atom_site_fract_y
_atom_site_fract_z
Si Si1 0.508421 0.802281 0.253519
Si Si2 0.174027 0.778362 0.467262
Si Si3 0.437727 0.732761 0.419139
Si Si4 0.687117 0.779821 0.849483
Si Si5 0.041861 0.353024 0.801849
Si Si6 0.363926 0.629946 0.981597
Si Si7 0.942485 0.037775 0.299203
O O1 0.412132 0.693012 0.324833
O O2 0.436717 0.472815 0.222442
O O3 0.437691 0.042935 0.172630
O O4 0.743790 0.975312 0.299065
O O5 0.232662 0.683386 0.408578
O O6 0.000000 0.500000 0.500000
O O7 0.372874 0.913449 0.554244
O O8 0.096170 0.028395 0.400589
O O9 0.500000 0.500000 0.500000
O O10 0.741478 0.593040 0.947608
O O11 0.893651 0.040286 0.842212
O O12 0.216741 0.585944 0.880079
O O13 0.950410 0.587252 0.737001
O O14 0.110318 0.226775 0.756523
O O15 0.500000 0.500000 0.000000
O O16 0.500000 0.000000 0.000000
#
# Coordination Sequence:
#
# PCOD8036493 Si02
#       7
#     2   2   2   2   2   2   2
#     4  12  27  47  74 109 148 199 247 306 372 444
#     4  11  28  50  74 111 148 203 252 315 376 449
#     4  11  28  48  75 107 154 195 255 313 377 444
#     4  12  27  47  75 109 150 192 246 308 371 443
#     4  12  27  47  75 111 147 195 243 310 370 445
#     4  12  25  48  75 108 147 192 245 300 371 445
#     4  12  27  47  75 108 149 195 253 301 375 446
#
# _framework density 25.243172000000001
#
# number of rings (size 3 to 8) (size 9 to 14) (size 15 to 20)
#    0.000    0.286    0.000    8.143   14.000    1.143 
#    0.000    4.286    0.000    0.000    0.000    0.000 
#    0.000    0.000    0.000    0.000    0.000    0.000 
#
# Total GULP energy -173578.047307 kJ/mol
# GULP energy per Si atom -12398.431951 kJ/mol
# Density = 2.518572 g / cm^3
# Si number density = 25.243172 Si / 1000 Ang^3
#
#
#
# Elastic Constant Matrix: (Units=GPa)
#
#
# Indices 1 2 3 4 5 6 
#
# 1 143.2320 36.2306 23.7252 -7.4592 2.6227 4.9058
# 2 36.2306 132.9444 22.7695 -15.5447 -4.8141 -7.7920
# 3 23.7252 22.7695 92.8071 -18.0401 -2.6128 -1.0508
# 4 -7.4592 -15.5447 -18.0401 53.9335 -1.0654 1.3054
# 5 2.6227 -4.8141 -2.6128 -1.0654 41.6273 -5.1001
# 6 4.9058 -7.7920 -1.0508 1.3054 -5.1001 48.7363
#
#
#
# Elastic Compliance Matrix: (Units=1/GPa)
#
#
# Indices 1 2 3 4 5 6 
#
# 1 0.007796 -0.001966 -0.001551 0.000004 -0.000967 -0.001234
# 2 -0.001966 0.008617 -0.001208 0.001793 0.001291 0.001637
# 3 -0.001551 -0.001208 0.012179 0.003522 0.000839 0.000219
# 4 0.000004 0.001793 0.003522 0.020257 0.000937 -0.000082
# 5 -0.000967 0.001291 0.000839 0.000937 0.024662 0.002878
# 6 -0.001234 0.001637 0.000219 -0.000082 0.002878 0.021212
#
#
# Mechanical properties :
#
#
# Convention : Reuss Voigt Hill
#
# Bulk Modulus (GPa) = 52.24233 59.38156 55.81195
# Shear Modulus (GPa) = 45.22661 47.94331 46.58496
#
# Velocity S-wave (km/s) = 4.23737 4.36278 4.30053
# Velocity P-wave (km/s) = 6.68438 6.99666 6.84230
#
# Compressibility (1/GPa) = 0.01914156
#
# Stress axis : x y z
#
# Youngs Moduli (GPa) = 128.27041 116.05011 82.11031
#
# Poissons Ratio (x) = 0.22814 0.12737
# Poissons Ratio (y) = 0.25216 0.09919
# Poissons Ratio (z) = 0.19897 0.14019
#
# Static dielectric constant tensor:
#      x y z
#    x 4.809400 0.087830 0.159400 
#    y 0.087830 4.811700 0.149030 
#    z 0.159400 0.149030 5.066720 
# 
# 
# High freq. dielectric constant tensor:
#      x y z
#    x 2.017400 0.003500 0.001830 
#    y 0.003500 2.027160 -0.002150 
#    z 0.001830 -0.002150 2.014470 
# 
# From -- ./inp_files/553380.got.cif
#   From: 2010.06.25/outbox.cif.g09.slc.cpg/sg2_277_cif.got.tgz:553380.got - 2010.06.27 13:26:56.
