data_PCOD8036154
_publ_section_title
;
Structure prediction by ZEFSAII (Michael W. Deem and Ramdas Pophale) SiO2 
 PCOD8036154
Probable space group: P -1
;
_chemical_formula_sum "Si O2"
_cell_formula_units_Z 16
_cell_length_a 17.304235
_cell_length_b 9.111922
_cell_length_c 9.517420
_cell_angle_alpha 91.761931
_cell_angle_beta 87.535906
_cell_angle_gamma 150.085350
_cell_volume 747.636072
_symmetry_space_group_name_H-M "P -1"
_symmetry_group_IT_number 2
_symmetry_cell_setting 'triclinic'
loop_
_space_group_symop_operation_xyz
x,y,z
-x,-y,-z
loop_
_atom_site_type_symbol
_atom_site_label
_atom_site_fract_x
_atom_site_fract_y
_atom_site_fract_z
Si Si1 0.476341 0.027926 0.347844
Si Si2 0.012669 0.943548 0.347561
Si Si3 0.768359 0.496837 0.138877
Si Si4 0.549975 0.671492 0.133769
Si Si5 0.575314 0.714672 0.624306
Si Si6 0.304484 0.520811 0.171351
Si Si7 0.118498 0.645003 0.881504
Si Si8 0.059457 0.695163 0.377296
O O1 0.615176 0.229574 0.235052
O O2 0.445794 0.146856 0.384175
O O3 0.500000 0.000000 0.500000
O O4 0.334999 0.719795 0.264415
O O5 0.981128 0.725159 0.388000
O O6 0.884177 0.782962 0.237520
O O7 0.173979 0.223483 0.261714
O O8 0.000000 0.000000 0.500000
O O9 0.839653 0.455501 0.101841
O O10 0.740915 0.525921 0.989436
O O11 0.523445 0.504949 0.246070
O O12 0.454913 0.664504 0.165683
O O13 0.729906 0.005434 0.121026
O O14 0.500000 0.500000 0.000000
O O15 0.500000 0.500000 0.500000
O O16 0.756631 0.982026 0.633576
O O17 0.015203 0.511996 0.751836
O O18 0.000000 0.500000 0.000000
O O19 0.000000 0.500000 0.500000
#
# Coordination Sequence:
#
# PCOD8036154 Si02
#       8
#     2   2   2   2   2   2   2   2
#     4  12  27  46  76 104 145 192 237 303 367 433
#     4  11  26  47  72 104 146 189 239 301 364 436
#     4  11  26  45  73 106 141 193 242 293 370 435
#     4  12  25  46  74 105 144 189 243 303 360 427
#     4  12  27  46  74 107 142 187 246 297 364 432
#     4  12  25  48  73 104 148 187 249 301 358 444
#     4  11  26  46  72 103 146 189 240 299 364 439
#     4  11  26  46  70 103 143 189 240 294 366 433
#
# _framework density 21.400786
#
# number of rings (size 3 to 8) (size 9 to 14) (size 15 to 20)
#    0.000    0.500    2.500    4.500   12.250    0.000 
#    4.500    0.000    0.000    0.000    0.000    0.000 
#    0.000    0.000    0.000    0.000    0.000    0.000 
#
# Total GULP energy -198296.529131 kJ/mol
# GULP energy per Si atom -12393.533071 kJ/mol
# Density = 2.135208 g / cm^3
# Si number density = 21.400786 Si / 1000 Ang^3
#
#
#
# Elastic Constant Matrix: (Units=GPa)
#
#
# Indices 1 2 3 4 5 6 
#
# 1 77.0338 21.5042 44.1096 6.5010 9.1157 -13.5487
# 2 21.5042 150.4257 74.1084 14.4042 8.4402 3.6399
# 3 44.1096 74.1084 200.7224 8.6882 8.7791 -8.2601
# 4 6.5010 14.4042 8.6882 54.3114 -1.9198 -2.8528
# 5 9.1157 8.4402 8.7791 -1.9198 34.0069 1.0129
# 6 -13.5487 3.6399 -8.2601 -2.8528 1.0129 40.4288
#
#
#
# Elastic Compliance Matrix: (Units=1/GPa)
#
#
# Indices 1 2 3 4 5 6 
#
# 1 0.016229 -0.000696 -0.002897 -0.001165 -0.003642 0.004918
# 2 -0.000696 0.008465 -0.002910 -0.001828 -0.001216 -0.001688
# 3 -0.002897 -0.002910 0.006729 0.000069 -0.000255 0.000677
# 4 -0.001165 -0.001828 0.000069 0.019147 0.001797 0.001094
# 5 -0.003642 -0.001216 -0.000255 0.001797 0.030905 -0.001811
# 6 0.004918 -0.001688 0.000677 0.001094 -0.001811 0.026796
#
#
# Mechanical properties :
#
#
# Convention : Reuss Voigt Hill
#
# Bulk Modulus (GPa) = 54.29661 78.62515 66.46088
# Shear Modulus (GPa) = 39.24195 44.98005 42.11100
#
# Velocity S-wave (km/s) = 4.28678 4.58951 4.44072
# Velocity P-wave (km/s) = 7.06600 8.05630 7.57734
#
# Compressibility (1/GPa) = 0.01841736
#
# Stress axis : x y z
#
# Youngs Moduli (GPa) = 61.61853 118.13640 148.61097
#
# Poissons Ratio (x) = 0.08219 0.43058
# Poissons Ratio (y) = 0.04287 0.43239
# Poissons Ratio (z) = 0.17853 0.34372
#
# Static dielectric constant tensor:
#      x y z
#    x 4.778200 0.099200 0.608110 
#    y 0.099200 4.321520 0.131500 
#    z 0.608110 0.131500 4.573320 
# 
# 
# High freq. dielectric constant tensor:
#      x y z
#    x 1.840770 -0.000770 -0.000490 
#    y -0.000770 1.860950 0.003590 
#    z -0.000490 0.003590 1.866760 
# 
# From -- ./inp_files/190834.got.cif
#   From: 2010.06.25/outbox.cif.g09.slc.cpg/sg2_96_cif.got.tgz:190834.got - 2010.06.27 13:26:56.
