data_PCOD8036285
_publ_section_title
;
Structure prediction by ZEFSAII (Michael W. Deem and Ramdas Pophale) SiO2 
 PCOD8036285
Probable space group: P -1
;
_chemical_formula_sum "Si O2"
_cell_formula_units_Z 12
_cell_length_a 21.371727
_cell_length_b 5.669657
_cell_length_c 15.649029
_cell_angle_alpha 102.438807
_cell_angle_beta 159.932331
_cell_angle_gamma 65.536605
_cell_volume 492.353096
_symmetry_space_group_name_H-M "P -1"
_symmetry_group_IT_number 2
_symmetry_cell_setting 'triclinic'
loop_
_space_group_symop_operation_xyz
x,y,z
-x,-y,-z
loop_
_atom_site_type_symbol
_atom_site_label
_atom_site_fract_x
_atom_site_fract_y
_atom_site_fract_z
Si Si1 0.567678 0.561360 0.272891
Si Si2 0.841507 0.724528 0.737101
Si Si3 0.373494 0.861688 0.361129
Si Si4 0.144962 0.629985 0.785738
Si Si5 0.644895 0.969992 0.102544
Si Si6 0.999913 0.886573 0.798030
O O1 0.673487 0.658450 0.482786
O O2 0.736491 0.185381 0.455304
O O3 0.304766 0.728704 0.981175
O O4 0.536468 0.692401 0.147738
O O5 0.998333 0.708130 0.862513
O O6 0.682077 0.061123 0.603584
O O7 0.000000 0.500000 0.000000
O O8 0.500000 0.500000 0.500000
O O9 0.500000 0.000000 0.500000
O O10 0.144361 0.009147 0.018105
O O11 0.285606 0.289030 0.898696
O O12 0.888756 0.890067 0.436798
O O13 0.116759 0.632786 0.852144
O O14 0.500000 0.000000 0.000000
#
# Coordination Sequence:
#
# PCOD8036285 Si02
#       6
#     2   2   2   2   2   2
#     4  12  26  46  78 109 154 196 266 314 407 462
#     4  12  26  50  73 111 157 212 260 329 394 472
#     4  12  28  48  78 112 160 214 273 330 395 474
#     4  11  26  47  75 114 149 198 255 325 395 480
#     4  11  26  51  78 108 154 196 256 322 408 475
#     4  12  28  47  76 111 157 202 265 325 399 470
#
# _framework density 24.372752999999999
#
# number of rings (size 3 to 8) (size 9 to 14) (size 15 to 20)
#    0.000    0.333    1.667    6.000    7.000    6.667 
#    0.000    0.000    0.000    0.000    0.000    0.000 
#    0.000    0.000    0.000    0.000    0.000    0.000 
#
# Total GULP energy -148767.726213 kJ/mol
# GULP energy per Si atom -12397.310518 kJ/mol
# Density = 2.431728 g / cm^3
# Si number density = 24.372753 Si / 1000 Ang^3
#
#
#
# Elastic Constant Matrix: (Units=GPa)
#
#
# Indices 1 2 3 4 5 6 
#
# 1 222.1737 84.7970 77.1207 3.7980 -2.4667 -10.6094
# 2 84.7970 116.0979 53.6824 6.7231 8.3817 -5.5580
# 3 77.1207 53.6824 178.2476 17.5947 6.4262 16.4732
# 4 3.7980 6.7231 17.5947 51.6188 7.5669 -6.1357
# 5 -2.4667 8.3817 6.4262 7.5669 35.1357 -7.6367
# 6 -10.6094 -5.5580 16.4732 -6.1357 -7.6367 53.7997
#
#
#
# Elastic Compliance Matrix: (Units=1/GPa)
#
#
# Indices 1 2 3 4 5 6 
#
# 1 0.006924 -0.004210 -0.002049 0.000653 0.002145 0.001937
# 2 -0.004210 0.012857 -0.001994 -0.000192 -0.002807 0.000688
# 3 -0.002049 -0.001994 0.007701 -0.002432 -0.001298 -0.003430
# 4 0.000653 -0.000192 -0.002432 0.021004 -0.003385 0.002768
# 5 0.002145 -0.002807 -0.001298 -0.003385 0.031243 0.004579
# 6 0.001937 0.000688 -0.003430 0.002768 0.004579 0.021056
#
#
# Mechanical properties :
#
#
# Convention : Reuss Voigt Hill
#
# Bulk Modulus (GPa) = 91.10308 105.30216 98.20262
# Shear Modulus (GPa) = 41.33935 48.17212 44.75574
#
# Velocity S-wave (km/s) = 4.12288 4.45058 4.28986
# Velocity P-wave (km/s) = 7.75399 8.34918 8.05708
#
# Compressibility (1/GPa) = 0.01097658
#
# Stress axis : x y z
#
# Youngs Moduli (GPa) = 144.42335 77.77773 129.85470
#
# Poissons Ratio (x) = 0.32744 0.26603
# Poissons Ratio (y) = 0.60802 0.25895
# Poissons Ratio (z) = 0.29587 0.15510
#
# Static dielectric constant tensor:
#      x y z
#    x 5.344810 -0.734320 -0.169830 
#    y -0.734320 4.728660 0.147270 
#    z -0.169830 0.147270 5.078100 
# 
# 
# High freq. dielectric constant tensor:
#      x y z
#    x 1.974100 -0.014550 -0.000830 
#    y -0.014550 1.970010 0.008340 
#    z -0.000830 0.008340 1.994870 
# 
# From -- ./inp_files/7239.got.cif
#   From: 2010.06.25/outbox.cif.g09.slc.cpg/sg2_4_cif.got.tgz:7239.got - 2010.06.27 13:26:56.
