data_PCOD8036505
_publ_section_title
;
Structure prediction by ZEFSAII (Michael W. Deem and Ramdas Pophale) SiO2 
 PCOD8036505
Probable space group: P -1
;
_chemical_formula_sum "Si O2"
_cell_formula_units_Z 16
_cell_length_a 5.051488
_cell_length_b 13.009544
_cell_length_c 14.002408
_cell_angle_alpha 109.963099
_cell_angle_beta 56.407690
_cell_angle_gamma 83.462482
_cell_volume 664.423770
_symmetry_space_group_name_H-M "P -1"
_symmetry_group_IT_number 2
_symmetry_cell_setting 'triclinic'
loop_
_space_group_symop_operation_xyz
x,y,z
-x,-y,-z
loop_
_atom_site_type_symbol
_atom_site_label
_atom_site_fract_x
_atom_site_fract_y
_atom_site_fract_z
Si Si1 0.637377 0.609892 0.104782
Si Si2 0.138775 0.155428 0.216098
Si Si3 0.674267 0.863045 0.435714
Si Si4 0.320297 0.535469 0.316537
Si Si5 0.048472 0.750518 0.140247
Si Si6 0.794220 0.423248 0.345236
Si Si7 0.048368 0.784278 0.526641
Si Si8 0.150369 0.938837 0.050172
O O1 0.370369 0.586089 0.220979
O O2 0.432152 0.646157 0.054157
O O3 0.739037 0.713589 0.158698
O O4 0.000000 0.500000 0.000000
O O5 0.848288 0.285310 0.294480
O O6 0.215934 0.157214 0.314389
O O7 0.027433 0.044526 0.186390
O O8 0.445294 0.130595 0.071718
O O9 0.414786 0.795182 0.475116
O O10 0.949736 0.814420 0.281304
O O11 0.883022 0.852671 0.487094
O O12 0.500000 0.000000 0.500000
O O13 0.686139 0.463809 0.270863
O O14 0.102916 0.645933 0.463443
O O15 0.137083 0.443810 0.309463
O O16 0.043031 0.836410 0.080932
O O17 0.500000 0.500000 0.500000
O O18 0.000000 0.000000 0.000000
#
# Coordination Sequence:
#
# PCOD8036505 Si02
#       8
#     2   2   2   2   2   2   2   2
#     4  12  28  47  76 109 150 200 248 313 376 443
#     4  11  29  48  74 109 148 202 256 308 378 448
#     4  12  25  44  74 111 141 194 244 308 377 437
#     4  12  25  47  72 111 152 188 246 310 385 446
#     4  12  26  50  76 110 150 195 255 308 377 451
#     4  12  27  44  77 111 147 195 243 308 381 451
#     4  12  25  46  76 106 153 188 240 318 376 445
#     4  11  30  51  75 105 153 207 257 311 366 454
#
# _framework density 24.081019000000001
#
# number of rings (size 3 to 8) (size 9 to 14) (size 15 to 20)
#    0.000    0.250    3.750    3.375   12.250    0.000 
#    0.000    0.000    0.000    0.000    0.000    0.000 
#    0.000    0.000    0.000    0.000    0.000    0.000 
#
# Total GULP energy -198327.714947 kJ/mol
# GULP energy per Si atom -12395.482184 kJ/mol
# Density = 2.402621 g / cm^3
# Si number density = 24.081019 Si / 1000 Ang^3
#
#
#
# Elastic Constant Matrix: (Units=GPa)
#
#
# Indices 1 2 3 4 5 6 
#
# 1 99.8421 21.2692 10.1673 -12.5140 0.8982 -8.6748
# 2 21.2692 115.8546 37.5088 -10.6223 -3.6343 -13.9886
# 3 10.1673 37.5088 99.3418 3.4805 7.0131 -2.1251
# 4 -12.5140 -10.6223 3.4805 40.9218 -9.5395 0.0588
# 5 0.8982 -3.6343 7.0131 -9.5395 31.6116 -5.9129
# 6 -8.6748 -13.9886 -2.1251 0.0588 -5.9129 43.8240
#
#
#
# Elastic Compliance Matrix: (Units=1/GPa)
#
#
# Indices 1 2 3 4 5 6 
#
# 1 0.010925 -0.001163 -0.000835 0.003367 0.001112 0.001896
# 2 -0.001163 0.011230 -0.004475 0.003911 0.004189 0.003697
# 3 -0.000835 -0.004475 0.012253 -0.003523 -0.004574 -0.001612
# 4 0.003367 0.003911 -0.003523 0.029234 0.010543 0.003127
# 5 0.001112 0.004189 -0.004574 0.010543 0.037473 0.006377
# 6 0.001896 0.003697 -0.001612 0.003127 0.006377 0.025152
#
#
# Mechanical properties :
#
#
# Convention : Reuss Voigt Hill
#
# Bulk Modulus (GPa) = 46.59128 50.32546 48.45837
# Shear Modulus (GPa) = 34.16047 39.67769 36.91908
#
# Velocity S-wave (km/s) = 3.77047 4.06356 3.91975
# Velocity P-wave (km/s) = 6.19233 6.55442 6.37595
#
# Compressibility (1/GPa) = 0.02146324
#
# Stress axis : x y z
#
# Youngs Moduli (GPa) = 91.53067 89.04562 81.61181
#
# Poissons Ratio (x) = 0.10355 0.06814
# Poissons Ratio (y) = 0.10644 0.36520
# Poissons Ratio (z) = 0.07643 0.39847
#
# Static dielectric constant tensor:
#      x y z
#    x 4.643390 -0.076400 0.031650 
#    y -0.076400 4.490330 0.150480 
#    z 0.031650 0.150480 4.571900 
# 
# 
# High freq. dielectric constant tensor:
#      x y z
#    x 1.956800 -0.006460 0.007320 
#    y -0.006460 1.970520 0.003600 
#    z 0.007320 0.003600 1.959340 
# 
# From -- ./inp_files/482872.got.cif
#   From: 2010.06.25/outbox.cif.g09.slc.cpg/sg2_242_cif.got.tgz:482872.got - 2010.06.27 13:26:56.
