data_PCOD8036605
_publ_section_title
;
Structure prediction by ZEFSAII (Michael W. Deem and Ramdas Pophale) SiO2 
 PCOD8036605
Probable space group: P -1
;
_chemical_formula_sum "Si O2"
_cell_formula_units_Z 12
_cell_length_a 16.895047
_cell_length_b 9.156449
_cell_length_c 13.176371
_cell_angle_alpha 37.395991
_cell_angle_beta 153.949712
_cell_angle_gamma 136.914285
_cell_volume 542.601976
_symmetry_space_group_name_H-M "P -1"
_symmetry_group_IT_number 2
_symmetry_cell_setting 'triclinic'
loop_
_space_group_symop_operation_xyz
x,y,z
-x,-y,-z
loop_
_atom_site_type_symbol
_atom_site_label
_atom_site_fract_x
_atom_site_fract_y
_atom_site_fract_z
Si Si1 0.145354 0.458259 0.276281
Si Si2 0.776181 0.033347 0.429477
Si Si3 0.995879 0.856193 0.179184
Si Si4 0.937209 0.655742 0.536402
Si Si5 0.547666 0.753099 0.968710
Si Si6 0.360445 0.961835 0.270105
O O1 0.029656 0.396011 0.278764
O O2 0.280852 0.688045 0.326400
O O3 0.268536 0.240548 0.507243
O O4 0.000000 0.500000 0.000000
O O5 0.867351 0.014812 0.655073
O O6 0.911248 0.152501 0.435523
O O7 0.597634 0.183682 0.147733
O O8 0.052882 0.586285 0.383357
O O9 0.795498 0.852557 0.996386
O O10 0.000000 0.000000 0.000000
O O11 0.740588 0.756900 0.242518
O O12 0.500000 0.500000 0.000000
O O13 0.541944 0.967227 0.761591
O O14 0.500000 0.000000 0.500000
#
# Coordination Sequence:
#
# PCOD8036605 Si02
#       6
#     2   2   2   2   2   2
#     4  12  25  47  72 103 146 190 235 299 364 420
#     4  12  25  44  72 105 142 190 236 292 365 418
#     4  12  21  43  72 102 138 187 238 286 353 425
#     4  12  24  45  72 104 143 186 240 297 352 432
#     4  12  24  43  71 104 145 184 240 297 350 426
#     4  12  25  44  71 108 144 187 243 291 351 432
#
# _framework density 22.115658
#
# number of rings (size 3 to 8) (size 9 to 14) (size 15 to 20)
#    0.000    0.000    6.667    4.000    0.000    1.333 
#    0.000    1.667    0.000    0.000    0.000    0.000 
#    0.000    0.000    0.000    0.000    0.000    0.000 
#
# Total GULP energy -148872.061035 kJ/mol
# GULP energy per Si atom -12406.005086 kJ/mol
# Density = 2.206532 g / cm^3
# Si number density = 22.115658 Si / 1000 Ang^3
#
#
#
# Elastic Constant Matrix: (Units=GPa)
#
#
# Indices 1 2 3 4 5 6 
#
# 1 128.7380 58.3606 56.2564 0.1384 0.0636 5.6481
# 2 58.3606 145.8279 63.0177 -9.6215 4.6674 -6.5327
# 3 56.2564 63.0177 127.0816 5.4532 17.5301 1.0162
# 4 0.1384 -9.6215 5.4532 36.9994 -3.5045 4.2012
# 5 0.0636 4.6674 17.5301 -3.5045 58.6383 -5.8370
# 6 5.6481 -6.5327 1.0162 4.2012 -5.8370 38.6455
#
#
#
# Elastic Compliance Matrix: (Units=1/GPa)
#
#
# Indices 1 2 3 4 5 6 
#
# 1 0.010652 -0.002904 -0.003408 0.000012 0.001060 -0.001799
# 2 -0.002904 0.009975 -0.003911 0.003026 0.000758 0.001999
# 3 -0.003408 -0.003911 0.011935 -0.003018 -0.003501 -0.000678
# 4 0.000012 0.003026 -0.003018 0.028714 0.002158 -0.002206
# 5 0.001060 0.000758 -0.003501 0.002158 0.018428 0.002614
# 6 -0.001799 0.001999 -0.000678 -0.002206 0.002614 0.027130
#
#
# Mechanical properties :
#
#
# Convention : Reuss Voigt Hill
#
# Bulk Modulus (GPa) = 82.53830 84.10189 83.32010
# Shear Modulus (GPa) = 38.07590 41.79082 39.93336
#
# Velocity S-wave (km/s) = 4.15380 4.35172 4.25392
# Velocity P-wave (km/s) = 7.77224 7.95995 7.86665
#
# Compressibility (1/GPa) = 0.01211559
#
# Stress axis : x y z
#
# Youngs Moduli (GPa) = 93.88239 100.25372 83.78918
#
# Poissons Ratio (x) = 0.29114 0.28551
# Poissons Ratio (y) = 0.27264 0.32771
# Poissons Ratio (z) = 0.31991 0.39211
#
# Static dielectric constant tensor:
#      x y z
#    x 4.332940 -0.047860 -0.039180 
#    y -0.047860 3.656020 -0.401560 
#    z -0.039180 -0.401560 4.742290 
# 
# 
# High freq. dielectric constant tensor:
#      x y z
#    x 1.884890 -0.004240 -0.003120 
#    y -0.004240 1.870650 -0.009600 
#    z -0.003120 -0.009600 1.877020 
# 
# From -- ./inp_files/164949.got.cif
#   From: 2010.06.25/outbox.cif.g09.slc.cpg/sg2_83_cif.got.tgz:164949.got - 2010.06.27 13:26:56.
