data_PCOD8036910
_publ_section_title
;
Structure prediction by ZEFSAII (Michael W. Deem and Ramdas Pophale) SiO2 
 PCOD8036910
Probable space group: P -1
;
_chemical_formula_sum "Si O2"
_cell_formula_units_Z 16
_cell_length_a 9.032819
_cell_length_b 14.735457
_cell_length_c 9.219815
_cell_angle_alpha 68.238830
_cell_angle_beta 109.351016
_cell_angle_gamma 139.301426
_cell_volume 740.628938
_symmetry_space_group_name_H-M "P -1"
_symmetry_group_IT_number 2
_symmetry_cell_setting 'triclinic'
loop_
_space_group_symop_operation_xyz
x,y,z
-x,-y,-z
loop_
_atom_site_type_symbol
_atom_site_label
_atom_site_fract_x
_atom_site_fract_y
_atom_site_fract_z
Si Si1 0.170211 0.270522 0.662830
Si Si2 0.170542 0.025593 0.151380
Si Si3 0.016519 0.622496 0.945905
Si Si4 0.299762 0.446393 0.869270
Si Si5 0.496292 0.107995 0.979065
Si Si6 0.445707 0.719509 0.668768
Si Si7 0.520138 0.281989 0.642561
Si Si8 0.040348 0.401118 0.368648
O O1 0.239180 0.329042 0.814527
O O2 0.379907 0.316761 0.616913
O O3 0.083290 0.330712 0.529112
O O4 0.965702 0.100147 0.701101
O O5 0.348748 0.173428 0.212111
O O6 0.305086 0.018070 0.091248
O O7 0.000000 0.000000 0.000000
O O8 0.907004 0.615465 0.766743
O O9 0.278482 0.763806 0.940368
O O10 0.000000 0.500000 0.000000
O O11 0.910721 0.620058 0.057110
O O12 0.376927 0.575082 0.727766
O O13 0.500000 0.500000 0.000000
O O14 0.453645 0.165139 0.800362
O O15 0.500000 0.000000 0.000000
O O16 0.537560 0.783669 0.498338
O O17 0.221791 0.682406 0.653549
O O18 0.789291 0.430902 0.644442
#
# Coordination Sequence:
#
# PCOD8036910 Si02
#       8
#     2   2   2   2   2   2   2   2
#     4  12  28  46  72 105 150 194 234 297 364 431
#     4  12  26  52  70 102 150 191 237 299 360 429
#     4  12  23  44  73 105 142 187 240 299 354 415
#     4  12  25  43  72 109 140 189 249 293 355 426
#     4  12  26  46  74 104 139 190 243 293 356 431
#     4  12  27  45  73 107 144 192 236 296 366 426
#     4  12  26  48  73 106 149 186 240 303 361 423
#     4  12  25  45  75 107 145 183 241 304 356 424
#
# _framework density 21.603259000000001
#
# number of rings (size 3 to 8) (size 9 to 14) (size 15 to 20)
#    0.000    0.000    6.250    3.000    5.250    2.000 
#    0.000    0.000    0.000    0.000    0.000    0.000 
#    0.000    0.000    0.000    0.000    0.000    0.000 
#
# Total GULP energy -198368.513343 kJ/mol
# GULP energy per Si atom -12398.032084 kJ/mol
# Density = 2.155409 g / cm^3
# Si number density = 21.603259 Si / 1000 Ang^3
#
#
#
# Elastic Constant Matrix: (Units=GPa)
#
#
# Indices 1 2 3 4 5 6 
#
# 1 111.3792 42.4980 25.1007 14.3324 -11.0753 2.4380
# 2 42.4980 104.8565 25.7490 9.9889 1.4267 4.1137
# 3 25.1007 25.7490 109.1532 12.9191 -8.0776 1.9278
# 4 14.3324 9.9889 12.9191 40.0023 -3.9201 1.0819
# 5 -11.0753 1.4267 -8.0776 -3.9201 45.1562 0.6297
# 6 2.4380 4.1137 1.9278 1.0819 0.6297 33.4078
#
#
#
# Elastic Compliance Matrix: (Units=1/GPa)
#
#
# Indices 1 2 3 4 5 6 
#
# 1 0.011379 -0.004120 -0.001169 -0.002419 0.002505 -0.000225
# 2 -0.004120 0.011818 -0.001833 -0.001032 -0.001788 -0.000982
# 3 -0.001169 -0.001833 0.010242 -0.002287 0.001408 -0.000232
# 4 -0.002419 -0.001032 -0.002287 0.027009 0.001381 -0.000465
# 5 0.002505 -0.001788 0.001408 0.001381 0.023195 -0.000526
# 6 -0.000225 -0.000982 -0.000232 -0.000465 -0.000526 0.030109
#
#
# Mechanical properties :
#
#
# Convention : Reuss Voigt Hill
#
# Bulk Modulus (GPa) = 52.09888 56.89825 54.49857
# Shear Modulus (GPa) = 37.20394 39.18267 38.19331
#
# Velocity S-wave (km/s) = 4.15438 4.26342 4.20925
# Velocity P-wave (km/s) = 6.86880 7.11552 6.99325
#
# Compressibility (1/GPa) = 0.01919427
#
# Stress axis : x y z
#
# Youngs Moduli (GPa) = 87.88102 84.61814 97.63977
#
# Poissons Ratio (x) = 0.34859 0.11416
# Poissons Ratio (y) = 0.36203 0.17900
# Poissons Ratio (z) = 0.10275 0.15513
#
# Static dielectric constant tensor:
#      x y z
#    x 4.378570 -0.019490 -0.473910 
#    y -0.019490 4.860470 0.215900 
#    z -0.473910 0.215900 4.808870 
# 
# 
# High freq. dielectric constant tensor:
#      x y z
#    x 1.856340 0.007180 -0.006320 
#    y 0.007180 1.848840 0.003400 
#    z -0.006320 0.003400 1.865800 
# 
# From -- ./inp_files/187822.got.cif
#   From: 2010.06.25/outbox.cif.g09.slc.cpg/sg2_94_cif.got.tgz:187822.got - 2010.06.27 13:26:56.
