data_PCOD8036523
_publ_section_title
;
Structure prediction by ZEFSAII (Michael W. Deem and Ramdas Pophale) SiO2 
 PCOD8036523
Probable space group: P -1
;
_chemical_formula_sum "Si O2"
_cell_formula_units_Z 16
_cell_length_a 18.210366
_cell_length_b 20.480615
_cell_length_c 9.383177
_cell_angle_alpha 135.031678
_cell_angle_beta 133.490378
_cell_angle_gamma 19.686409
_cell_volume 829.552521
_symmetry_space_group_name_H-M "P -1"
_symmetry_group_IT_number 2
_symmetry_cell_setting 'triclinic'
loop_
_space_group_symop_operation_xyz
x,y,z
-x,-y,-z
loop_
_atom_site_type_symbol
_atom_site_label
_atom_site_fract_x
_atom_site_fract_y
_atom_site_fract_z
Si Si1 0.334908 0.927666 0.132852
Si Si2 0.632701 0.321086 0.499334
Si Si3 0.325896 0.303044 0.561990
Si Si4 0.858808 0.733595 0.654711
Si Si5 0.009863 0.091705 0.791294
Si Si6 0.385477 0.343050 0.183949
Si Si7 0.053125 0.237869 0.895700
Si Si8 0.515417 0.095704 0.194338
O O1 0.510707 0.759336 0.229461
O O2 0.281059 0.077939 0.326668
O O3 0.436725 0.833584 0.966782
O O4 0.105615 0.054475 0.013406
O O5 0.500000 0.500000 0.500000
O O6 0.473319 0.367534 0.409266
O O7 0.752470 0.268490 0.719281
O O8 0.834369 0.120573 0.364547
O O9 0.263626 0.265156 0.518938
O O10 0.447257 0.175062 0.384681
O O11 0.096751 0.540520 0.597459
O O12 0.873106 0.750596 0.865652
O O13 0.007104 0.174267 0.796439
O O14 0.359817 0.281911 0.169965
O O15 0.154760 0.546774 0.119852
O O16 0.234457 0.078366 0.768976
O O17 0.500000 0.000000 0.000000
#
# Coordination Sequence:
#
# PCOD8036523 Si02
#       8
#     2   2   2   2   2   2   2   2
#     4  10  19  35  57  80 110 148 192 239 283 338
#     4  10  17  31  57  91 116 140 189 248 296 329
#     4  11  22  35  56  81 111 153 198 238 286 334
#     4  10  20  36  57  79 108 149 205 240 271 341
#     4   9  19  31  56  90 112 142 189 246 286 341
#     4  11  21  35  60  86 114 154 192 241 291 345
#     4  11  19  37  57  83 116 152 192 234 287 345
#     4  12  24  40  53  84 124 158 188 240 288 339
#
# _framework density 19.287506
#
# number of rings (size 3 to 8) (size 9 to 14) (size 15 to 20)
#    0.000    1.500    7.500    0.375    0.000    1.500 
#    0.000    0.000    0.000    0.750    0.000    7.875 
#    0.000    0.000    0.000    0.000    0.000    0.000 
#
# Total GULP energy -198244.374156 kJ/mol
# GULP energy per Si atom -12390.273385 kJ/mol
# Density = 1.924361 g / cm^3
# Si number density = 19.287506 Si / 1000 Ang^3
#
#
#
# Elastic Constant Matrix: (Units=GPa)
#
#
# Indices 1 2 3 4 5 6 
#
# 1 55.8190 15.4394 23.4502 -0.6913 10.4968 10.3318
# 2 15.4394 93.1197 23.9910 -7.9187 9.4760 12.4761
# 3 23.4502 23.9910 76.5829 -12.6343 2.2072 -4.2342
# 4 -0.6913 -7.9187 -12.6343 37.4609 -1.7972 1.3186
# 5 10.4968 9.4760 2.2072 -1.7972 24.0277 9.9914
# 6 10.3318 12.4761 -4.2342 1.3186 9.9914 29.9666
#
#
#
# Elastic Compliance Matrix: (Units=1/GPa)
#
#
# Indices 1 2 3 4 5 6 
#
# 1 0.023788 -0.000581 -0.007661 -0.002363 -0.006872 -0.006647
# 2 -0.000581 0.012844 -0.003811 0.001486 -0.002274 -0.004992
# 3 -0.007661 -0.003811 0.017711 0.004858 0.001017 0.006178
# 4 -0.002363 0.001486 0.004858 0.028777 0.002684 -0.001279
# 5 -0.006872 -0.002274 0.001017 0.002684 0.051355 -0.013781
# 6 -0.006647 -0.004992 0.006178 -0.001279 -0.013781 0.043265
#
#
# Mechanical properties :
#
#
# Convention : Reuss Voigt Hill
#
# Bulk Modulus (GPa) = 33.07363 39.03141 36.05252
# Shear Modulus (GPa) = 23.59325 29.13377 26.36351
#
# Velocity S-wave (km/s) = 3.50128 3.89073 3.70113
# Velocity P-wave (km/s) = 5.79053 6.36115 6.08254
#
# Compressibility (1/GPa) = 0.03023557
#
# Stress axis : x y z
#
# Youngs Moduli (GPa) = 42.03859 77.85915 56.46180
#
# Poissons Ratio (x) = 0.04527 0.43256
# Poissons Ratio (y) = 0.02444 0.21517
# Poissons Ratio (z) = 0.32206 0.29671
#
# Static dielectric constant tensor:
#      x y z
#    x 3.273600 -0.001970 0.378260 
#    y -0.001970 3.886070 -0.155540 
#    z 0.378260 -0.155540 3.664610 
# 
# 
# High freq. dielectric constant tensor:
#      x y z
#    x 1.702450 0.012510 0.033380 
#    y 0.012510 1.776410 -0.008730 
#    z 0.033380 -0.008730 1.742160 
# 
# From -- ./inp_files/329665.got.cif
#   From: 2010.06.25/outbox.cif.g09.slc.cpg/sg2_165_cif.got.tgz:329665.got - 2010.06.27 13:26:56.
