data_PCOD8036371
_publ_section_title
;
Structure prediction by ZEFSAII (Michael W. Deem and Ramdas Pophale) SiO2 
 PCOD8036371
Probable space group: P -1
;
_chemical_formula_sum "Si O2"
_cell_formula_units_Z 16
_cell_length_a 8.488472
_cell_length_b 12.541662
_cell_length_c 9.185461
_cell_angle_alpha 130.756143
_cell_angle_beta 75.576507
_cell_angle_gamma 95.445469
_cell_volume 714.329315
_symmetry_space_group_name_H-M "P -1"
_symmetry_group_IT_number 2
_symmetry_cell_setting 'triclinic'
loop_
_space_group_symop_operation_xyz
x,y,z
-x,-y,-z
loop_
_atom_site_type_symbol
_atom_site_label
_atom_site_fract_x
_atom_site_fract_y
_atom_site_fract_z
Si Si1 0.637833 0.445382 0.736361
Si Si2 0.927692 0.848361 0.886263
Si Si3 0.375414 0.689928 0.969152
Si Si4 0.100049 0.611573 0.155988
Si Si5 0.619042 0.894991 0.196435
Si Si6 0.458145 0.187042 0.545694
Si Si7 0.170261 0.293463 0.500656
Si Si8 0.212690 0.601283 0.652913
O O1 0.487408 0.560649 0.897728
O O2 0.782883 0.480438 0.840452
O O3 0.582820 0.295897 0.667081
O O4 0.697250 0.441720 0.554545
O O5 0.840805 0.817114 0.726140
O O6 0.063661 0.720213 0.771318
O O7 0.791751 0.847185 0.041392
O O8 0.000000 0.000000 0.000000
O O9 0.345622 0.665143 0.783119
O O10 0.199814 0.699780 0.097866
O O11 0.468433 0.828426 0.093284
O O12 0.979616 0.725667 0.372511
O O13 0.000000 0.500000 0.000000
O O14 0.638274 0.860021 0.332406
O O15 0.572807 0.060820 0.333995
O O16 0.339442 0.258488 0.514160
O O17 0.151534 0.457715 0.603250
#
# Coordination Sequence:
#
# PCOD8036371 Si02
#       8
#     2   2   2   2   2   2   2   2
#     4  12  24  46  72 102 148 183 239 298 354 424
#     4  12  29  50  72 104 150 192 236 294 364 431
#     4  12  26  41  73 109 135 191 239 294 356 421
#     4  12  25  43  71 107 147 184 235 300 358 421
#     4  11  28  48  73 103 145 191 236 295 357 434
#     4  11  26  49  72 105 143 190 242 294 357 422
#     4  12  27  46  73 107 143 191 240 302 354 424
#     4  12  26  46  71 109 143 187 240 297 363 420
#
# _framework density 22.398631000000002
#
# number of rings (size 3 to 8) (size 9 to 14) (size 15 to 20)
#    0.000    0.250    5.000    2.625    8.750    0.500 
#    0.000    1.250    0.000    0.000    0.000    0.000 
#    0.000    0.000    0.000    0.000    0.000    0.000 
#
# Total GULP energy -198489.818899 kJ/mol
# GULP energy per Si atom -12405.613681 kJ/mol
# Density = 2.234765 g / cm^3
# Si number density = 22.398631 Si / 1000 Ang^3
#
#
#
# Elastic Constant Matrix: (Units=GPa)
#
#
# Indices 1 2 3 4 5 6 
#
# 1 92.5408 32.8965 29.4078 7.0217 7.1321 -6.0091
# 2 32.8965 85.8069 32.5781 10.5965 -2.4189 -3.7869
# 3 29.4078 32.5781 109.7506 7.5289 2.1354 0.6384
# 4 7.0217 10.5965 7.5289 41.5404 -0.3046 2.5923
# 5 7.1321 -2.4189 2.1354 -0.3046 50.4959 -10.9624
# 6 -6.0091 -3.7869 0.6384 2.5923 -10.9624 34.4277
#
#
#
# Elastic Compliance Matrix: (Units=1/GPa)
#
#
# Indices 1 2 3 4 5 6 
#
# 1 0.013271 -0.004106 -0.002252 -0.000890 -0.001668 0.001442
# 2 -0.004106 0.014889 -0.003184 -0.002623 0.001792 0.001748
# 3 -0.002252 -0.003184 0.010724 -0.000689 -0.000521 -0.001056
# 4 -0.000890 -0.002623 -0.000689 0.025167 -0.000348 -0.002437
# 5 -0.001668 0.001792 -0.000521 -0.000348 0.021627 0.006828
# 6 0.001442 0.001748 -0.001056 -0.002437 0.006828 0.031868
#
#
# Mechanical properties :
#
#
# Convention : Reuss Voigt Hill
#
# Bulk Modulus (GPa) = 50.50925 53.09590 51.80258
# Shear Modulus (GPa) = 34.90875 38.17385 36.54130
#
# Velocity S-wave (km/s) = 3.95209 4.13279 4.04345
# Velocity P-wave (km/s) = 6.58973 6.82127 6.70650
#
# Compressibility (1/GPa) = 0.01979835
#
# Stress axis : x y z
#
# Youngs Moduli (GPa) = 75.35132 67.16413 93.25087
#
# Poissons Ratio (x) = 0.27580 0.21000
# Poissons Ratio (y) = 0.30942 0.29695
# Poissons Ratio (z) = 0.16969 0.21388
#
# Static dielectric constant tensor:
#      x y z
#    x 4.212360 0.013210 0.116690 
#    y 0.013210 4.080160 -0.260930 
#    z 0.116690 -0.260930 4.521950 
# 
# 
# High freq. dielectric constant tensor:
#      x y z
#    x 1.895350 0.000850 0.003010 
#    y 0.000850 1.874260 -0.013740 
#    z 0.003010 -0.013740 1.903360 
# 
# From -- ./inp_files/186822.got.cif
#   From: 2010.06.25/outbox.cif.g09.slc.cpg/sg2_94_cif.got.tgz:186822.got - 2010.06.27 13:26:56.
