data_PCOD8036401
_publ_section_title
;
Structure prediction by ZEFSAII (Michael W. Deem and Ramdas Pophale) SiO2 
 PCOD8036401
Probable space group: P -1
;
_chemical_formula_sum "Si O2"
_cell_formula_units_Z 12
_cell_length_a 15.207872
_cell_length_b 6.613115
_cell_length_c 11.977437
_cell_angle_alpha 103.635185
_cell_angle_beta 28.083135
_cell_angle_gamma 96.405183
_cell_volume 538.700441
_symmetry_space_group_name_H-M "P -1"
_symmetry_group_IT_number 2
_symmetry_cell_setting 'triclinic'
loop_
_space_group_symop_operation_xyz
x,y,z
-x,-y,-z
loop_
_atom_site_type_symbol
_atom_site_label
_atom_site_fract_x
_atom_site_fract_y
_atom_site_fract_z
Si Si1 0.521772 0.942243 0.097864
Si Si2 0.728293 0.474396 0.239514
Si Si3 0.201710 0.799423 0.084862
Si Si4 0.787828 0.485017 0.759094
Si Si5 0.995055 0.232732 0.084617
Si Si6 0.855563 0.141634 0.464290
O O1 0.315793 0.971826 0.393967
O O2 0.644040 0.706709 0.941627
O O3 0.500000 0.000000 0.000000
O O4 0.614333 0.103694 0.086584
O O5 0.500000 0.500000 0.500000
O O6 0.818715 0.399199 0.248608
O O7 0.808283 0.282659 0.040165
O O8 0.804619 0.688417 0.148093
O O9 0.216972 0.599734 0.121891
O O10 0.011747 0.980772 0.341323
O O11 0.738938 0.324567 0.700090
O O12 0.000000 0.500000 0.500000
O O13 0.954995 0.234073 0.261784
O O14 0.000000 0.000000 0.000000
#
# Coordination Sequence:
#
# PCOD8036401 Si02
#       6
#     2   2   2   2   2   2
#     4  12  27  44  71 108 140 188 235 283 359 427
#     4  11  28  46  75 104 142 188 238 296 353 422
#     4  12  26  46  68 106 141 184 236 291 358 415
#     4  12  24  44  70 102 141 181 232 291 356 416
#     4  11  26  50  70 105 139 189 241 291 355 415
#     4  12  25  46  72  99 147 185 234 297 346 426
#
# _framework density 22.275832000000001
#
# number of rings (size 3 to 8) (size 9 to 14) (size 15 to 20)
#    0.000    0.333    5.000    3.000    4.667    0.667 
#    0.000    0.000    0.000    0.000    0.000    0.000 
#    0.000    0.000    0.000    0.000    0.000    0.000 
#
# Total GULP energy -148815.319186 kJ/mol
# GULP energy per Si atom -12401.276599 kJ/mol
# Density = 2.222513 g / cm^3
# Si number density = 22.275832 Si / 1000 Ang^3
#
#
#
# Elastic Constant Matrix: (Units=GPa)
#
#
# Indices 1 2 3 4 5 6 
#
# 1 96.2766 47.9410 29.6268 -5.7285 -13.5364 -9.2496
# 2 47.9410 134.8745 48.3609 -16.1494 -17.5031 -10.3576
# 3 29.6268 48.3609 92.3652 -32.8856 -27.3390 -6.2220
# 4 -5.7285 -16.1494 -32.8856 32.7774 15.1361 -6.8686
# 5 -13.5364 -17.5031 -27.3390 15.1361 47.7076 -4.7838
# 6 -9.2496 -10.3576 -6.2220 -6.8686 -4.7838 55.5304
#
#
#
# Elastic Compliance Matrix: (Units=1/GPa)
#
#
# Indices 1 2 3 4 5 6 
#
# 1 0.013286 -0.003785 -0.002691 -0.002889 0.001857 0.001008
# 2 -0.003785 0.010320 -0.003755 0.000655 0.000452 0.000994
# 3 -0.002691 -0.003755 0.021869 0.018128 0.005039 0.003978
# 4 -0.002889 0.000655 0.018128 0.053006 -0.006237 0.007691
# 5 0.001857 0.000452 0.005039 -0.006237 0.026770 0.002493
# 6 0.001008 0.000994 0.003978 0.007691 0.002493 0.019973
#
#
# Mechanical properties :
#
#
# Convention : Reuss Voigt Hill
#
# Bulk Modulus (GPa) = 39.97975 63.93041 51.95508
# Shear Modulus (GPa) = 28.73180 40.37558 34.55369
#
# Velocity S-wave (km/s) = 3.59530 4.26200 3.94277
# Velocity P-wave (km/s) = 5.93477 7.27882 6.64089
#
# Compressibility (1/GPa) = 0.02501266
#
# Stress axis : x y z
#
# Youngs Moduli (GPa) = 75.27001 96.90359 45.72588
#
# Poissons Ratio (x) = 0.36679 0.12303
# Poissons Ratio (y) = 0.28490 0.17171
# Poissons Ratio (z) = 0.20252 0.36389
#
# Static dielectric constant tensor:
#      x y z
#    x 4.084900 0.006380 -0.267520 
#    y 0.006380 4.174510 -0.382310 
#    z -0.267520 -0.382310 3.824560 
# 
# 
# High freq. dielectric constant tensor:
#      x y z
#    x 1.891590 0.004530 -0.012080 
#    y 0.004530 1.894920 -0.010680 
#    z -0.012080 -0.010680 1.872130 
# 
# From -- ./inp_files/21603.got.cif
#   From: 2010.06.25/outbox.cif.g09.slc.cpg/sg2_11_cif.got.tgz:21603.got - 2010.06.27 13:26:56.
