data_PCOD8036425
_publ_section_title
;
Structure prediction by ZEFSAII (Michael W. Deem and Ramdas Pophale) SiO2 
 PCOD8036425
Probable space group: P -1
;
_chemical_formula_sum "Si O2"
_cell_formula_units_Z 10
_cell_length_a 11.058950
_cell_length_b 4.916226
_cell_length_c 11.706227
_cell_angle_alpha 89.953866
_cell_angle_beta 36.026123
_cell_angle_gamma 94.218509
_cell_volume 371.337390
_symmetry_space_group_name_H-M "P -1"
_symmetry_group_IT_number 2
_symmetry_cell_setting 'triclinic'
loop_
_space_group_symop_operation_xyz
x,y,z
-x,-y,-z
loop_
_atom_site_type_symbol
_atom_site_label
_atom_site_fract_x
_atom_site_fract_y
_atom_site_fract_z
Si Si1 0.848127 0.355473 0.709570
Si Si2 0.458114 0.795355 0.244937
Si Si3 0.402203 0.267970 0.437310
Si Si4 0.111383 0.131515 0.169937
Si Si5 0.168363 0.598629 0.775702
O O1 0.641694 0.216083 0.804913
O O2 0.800344 0.584735 0.835380
O O3 0.000000 0.500000 0.500000
O O4 0.956426 0.118418 0.690969
O O5 0.444194 0.494052 0.306860
O O6 0.338069 0.977645 0.423253
O O7 0.694495 0.939604 0.054039
O O8 0.217852 0.336731 0.662606
O O9 0.615427 0.250287 0.342669
O O10 0.919853 0.174563 0.235353
O O11 0.000000 0.500000 0.000000
#
# Coordination Sequence:
#
# PCOD8036425 Si02
#       5
#     2   2   2   2   2
#     4  12  27  48  76 115 153 197 255 319 380 452
#     4  12  25  51  76 113 154 197 255 313 382 454
#     4  11  27  49  78 114 153 202 249 316 379 453
#     4  12  26  47  80 112 151 206 254 309 382 457
#     4  11  26  51  77 114 156 201 256 311 378 451
#
# _framework density 26.929687999999999
#
# number of rings (size 3 to 8) (size 9 to 14) (size 15 to 20)
#    0.000    0.400    2.000    5.400    0.000   10.400 
#    0.000    0.000    0.000    0.000    0.000    0.000 
#    0.000    0.000    0.000    0.000    0.000    0.000 
#
# Total GULP energy -124077.921185 kJ/mol
# GULP energy per Si atom -12407.792119 kJ/mol
# Density = 2.686839 g / cm^3
# Si number density = 26.929688 Si / 1000 Ang^3
#
#
#
# Elastic Constant Matrix: (Units=GPa)
#
#
# Indices 1 2 3 4 5 6 
#
# 1 149.8787 72.0494 37.2957 -3.0272 19.2128 -42.4849
# 2 72.0494 155.2235 24.6262 -0.3836 12.8187 -19.9538
# 3 37.2957 24.6262 145.4770 -3.5568 2.2687 -39.1794
# 4 -3.0272 -0.3836 -3.5568 34.4738 1.1674 0.8643
# 5 19.2128 12.8187 2.2687 1.1674 34.3609 7.9216
# 6 -42.4849 -19.9538 -39.1794 0.8643 7.9216 41.4255
#
#
#
# Elastic Compliance Matrix: (Units=1/GPa)
#
#
# Indices 1 2 3 4 5 6 
#
# 1 0.013950 -0.003842 0.001522 0.001287 -0.010156 0.015811
# 2 -0.003842 0.008348 -0.000472 -0.000259 -0.000882 -0.000192
# 3 0.001522 -0.000472 0.009667 0.000978 -0.003930 0.011208
# 4 0.001287 -0.000259 0.000978 0.029242 -0.002123 0.001916
# 5 -0.010156 -0.000882 -0.003930 -0.002123 0.040577 -0.022272
# 6 0.015811 -0.000192 0.011208 0.001916 -0.022272 0.055081
#
#
# Mechanical properties :
#
#
# Convention : Reuss Voigt Hill
#
# Bulk Modulus (GPa) = 37.90744 79.83576 58.87160
# Shear Modulus (GPa) = 29.19803 43.15923 36.17863
#
# Velocity S-wave (km/s) = 3.29634 4.00767 3.66928
# Velocity P-wave (km/s) = 5.34741 7.15022 6.31349
#
# Compressibility (1/GPa) = 0.02638005
#
# Stress axis : x y z
#
# Youngs Moduli (GPa) = 71.68493 119.78654 103.44108
#
# Poissons Ratio (x) = 0.46025 -0.15744
# Poissons Ratio (y) = 0.27543 0.04887
# Poissons Ratio (z) = -0.10910 0.05660
#
# Static dielectric constant tensor:
#      x y z
#    x 5.554740 -0.009020 0.122830 
#    y -0.009020 4.876200 0.281900 
#    z 0.122830 0.281900 4.828630 
# 
# 
# High freq. dielectric constant tensor:
#      x y z
#    x 2.099760 -0.007620 -0.000360 
#    y -0.007620 2.089580 0.002600 
#    z -0.000360 0.002600 2.097060 
# 
# From -- ./inp_files/408306.got.cif
#   From: 2010.06.25/outbox.cif.g09.slc.cpg/sg2_205_cif.got.tgz:408306.got - 2010.06.27 13:26:56.
