data_PCOD8036907
_publ_section_title
;
Structure prediction by ZEFSAII (Michael W. Deem and Ramdas Pophale) SiO2 
 PCOD8036907
Probable space group: P -1
;
_chemical_formula_sum "Si O2"
_cell_formula_units_Z 16
_cell_length_a 8.958332
_cell_length_b 11.249394
_cell_length_c 17.906702
_cell_angle_alpha 50.059513
_cell_angle_beta 140.230670
_cell_angle_gamma 101.695378
_cell_volume 712.798822
_symmetry_space_group_name_H-M "P -1"
_symmetry_group_IT_number 2
_symmetry_cell_setting 'triclinic'
loop_
_space_group_symop_operation_xyz
x,y,z
-x,-y,-z
loop_
_atom_site_type_symbol
_atom_site_label
_atom_site_fract_x
_atom_site_fract_y
_atom_site_fract_z
Si Si1 0.732604 0.075586 0.918561
Si Si2 0.206022 0.473575 0.524364
Si Si3 0.298913 0.468195 0.141342
Si Si4 0.382127 0.741366 0.498495
Si Si5 0.909213 0.590000 0.657458
Si Si6 0.559211 0.808856 0.949882
Si Si7 0.167194 0.875848 0.903201
Si Si8 0.773382 0.215752 0.300369
O O1 0.530249 0.303960 0.740698
O O2 0.554610 0.993603 0.856943
O O3 0.837239 0.016627 0.067675
O O4 0.000000 0.000000 0.000000
O O5 0.200257 0.660708 0.437628
O O6 0.000000 0.500000 0.500000
O O7 0.117516 0.419951 0.437183
O O8 0.445064 0.351407 0.320974
O O9 0.523502 0.343263 0.212695
O O10 0.213324 0.681201 0.023806
O O11 0.000000 0.500000 0.000000
O O12 0.597658 0.704346 0.530087
O O13 0.139329 0.973362 0.318441
O O14 0.057587 0.694618 0.690068
O O15 0.108152 0.375811 0.853849
O O16 0.439373 0.821547 0.980892
O O17 0.365273 0.790064 0.826212
O O18 0.000000 0.000000 0.500000
#
# Coordination Sequence:
#
# PCOD8036907 Si02
#       8
#     2   2   2   2   2   2   2   2
#     4  12  25  44  74 106 141 185 239 297 356 420
#     4  12  23  44  72 104 143 184 239 296 355 421
#     4  12  28  48  74 105 148 189 236 296 353 430
#     4  12  26  46  72 107 143 186 240 295 356 419
#     4  12  25  44  70 104 144 184 238 298 352 427
#     4  12  25  46  72 101 144 186 240 295 355 429
#     4  12  26  48  73 106 143 189 239 290 363 420
#     4  12  27  48  72 104 142 191 239 289 362 428
#
# _framework density 22.446726999999999
#
# number of rings (size 3 to 8) (size 9 to 14) (size 15 to 20)
#    0.000    0.000    2.500    7.875    5.250    0.500 
#    0.000    0.000    0.000    0.000    0.000    0.000 
#    0.000    0.000    0.000    0.000    0.000    0.000 
#
# Total GULP energy -198504.694569 kJ/mol
# GULP energy per Si atom -12406.543411 kJ/mol
# Density = 2.239564 g / cm^3
# Si number density = 22.446727 Si / 1000 Ang^3
#
#
#
# Elastic Constant Matrix: (Units=GPa)
#
#
# Indices 1 2 3 4 5 6 
#
# 1 133.3862 62.3476 26.8184 8.6381 13.4309 -1.7716
# 2 62.3476 123.3363 34.3555 14.2479 -2.1220 2.5641
# 3 26.8184 34.3555 138.1149 -13.7900 -0.4533 -2.3465
# 4 8.6381 14.2479 -13.7900 43.4287 -4.5690 2.6501
# 5 13.4309 -2.1220 -0.4533 -4.5690 43.5381 3.1341
# 6 -1.7716 2.5641 -2.3465 2.6501 3.1341 31.0051
#
#
#
# Elastic Compliance Matrix: (Units=1/GPa)
#
#
# Indices 1 2 3 4 5 6 
#
# 1 0.010489 -0.005006 -0.000900 -0.001208 -0.003718 0.001424
# 2 -0.005006 0.011716 -0.002288 -0.003300 0.001841 -0.001332
# 3 -0.000900 -0.002288 0.008355 0.003622 0.000605 0.000399
# 4 -0.001208 -0.003300 0.003622 0.025953 0.003121 -0.002056
# 5 -0.003718 0.001841 0.000605 0.003121 0.024761 -0.003089
# 6 0.001424 -0.001332 0.000399 -0.002056 -0.003089 0.032962
#
#
# Mechanical properties :
#
#
# Convention : Reuss Voigt Hill
#
# Bulk Modulus (GPa) = 70.56337 71.32005 70.94171
# Shear Modulus (GPa) = 36.94114 41.68209 39.31162
#
# Velocity S-wave (km/s) = 4.06115 4.31389 4.18943
# Velocity P-wave (km/s) = 7.31401 7.52694 7.42124
#
# Compressibility (1/GPa) = 0.01417166
#
# Stress axis : x y z
#
# Youngs Moduli (GPa) = 95.33432 85.35037 119.69149
#
# Poissons Ratio (x) = 0.42724 0.10775
# Poissons Ratio (y) = 0.47722 0.27391
# Poissons Ratio (z) = 0.08582 0.19532
#
# Static dielectric constant tensor:
#      x y z
#    x 4.057770 0.066540 0.066520 
#    y 0.066540 4.831880 -0.214660 
#    z 0.066520 -0.214660 4.243540 
# 
# 
# High freq. dielectric constant tensor:
#      x y z
#    x 1.897660 -0.002070 0.002210 
#    y -0.002070 1.894050 -0.003590 
#    z 0.002210 -0.003590 1.904930 
# 
# From -- ./inp_files/223617.got.cif
#   From: 2010.06.25/outbox.cif.g09.slc.cpg/sg2_112_cif.got.tgz:223617.got - 2010.06.27 13:26:56.
