data_PCOD8036577
_publ_section_title
;
Structure prediction by ZEFSAII (Michael W. Deem and Ramdas Pophale) SiO2 
 PCOD8036577
Probable space group: P -1
;
_chemical_formula_sum "Si O2"
_cell_formula_units_Z 16
_cell_length_a 28.319594
_cell_length_b 18.716879
_cell_length_c 6.616850
_cell_angle_alpha 45.404048
_cell_angle_beta 136.390944
_cell_angle_gamma 161.578327
_cell_volume 762.606749
_symmetry_space_group_name_H-M "P -1"
_symmetry_group_IT_number 2
_symmetry_cell_setting 'triclinic'
loop_
_space_group_symop_operation_xyz
x,y,z
-x,-y,-z
loop_
_atom_site_type_symbol
_atom_site_label
_atom_site_fract_x
_atom_site_fract_y
_atom_site_fract_z
Si Si1 0.668074 0.490051 0.323962
Si Si2 0.929261 0.682850 0.749232
Si Si3 0.218408 0.188583 0.703878
Si Si4 0.311990 0.980256 0.309038
Si Si5 0.912283 0.471185 0.404570
Si Si6 0.600583 0.540622 0.647763
Si Si7 0.099351 0.799476 0.686189
Si Si8 0.685936 0.863681 0.656380
O O1 0.763643 0.515043 0.525577
O O2 0.755235 0.663901 0.428884
O O3 0.495170 0.230906 0.359812
O O4 0.671519 0.564179 0.991150
O O5 0.993437 0.725058 0.654086
O O6 0.905801 0.565901 0.074597
O O7 0.044297 0.918944 0.726314
O O8 0.259049 0.234757 0.500465
O O9 0.333444 0.268109 0.029336
O O10 0.262603 0.800934 0.561580
O O11 0.248544 0.968270 0.317317
O O12 0.225860 0.900215 0.997018
O O13 0.000000 0.500000 0.500000
O O14 0.989231 0.583991 0.639238
O O15 0.500000 0.500000 0.500000
O O16 0.482669 0.322530 0.573286
O O17 0.195100 0.995894 0.438741
#
# Coordination Sequence:
#
# PCOD8036577 Si02
#       8
#     2   2   2   2   2   2   2   2
#     4  12  28  44  66 101 144 181 221 272 343 403
#     4  12  28  45  65 104 140 179 223 276 339 402
#     4  12  23  43  68  96 140 184 224 273 330 403
#     4  12  24  44  72 103 130 176 230 281 333 397
#     4  12  24  45  76 101 129 174 229 284 335 393
#     4  12  23  38  69 101 133 179 227 276 331 394
#     4  12  22  43  75  99 134 172 230 282 330 397
#     4  12  21  40  70 102 133 171 231 283 325 387
#
# _framework density 20.980668000000001
#
# number of rings (size 3 to 8) (size 9 to 14) (size 15 to 20)
#    0.000    0.000    8.750    2.625    0.000    2.000 
#    0.000    0.625    0.000    0.000    0.000    0.000 
#    0.000    0.000    0.000    0.000    0.000    0.000 
#
# Total GULP energy -198420.282771 kJ/mol
# GULP energy per Si atom -12401.267673 kJ/mol
# Density = 2.093292 g / cm^3
# Si number density = 20.980668 Si / 1000 Ang^3
#
#
#
# Elastic Constant Matrix: (Units=GPa)
#
#
# Indices 1 2 3 4 5 6 
#
# 1 97.2009 62.3949 58.9646 5.6793 -4.6392 7.3132
# 2 62.3949 130.2911 63.3966 -16.1878 4.5700 -2.8597
# 3 58.9646 63.3966 128.1305 -5.8296 -5.1530 13.9078
# 4 5.6793 -16.1878 -5.8296 38.2001 3.6356 -5.0963
# 5 -4.6392 4.5700 -5.1530 3.6356 33.4564 4.0032
# 6 7.3132 -2.8597 13.9078 -5.0963 4.0032 33.5186
#
#
#
# Elastic Compliance Matrix: (Units=1/GPa)
#
#
# Indices 1 2 3 4 5 6 
#
# 1 0.019500 -0.008486 -0.004425 -0.008277 0.004674 -0.004959
# 2 -0.008486 0.015183 -0.004191 0.008507 -0.005641 0.006853
# 3 -0.004425 -0.004191 0.012543 -0.000096 0.002488 -0.004908
# 4 -0.008277 0.008507 -0.000096 0.032772 -0.006888 0.008377
# 5 0.004674 -0.005641 0.002488 -0.006888 0.033345 -0.007563
# 6 -0.004959 0.006853 -0.004908 0.008377 -0.007563 0.035714
#
#
# Mechanical properties :
#
#
# Convention : Reuss Voigt Hill
#
# Bulk Modulus (GPa) = 76.79408 80.57051 78.68229
# Shear Modulus (GPa) = 26.65216 32.42612 29.53914
#
# Velocity S-wave (km/s) = 3.56802 3.93558 3.75630
# Velocity P-wave (km/s) = 7.32503 7.69008 7.50978
#
# Compressibility (1/GPa) = 0.01302184
#
# Stress axis : x y z
#
# Youngs Moduli (GPa) = 51.28336 65.86120 79.72584
#
# Poissons Ratio (x) = 0.55890 0.35279
# Poissons Ratio (y) = 0.43520 0.33412
# Poissons Ratio (z) = 0.22693 0.27602
#
# Static dielectric constant tensor:
#      x y z
#    x 3.716480 -0.186390 -0.246360 
#    y -0.186390 4.157400 -0.065740 
#    z -0.246360 -0.065740 3.872270 
# 
# 
# High freq. dielectric constant tensor:
#      x y z
#    x 1.808650 -0.010660 -0.026700 
#    y -0.010660 1.837560 -0.008640 
#    z -0.026700 -0.008640 1.818540 
# 
# From -- ./inp_files/97553.got.cif
#   From: 2010.06.25/outbox.cif.g09.slc.cpg/sg2_49_cif.got.tgz:97553.got - 2010.06.27 13:26:56.
