data_PCOD8036672
_publ_section_title
;
Structure prediction by ZEFSAII (Michael W. Deem and Ramdas Pophale) SiO2 
 PCOD8036672
Probable space group: P -1
;
_chemical_formula_sum "Si O2"
_cell_formula_units_Z 14
_cell_length_a 11.192694
_cell_length_b 5.516960
_cell_length_c 12.308721
_cell_angle_alpha 118.971633
_cell_angle_beta 114.468103
_cell_angle_gamma 56.626686
_cell_volume 543.827049
_symmetry_space_group_name_H-M "P -1"
_symmetry_group_IT_number 2
_symmetry_cell_setting 'triclinic'
loop_
_space_group_symop_operation_xyz
x,y,z
-x,-y,-z
loop_
_atom_site_type_symbol
_atom_site_label
_atom_site_fract_x
_atom_site_fract_y
_atom_site_fract_z
Si Si1 0.882516 0.409781 0.386170
Si Si2 0.590306 0.082723 0.761743
Si Si3 0.559933 0.270243 0.264400
Si Si4 0.668956 0.530920 0.531607
Si Si5 0.842994 0.212154 0.940968
Si Si6 0.089696 0.728539 0.258042
Si Si7 0.816247 0.681373 0.198159
O O1 0.768161 0.441051 0.442026
O O2 0.787685 0.631542 0.302170
O O3 0.000000 0.500000 0.500000
O O4 0.974117 0.079299 0.297358
O O5 0.510189 0.448039 0.785680
O O6 0.751345 0.012210 0.851003
O O7 0.520225 0.954520 0.801876
O O8 0.602542 0.894202 0.613190
O O9 0.553189 0.406090 0.415853
O O10 0.719954 0.050981 0.226678
O O11 0.768328 0.344613 0.630285
O O12 0.853282 0.358422 0.861256
O O13 0.761086 0.495812 0.054676
O O14 0.000000 0.000000 0.000000
O O15 0.991720 0.555981 0.219594
#
# Coordination Sequence:
#
# PCOD8036672 Si02
#       7
#     2   2   2   2   2   2   2
#     4  12  22  41  72 114 160 188 247 320 392 451
#     4  12  29  52  76 113 154 210 264 317 383 469
#     4  12  28  50  79 112 159 211 256 318 389 467
#     4  12  24  48  79 116 157 200 257 325 390 459
#     4  12  27  51  80 109 152 200 262 326 387 459
#     4  12  24  46  76 115 150 198 256 322 389 453
#     4  12  26  47  75 115 155 207 255 315 388 461
#
# _framework density 25.743479000000001
#
# number of rings (size 3 to 8) (size 9 to 14) (size 15 to 20)
#    0.000    0.000    4.286    6.000    0.000    4.571 
#    0.000    0.000    0.000    0.000    0.000    0.000 
#    0.000    0.000    0.000    0.000    0.000    0.000 
#
# Total GULP energy -173587.695333 kJ/mol
# GULP energy per Si atom -12399.121095 kJ/mol
# Density = 2.568489 g / cm^3
# Si number density = 25.743479 Si / 1000 Ang^3
#
#
#
# Elastic Constant Matrix: (Units=GPa)
#
#
# Indices 1 2 3 4 5 6 
#
# 1 48.5575 37.7774 32.5634 -20.8660 15.6433 15.6639
# 2 37.7774 142.8199 27.5323 -10.0084 -2.6903 1.9983
# 3 32.5634 27.5323 134.6537 -1.0448 0.3770 9.6886
# 4 -20.8660 -10.0084 -1.0448 43.7543 -2.6731 -3.0230
# 5 15.6433 -2.6903 0.3770 -2.6731 46.6228 1.3336
# 6 15.6639 1.9983 9.6886 -3.0230 1.3336 37.6212
#
#
#
# Elastic Compliance Matrix: (Units=1/GPa)
#
#
# Indices 1 2 3 4 5 6 
#
# 1 0.058095 -0.011950 -0.010048 0.022334 -0.018290 -0.018523
# 2 -0.011950 0.009879 0.000553 -0.002892 0.004297 0.003923
# 3 -0.010048 0.000553 0.009614 -0.004164 0.003052 0.001236
# 4 0.022334 -0.002892 -0.004164 0.032034 -0.005639 -0.005299
# 5 -0.018290 0.004297 0.003052 -0.005639 0.027338 0.005179
# 6 -0.018523 0.003923 0.001236 -0.005299 0.005179 0.033157
#
#
# Mechanical properties :
#
#
# Convention : Reuss Voigt Hill
#
# Bulk Modulus (GPa) = 28.82077 57.97526 43.39802
# Shear Modulus (GPa) = 22.26453 40.81018 31.53736
#
# Velocity S-wave (km/s) = 2.94404 3.98586 3.50389
# Velocity P-wave (km/s) = 4.77244 6.61453 5.76750
#
# Compressibility (1/GPa) = 0.03469720
#
# Stress axis : x y z
#
# Youngs Moduli (GPa) = 17.21331 101.22038 104.01885
#
# Poissons Ratio (x) = 1.20956 1.04523
# Poissons Ratio (y) = 0.20570 -0.05753
# Poissons Ratio (z) = 0.17297 -0.05598
#
# Static dielectric constant tensor:
#      x y z
#    x 4.167790 -0.385340 -0.260240 
#    y -0.385340 4.449810 0.095210 
#    z -0.260240 0.095210 4.626920 
# 
# 
# High freq. dielectric constant tensor:
#      x y z
#    x 2.048100 -0.006650 0.006360 
#    y -0.006650 2.029920 0.013440 
#    z 0.006360 0.013440 2.033640 
# 
# From -- ./inp_files/411324.got.cif
#   From: 2010.06.25/outbox.cif.g09.slc.cpg/sg2_206_cif.got.tgz:411324.got - 2010.06.27 13:26:56.
