data_PCOD8036260
_publ_section_title
;
Structure prediction by ZEFSAII (Michael W. Deem and Ramdas Pophale) SiO2 
 PCOD8036260
Probable space group: P -1
;
_chemical_formula_sum "Si O2"
_cell_formula_units_Z 16
_cell_length_a 17.374346
_cell_length_b 14.157975
_cell_length_c 6.311639
_cell_angle_alpha 64.864447
_cell_angle_beta 103.494840
_cell_angle_gamma 150.981498
_cell_volume 647.242336
_symmetry_space_group_name_H-M "P -1"
_symmetry_group_IT_number 2
_symmetry_cell_setting 'triclinic'
loop_
_space_group_symop_operation_xyz
x,y,z
-x,-y,-z
loop_
_atom_site_type_symbol
_atom_site_label
_atom_site_fract_x
_atom_site_fract_y
_atom_site_fract_z
Si Si1 0.346640 0.852974 0.689188
Si Si2 0.682512 0.889173 0.987738
Si Si3 0.138462 0.244516 0.191208
Si Si4 0.432424 0.583584 0.762422
Si Si5 0.088511 0.697899 0.486100
Si Si6 0.223551 0.207935 0.664192
Si Si7 0.504720 0.182248 0.758080
Si Si8 0.851050 0.532374 0.818969
O O1 0.261288 0.853435 0.531390
O O2 0.500000 0.000000 0.500000
O O3 0.411698 0.965134 0.856358
O O4 0.216061 0.607865 0.882854
O O5 0.729079 0.859679 0.228773
O O6 0.569161 0.849480 0.050583
O O7 0.578210 0.713914 0.894114
O O8 0.859336 0.144610 0.781505
O O9 0.237703 0.275309 0.374689
O O10 0.068115 0.263620 0.254548
O O11 0.271682 0.439266 0.922955
O O12 0.973838 0.003234 0.203700
O O13 0.358526 0.412680 0.716205
O O14 0.518469 0.775073 0.505660
O O15 0.000000 0.500000 0.500000
O O16 0.980820 0.613319 0.695430
O O17 0.699417 0.387146 0.709348
#
# Coordination Sequence:
#
# PCOD8036260 Si02
#       8
#     2   2   2   2   2   2   2   2
#     4  12  25  47  79 108 146 192 239 302 368 437
#     4  12  27  47  75 109 150 195 245 306 363 433
#     4  11  26  47  72 113 148 192 248 299 376 431
#     4  12  23  48  72 104 149 193 251 297 368 427
#     4  12  28  47  71 113 146 188 245 296 367 440
#     4  11  27  45  75 105 152 193 247 305 367 435
#     4  12  25  47  73 110 147 191 246 297 366 436
#     4  12  25  46  75 103 151 192 236 303 360 439
#
# _framework density 24.720262000000002
#
# number of rings (size 3 to 8) (size 9 to 14) (size 15 to 20)
#    0.000    0.250    3.750    4.500    5.250    5.000 
#    0.000    0.000    0.000    0.000    0.000    0.000 
#    0.000    0.000    0.000    0.000    0.000    0.000 
#
# Total GULP energy -198326.330933 kJ/mol
# GULP energy per Si atom -12395.395683 kJ/mol
# Density = 2.466400 g / cm^3
# Si number density = 24.720262 Si / 1000 Ang^3
#
#
#
# Elastic Constant Matrix: (Units=GPa)
#
#
# Indices 1 2 3 4 5 6 
#
# 1 96.0417 11.2085 35.8153 -7.9439 2.5626 14.9653
# 2 11.2085 115.3694 13.8268 -4.7076 2.8672 -3.8723
# 3 35.8153 13.8268 105.1312 -21.1059 -0.5688 5.2274
# 4 -7.9439 -4.7076 -21.1059 40.0464 8.6949 4.0574
# 5 2.5626 2.8672 -0.5688 8.6949 37.0931 -6.7278
# 6 14.9653 -3.8723 5.2274 4.0574 -6.7278 36.2206
#
#
#
# Elastic Compliance Matrix: (Units=1/GPa)
#
#
# Indices 1 2 3 4 5 6 
#
# 1 0.012947 -0.000877 -0.003724 0.001546 -0.002243 -0.005496
# 2 -0.000877 0.008929 -0.000863 0.000397 -0.000499 0.001304
# 3 -0.003724 -0.000863 0.012132 0.005908 -0.001087 -0.001168
# 4 0.001546 0.000397 0.005908 0.030936 -0.008476 -0.006489
# 5 -0.002243 -0.000499 -0.001087 -0.008476 0.030510 0.007647
# 6 -0.005496 0.001304 -0.001168 -0.006489 0.007647 0.032335
#
#
# Mechanical properties :
#
#
# Convention : Reuss Voigt Hill
#
# Bulk Modulus (GPa) = 43.32788 48.69371 46.01080
# Shear Modulus (GPa) = 34.15042 39.71813 36.93427
#
# Velocity S-wave (km/s) = 3.72085 4.01272 3.86954
# Velocity P-wave (km/s) = 6.00208 6.41949 6.21429
#
# Compressibility (1/GPa) = 0.02307983
#
# Stress axis : x y z
#
# Youngs Moduli (GPa) = 77.23628 111.99600 82.42357
#
# Poissons Ratio (x) = 0.09824 0.30693
# Poissons Ratio (y) = 0.06775 0.07116
# Poissons Ratio (z) = 0.28761 0.09670
#
# Static dielectric constant tensor:
#      x y z
#    x 4.388650 -0.254190 0.175660 
#    y -0.254190 5.044590 0.137530 
#    z 0.175660 0.137530 4.416610 
# 
# 
# High freq. dielectric constant tensor:
#      x y z
#    x 1.975740 -0.002760 0.014480 
#    y -0.002760 2.005780 -0.005740 
#    z 0.014480 -0.005740 1.983110 
# 
# From -- ./inp_files/110747.got.cif
#   From: 2010.06.25/outbox.cif.g09.slc.cpg/sg2_56_cif.got.tgz:110747.got - 2010.06.27 13:26:56.
