data_PCOD8036404
_publ_section_title
;
Structure prediction by ZEFSAII (Michael W. Deem and Ramdas Pophale) SiO2 
 PCOD8036404
Probable space group: P -1
;
_chemical_formula_sum "Si O2"
_cell_formula_units_Z 14
_cell_length_a 14.583530
_cell_length_b 15.186015
_cell_length_c 6.663499
_cell_angle_alpha 104.945722
_cell_angle_beta 67.421604
_cell_angle_gamma 151.883482
_cell_volume 631.011623
_symmetry_space_group_name_H-M "P -1"
_symmetry_group_IT_number 2
_symmetry_cell_setting 'triclinic'
loop_
_space_group_symop_operation_xyz
x,y,z
-x,-y,-z
loop_
_atom_site_type_symbol
_atom_site_label
_atom_site_fract_x
_atom_site_fract_y
_atom_site_fract_z
Si Si1 0.429662 0.385357 0.182678
Si Si2 0.902840 0.457625 0.851296
Si Si3 0.649699 0.409281 0.225858
Si Si4 0.243998 0.006668 0.539645
Si Si5 0.871354 0.731090 0.409884
Si Si6 0.110677 0.007450 0.022823
Si Si7 0.274834 0.821540 0.476211
O O1 0.615044 0.478379 0.182634
O O2 0.326801 0.368878 0.421049
O O3 0.276929 0.181251 0.135500
O O4 0.500000 0.500000 0.000000
O O5 0.753861 0.265227 0.748202
O O6 0.100250 0.648579 0.673608
O O7 0.753615 0.422493 0.995792
O O8 0.000000 0.500000 0.000000
O O9 0.808619 0.572607 0.361649
O O10 0.452095 0.205741 0.374509
O O11 0.235452 0.891633 0.479284
O O12 0.048670 0.889505 0.517078
O O13 0.231554 0.036308 0.790702
O O14 0.943896 0.818380 0.179200
O O15 0.000000 0.000000 0.000000
O O16 0.500000 0.000000 0.500000
#
# Coordination Sequence:
#
# PCOD8036404 Si02
#       7
#     2   2   2   2   2   2   2
#     4  12  25  43  68 103 143 186 235 286 344 417
#     4  11  26  50  73 106 145 181 239 299 361 425
#     4  12  26  44  72 102 141 186 232 288 353 417
#     4  12  26  45  71 104 140 186 236 287 356 419
#     4  12  25  46  68 100 145 185 235 286 346 416
#     4  12  23  43  70  98 141 187 233 288 344 413
#     4  11  27  47  76 105 140 186 239 300 357 427
#
# _framework density 22.186593999999999
#
# number of rings (size 3 to 8) (size 9 to 14) (size 15 to 20)
#    0.000    0.286    2.857    6.000    4.000    4.571 
#    0.000    0.000    0.000    0.000    0.000    0.000 
#    0.000    0.000    0.000    0.000    0.000    0.000 
#
# Total GULP energy -173603.075077 kJ/mol
# GULP energy per Si atom -12400.219648 kJ/mol
# Density = 2.213610 g / cm^3
# Si number density = 22.186594 Si / 1000 Ang^3
#
#
#
# Elastic Constant Matrix: (Units=GPa)
#
#
# Indices 1 2 3 4 5 6 
#
# 1 101.3236 33.9737 54.0592 0.8855 -12.4026 -12.3615
# 2 33.9737 142.2583 44.4731 14.5458 -9.8931 -10.0609
# 3 54.0592 44.4731 128.6280 12.7735 -22.9752 -10.1578
# 4 0.8855 14.5458 12.7735 37.9420 -8.7328 -3.7975
# 5 -12.4026 -9.8931 -22.9752 -8.7328 46.6705 3.2077
# 6 -12.3615 -10.0609 -10.1578 -3.7975 3.2077 39.1011
#
#
#
# Elastic Compliance Matrix: (Units=1/GPa)
#
#
# Indices 1 2 3 4 5 6 
#
# 1 0.013507 -0.001671 -0.004940 0.002510 0.001087 0.002712
# 2 -0.001671 0.008323 -0.001884 -0.002458 -0.000128 0.000896
# 3 -0.004940 -0.001884 0.011365 -0.002153 0.003451 0.000414
# 4 0.002510 -0.002458 -0.002153 0.029186 0.004405 0.002075
# 5 0.001087 -0.000128 0.003451 0.004405 0.024236 -0.000353
# 6 0.002712 0.000896 0.000414 0.002075 -0.000353 0.027000
#
#
# Mechanical properties :
#
#
# Convention : Reuss Voigt Hill
#
# Bulk Modulus (GPa) = 61.70531 70.80245 66.25388
# Shear Modulus (GPa) = 36.76253 40.72299 38.74276
#
# Velocity S-wave (km/s) = 4.07501 4.28889 4.18332
# Velocity P-wave (km/s) = 7.07201 7.51716 7.29798
#
# Compressibility (1/GPa) = 0.01620606
#
# Stress axis : x y z
#
# Youngs Moduli (GPa) = 74.03503 120.14836 87.99116
#
# Poissons Ratio (x) = 0.20072 0.43469
# Poissons Ratio (y) = 0.12369 0.16575
# Poissons Ratio (z) = 0.36574 0.22632
#
# Static dielectric constant tensor:
#      x y z
#    x 4.270180 0.370090 0.237320 
#    y 0.370090 4.836430 0.512890 
#    z 0.237320 0.512890 4.442290 
# 
# 
# High freq. dielectric constant tensor:
#      x y z
#    x 1.873120 -0.001470 -0.002580 
#    y -0.001470 1.906160 0.005870 
#    z -0.002580 0.005870 1.885620 
# 
# From -- ./inp_files/46139.got.cif
#   From: 2010.06.25/outbox.cif.g09.slc.cpg/sg2_24_cif.got.tgz:46139.got - 2010.06.27 13:26:56.
