data_PCOD8036240
_publ_section_title
;
Structure prediction by ZEFSAII (Michael W. Deem and Ramdas Pophale) SiO2 
 PCOD8036240
Probable space group: P -1
;
_chemical_formula_sum "Si O2"
_cell_formula_units_Z 14
_cell_length_a 8.304815
_cell_length_b 16.355953
_cell_length_c 8.813196
_cell_angle_alpha 148.489004
_cell_angle_beta 75.419034
_cell_angle_gamma 118.187136
_cell_volume 521.043581
_symmetry_space_group_name_H-M "P -1"
_symmetry_group_IT_number 2
_symmetry_cell_setting 'triclinic'
loop_
_space_group_symop_operation_xyz
x,y,z
-x,-y,-z
loop_
_atom_site_type_symbol
_atom_site_label
_atom_site_fract_x
_atom_site_fract_y
_atom_site_fract_z
Si Si1 0.755150 0.984023 0.104260
Si Si2 0.167771 0.434633 0.204509
Si Si3 0.397160 0.322802 0.568943
Si Si4 0.896446 0.085960 0.567879
Si Si5 0.996783 0.677346 0.621907
Si Si6 0.197939 0.532601 0.936257
Si Si7 0.473354 0.101841 0.448399
O O1 0.864389 0.021783 0.299114
O O2 0.906494 0.130884 0.182035
O O3 0.557447 0.988977 0.167401
O O4 0.695573 0.785598 0.738686
O O5 0.391279 0.502104 0.232608
O O6 0.157136 0.617502 0.509898
O O7 0.088886 0.310194 0.177239
O O8 0.031703 0.305881 0.895761
O O9 0.273510 0.408304 0.801217
O O10 0.391797 0.181951 0.469679
O O11 0.691134 0.026160 0.598113
O O12 0.000000 0.000000 0.500000
O O13 0.821901 0.517494 0.315185
O O14 0.350609 0.743185 0.252040
O O15 0.000000 0.500000 0.000000
#
# Coordination Sequence:
#
# PCOD8036240 Si02
#       7
#     2   2   2   2   2   2   2
#     4  12  27  50  77 119 158 207 263 335 391 466
#     4  11  26  50  77 115 157 212 262 322 392 477
#     4  12  28  46  84 117 159 203 268 331 393 469
#     4  12  30  48  77 113 165 211 268 317 398 476
#     4  11  26  46  80 108 161 204 265 319 400 460
#     4  12  26  48  79 114 156 213 264 322 396 476
#     4  12  26  49  78 114 160 208 266 323 402 471
#
# _framework density 26.869152
#
# number of rings (size 3 to 8) (size 9 to 14) (size 15 to 20)
#    0.000    0.286    2.857    3.857   12.000    1.143 
#    0.000    0.000    0.000    0.000    0.000    0.000 
#    0.000    0.000    0.000    0.000    0.000    0.000 
#
# Total GULP energy -173669.880047 kJ/mol
# GULP energy per Si atom -12404.991432 kJ/mol
# Density = 2.680800 g / cm^3
# Si number density = 26.869152 Si / 1000 Ang^3
#
#
#
# Elastic Constant Matrix: (Units=GPa)
#
#
# Indices 1 2 3 4 5 6 
#
# 1 132.6933 58.8785 48.2174 2.8174 1.9921 20.1882
# 2 58.8785 152.8028 49.7518 -9.1022 14.3801 10.7591
# 3 48.2174 49.7518 141.4710 13.3332 28.3452 32.6883
# 4 2.8174 -9.1022 13.3332 31.1795 -8.9207 1.0526
# 5 1.9921 14.3801 28.3452 -8.9207 61.7249 2.7469
# 6 20.1882 10.7591 32.6883 1.0526 2.7469 40.4775
#
#
#
# Elastic Compliance Matrix: (Units=1/GPa)
#
#
# Indices 1 2 3 4 5 6 
#
# 1 0.010058 -0.003233 -0.001874 -0.000580 0.001326 -0.002719
# 2 -0.003233 0.008801 -0.002606 0.003861 -0.000249 0.001294
# 3 -0.001874 -0.002606 0.012194 -0.007157 -0.005626 -0.007652
# 4 -0.000580 0.003861 -0.007157 0.038426 0.007803 0.003514
# 5 0.001326 -0.000249 -0.005626 0.007803 0.019820 0.002400
# 6 -0.002719 0.001294 -0.007652 0.003514 0.002400 0.031642
#
#
# Mechanical properties :
#
#
# Convention : Reuss Voigt Hill
#
# Bulk Modulus (GPa) = 63.99749 82.29582 73.14666
# Shear Modulus (GPa) = 35.31662 44.68437 40.00049
#
# Velocity S-wave (km/s) = 3.62939 4.08246 3.86257
# Velocity P-wave (km/s) = 6.43686 7.27439 6.86841
#
# Compressibility (1/GPa) = 0.01562561
#
# Stress axis : x y z
#
# Youngs Moduli (GPa) = 99.42556 113.62184 82.01091
#
# Poissons Ratio (x) = 0.36738 0.15367
# Poissons Ratio (y) = 0.32148 0.21374
# Poissons Ratio (z) = 0.18630 0.29613
#
# Static dielectric constant tensor:
#      x y z
#    x 5.595650 -0.080620 0.566950 
#    y -0.080620 4.927410 0.094510 
#    z 0.566950 0.094510 6.031820 
# 
# 
# High freq. dielectric constant tensor:
#      x y z
#    x 2.100350 -0.002670 0.000360 
#    y -0.002670 2.078540 -0.007860 
#    z 0.000360 -0.007860 2.090420 
# 
# From -- ./inp_files/219013.got.cif
#   From: 2010.06.25/outbox.cif.g09.slc.cpg/sg2_110_cif.got.tgz:219013.got - 2010.06.27 13:26:56.
