data_PCOD8036263
_publ_section_title
;
Structure prediction by ZEFSAII (Michael W. Deem and Ramdas Pophale) SiO2 
 PCOD8036263
Probable space group: P -1
;
_chemical_formula_sum "Si O2"
_cell_formula_units_Z 12
_cell_length_a 14.532209
_cell_length_b 13.910522
_cell_length_c 9.629859
_cell_angle_alpha 126.430341
_cell_angle_beta 48.562706
_cell_angle_gamma 160.049074
_cell_volume 494.922587
_symmetry_space_group_name_H-M "P -1"
_symmetry_group_IT_number 2
_symmetry_cell_setting 'triclinic'
loop_
_space_group_symop_operation_xyz
x,y,z
-x,-y,-z
loop_
_atom_site_type_symbol
_atom_site_label
_atom_site_fract_x
_atom_site_fract_y
_atom_site_fract_z
Si Si1 0.151573 0.029272 0.556980
Si Si2 0.651352 0.389351 0.004925
Si Si3 0.696745 0.559431 0.835406
Si Si4 0.416921 0.725084 0.510149
Si Si5 0.159459 0.687949 0.365491
Si Si6 0.013441 0.168622 0.745544
O O1 0.989360 0.825974 0.413855
O O2 0.979478 0.844067 0.709314
O O3 0.475203 0.258236 0.450096
O O4 0.182039 0.197715 0.650651
O O5 0.798120 0.598103 0.915899
O O6 0.690384 0.283660 0.848546
O O7 0.812698 0.565571 0.138206
O O8 0.313465 0.124176 0.121927
O O9 0.518882 0.296790 0.710835
O O10 0.500000 0.500000 0.000000
O O11 0.071305 0.448991 0.622752
O O12 0.591489 0.002844 0.566947
O O13 0.000000 0.500000 0.500000
#
# Coordination Sequence:
#
# PCOD8036263 Si02
#       6
#     2   2   2   2   2   2
#     4  11  26  47  73 104 145 190 226 294 363 421
#     4  12  26  46  71 108 138 186 240 293 341 422
#     4  12  25  43  76 108 141 175 237 296 352 412
#     4  12  25  44  71 104 141 183 237 282 355 414
#     4  12  25  43  72 102 145 187 230 292 351 407
#     4  11  28  46  73 102 148 184 235 288 363 418
#
# _framework density 24.246217000000001
#
# number of rings (size 3 to 8) (size 9 to 14) (size 15 to 20)
#    0.000    0.333    5.000    2.500    7.000    2.667 
#    0.000    5.000    0.000    0.000    0.000    0.000 
#    0.000    0.000    0.000    0.000    0.000    0.000 
#
# Total GULP energy -148840.808771 kJ/mol
# GULP energy per Si atom -12403.400731 kJ/mol
# Density = 2.419103 g / cm^3
# Si number density = 24.246217 Si / 1000 Ang^3
#
#
#
# Elastic Constant Matrix: (Units=GPa)
#
#
# Indices 1 2 3 4 5 6 
#
# 1 96.3748 7.4710 29.4726 -11.9647 -17.0300 28.0890
# 2 7.4710 76.8962 17.4904 20.7488 -8.1102 17.2047
# 3 29.4726 17.4904 115.9919 23.4832 -24.6656 3.9421
# 4 -11.9647 20.7488 23.4832 43.8513 -7.5456 0.6759
# 5 -17.0300 -8.1102 -24.6656 -7.5456 36.6872 3.8541
# 6 28.0890 17.2047 3.9421 0.6759 3.8541 28.6869
#
#
#
# Elastic Compliance Matrix: (Units=1/GPa)
#
#
# Indices 1 2 3 4 5 6 
#
# 1 0.022164 0.003209 -0.004528 0.009492 0.012523 -0.024910
# 2 0.003209 0.018393 -0.000676 -0.006320 0.005340 -0.014649
# 3 -0.004528 -0.000676 0.012016 -0.006677 0.004161 0.002786
# 4 0.009492 -0.006320 -0.006677 0.033083 0.005972 -0.006168
# 5 0.012523 0.005340 0.004161 0.005972 0.040549 -0.021625
# 6 -0.024910 -0.014649 0.002786 -0.006168 -0.021625 0.070704
#
#
# Mechanical properties :
#
#
# Convention : Reuss Voigt Hill
#
# Bulk Modulus (GPa) = 20.58299 44.23677 32.40988
# Shear Modulus (GPa) = 23.03188 37.50035 30.26611
#
# Velocity S-wave (km/s) = 3.08542 3.93701 3.53694
# Velocity P-wave (km/s) = 4.60441 6.24109 5.48415
#
# Compressibility (1/GPa) = 0.04858380
#
# Stress axis : x y z
#
# Youngs Moduli (GPa) = 45.11916 54.36951 83.22457
#
# Poissons Ratio (x) = -0.17450 0.37681
# Poissons Ratio (y) = -0.14481 0.05625
# Poissons Ratio (z) = 0.20428 0.03674
#
# Static dielectric constant tensor:
#      x y z
#    x 4.611170 0.237200 -0.193060 
#    y 0.237200 4.351110 0.080250 
#    z -0.193060 0.080250 4.653290 
# 
# 
# High freq. dielectric constant tensor:
#      x y z
#    x 1.972170 0.009310 -0.009800 
#    y 0.009310 1.963490 0.012080 
#    z -0.009800 0.012080 1.968830 
# 
# From -- ./inp_files/77468.got.cif
#   From: 2010.06.25/outbox.cif.g09.slc.cpg/sg2_39_cif.got.tgz:77468.got - 2010.06.27 13:26:56.
