data_PCOD8036805
_publ_section_title
;
Structure prediction by ZEFSAII (Michael W. Deem and Ramdas Pophale) SiO2 
 PCOD8036805
Probable space group: P -1
;
_chemical_formula_sum "Si O2"
_cell_formula_units_Z 16
_cell_length_a 8.756827
_cell_length_b 27.573813
_cell_length_c 27.506885
_cell_angle_alpha 10.632200
_cell_angle_beta 140.241123
_cell_angle_gamma 140.193168
_cell_volume 779.211289
_symmetry_space_group_name_H-M "P -1"
_symmetry_group_IT_number 2
_symmetry_cell_setting 'triclinic'
loop_
_space_group_symop_operation_xyz
x,y,z
-x,-y,-z
loop_
_atom_site_type_symbol
_atom_site_label
_atom_site_fract_x
_atom_site_fract_y
_atom_site_fract_z
Si Si1 0.322946 0.275201 0.387346
Si Si2 0.018548 0.750730 0.852527
Si Si3 0.982296 0.100725 0.099756
Si Si4 0.450482 0.985447 0.059298
Si Si5 0.154011 0.595709 0.588448
Si Si6 0.856891 0.545045 0.468943
Si Si7 0.415156 0.257303 0.314395
Si Si8 0.274260 0.207357 0.162998
O O1 0.559414 0.382594 0.369454
O O2 0.396841 0.257598 0.367116
O O3 0.233350 0.984705 0.671160
O O4 0.121018 0.469315 0.154742
O O5 0.850886 0.767865 0.747766
O O6 0.873339 0.776544 0.840276
O O7 0.088705 0.142485 0.138091
O O8 0.695539 0.060280 0.074919
O O9 0.078565 0.850316 0.345800
O O10 0.059996 0.347204 0.842243
O O11 0.352009 0.689440 0.341538
O O12 0.500000 0.000000 0.000000
O O13 0.260078 0.182922 0.833275
O O14 0.044922 0.565792 0.538053
O O15 0.000000 0.500000 0.500000
O O16 0.547955 0.013797 0.568722
O O17 0.565141 0.520557 0.073608
#
# Coordination Sequence:
#
# PCOD8036805 Si02
#       8
#     2   2   2   2   2   2   2   2
#     4  12  24  42  66  93 131 171 214 256 330 386
#     4  12  26  41  64  99 132 161 215 278 318 372
#     4  12  23  41  69  95 124 170 222 262 304 382
#     4  12  23  42  71  96 128 171 218 258 308 382
#     4  12  23  43  67  92 131 170 210 265 316 382
#     4  12  26  43  67 102 134 166 208 266 329 374
#     4  12  23  44  68  92 127 175 216 259 320 391
#     4  12  24  43  66  96 127 170 216 265 324 374
#
# _framework density 20.533584000000001
#
# number of rings (size 3 to 8) (size 9 to 14) (size 15 to 20)
#    0.000    0.000    5.000    6.000    0.000    2.000 
#    0.000    0.000    0.000    0.000    0.000    0.000 
#    0.000    0.000    0.000    0.000    0.000    0.000 
#
# Total GULP energy -198542.985488 kJ/mol
# GULP energy per Si atom -12408.936593 kJ/mol
# Density = 2.048685 g / cm^3
# Si number density = 20.533584 Si / 1000 Ang^3
#
#
#
# Elastic Constant Matrix: (Units=GPa)
#
#
# Indices 1 2 3 4 5 6 
#
# 1 137.4687 -0.0686 15.4254 -4.4287 -23.6417 -13.6108
# 2 -0.0686 149.9691 24.2378 0.8887 -0.7489 27.9043
# 3 15.4254 24.2378 123.9784 -12.6563 19.5447 6.3102
# 4 -4.4287 0.8887 -12.6563 37.8067 10.0244 -2.2713
# 5 -23.6417 -0.7489 19.5447 10.0244 80.0264 11.8402
# 6 -13.6108 27.9043 6.3102 -2.2713 11.8402 37.1733
#
#
#
# Elastic Compliance Matrix: (Units=1/GPa)
#
#
# Indices 1 2 3 4 5 6 
#
# 1 0.008107 -0.000239 -0.001469 -0.000003 0.002361 0.002645
# 2 -0.000239 0.008167 -0.001643 -0.001580 0.001572 -0.006536
# 3 -0.001469 -0.001643 0.009475 0.003940 -0.003314 0.000383
# 4 -0.000003 -0.001580 0.003940 0.029439 -0.005256 0.003988
# 5 0.002361 0.001572 -0.003314 -0.005256 0.015413 -0.004984
# 6 0.002645 -0.006536 0.000383 0.003988 -0.004984 0.034542
#
#
# Mechanical properties :
#
#
# Convention : Reuss Voigt Hill
#
# Bulk Modulus (GPa) = 52.50492 54.51171 53.50831
# Shear Modulus (GPa) = 42.30307 55.78940 49.04623
#
# Velocity S-wave (km/s) = 4.54386 5.21812 4.89262
# Velocity P-wave (km/s) = 7.29072 7.93160 7.61790
#
# Compressibility (1/GPa) = 0.01904584
#
# Stress axis : x y z
#
# Youngs Moduli (GPa) = 123.35241 122.44491 105.54033
#
# Poissons Ratio (x) = 0.02929 0.15504
# Poissons Ratio (y) = 0.02951 0.17343
# Poissons Ratio (z) = 0.18121 0.20121
#
# Static dielectric constant tensor:
#      x y z
#    x 3.623820 -0.081350 0.029970 
#    y -0.081350 3.714720 -0.040920 
#    z 0.029970 -0.040920 4.004020 
# 
# 
# High freq. dielectric constant tensor:
#      x y z
#    x 1.807360 0.007410 0.001740 
#    y 0.007410 1.821470 -0.003020 
#    z 0.001740 -0.003020 1.827030 
# 
# From -- ./inp_files/52166.got.cif
#   From: 2010.06.25/outbox.cif.g09.slc.cpg/sg2_27_cif.got.tgz:52166.got - 2010.06.27 13:26:56.
