data_PCOD8036804
_publ_section_title
;
Structure prediction by ZEFSAII (Michael W. Deem and Ramdas Pophale) SiO2 
 PCOD8036804
Probable space group: P -1
;
_chemical_formula_sum "Si O2"
_cell_formula_units_Z 14
_cell_length_a 11.465269
_cell_length_b 12.467638
_cell_length_c 20.900146
_cell_angle_alpha 157.757522
_cell_angle_beta 39.237791
_cell_angle_gamma 128.301334
_cell_volume 653.864565
_symmetry_space_group_name_H-M "P -1"
_symmetry_group_IT_number 2
_symmetry_cell_setting 'triclinic'
loop_
_space_group_symop_operation_xyz
x,y,z
-x,-y,-z
loop_
_atom_site_type_symbol
_atom_site_label
_atom_site_fract_x
_atom_site_fract_y
_atom_site_fract_z
Si Si1 0.154789 0.643160 0.371196
Si Si2 0.911279 0.320725 0.844169
Si Si3 0.301825 0.457578 0.073176
Si Si4 0.544884 0.644908 0.272906
Si Si5 0.571996 0.242187 0.381903
Si Si6 0.258533 0.508384 0.770168
Si Si7 0.000867 0.109737 0.134012
O O1 0.199685 0.673934 0.295395
O O2 0.351591 0.591266 0.300827
O O3 0.091042 0.359094 0.247600
O O4 0.965007 0.964920 0.644897
O O5 0.853044 0.413053 0.846906
O O6 0.118579 0.367227 0.788481
O O7 0.727261 0.530667 0.081927
O O8 0.500000 0.500000 0.000000
O O9 0.359311 0.096990 0.866075
O O10 0.605564 0.456006 0.209786
O O11 0.500000 0.000000 0.500000
O O12 0.500000 0.500000 0.500000
O O13 0.402775 0.285571 0.531117
O O14 0.770243 0.256877 0.338044
O O15 0.127293 0.829468 0.970847
O O16 0.000000 0.000000 0.000000
#
# Coordination Sequence:
#
# PCOD8036804 Si02
#       7
#     2   2   2   2   2   2   2
#     4  12  26  44  70 107 142 181 234 289 348 419
#     4  12  25  45  75 103 141 183 233 295 351 408
#     4  12  23  41  69 107 138 174 232 293 353 405
#     4  12  27  48  72 103 143 184 240 289 341 418
#     4  12  25  43  70 101 143 180 226 292 348 411
#     4  12  25  45  75 100 138 194 232 280 356 413
#     4  12  25  47  69 104 144 182 230 287 355 419
#
# _framework density 21.411162000000001
#
# number of rings (size 3 to 8) (size 9 to 14) (size 15 to 20)
#    0.000    0.000    7.143    2.571    2.000    1.714 
#    0.000    1.429    0.000    0.000    0.000    0.000 
#    0.000    0.000    0.000    0.000    0.000    0.000 
#
# Total GULP energy -173569.546068 kJ/mol
# GULP energy per Si atom -12397.824719 kJ/mol
# Density = 2.136243 g / cm^3
# Si number density = 21.411162 Si / 1000 Ang^3
#
#
#
# Elastic Constant Matrix: (Units=GPa)
#
#
# Indices 1 2 3 4 5 6 
#
# 1 151.5055 43.2754 69.2464 17.1894 -9.3859 -3.4118
# 2 43.2754 79.1372 45.1979 12.4344 -3.5526 23.5625
# 3 69.2464 45.1979 122.7951 1.6146 -16.3102 12.4879
# 4 17.1894 12.4344 1.6146 34.4532 0.6340 -5.9632
# 5 -9.3859 -3.5526 -16.3102 0.6340 33.5456 9.5176
# 6 -3.4118 23.5625 12.4879 -5.9632 9.5176 48.0281
#
#
#
# Elastic Compliance Matrix: (Units=1/GPa)
#
#
# Indices 1 2 3 4 5 6 
#
# 1 0.010175 -0.003326 -0.004930 -0.003038 -0.000815 0.003421
# 2 -0.003326 0.021759 -0.004558 -0.007965 0.002488 -0.011208
# 3 -0.004930 -0.004558 0.013501 0.002975 0.005300 -0.002305
# 4 -0.003038 -0.007965 0.002975 0.034691 -0.003129 0.007846
# 5 -0.000815 0.002488 0.005300 -0.003129 0.035332 -0.010047
# 6 0.003421 -0.011208 -0.002305 0.007846 -0.010047 0.030127
#
#
# Mechanical properties :
#
#
# Convention : Reuss Voigt Hill
#
# Bulk Modulus (GPa) = 50.48965 74.31968 62.40467
# Shear Modulus (GPa) = 28.11907 36.25327 32.18617
#
# Velocity S-wave (km/s) = 3.62787 4.11931 3.88137
# Velocity P-wave (km/s) = 6.41722 7.57701 7.02110
#
# Compressibility (1/GPa) = 0.01980604
#
# Stress axis : x y z
#
# Youngs Moduli (GPa) = 98.28140 45.95813 74.07084
#
# Poissons Ratio (x) = 0.15287 0.36515
# Poissons Ratio (y) = 0.32692 0.33763
# Poissons Ratio (z) = 0.48450 0.20948
#
# Static dielectric constant tensor:
#      x y z
#    x 4.198650 0.177970 -0.092030 
#    y 0.177970 3.972070 -0.124390 
#    z -0.092030 -0.124390 4.020270 
# 
# 
# High freq. dielectric constant tensor:
#      x y z
#    x 1.852440 0.006070 -0.017290 
#    y 0.006070 1.842150 -0.004080 
#    z -0.017290 -0.004080 1.850670 
# 
# From -- ./inp_files/101284.got.cif
#   From: 2010.06.25/outbox.cif.g09.slc.cpg/sg2_51_cif.got.tgz:101284.got - 2010.06.27 13:26:56.
