data_PCOD8036226
_publ_section_title
;
Structure prediction by ZEFSAII (Michael W. Deem and Ramdas Pophale) SiO2 
 PCOD8036226
Probable space group: P -1
;
_chemical_formula_sum "Si O2"
_cell_formula_units_Z 12
_cell_length_a 26.816466
_cell_length_b 5.208726
_cell_length_c 11.953942
_cell_angle_alpha 129.850069
_cell_angle_beta 21.759477
_cell_angle_gamma 128.771249
_cell_volume 472.365484
_symmetry_space_group_name_H-M "P -1"
_symmetry_group_IT_number 2
_symmetry_cell_setting 'triclinic'
loop_
_space_group_symop_operation_xyz
x,y,z
-x,-y,-z
loop_
_atom_site_type_symbol
_atom_site_label
_atom_site_fract_x
_atom_site_fract_y
_atom_site_fract_z
Si Si1 0.457006 0.686847 0.424030
Si Si2 0.375561 0.384041 0.146885
Si Si3 0.143826 0.978138 0.585146
Si Si4 0.126406 0.802485 0.819042
Si Si5 0.710951 0.866726 0.238340
Si Si6 0.073246 0.360077 0.413460
O O1 0.402553 0.372809 0.525679
O O2 0.500000 0.000000 0.500000
O O3 0.352109 0.803541 0.583434
O O4 0.581940 0.572670 0.059038
O O5 0.243030 0.555311 0.505204
O O6 0.299745 0.008978 0.221924
O O7 0.500000 0.500000 0.000000
O O8 0.147540 0.015409 0.720855
O O9 0.073897 0.615022 0.588139
O O10 0.042336 0.268483 0.838585
O O11 0.163484 0.037075 0.914240
O O12 0.771144 0.676662 0.955276
O O13 0.000000 0.500000 0.500000
O O14 0.000000 0.000000 0.500000
#
# Coordination Sequence:
#
# PCOD8036226 Si02
#       6
#     2   2   2   2   2   2
#     4  12  28  47  76 108 154 204 254 318 384 460
#     4  12  26  47  77 110 156 205 257 316 388 461
#     4  11  27  47  76 114 152 205 260 323 383 465
#     4  11  26  46  76 107 157 197 262 314 391 445
#     4  12  26  49  75 110 154 197 260 317 385 454
#     4  12  27  48  79 112 153 201 254 317 387 454
#
# _framework density 25.404057000000002
#
# number of rings (size 3 to 8) (size 9 to 14) (size 15 to 20)
#    0.000    0.333    3.333    4.000    7.000    2.667 
#    0.000    0.000    0.000    0.000    0.000    0.000 
#    0.000    0.000    0.000    0.000    0.000    0.000 
#
# Total GULP energy -148676.271416 kJ/mol
# GULP energy per Si atom -12389.689285 kJ/mol
# Density = 2.534624 g / cm^3
# Si number density = 25.404057 Si / 1000 Ang^3
#
#
#
# Elastic Constant Matrix: (Units=GPa)
#
#
# Indices 1 2 3 4 5 6 
#
# 1 117.5610 46.3725 27.1977 -7.5941 3.3233 10.9895
# 2 46.3725 96.1857 60.4681 -6.8642 -9.0735 -3.5838
# 3 27.1977 60.4681 160.0430 -27.5359 15.4457 10.0632
# 4 -7.5941 -6.8642 -27.5359 45.6015 5.8520 5.1347
# 5 3.3233 -9.0735 15.4457 5.8520 43.3600 -3.4571
# 6 10.9895 -3.5838 10.0632 5.1347 -3.4571 44.9504
#
#
#
# Elastic Compliance Matrix: (Units=1/GPa)
#
#
# Indices 1 2 3 4 5 6 
#
# 1 0.011573 -0.007054 0.001853 0.002969 -0.003778 -0.004436
# 2 -0.007054 0.019819 -0.008444 -0.005162 0.008908 0.006470
# 3 0.001853 -0.008444 0.011446 0.007474 -0.007402 -0.005112
# 4 0.002969 -0.005162 0.007474 0.027969 -0.008275 -0.006642
# 5 -0.003778 0.008908 -0.007402 -0.008275 0.029489 0.006504
# 6 -0.004436 0.006470 -0.005112 -0.006642 0.006504 0.026250
#
#
# Mechanical properties :
#
#
# Convention : Reuss Voigt Hill
#
# Bulk Modulus (GPa) = 64.32114 71.31849 67.81982
# Shear Modulus (GPa) = 31.44264 42.76581 37.10423
#
# Velocity S-wave (km/s) = 3.52191 4.10741 3.82588
# Velocity P-wave (km/s) = 6.47400 7.11541 6.80227
#
# Compressibility (1/GPa) = 0.01554699
#
# Stress axis : x y z
#
# Youngs Moduli (GPa) = 86.40490 50.45683 87.36992
#
# Poissons Ratio (x) = 0.35593 -0.16187
# Poissons Ratio (y) = 0.60952 0.73775
# Poissons Ratio (z) = -0.16009 0.42606
#
# Static dielectric constant tensor:
#      x y z
#    x 5.243660 0.664800 -0.875920 
#    y 0.664800 5.447020 -0.946010 
#    z -0.875920 -0.946010 6.457750 
# 
# 
# High freq. dielectric constant tensor:
#      x y z
#    x 2.019120 0.003850 -0.003560 
#    y 0.003850 2.017980 0.001910 
#    z -0.003560 0.001910 2.050180 
# 
# From -- ./inp_files/36891.got.cif
#   From: 2010.06.25/outbox.cif.g09.slc.cpg/sg2_19_cif.got.tgz:36891.got - 2010.06.27 13:26:56.
