data_PCOD8036637
_publ_section_title
;
Structure prediction by ZEFSAII (Michael W. Deem and Ramdas Pophale) SiO2 
 PCOD8036637
Probable space group: P -1
;
_chemical_formula_sum "Si O2"
_cell_formula_units_Z 12
_cell_length_a 12.766095
_cell_length_b 7.613363
_cell_length_c 21.100597
_cell_angle_alpha 143.994206
_cell_angle_beta 158.495308
_cell_angle_gamma 43.269033
_cell_volume 439.085422
_symmetry_space_group_name_H-M "P -1"
_symmetry_group_IT_number 2
_symmetry_cell_setting 'triclinic'
loop_
_space_group_symop_operation_xyz
x,y,z
-x,-y,-z
loop_
_atom_site_type_symbol
_atom_site_label
_atom_site_fract_x
_atom_site_fract_y
_atom_site_fract_z
Si Si1 0.834289 0.499736 0.341370
Si Si2 0.874825 0.858877 0.315262
Si Si3 0.188995 0.404727 0.927430
Si Si4 0.296802 0.968764 0.080093
Si Si5 0.945742 0.988477 0.765839
Si Si6 0.601313 0.491682 0.482853
O O1 0.493841 0.472705 0.154746
O O2 0.891722 0.235306 0.250405
O O3 0.000000 0.500000 0.500000
O O4 0.949105 0.826095 0.470502
O O5 0.570687 0.800871 0.163356
O O6 0.070324 0.590994 0.359616
O O7 0.808631 0.853246 0.200691
O O8 0.106588 0.718431 0.942817
O O9 0.945056 0.287425 0.808454
O O10 0.383266 0.264112 0.255391
O O11 0.123855 0.079938 0.956240
O O12 0.631759 0.823527 0.562844
O O13 0.500000 0.500000 0.500000
#
# Coordination Sequence:
#
# PCOD8036637 Si02
#       6
#     2   2   2   2   2   2
#     4  12  22  37  70 111 145 170 222 292 350 403
#     4  12  22  43  73 102 140 182 226 284 344 407
#     4  12  24  39  69 111 139 172 229 291 345 402
#     4  12  24  45  75 102 138 179 230 291 346 403
#     4  12  25  42  71 107 138 179 230 285 347 411
#     4  12  28  48  70  97 140 190 232 280 347 414
#
# _framework density 27.329533999999999
#
# number of rings (size 3 to 8) (size 9 to 14) (size 15 to 20)
#    0.000    0.000    8.333    3.500    0.000    0.667 
#    0.000    1.667    0.000    0.000    0.000    0.000 
#    0.000    0.000    0.000    0.000    0.000    0.000 
#
# Total GULP energy -148803.345709 kJ/mol
# GULP energy per Si atom -12400.278809 kJ/mol
# Density = 2.726733 g / cm^3
# Si number density = 27.329534 Si / 1000 Ang^3
#
#
#
# Elastic Constant Matrix: (Units=GPa)
#
#
# Indices 1 2 3 4 5 6 
#
# 1 164.2919 43.9117 74.3010 27.4594 3.4200 44.4672
# 2 43.9117 39.3660 17.5193 26.1424 7.6354 19.7596
# 3 74.3010 17.5193 149.7949 29.8473 -10.8530 13.4058
# 4 27.4594 26.1424 29.8473 36.0612 13.8563 16.7113
# 5 3.4200 7.6354 -10.8530 13.8563 68.6811 6.4848
# 6 44.4672 19.7596 13.4058 16.7113 6.4848 47.1383
#
#
#
# Elastic Compliance Matrix: (Units=1/GPa)
#
#
# Indices 1 2 3 4 5 6 
#
# 1 0.013244 -0.013952 -0.006162 0.009312 -0.001203 -0.008029
# 2 -0.013952 0.068363 0.008729 -0.046841 0.004107 -0.001937
# 3 -0.006162 0.008729 0.011491 -0.014133 0.003683 0.003389
# 4 0.009312 -0.046841 -0.014133 0.075594 -0.011767 -0.010311
# 5 -0.001203 0.004107 0.003683 -0.011767 0.017102 0.000184
# 6 -0.008029 -0.001937 0.003389 -0.010311 0.000184 0.032266
#
#
# Mechanical properties :
#
#
# Convention : Reuss Voigt Hill
#
# Bulk Modulus (GPa) = 14.21900 69.43518 41.82709
# Shear Modulus (GPa) = 18.92000 44.89086 31.90543
#
# Velocity S-wave (km/s) = 2.63400 4.05727 3.42048
# Velocity P-wave (km/s) = 3.80325 6.88552 5.56215
#
# Compressibility (1/GPa) = 0.07032845
#
# Stress axis : x y z
#
# Youngs Moduli (GPa) = 75.50559 14.62788 87.02642
#
# Poissons Ratio (x) = 0.20409 0.53623
# Poissons Ratio (y) = 1.05346 -0.75967
# Poissons Ratio (z) = 0.46524 -0.12769
#
# Static dielectric constant tensor:
#      x y z
#    x 5.424690 0.446100 0.006350 
#    y 0.446100 4.969100 0.296770 
#    z 0.006350 0.296770 5.393250 
# 
# 
# High freq. dielectric constant tensor:
#      x y z
#    x 2.112690 0.028770 -0.008630 
#    y 0.028770 2.082880 0.008060 
#    z -0.008630 0.008060 2.129380 
# 
# From -- ./inp_files/541139.got.cif
#   From: 2010.06.25/outbox.cif.g09.slc.cpg/sg2_271_cif.got.tgz:541139.got - 2010.06.27 13:26:56.
