data_PCOD8036737
_publ_section_title
;
Structure prediction by ZEFSAII (Michael W. Deem and Ramdas Pophale) SiO2 
 PCOD8036737
Probable space group: P -1
;
_chemical_formula_sum "Si O2"
_cell_formula_units_Z 14
_cell_length_a 8.031083
_cell_length_b 9.639533
_cell_length_c 8.754252
_cell_angle_alpha 63.930166
_cell_angle_beta 96.484661
_cell_angle_gamma 96.512530
_cell_volume 603.324884
_symmetry_space_group_name_H-M "P -1"
_symmetry_group_IT_number 2
_symmetry_cell_setting 'triclinic'
loop_
_space_group_symop_operation_xyz
x,y,z
-x,-y,-z
loop_
_atom_site_type_symbol
_atom_site_label
_atom_site_fract_x
_atom_site_fract_y
_atom_site_fract_z
Si Si1 0.646234 0.164248 0.599441
Si Si2 0.376651 0.381442 0.948452
Si Si3 0.092564 0.990333 0.852385
Si Si4 0.724011 0.748309 0.441658
Si Si5 0.183742 0.519363 0.592646
Si Si6 0.211932 0.143438 0.289328
Si Si7 0.614026 0.156495 0.936505
O O1 0.451746 0.190200 0.561125
O O2 0.759072 0.301356 0.463633
O O3 0.707188 0.172236 0.776307
O O4 0.669010 0.998342 0.605083
O O5 0.225490 0.450359 0.800087
O O6 0.503231 0.299168 0.888777
O O7 0.500000 0.500000 0.000000
O O8 0.289121 0.258075 0.113811
O O9 0.966968 0.934505 0.735703
O O10 0.180314 0.157640 0.732289
O O11 0.232305 0.863373 0.922786
O O12 0.000000 0.000000 0.000000
O O13 0.702297 0.569762 0.472622
O O14 0.823900 0.764706 0.603671
O O15 0.000000 0.500000 0.500000
O O16 0.500000 0.000000 0.000000
#
# Coordination Sequence:
#
# PCOD8036737 Si02
#       7
#     2   2   2   2   2   2   2
#     4  12  24  44  75 102 139 186 236 283 352 424
#     4  12  27  49  72 104 142 187 239 291 353 427
#     4  12  23  42  72 104 141 183 235 292 351 415
#     4  12  25  45  70 105 144 184 237 289 355 420
#     4  12  28  47  71 104 147 188 234 294 359 415
#     4  12  26  44  73 106 139 181 236 298 349 416
#     4  12  22  44  74 102 132 185 238 286 344 426
#
# _framework density 23.204744000000002
#
# number of rings (size 3 to 8) (size 9 to 14) (size 15 to 20)
#    0.000    0.000    5.714    3.857    4.000    2.286 
#    0.000    1.429    0.000    0.000    0.000    0.000 
#    0.000    0.000    0.000    0.000    0.000    0.000 
#
# Total GULP energy -173481.074653 kJ/mol
# GULP energy per Si atom -12391.505332 kJ/mol
# Density = 2.315193 g / cm^3
# Si number density = 23.204744 Si / 1000 Ang^3
#
#
#
# Elastic Constant Matrix: (Units=GPa)
#
#
# Indices 1 2 3 4 5 6 
#
# 1 93.2104 3.6068 28.9969 -10.0330 21.6564 12.1924
# 2 3.6068 97.9750 37.2291 -7.0281 0.6358 3.7405
# 3 28.9969 37.2291 116.5977 -9.4139 5.1357 -2.0509
# 4 -10.0330 -7.0281 -9.4139 42.1006 7.0737 -1.2638
# 5 21.6564 0.6358 5.1357 7.0737 49.0274 1.3125
# 6 12.1924 3.7405 -2.0509 -1.2638 1.3125 32.6153
#
#
#
# Elastic Compliance Matrix: (Units=1/GPa)
#
#
# Indices 1 2 3 4 5 6 
#
# 1 0.014355 0.001316 -0.003498 0.003773 -0.006393 -0.005334
# 2 0.001316 0.011867 -0.004018 0.001413 -0.000464 -0.002032
# 3 -0.003498 -0.004018 0.010838 0.000950 0.000259 0.002476
# 4 0.003773 0.001413 0.000950 0.026021 -0.005531 -0.000282
# 5 -0.006393 -0.000464 0.000259 -0.005531 0.023963 0.001281
# 6 -0.005334 -0.002032 0.002476 -0.000282 0.001281 0.032981
#
#
# Mechanical properties :
#
#
# Convention : Reuss Voigt Hill
#
# Bulk Modulus (GPa) = 40.54905 49.71653 45.13279
# Shear Modulus (GPa) = 35.55101 40.61203 38.08152
#
# Velocity S-wave (km/s) = 3.91840 4.18803 4.05546
# Velocity P-wave (km/s) = 6.16313 6.69760 6.43591
#
# Compressibility (1/GPa) = 0.02466149
#
# Stress axis : x y z
#
# Youngs Moduli (GPa) = 69.66367 84.26845 92.26740
#
# Poissons Ratio (x) = -0.11093 0.32274
# Poissons Ratio (y) = -0.09171 0.37069
# Poissons Ratio (z) = 0.24367 0.33856
#
# Static dielectric constant tensor:
#      x y z
#    x 4.870990 -0.207800 0.633930 
#    y -0.207800 4.501640 -0.364230 
#    z 0.633930 -0.364230 4.916550 
# 
# 
# High freq. dielectric constant tensor:
#      x y z
#    x 1.920950 0.007300 0.016770 
#    y 0.007300 1.917920 0.000610 
#    z 0.016770 0.000610 1.929400 
# 
# From -- ./inp_files/156979.got.cif
#   From: 2010.06.25/outbox.cif.g09.slc.cpg/sg2_79_cif.got.tgz:156979.got - 2010.06.27 13:26:56.
