data_PCOD8036413
_publ_section_title
;
Structure prediction by ZEFSAII (Michael W. Deem and Ramdas Pophale) SiO2 
 PCOD8036413
Probable space group: P -1
;
_chemical_formula_sum "Si O2"
_cell_formula_units_Z 16
_cell_length_a 8.435177
_cell_length_b 14.372801
_cell_length_c 13.915785
_cell_angle_alpha 32.051162
_cell_angle_beta 76.107058
_cell_angle_gamma 96.376742
_cell_volume 688.257791
_symmetry_space_group_name_H-M "P -1"
_symmetry_group_IT_number 2
_symmetry_cell_setting 'triclinic'
loop_
_space_group_symop_operation_xyz
x,y,z
-x,-y,-z
loop_
_atom_site_type_symbol
_atom_site_label
_atom_site_fract_x
_atom_site_fract_y
_atom_site_fract_z
Si Si1 0.561445 0.836951 0.643496
Si Si2 0.540155 0.943943 0.886946
Si Si3 0.406552 0.509216 0.365720
Si Si4 0.844626 0.058014 0.581906
Si Si5 0.816548 0.865356 0.412085
Si Si6 0.121954 0.755573 0.026940
Si Si7 0.300702 0.582964 0.512534
Si Si8 0.867907 0.468069 0.956662
O O1 0.627647 0.803590 0.560813
O O2 0.500000 0.000000 0.500000
O O3 0.749235 0.922684 0.615279
O O4 0.354872 0.603904 0.914272
O O5 0.657487 0.019199 0.702303
O O6 0.623373 0.167500 0.736913
O O7 0.564371 0.773737 0.087647
O O8 0.297099 0.799095 0.033157
O O9 0.252752 0.364874 0.425217
O O10 0.270923 0.470938 0.511984
O O11 0.536396 0.418269 0.446305
O O12 0.967175 0.996883 0.681541
O O13 0.022430 0.312815 0.312294
O O14 0.859334 0.022682 0.178631
O O15 0.155274 0.714556 0.948474
O O16 0.910885 0.551156 0.281801
O O17 0.000000 0.500000 0.000000
#
# Coordination Sequence:
#
# PCOD8036413 Si02
#       8
#     2   2   2   2   2   2   2   2
#     4  12  24  45  71 100 142 192 240 289 358 432
#     4  12  24  49  76 105 145 190 243 295 359 435
#     4  11  27  49  73 112 143 190 242 302 363 429
#     4  12  25  45  68 106 144 186 241 295 359 428
#     4  12  26  46  70 106 152 186 241 305 356 427
#     4  12  24  45  75 103 141 193 236 296 360 427
#     4  11  26  50  77 103 149 190 240 300 367 424
#     4  12  24  40  71 102 135 186 240 288 352 423
#
# _framework density 23.247102000000002
#
# number of rings (size 3 to 8) (size 9 to 14) (size 15 to 20)
#    0.000    0.250    6.250    2.250    1.750    1.500 
#    4.500    0.000    0.000    0.000    0.000    0.000 
#    0.000    0.000    0.000    0.000    0.000    0.000 
#
# Total GULP energy -198460.589279 kJ/mol
# GULP energy per Si atom -12403.786830 kJ/mol
# Density = 2.319419 g / cm^3
# Si number density = 23.247102 Si / 1000 Ang^3
#
#
#
# Elastic Constant Matrix: (Units=GPa)
#
#
# Indices 1 2 3 4 5 6 
#
# 1 86.1226 35.4366 34.4265 -2.8008 -10.6344 5.1603
# 2 35.4366 122.6194 23.2378 -7.9703 -11.5400 2.8842
# 3 34.4265 23.2378 119.2637 -5.0317 -1.6827 0.0010
# 4 -2.8008 -7.9703 -5.0317 30.1203 -2.8511 1.6438
# 5 -10.6344 -11.5400 -1.6827 -2.8511 41.1961 -0.9351
# 6 5.1603 2.8842 0.0010 1.6438 -0.9351 26.1962
#
#
#
# Elastic Compliance Matrix: (Units=1/GPa)
#
#
# Indices 1 2 3 4 5 6 
#
# 1 0.014905 -0.003286 -0.003610 0.000309 0.002744 -0.002496
# 2 -0.003286 0.009602 -0.000797 0.002314 0.001958 -0.000485
# 3 -0.003610 -0.000797 0.009613 0.000956 -0.000680 0.000714
# 4 0.000309 0.002314 0.000956 0.034423 0.003096 -0.002365
# 5 0.002744 0.001958 -0.000680 0.003096 0.025717 -0.000032
# 6 -0.002496 -0.000485 0.000714 -0.002365 -0.000032 0.038866
#
#
# Mechanical properties :
#
#
# Convention : Reuss Voigt Hill
#
# Bulk Modulus (GPa) = 53.38203 57.13418 55.25810
# Shear Modulus (GPa) = 32.30857 35.16286 33.73571
#
# Velocity S-wave (km/s) = 3.73203 3.89340 3.81357
# Velocity P-wave (km/s) = 6.44852 6.69639 6.57363
#
# Compressibility (1/GPa) = 0.01873290
#
# Stress axis : x y z
#
# Youngs Moduli (GPa) = 67.09057 104.14298 104.02591
#
# Poissons Ratio (x) = 0.34224 0.37558
# Poissons Ratio (y) = 0.22048 0.08292
# Poissons Ratio (z) = 0.24223 0.08301
#
# Static dielectric constant tensor:
#      x y z
#    x 4.502230 -0.080510 0.422610 
#    y -0.080510 4.099890 0.004070 
#    z 0.422610 0.004070 4.881310 
# 
# 
# High freq. dielectric constant tensor:
#      x y z
#    x 1.916910 -0.000850 -0.001380 
#    y -0.000850 1.919010 0.005370 
#    z -0.001380 0.005370 1.929960 
# 
# From -- ./inp_files/504978.got.cif
#   From: 2010.06.25/outbox.cif.g09.slc.cpg/sg2_253_cif.got.tgz:504978.got - 2010.06.27 13:26:56.
