data_PCOD8036106
_publ_section_title
;
Structure prediction by ZEFSAII (Michael W. Deem and Ramdas Pophale) SiO2 
 PCOD8036106
Probable space group: P -1
;
_chemical_formula_sum "Si O2"
_cell_formula_units_Z 12
_cell_length_a 5.341161
_cell_length_b 15.439423
_cell_length_c 12.399831
_cell_angle_alpha 153.274003
_cell_angle_beta 79.177838
_cell_angle_gamma 100.068421
_cell_volume 451.625895
_symmetry_space_group_name_H-M "P -1"
_symmetry_group_IT_number 2
_symmetry_cell_setting 'triclinic'
loop_
_space_group_symop_operation_xyz
x,y,z
-x,-y,-z
loop_
_atom_site_type_symbol
_atom_site_label
_atom_site_fract_x
_atom_site_fract_y
_atom_site_fract_z
Si Si1 0.034783 0.108165 0.729931
Si Si2 0.621567 0.298676 0.643743
Si Si3 0.287587 0.055550 0.251659
Si Si4 0.701937 0.331445 0.291829
Si Si5 0.001713 0.634271 0.487684
Si Si6 0.586179 0.300481 0.886563
O O1 0.793085 0.254298 0.910221
O O2 0.307495 0.211835 0.835705
O O3 0.979222 0.978402 0.697301
O O4 0.000000 0.000000 0.500000
O O5 0.504382 0.120462 0.389422
O O6 0.864784 0.390795 0.666353
O O7 0.683973 0.221167 0.673011
O O8 0.415916 0.467810 0.860397
O O9 0.234679 0.219571 0.347484
O O10 0.394735 0.865502 0.974017
O O11 0.500000 0.500000 0.500000
O O12 0.802950 0.275019 0.339366
O O13 0.926797 0.421609 0.299126
#
# Coordination Sequence:
#
# PCOD8036106 Si02
#       6
#     2   2   2   2   2   2
#     4  12  25  47  74 112 159 203 256 304 384 452
#     4  11  26  44  74 109 150 196 259 306 382 450
#     4  12  27  44  78 110 149 201 255 313 380 465
#     4  11  27  51  75 104 148 193 254 325 390 451
#     4  11  26  48  74 107 145 195 254 317 391 456
#     4  11  27  46  73 112 161 208 247 317 371 463
#
# _framework density 26.570665999999999
#
# number of rings (size 3 to 8) (size 9 to 14) (size 15 to 20)
#    0.000    0.667    1.667    4.000    9.333    6.667 
#    0.000    0.000    0.000    0.000    0.000    0.000 
#    0.000    0.000    0.000    0.000    0.000    0.000 
#
# Total GULP energy -148848.289586 kJ/mol
# GULP energy per Si atom -12404.024132 kJ/mol
# Density = 2.651019 g / cm^3
# Si number density = 26.570666 Si / 1000 Ang^3
#
#
#
# Elastic Constant Matrix: (Units=GPa)
#
#
# Indices 1 2 3 4 5 6 
#
# 1 107.3613 23.4252 5.6614 -2.0356 5.9385 -11.4427
# 2 23.4252 111.8431 0.1742 5.0708 -4.0126 -15.1397
# 3 5.6614 0.1742 117.1800 4.1043 10.5812 -15.5033
# 4 -2.0356 5.0708 4.1043 24.7715 2.5424 -3.3756
# 5 5.9385 -4.0126 10.5812 2.5424 30.5865 1.4711
# 6 -11.4427 -15.1397 -15.5033 -3.3756 1.4711 49.8319
#
#
#
# Elastic Compliance Matrix: (Units=1/GPa)
#
#
# Indices 1 2 3 4 5 6 
#
# 1 0.010131 -0.002036 -0.000080 0.001769 -0.002444 0.001875
# 2 -0.002036 0.009850 0.000332 -0.002073 0.001627 0.002440
# 3 -0.000080 0.000332 0.009255 -0.000869 -0.003214 0.002998
# 4 0.001769 -0.002073 -0.000869 0.041818 -0.003909 0.002454
# 5 -0.002444 0.001627 -0.003214 -0.003909 0.034933 -0.002363
# 6 0.001875 0.002440 0.002998 0.002454 -0.002363 0.022408
#
#
# Mechanical properties :
#
#
# Convention : Reuss Voigt Hill
#
# Bulk Modulus (GPa) = 38.95788 43.87844 41.41816
# Shear Modulus (GPa) = 35.58274 41.51287 38.54780
#
# Velocity S-wave (km/s) = 3.66344 3.95695 3.81302
# Velocity P-wave (km/s) = 5.70861 6.11771 5.91670
#
# Compressibility (1/GPa) = 0.02566875
#
# Stress axis : x y z
#
# Youngs Moduli (GPa) = 98.70384 101.52649 108.05468
#
# Poissons Ratio (x) = 0.20670 0.00861
# Poissons Ratio (y) = 0.20095 -0.03589
# Poissons Ratio (z) = 0.00786 -0.03372
#
# Static dielectric constant tensor:
#      x y z
#    x 4.658740 -0.071400 -0.177110 
#    y -0.071400 5.346390 0.055730 
#    z -0.177110 0.055730 4.727990 
# 
# 
# High freq. dielectric constant tensor:
#      x y z
#    x 2.060400 -0.005550 -0.009590 
#    y -0.005550 2.088180 0.003860 
#    z -0.009590 0.003860 2.068680 
# 
# From -- ./inp_files/97392.got.cif
#   From: 2010.06.25/outbox.cif.g09.slc.cpg/sg2_49_cif.got.tgz:97392.got - 2010.06.27 13:26:56.
