data_PCOD8036297
_publ_section_title
;
Structure prediction by ZEFSAII (Michael W. Deem and Ramdas Pophale) SiO2 
 PCOD8036297
Probable space group: P -1
;
_chemical_formula_sum "Si O2"
_cell_formula_units_Z 16
_cell_length_a 11.675092
_cell_length_b 8.503379
_cell_length_c 13.900853
_cell_angle_alpha 138.290296
_cell_angle_beta 129.672218
_cell_angle_gamma 70.473582
_cell_volume 678.918755
_symmetry_space_group_name_H-M "P -1"
_symmetry_group_IT_number 2
_symmetry_cell_setting 'triclinic'
loop_
_space_group_symop_operation_xyz
x,y,z
-x,-y,-z
loop_
_atom_site_type_symbol
_atom_site_label
_atom_site_fract_x
_atom_site_fract_y
_atom_site_fract_z
Si Si1 0.620949 0.173045 0.571112
Si Si2 0.830989 0.118060 0.001275
Si Si3 0.805173 0.932244 0.239934
Si Si4 0.329027 0.260846 0.118205
Si Si5 0.157808 0.261310 0.304919
Si Si6 0.321373 0.473852 0.873332
Si Si7 0.616428 0.243897 0.385351
Si Si8 0.157552 0.145440 0.466914
O O1 0.660404 0.452815 0.756439
O O2 0.552326 0.150522 0.414924
O O3 0.500000 0.000000 0.500000
O O4 0.779238 0.092882 0.618519
O O5 0.698151 0.252347 0.008988
O O6 0.998029 0.303731 0.199209
O O7 0.811478 0.881906 0.953538
O O8 0.826126 0.007330 0.840546
O O9 0.788600 0.679920 0.173129
O O10 0.739937 0.106756 0.353629
O O11 0.702134 0.870339 0.061305
O O12 0.984434 0.061897 0.376180
O O13 0.481970 0.209286 0.219987
O O14 0.299142 0.466742 0.427653
O O15 0.161659 0.284197 0.431881
O O16 0.272307 0.349043 0.687352
O O17 0.500000 0.500000 0.000000
#
# Coordination Sequence:
#
# PCOD8036297 Si02
#       8
#     2   2   2   2   2   2   2   2
#     4  12  29  49  78 111 150 195 250 310 377 447
#     4  11  26  48  73 109 152 190 248 308 371 445
#     4  12  28  49  73 112 150 200 250 308 375 446
#     4  12  27  47  75 112 146 194 252 307 372 439
#     4  11  26  47  77 109 147 200 249 308 371 443
#     4  12  29  46  74 108 155 198 248 310 376 439
#     4  12  26  49  79 106 151 198 251 307 370 445
#     4  12  28  49  76 109 152 203 249 308 377 447
#
# _framework density 23.566886
#
# number of rings (size 3 to 8) (size 9 to 14) (size 15 to 20)
#    0.000    0.250    3.750    3.375   10.500    1.500 
#    0.000    0.000    0.000    0.000    0.000    0.000 
#    0.000    0.000    0.000    0.000    0.000    0.000 
#
# Total GULP energy -198478.577035 kJ/mol
# GULP energy per Si atom -12404.911065 kJ/mol
# Density = 2.351325 g / cm^3
# Si number density = 23.566886 Si / 1000 Ang^3
#
#
#
# Elastic Constant Matrix: (Units=GPa)
#
#
# Indices 1 2 3 4 5 6 
#
# 1 130.5697 61.4734 61.3902 -8.1097 -4.7431 3.5235
# 2 61.4734 100.0523 56.1257 1.4370 0.6984 -0.7869
# 3 61.3902 56.1257 146.2743 -18.8122 -3.5227 5.3859
# 4 -8.1097 1.4370 -18.8122 40.5095 2.3953 -3.8733
# 5 -4.7431 0.6984 -3.5227 2.3953 34.3053 0.7690
# 6 3.5235 -0.7869 5.3859 -3.8733 0.7690 53.8692
#
#
#
# Elastic Compliance Matrix: (Units=1/GPa)
#
#
# Indices 1 2 3 4 5 6 
#
# 1 0.011712 -0.005853 -0.002451 0.001279 0.001409 -0.000535
# 2 -0.005853 0.016017 -0.004206 -0.003537 -0.001338 0.000802
# 3 -0.002451 -0.004206 0.010059 0.004242 0.000497 -0.000609
# 4 0.001279 -0.003537 0.004242 0.027247 -0.001250 0.001417
# 5 0.001409 -0.001338 0.000497 -0.001250 0.029525 -0.000673
# 6 -0.000535 0.000802 -0.000609 0.001417 -0.000673 0.018783
#
#
# Mechanical properties :
#
#
# Convention : Reuss Voigt Hill
#
# Bulk Modulus (GPa) = 78.32678 81.65278 79.98978
# Shear Modulus (GPa) = 35.05826 38.93062 36.99444
#
# Velocity S-wave (km/s) = 3.86114 4.06879 3.96632
# Velocity P-wave (km/s) = 7.29287 7.53630 7.41559
#
# Compressibility (1/GPa) = 0.01276702
#
# Stress axis : x y z
#
# Youngs Moduli (GPa) = 85.38060 62.43394 99.41318
#
# Poissons Ratio (x) = 0.36545 0.24370
# Poissons Ratio (y) = 0.49977 0.41811
# Poissons Ratio (z) = 0.20930 0.26258
#
# Static dielectric constant tensor:
#      x y z
#    x 4.292090 0.118550 -0.022770 
#    y 0.118550 4.412810 0.038480 
#    z -0.022770 0.038480 4.382770 
# 
# 
# High freq. dielectric constant tensor:
#      x y z
#    x 1.944550 0.003780 -0.001980 
#    y 0.003780 1.935170 -0.003350 
#    z -0.001980 -0.003350 1.947500 
# 
# From -- ./inp_files/516436.got.cif
#   From: 2010.06.25/outbox.cif.g09.slc.cpg/sg2_259_cif.got.tgz:516436.got - 2010.06.27 13:26:56.
