data_PCOD8036214
_publ_section_title
;
Structure prediction by ZEFSAII (Michael W. Deem and Ramdas Pophale) SiO2 
 PCOD8036214
Probable space group: P -1
;
_chemical_formula_sum "Si O2"
_cell_formula_units_Z 16
_cell_length_a 15.924028
_cell_length_b 9.122205
_cell_length_c 32.247986
_cell_angle_alpha 36.381077
_cell_angle_beta 161.306092
_cell_angle_gamma 134.396936
_cell_volume 840.261130
_symmetry_space_group_name_H-M "P -1"
_symmetry_group_IT_number 2
_symmetry_cell_setting 'triclinic'
loop_
_space_group_symop_operation_xyz
x,y,z
-x,-y,-z
loop_
_atom_site_type_symbol
_atom_site_label
_atom_site_fract_x
_atom_site_fract_y
_atom_site_fract_z
Si Si1 0.103776 0.991038 0.840003
Si Si2 0.580138 0.876437 0.610671
Si Si3 0.751555 0.740045 0.079364
Si Si4 0.890517 0.582077 0.582652
Si Si5 0.695158 0.673435 0.557339
Si Si6 0.489142 0.452453 0.914579
Si Si7 0.199824 0.169078 0.008903
Si Si8 0.398240 0.680976 0.270833
O O1 0.903553 0.817530 0.785143
O O2 0.191227 0.035301 0.917353
O O3 0.375433 0.833761 0.976928
O O4 0.929428 0.274082 0.675017
O O5 0.522627 0.603364 0.648444
O O6 0.500000 0.000000 0.500000
O O7 0.413196 0.068001 0.524875
O O8 0.556580 0.609848 0.043930
O O9 0.027590 0.504869 0.250069
O O10 0.655498 0.869330 0.960272
O O11 0.757437 0.749836 0.522826
O O12 0.676560 0.701432 0.418233
O O13 0.202219 0.597549 0.722053
O O14 0.500000 0.500000 0.500000
O O15 0.688830 0.622647 0.963214
O O16 0.317373 0.889194 0.149042
O O17 0.861533 0.269984 0.829662
#
# Coordination Sequence:
#
# PCOD8036214 Si02
#       8
#     2   2   2   2   2   2   2   2
#     4  10  19  34  60  91 113 146 191 241 290 335
#     4  12  19  33  59  89 116 146 191 243 288 335
#     4  10  20  35  60  84 118 148 187 242 287 342
#     4  10  20  37  58  86 116 150 189 240 286 342
#     4  10  17  31  56  88 114 142 188 240 288 330
#     4  10  21  38  62  87 113 152 195 235 290 337
#     4  11  23  40  56  84 121 153 196 234 284 345
#     4  11  24  38  58  85 118 158 190 237 286 338
#
# _framework density 19.041699999999999
#
# number of rings (size 3 to 8) (size 9 to 14) (size 15 to 20)
#    0.000    1.750    5.000    3.375    0.000    0.500 
#    0.000    1.875    0.000    9.000    0.000    0.000 
#    0.000    0.000    0.000    0.000    0.000    0.000 
#
# Total GULP energy -198241.355669 kJ/mol
# GULP energy per Si atom -12390.084729 kJ/mol
# Density = 1.899836 g / cm^3
# Si number density = 19.041700 Si / 1000 Ang^3
#
#
#
# Elastic Constant Matrix: (Units=GPa)
#
#
# Indices 1 2 3 4 5 6 
#
# 1 76.4663 40.3464 47.0293 -17.7175 10.1554 -9.0943
# 2 40.3464 86.2273 28.5771 -9.6632 -3.0184 -5.1364
# 3 47.0293 28.5771 85.9194 -3.1407 7.9382 -6.5567
# 4 -17.7175 -9.6632 -3.1407 29.5303 -2.9694 9.9043
# 5 10.1554 -3.0184 7.9382 -2.9694 27.6799 -2.9793
# 6 -9.0943 -5.1364 -6.5567 9.9043 -2.9793 27.3021
#
#
#
# Elastic Compliance Matrix: (Units=1/GPa)
#
#
# Indices 1 2 3 4 5 6 
#
# 1 0.028407 -0.008239 -0.011752 0.012485 -0.006628 -0.000163
# 2 -0.008239 0.016158 -0.001302 0.000624 0.005261 0.000330
# 3 -0.011752 -0.001302 0.018605 -0.006494 -0.001594 0.002490
# 4 0.012485 0.000624 -0.006494 0.045547 0.000759 -0.013724
# 5 -0.006628 0.005261 -0.001594 0.000759 0.039939 0.002482
# 6 -0.000163 0.000330 0.002490 -0.013724 0.002482 0.042483
#
#
# Mechanical properties :
#
#
# Convention : Reuss Voigt Hill
#
# Bulk Modulus (GPa) = 48.58662 53.39093 50.98878
# Shear Modulus (GPa) = 20.78264 25.74649 23.26456
#
# Velocity S-wave (km/s) = 3.30726 3.68110 3.49917
# Velocity P-wave (km/s) = 6.33682 6.79464 6.56972
#
# Compressibility (1/GPa) = 0.02058180
#
# Stress axis : x y z
#
# Youngs Moduli (GPa) = 35.20276 61.88944 53.75024
#
# Poissons Ratio (x) = 0.50994 0.63168
# Poissons Ratio (y) = 0.29005 0.06999
# Poissons Ratio (z) = 0.41371 0.08059
#
# Static dielectric constant tensor:
#      x y z
#    x 3.495180 -0.162730 0.231460 
#    y -0.162730 3.450390 0.143960 
#    z 0.231460 0.143960 3.462160 
# 
# 
# High freq. dielectric constant tensor:
#      x y z
#    x 1.724880 -0.018120 0.018250 
#    y -0.018120 1.737780 0.017300 
#    z 0.018250 0.017300 1.737040 
# 
# From -- ./inp_files/356983.got.cif
#   From: 2010.06.25/outbox.cif.g09.slc.cpg/sg2_179_cif.got.tgz:356983.got - 2010.06.27 13:26:56.
