data_PCOD8036472
_publ_section_title
;
Structure prediction by ZEFSAII (Michael W. Deem and Ramdas Pophale) SiO2 
 PCOD8036472
Probable space group: P -1
;
_chemical_formula_sum "Si O2"
_cell_formula_units_Z 16
_cell_length_a 16.986958
_cell_length_b 5.308710
_cell_length_c 11.554118
_cell_angle_alpha 83.558340
_cell_angle_beta 46.030750
_cell_angle_gamma 61.294904
_cell_volume 616.006242
_symmetry_space_group_name_H-M "P -1"
_symmetry_group_IT_number 2
_symmetry_cell_setting 'triclinic'
loop_
_space_group_symop_operation_xyz
x,y,z
-x,-y,-z
loop_
_atom_site_type_symbol
_atom_site_label
_atom_site_fract_x
_atom_site_fract_y
_atom_site_fract_z
Si Si1 0.960555 0.834435 0.919203
Si Si2 0.348882 0.763142 0.128158
Si Si3 0.178497 0.200769 0.739578
Si Si4 0.150241 0.501951 0.093053
Si Si5 0.282698 0.119909 0.392683
Si Si6 0.569819 0.975716 0.153578
Si Si7 0.558064 0.186239 0.389639
Si Si8 0.130906 0.670199 0.352059
O O1 0.893548 0.695983 0.917879
O O2 0.117784 0.563940 0.770744
O O3 0.932143 0.145795 0.881859
O O4 0.925451 0.860499 0.092401
O O5 0.253618 0.677151 0.175357
O O6 0.285946 0.887137 0.311721
O O7 0.500000 0.500000 0.000000
O O8 0.350923 0.010252 0.036081
O O9 0.232424 0.057516 0.565438
O O10 0.288824 0.042575 0.732288
O O11 0.107113 0.519084 0.272810
O O12 0.307182 0.360769 0.911543
O O13 0.182222 0.460990 0.426379
O O14 0.434512 0.016916 0.255056
O O15 0.533670 0.236826 0.273690
O O16 0.500000 0.500000 0.500000
O O17 0.500000 0.000000 0.500000
O O18 0.000000 0.000000 0.500000
#
# Coordination Sequence:
#
# PCOD8036472 Si02
#       8
#     2   2   2   2   2   2   2   2
#     4  11  28  51  78 112 153 208 253 321 395 468
#     4  12  26  47  76 109 151 210 255 319 391 464
#     4  11  27  49  75 111 154 201 257 320 392 466
#     4  12  26  50  80 110 153 202 261 319 386 468
#     4  12  26  48  73 111 151 197 258 321 388 461
#     4  12  25  50  77 113 152 202 264 319 393 465
#     4  12  29  48  76 112 149 198 254 324 378 453
#     4  12  28  47  75 111 152 203 260 320 387 462
#
# _framework density 25.973761
#
# number of rings (size 3 to 8) (size 9 to 14) (size 15 to 20)
#    0.000    0.250    5.000    2.625    5.250    3.500 
#    2.250    0.000    0.000    0.000    0.000    0.000 
#    0.000    0.000    0.000    0.000    0.000    0.000 
#
# Total GULP energy -198227.053594 kJ/mol
# GULP energy per Si atom -12389.190850 kJ/mol
# Density = 2.591464 g / cm^3
# Si number density = 25.973761 Si / 1000 Ang^3
#
#
#
# Elastic Constant Matrix: (Units=GPa)
#
#
# Indices 1 2 3 4 5 6 
#
# 1 94.7548 25.8533 25.1801 9.3903 11.5553 -8.9224
# 2 25.8533 77.8119 4.8435 13.9614 -2.4594 -8.7416
# 3 25.1801 4.8435 114.0679 0.2851 21.9116 -1.6818
# 4 9.3903 13.9614 0.2851 52.4302 -17.1510 -1.9959
# 5 11.5553 -2.4594 21.9116 -17.1510 57.5650 9.3508
# 6 -8.9224 -8.7416 -1.6818 -1.9959 9.3508 38.7272
#
#
#
# Elastic Compliance Matrix: (Units=1/GPa)
#
#
# Indices 1 2 3 4 5 6 
#
# 1 0.012926 -0.003553 -0.002066 -0.002260 -0.003074 0.002712
# 2 -0.003553 0.014871 0.000215 -0.003265 -0.000096 0.002402
# 3 -0.002066 0.000215 0.009957 -0.000948 -0.003790 0.000871
# 4 -0.002260 -0.003265 -0.000948 0.022828 0.007802 -0.002006
# 5 -0.003074 -0.000096 -0.003790 0.007802 0.022723 -0.005979
# 6 0.002712 0.002402 0.000871 -0.002006 -0.005979 0.028367
#
#
# Mechanical properties :
#
#
# Convention : Reuss Voigt Hill
#
# Bulk Modulus (GPa) = 37.11228 44.26541 40.68885
# Shear Modulus (GPa) = 38.03324 45.12832 41.58078
#
# Velocity S-wave (km/s) = 3.83076 4.17280 4.00544
# Velocity P-wave (km/s) = 5.82114 6.34789 6.09022
#
# Compressibility (1/GPa) = 0.02694526
#
# Stress axis : x y z
#
# Youngs Moduli (GPa) = 77.36125 67.24351 100.43203
#
# Poissons Ratio (x) = 0.23893 0.20754
# Poissons Ratio (y) = 0.27488 -0.02159
# Poissons Ratio (z) = 0.15987 -0.01445
#
# Static dielectric constant tensor:
#      x y z
#    x 4.455050 -0.489210 -0.204100 
#    y -0.489210 4.316740 0.148140 
#    z -0.204100 0.148140 4.675990 
# 
# 
# High freq. dielectric constant tensor:
#      x y z
#    x 2.056580 -0.025770 0.007330 
#    y -0.025770 2.029290 0.016660 
#    z 0.007330 0.016660 2.058460 
# 
# From -- ./inp_files/459506.got.cif
#   From: 2010.06.25/outbox.cif.g09.slc.cpg/sg2_230_cif.got.tgz:459506.got - 2010.06.27 13:26:56.
