data_PCOD8036495
_publ_section_title
;
Structure prediction by ZEFSAII (Michael W. Deem and Ramdas Pophale) SiO2 
 PCOD8036495
Probable space group: P -1
;
_chemical_formula_sum "Si O2"
_cell_formula_units_Z 12
_cell_length_a 5.044759
_cell_length_b 13.299368
_cell_length_c 13.919824
_cell_angle_alpha 149.055973
_cell_angle_beta 72.469995
_cell_angle_gamma 107.604980
_cell_volume 456.058090
_symmetry_space_group_name_H-M "P -1"
_symmetry_group_IT_number 2
_symmetry_cell_setting 'triclinic'
loop_
_space_group_symop_operation_xyz
x,y,z
-x,-y,-z
loop_
_atom_site_type_symbol
_atom_site_label
_atom_site_fract_x
_atom_site_fract_y
_atom_site_fract_z
Si Si1 0.685390 0.906312 0.132801
Si Si2 0.616967 0.443234 0.039289
Si Si3 0.040052 0.769347 0.309822
Si Si4 0.814278 0.269153 0.527804
Si Si5 0.288037 0.890260 0.004316
Si Si6 0.401688 0.463179 0.590674
O O1 0.712139 0.040503 0.334114
O O2 0.635181 0.674640 0.972119
O O3 0.413979 0.965489 0.154357
O O4 0.969986 0.941455 0.067834
O O5 0.747057 0.630816 0.240620
O O6 0.500000 0.500000 0.000000
O O7 0.842598 0.290561 0.856327
O O8 0.224047 0.709742 0.334290
O O9 0.000000 0.000000 0.500000
O O10 0.647621 0.403834 0.585383
O O11 0.138976 0.300866 0.488454
O O12 0.294219 0.658525 0.806175
O O13 0.500000 0.000000 0.000000
O O14 0.500000 0.500000 0.500000
#
# Coordination Sequence:
#
# PCOD8036495 Si02
#       6
#     2   2   2   2   2   2
#     4  12  27  47  76 110 151 201 252 316 389 459
#     4  11  28  48  76 111 160 203 263 322 391 463
#     4  11  28  50  77 113 158 211 262 324 387 463
#     4  12  27  47  77 111 150 201 258 313 389 461
#     4  12  27  49  76 108 151 197 254 320 390 459
#     4  12  27  49  76 110 150 197 255 322 387 461
#
# _framework density 26.312436999999999
#
# number of rings (size 3 to 8) (size 9 to 14) (size 15 to 20)
#    0.000    0.333    0.000    7.000   16.333    1.333 
#    0.000    0.000    0.000    0.000    0.000    0.000 
#    0.000    0.000    0.000    0.000    0.000    0.000 
#
# Total GULP energy -148735.919831 kJ/mol
# GULP energy per Si atom -12394.659986 kJ/mol
# Density = 2.625255 g / cm^3
# Si number density = 26.312437 Si / 1000 Ang^3
#
#
#
# Elastic Constant Matrix: (Units=GPa)
#
#
# Indices 1 2 3 4 5 6 
#
# 1 106.4007 19.9796 36.6234 1.7228 17.5529 -10.5070
# 2 19.9796 119.3206 32.6205 7.5090 19.7364 1.1169
# 3 36.6234 32.6205 163.1328 14.1117 28.3613 1.9553
# 4 1.7228 7.5090 14.1117 49.6384 -0.0632 6.3265
# 5 17.5529 19.7364 28.3613 -0.0632 45.6678 -0.0483
# 6 -10.5070 1.1169 1.9553 6.3265 -0.0483 52.4038
#
#
#
# Elastic Compliance Matrix: (Units=1/GPa)
#
#
# Indices 1 2 3 4 5 6 
#
# 1 0.010856 -0.000902 -0.001822 -0.000014 -0.002649 0.002263
# 2 -0.000902 0.009394 -0.001048 -0.001068 -0.003064 -0.000216
# 3 -0.001822 -0.001048 0.007528 -0.001872 -0.003525 -0.000401
# 4 -0.000014 -0.001068 -0.001872 0.021156 0.001656 -0.002463
# 5 -0.002649 -0.003064 -0.003525 0.001656 0.026430 -0.000510
# 6 0.002263 -0.000216 -0.000401 -0.002463 -0.000510 0.019853
#
#
# Mechanical properties :
#
#
# Convention : Reuss Voigt Hill
#
# Bulk Modulus (GPa) = 49.42263 63.03345 56.22804
# Shear Modulus (GPa) = 45.65940 49.51739 47.58839
#
# Velocity S-wave (km/s) = 4.17019 4.34279 4.25737
# Velocity P-wave (km/s) = 6.48159 7.01101 6.75149
#
# Compressibility (1/GPa) = 0.02023365
#
# Stress axis : x y z
#
# Youngs Moduli (GPa) = 92.11814 106.44580 132.83336
#
# Poissons Ratio (x) = 0.09599 0.24205
# Poissons Ratio (y) = 0.08307 0.13926
# Poissons Ratio (z) = 0.16786 0.11160
#
# Static dielectric constant tensor:
#      x y z
#    x 4.283430 -1.013140 0.414230 
#    y -1.013140 3.488240 0.487330 
#    z 0.414230 0.487330 6.411530 
# 
# 
# High freq. dielectric constant tensor:
#      x y z
#    x 2.066200 0.003120 0.010940 
#    y 0.003120 2.056370 0.003800 
#    z 0.010940 0.003800 2.076060 
# 
# From -- ./inp_files/484013.got.cif
#   From: 2010.06.25/outbox.cif.g09.slc.cpg/sg2_243_cif.got.tgz:484013.got - 2010.06.27 13:26:56.
