data_PCOD8036530
_publ_section_title
;
Structure prediction by ZEFSAII (Michael W. Deem and Ramdas Pophale) SiO2 
 PCOD8036530
Probable space group: P -1
;
_chemical_formula_sum "Si O2"
_cell_formula_units_Z 16
_cell_length_a 11.304991
_cell_length_b 9.931244
_cell_length_c 17.642842
_cell_angle_alpha 41.667846
_cell_angle_beta 55.944829
_cell_angle_gamma 88.044120
_cell_volume 781.788905
_symmetry_space_group_name_H-M "P -1"
_symmetry_group_IT_number 2
_symmetry_cell_setting 'triclinic'
loop_
_space_group_symop_operation_xyz
x,y,z
-x,-y,-z
loop_
_atom_site_type_symbol
_atom_site_label
_atom_site_fract_x
_atom_site_fract_y
_atom_site_fract_z
Si Si1 0.664292 0.217713 0.047846
Si Si2 0.019753 0.712157 0.304389
Si Si3 0.165901 0.013810 0.965398
Si Si4 0.629587 0.188859 0.804185
Si Si5 0.029033 0.851465 0.611776
Si Si6 0.799874 0.775808 0.458802
Si Si7 0.681875 0.181169 0.557439
Si Si8 0.518045 0.406237 0.452525
O O1 0.811225 0.547176 0.837360
O O2 0.799866 0.148238 0.032993
O O3 0.487987 0.028310 0.130693
O O4 0.533998 0.121960 0.211763
O O5 0.984717 0.865564 0.308213
O O6 0.806616 0.398341 0.492252
O O7 0.149829 0.681295 0.317477
O O8 0.127772 0.895058 0.113012
O O9 0.365579 0.340118 0.755889
O O10 0.000000 0.000000 0.000000
O O11 0.652807 0.452611 0.676188
O O12 0.500000 0.000000 0.000000
O O13 0.180143 0.841676 0.525020
O O14 0.123060 0.020898 0.584083
O O15 0.000000 0.000000 0.500000
O O16 0.693634 0.824498 0.416809
O O17 0.632605 0.308700 0.461498
O O18 0.500000 0.500000 0.500000
#
# Coordination Sequence:
#
# PCOD8036530 Si02
#       8
#     2   2   2   2   2   2   2   2
#     4  12  24  44  69 101 134 188 229 281 349 418
#     4  12  22  38  69 102 132 181 233 290 337 402
#     4  12  20  37  70 105 136 174 229 286 344 405
#     4  12  21  39  67  98 132 172 241 290 335 406
#     4  12  29  50  65  99 151 185 227 287 353 415
#     4  12  25  43  67 101 137 179 230 293 342 409
#     4  12  24  45  74  98 138 188 227 282 356 410
#     4  12  20  42  74 105 133 173 234 292 339 410
#
# _framework density 20.465883000000002
#
# number of rings (size 3 to 8) (size 9 to 14) (size 15 to 20)
#    0.000    0.000    8.750    1.875    1.750    1.000 
#    4.500    0.625    0.000    0.000    0.000    0.000 
#    0.000    0.000    0.000    0.000    0.000    0.000 
#
# Total GULP energy -198323.904497 kJ/mol
# GULP energy per Si atom -12395.244031 kJ/mol
# Density = 2.041930 g / cm^3
# Si number density = 20.465883 Si / 1000 Ang^3
#
#
#
# Elastic Constant Matrix: (Units=GPa)
#
#
# Indices 1 2 3 4 5 6 
#
# 1 162.7182 44.6290 28.5452 -15.3502 -10.6483 -9.0113
# 2 44.6290 103.7662 42.0373 3.5142 -3.5618 2.0975
# 3 28.5452 42.0373 148.8787 1.5572 -0.9190 -1.5637
# 4 -15.3502 3.5142 1.5572 31.9255 -5.7955 -6.3877
# 5 -10.6483 -3.5618 -0.9190 -5.7955 21.2415 -1.4905
# 6 -9.0113 2.0975 -1.5637 -6.3877 -1.4905 35.5608
#
#
#
# Elastic Compliance Matrix: (Units=1/GPa)
#
#
# Indices 1 2 3 4 5 6 
#
# 1 0.008334 -0.003424 -0.000623 0.006138 0.005505 0.003620
# 2 -0.003424 0.012396 -0.002838 -0.003512 -0.000886 -0.002392
# 3 -0.000623 -0.002838 0.007641 -0.000411 -0.000552 0.000249
# 4 0.006138 -0.003512 -0.000411 0.039050 0.013780 0.009337
# 5 0.005505 -0.000886 -0.000552 0.013780 0.053857 0.006156
# 6 0.003620 -0.002392 0.000249 0.009337 0.006156 0.031125
#
#
# Mechanical properties :
#
#
# Convention : Reuss Voigt Hill
#
# Bulk Modulus (GPa) = 68.48617 71.75403 70.12010
# Shear Modulus (GPa) = 29.23306 37.75565 33.49435
#
# Velocity S-wave (km/s) = 3.78349 4.29978 4.04987
# Velocity P-wave (km/s) = 7.25415 7.73222 7.49700
#
# Compressibility (1/GPa) = 0.01460149
#
# Stress axis : x y z
#
# Youngs Moduli (GPa) = 119.99408 80.67135 130.87148
#
# Poissons Ratio (x) = 0.27620 0.08157
# Poissons Ratio (y) = 0.41084 0.37135
# Poissons Ratio (z) = 0.07479 0.22891
#
# Static dielectric constant tensor:
#      x y z
#    x 4.797860 -0.321240 -0.655100 
#    y -0.321240 3.542990 0.252090 
#    z -0.655100 0.252090 4.482450 
# 
# 
# High freq. dielectric constant tensor:
#      x y z
#    x 1.823370 -0.009760 0.001290 
#    y -0.009760 1.772630 0.024620 
#    z 0.001290 0.024620 1.815790 
# 
# From -- ./inp_files/505241.got.cif
#   From: 2010.06.25/outbox.cif.g09.slc.cpg/sg2_253_cif.got.tgz:505241.got - 2010.06.27 13:26:56.
