data_PCOD8036962
_publ_section_title
;
Structure prediction by ZEFSAII (Michael W. Deem and Ramdas Pophale) SiO2 
 PCOD8036962
Probable space group: P -1
;
_chemical_formula_sum "Si O2"
_cell_formula_units_Z 14
_cell_length_a 9.380875
_cell_length_b 14.894802
_cell_length_c 11.339713
_cell_angle_alpha 122.604985
_cell_angle_beta 133.304656
_cell_angle_gamma 31.012767
_cell_volume 588.984691
_symmetry_space_group_name_H-M "P -1"
_symmetry_group_IT_number 2
_symmetry_cell_setting 'triclinic'
loop_
_space_group_symop_operation_xyz
x,y,z
-x,-y,-z
loop_
_atom_site_type_symbol
_atom_site_label
_atom_site_fract_x
_atom_site_fract_y
_atom_site_fract_z
Si Si1 0.214043 0.704640 0.237545
Si Si2 0.806708 0.687718 0.988709
Si Si3 0.301461 0.694555 0.031605
Si Si4 0.072702 0.571136 0.510661
Si Si5 0.394131 0.225494 0.808020
Si Si6 0.714765 0.880042 0.694961
Si Si7 0.709569 0.055474 0.325520
O O1 0.295362 0.740905 0.194788
O O2 0.551719 0.563667 0.399894
O O3 0.895989 0.876325 0.248130
O O4 0.101462 0.637082 0.080117
O O5 0.537313 0.789009 0.803518
O O6 0.642200 0.800152 0.096840
O O7 0.000000 0.500000 0.000000
O O8 0.412754 0.746733 0.053880
O O9 0.500000 0.500000 0.000000
O O10 0.943051 0.818267 0.885147
O O11 0.000000 0.500000 0.500000
O O12 0.941373 0.603534 0.328179
O O13 0.912018 0.745348 0.602552
O O14 0.542143 0.066969 0.696544
O O15 0.477013 0.895476 0.626790
O O16 0.000000 0.000000 0.500000
#
# Coordination Sequence:
#
# PCOD8036962 Si02
#       7
#     2   2   2   2   2   2   2
#     4  12  24  49  75 105 146 198 246 294 377 445
#     4  12  28  48  77 110 152 194 250 307 376 444
#     4  12  23  45  77 104 142 198 248 298 366 452
#     4  12  26  46  77 107 149 198 249 305 371 444
#     4  12  27  47  73 114 150 193 251 313 370 443
#     4  12  25  48  73 109 149 192 252 308 374 441
#     4  12  28  48  78 107 152 197 246 307 379 440
#
# _framework density 23.769718000000001
#
# number of rings (size 3 to 8) (size 9 to 14) (size 15 to 20)
#    0.000    0.000    5.714    3.857    4.000    1.714 
#    0.000    0.000    0.000    0.000    0.000    0.000 
#    0.000    0.000    0.000    0.000    0.000    0.000 
#
# Total GULP energy -173444.423443 kJ/mol
# GULP energy per Si atom -12388.887389 kJ/mol
# Density = 2.371562 g / cm^3
# Si number density = 23.769718 Si / 1000 Ang^3
#
#
#
# Elastic Constant Matrix: (Units=GPa)
#
#
# Indices 1 2 3 4 5 6 
#
# 1 98.5616 23.6431 37.7260 -12.9981 15.1986 4.6638
# 2 23.6431 110.0611 23.4382 -10.2803 9.5076 4.9800
# 3 37.7260 23.4382 127.2956 -35.7155 18.5161 9.4061
# 4 -12.9981 -10.2803 -35.7155 46.0385 -6.1549 2.6343
# 5 15.1986 9.5076 18.5161 -6.1549 44.3082 1.8339
# 6 4.6638 4.9800 9.4061 2.6343 1.8339 37.5978
#
#
#
# Elastic Compliance Matrix: (Units=1/GPa)
#
#
# Indices 1 2 3 4 5 6 
#
# 1 0.012085 -0.001723 -0.002675 0.000641 -0.002547 -0.000522
# 2 -0.001723 0.009850 -0.000807 0.001004 -0.001008 -0.000910
# 3 -0.002675 -0.000807 0.011592 0.007883 -0.002539 -0.002890
# 4 0.000641 0.001004 0.007883 0.028537 0.000408 -0.004204
# 5 -0.002547 -0.001008 -0.002539 0.000408 0.024783 -0.000153
# 6 -0.000522 -0.000910 -0.002890 -0.004204 -0.000153 0.027808
#
#
# Mechanical properties :
#
#
# Convention : Reuss Voigt Hill
#
# Bulk Modulus (GPa) = 43.26096 56.17032 49.71564
# Shear Modulus (GPa) = 37.65877 42.32964 39.99420
#
# Velocity S-wave (km/s) = 3.98467 4.22456 4.10636
# Velocity P-wave (km/s) = 6.27771 6.89044 6.59120
#
# Compressibility (1/GPa) = 0.02311553
#
# Stress axis : x y z
#
# Youngs Moduli (GPa) = 82.74485 101.52332 86.26779
#
# Poissons Ratio (x) = 0.17491 0.23081
# Poissons Ratio (y) = 0.14256 0.06966
# Poissons Ratio (z) = 0.22138 0.08198
#
# Static dielectric constant tensor:
#      x y z
#    x 4.157260 -0.144100 0.024960 
#    y -0.144100 4.744190 0.100790 
#    z 0.024960 0.100790 4.474940 
# 
# 
# High freq. dielectric constant tensor:
#      x y z
#    x 1.937350 -0.002720 0.007690 
#    y -0.002720 1.951740 -0.004920 
#    z 0.007690 -0.004920 1.957310 
# 
# From -- ./inp_files/158451.got.cif
#   From: 2010.06.25/outbox.cif.g09.slc.cpg/sg2_80_cif.got.tgz:158451.got - 2010.06.27 13:26:56.
