data_PCOD8036497
_publ_section_title
;
Structure prediction by ZEFSAII (Michael W. Deem and Ramdas Pophale) SiO2 
 PCOD8036497
Probable space group: P -1
;
_chemical_formula_sum "Si O2"
_cell_formula_units_Z 12
_cell_length_a 14.121820
_cell_length_b 11.673193
_cell_length_c 9.515598
_cell_angle_alpha 114.143852
_cell_angle_beta 65.531324
_cell_angle_gamma 159.884822
_cell_volume 489.996846
_symmetry_space_group_name_H-M "P -1"
_symmetry_group_IT_number 2
_symmetry_cell_setting 'triclinic'
loop_
_space_group_symop_operation_xyz
x,y,z
-x,-y,-z
loop_
_atom_site_type_symbol
_atom_site_label
_atom_site_fract_x
_atom_site_fract_y
_atom_site_fract_z
Si Si1 0.150397 0.367546 0.617357
Si Si2 0.743464 0.798052 0.101791
Si Si3 0.783835 0.096896 0.090458
Si Si4 0.363290 0.361327 0.368616
Si Si5 0.373477 0.720656 0.927943
Si Si6 0.197088 0.668487 0.583714
O O1 0.246437 0.372528 0.444526
O O2 0.389477 0.672062 0.738905
O O3 0.078805 0.404257 0.579394
O O4 0.882509 0.014920 0.690540
O O5 0.625673 0.632425 0.242824
O O6 0.798456 0.007395 0.157353
O O7 0.500000 0.500000 0.000000
O O8 0.000000 0.000000 0.000000
O O9 0.794147 0.238826 0.235740
O O10 0.048781 0.375867 0.971563
O O11 0.516810 0.794668 0.997776
O O12 0.500000 0.500000 0.500000
O O13 0.500000 0.000000 0.000000
O O14 0.000000 0.500000 0.500000
O O15 0.500000 0.000000 0.500000
#
# Coordination Sequence:
#
# PCOD8036497 Si02
#       6
#     2   2   2   2   2   2
#     4  11  28  49  81 115 162 206 269 331 400 479
#     4  12  29  51  78 111 157 207 267 326 394 475
#     4  12  27  47  76 114 154 202 264 324 398 470
#     4  11  29  50  81 116 159 214 267 331 403 476
#     4  12  26  48  77 116 154 206 258 324 401 470
#     4  12  28  48  77 113 157 207 258 328 403 475
#
# _framework density 24.489954000000001
#
# number of rings (size 3 to 8) (size 9 to 14) (size 15 to 20)
#    0.000    0.333    1.667    4.500   16.333    0.000 
#    0.000    0.000    0.000    0.000    0.000    0.000 
#    0.000    0.000    0.000    0.000    0.000    0.000 
#
# Total GULP energy -148762.989561 kJ/mol
# GULP energy per Si atom -12396.915797 kJ/mol
# Density = 2.443421 g / cm^3
# Si number density = 24.489954 Si / 1000 Ang^3
#
#
#
# Elastic Constant Matrix: (Units=GPa)
#
#
# Indices 1 2 3 4 5 6 
#
# 1 174.6217 69.5747 59.2952 -2.6752 6.0269 -3.8629
# 2 69.5747 135.5721 65.2864 -7.4381 -9.5094 0.9330
# 3 59.2952 65.2864 138.6654 -6.7076 6.8130 4.0780
# 4 -2.6752 -7.4381 -6.7076 55.6647 8.2751 -0.8750
# 5 6.0269 -9.5094 6.8130 8.2751 47.3107 4.6911
# 6 -3.8629 0.9330 4.0780 -0.8750 4.6911 58.7860
#
#
#
# Elastic Compliance Matrix: (Units=1/GPa)
#
#
# Indices 1 2 3 4 5 6 
#
# 1 0.007655 -0.003212 -0.001716 -0.000041 -0.001445 0.000788
# 2 -0.003212 0.011217 -0.004037 0.000374 0.003215 -0.000360
# 3 -0.001716 -0.004037 0.010011 0.000893 -0.002135 -0.000559
# 4 -0.000041 0.000374 0.000893 0.018626 -0.003353 0.000474
# 5 -0.001445 0.003215 -0.002135 -0.003353 0.023048 -0.001887
# 6 0.000788 -0.000360 -0.000559 0.000474 -0.001887 0.017265
#
#
# Mechanical properties :
#
#
# Convention : Reuss Voigt Hill
#
# Bulk Modulus (GPa) = 91.28851 93.01910 92.15380
# Shear Modulus (GPa) = 45.70274 49.33246 47.51760
#
# Velocity S-wave (km/s) = 4.32462 4.49307 4.40965
# Velocity P-wave (km/s) = 7.89261 8.06114 7.97732
#
# Compressibility (1/GPa) = 0.01095428
#
# Stress axis : x y z
#
# Youngs Moduli (GPa) = 130.62527 89.15060 99.89409
#
# Poissons Ratio (x) = 0.28631 0.17139
# Poissons Ratio (y) = 0.41951 0.40329
# Poissons Ratio (z) = 0.22411 0.35992
#
# Static dielectric constant tensor:
#      x y z
#    x 4.848300 -0.442000 -0.490290 
#    y -0.442000 4.151180 -0.133170 
#    z -0.490290 -0.133170 3.747280 
# 
# 
# High freq. dielectric constant tensor:
#      x y z
#    x 1.993840 -0.003870 -0.006520 
#    y -0.003870 1.980670 0.007090 
#    z -0.006520 0.007090 1.983600 
# 
# From -- ./inp_files/307998.got.cif
#   From: 2010.06.25/outbox.cif.g09.slc.cpg/sg2_154_cif.got.tgz:307998.got - 2010.06.27 13:26:56.
