data_PCOD8036888
_publ_section_title
;
Structure prediction by ZEFSAII (Michael W. Deem and Ramdas Pophale) SiO2 
 PCOD8036888
Probable space group: P -1
;
_chemical_formula_sum "Si O2"
_cell_formula_units_Z 14
_cell_length_a 9.389470
_cell_length_b 21.005393
_cell_length_c 7.834319
_cell_angle_alpha 126.522398
_cell_angle_beta 33.446047
_cell_angle_gamma 129.251462
_cell_volume 651.249147
_symmetry_space_group_name_H-M "P -1"
_symmetry_group_IT_number 2
_symmetry_cell_setting 'triclinic'
loop_
_space_group_symop_operation_xyz
x,y,z
-x,-y,-z
loop_
_atom_site_type_symbol
_atom_site_label
_atom_site_fract_x
_atom_site_fract_y
_atom_site_fract_z
Si Si1 0.911328 0.654862 0.456694
Si Si2 0.299224 0.049108 0.228736
Si Si3 0.606810 0.363117 0.286838
Si Si4 0.036390 0.788054 0.807986
Si Si5 0.240045 0.490068 0.362294
Si Si6 0.231776 0.981838 0.844337
Si Si7 0.519404 0.771100 0.510887
O O1 0.651141 0.636991 0.567718
O O2 0.001420 0.749821 0.590124
O O3 0.848642 0.599437 0.602073
O O4 0.151077 0.637618 0.082408
O O5 0.385548 0.135660 0.372651
O O6 0.000000 0.000000 0.500000
O O7 0.500000 0.000000 0.000000
O O8 0.304401 0.054233 0.028476
O O9 0.695232 0.444474 0.444361
O O10 0.533468 0.283942 0.355597
O O11 0.137706 0.888038 0.860300
O O12 0.248624 0.753473 0.642334
O O13 0.750542 0.753685 0.136163
O O14 0.000000 0.500000 0.500000
O O15 0.500000 0.500000 0.000000
O O16 0.500000 0.000000 0.500000
O O17 0.000000 0.000000 0.000000
#
# Coordination Sequence:
#
# PCOD8036888 Si02
#       7
#     2   2   2   2   2   2   2
#     4  12  26  44  68 101 138 168 214 272 322 380
#     4  12  23  44  65  93 124 175 220 274 321 381
#     4  12  26  44  69 103 133 171 214 272 322 380
#     4  12  25  45  64  95 131 176 217 268 324 393
#     4  12  24  46  74 100 133 177 215 258 321 393
#     4  12  26  41  65  93 131 168 220 274 332 380
#     4  12  24  44  67  93 130 173 224 264 324 393
#
# _framework density 21.497150000000001
#
# number of rings (size 3 to 8) (size 9 to 14) (size 15 to 20)
#    0.000    0.000    2.857    7.714    4.000    0.000 
#    0.000    0.000    0.000    0.000    0.000    0.000 
#    0.000    0.000    0.000    0.000    0.000    0.000 
#
# Total GULP energy -173642.229068 kJ/mol
# GULP energy per Si atom -12403.016362 kJ/mol
# Density = 2.144822 g / cm^3
# Si number density = 21.497150 Si / 1000 Ang^3
#
#
#
# Elastic Constant Matrix: (Units=GPa)
#
#
# Indices 1 2 3 4 5 6 
#
# 1 143.6776 19.7741 46.4245 4.3888 -17.3714 10.9105
# 2 19.7741 74.7222 22.5336 4.9523 1.6419 0.7099
# 3 46.4245 22.5336 166.4585 -14.7822 0.9442 2.7285
# 4 4.3888 4.9523 -14.7822 30.0503 4.5408 17.1478
# 5 -17.3714 1.6419 0.9442 4.5408 59.0642 6.6689
# 6 10.9105 0.7099 2.7285 17.1478 6.6689 53.4136
#
#
#
# Elastic Compliance Matrix: (Units=1/GPa)
#
#
# Indices 1 2 3 4 5 6 
#
# 1 0.008405 -0.001464 -0.002296 -0.001764 0.002839 -0.001368
# 2 -0.001464 0.014617 -0.001941 -0.003932 -0.000679 0.001551
# 3 -0.002296 -0.001941 0.007409 0.005279 -0.000981 -0.001456
# 4 -0.001764 -0.003932 0.005279 0.045162 -0.002379 -0.014059
# 5 0.002839 -0.000679 -0.000981 -0.002379 0.018213 -0.002031
# 6 -0.001368 0.001551 -0.001456 -0.014059 -0.002031 0.023822
#
#
# Mechanical properties :
#
#
# Convention : Reuss Voigt Hill
#
# Bulk Modulus (GPa) = 52.55643 62.48030 57.51836
# Shear Modulus (GPa) = 36.93546 48.24738 42.59142
#
# Velocity S-wave (km/s) = 4.14956 4.74261 4.45596
# Velocity P-wave (km/s) = 6.88910 7.68878 7.29990
#
# Compressibility (1/GPa) = 0.01902717
#
# Stress axis : x y z
#
# Youngs Moduli (GPa) = 118.98355 68.41562 134.97381
#
# Poissons Ratio (x) = 0.10017 0.30991
# Poissons Ratio (y) = 0.17421 0.26200
# Poissons Ratio (z) = 0.27320 0.13280
#
# Static dielectric constant tensor:
#      x y z
#    x 4.388200 0.256120 -0.045950 
#    y 0.256120 3.990660 -0.225070 
#    z -0.045950 -0.225070 4.331760 
# 
# 
# High freq. dielectric constant tensor:
#      x y z
#    x 1.867670 0.010740 0.000370 
#    y 0.010740 1.851250 0.000890 
#    z 0.000370 0.000890 1.871890 
# 
# From -- ./inp_files/223980.got.cif
#   From: 2010.06.25/outbox.cif.g09.slc.cpg/sg2_112_cif.got.tgz:223980.got - 2010.06.27 13:26:56.
