data_PCOD8036396
_publ_section_title
;
Structure prediction by ZEFSAII (Michael W. Deem and Ramdas Pophale) SiO2 
 PCOD8036396
Probable space group: P -1
;
_chemical_formula_sum "Si O2"
_cell_formula_units_Z 14
_cell_length_a 8.648809
_cell_length_b 11.864988
_cell_length_c 13.762025
_cell_angle_alpha 148.255999
_cell_angle_beta 52.080158
_cell_angle_gamma 133.675162
_cell_volume 536.010369
_symmetry_space_group_name_H-M "P -1"
_symmetry_group_IT_number 2
_symmetry_cell_setting 'triclinic'
loop_
_space_group_symop_operation_xyz
x,y,z
-x,-y,-z
loop_
_atom_site_type_symbol
_atom_site_label
_atom_site_fract_x
_atom_site_fract_y
_atom_site_fract_z
Si Si1 0.055411 0.490669 0.591865
Si Si2 0.722476 0.090965 0.730015
Si Si3 0.727944 0.029689 0.893955
Si Si4 0.437042 0.363366 0.024579
Si Si5 0.469880 0.621522 0.395823
Si Si6 0.953099 0.111693 0.219784
Si Si7 0.132760 0.459971 0.759663
O O1 0.270721 0.534368 0.481189
O O2 0.997989 0.719780 0.771802
O O3 0.069511 0.424517 0.646395
O O4 0.876574 0.255392 0.436223
O O5 0.707717 0.941430 0.725274
O O6 0.970569 0.231076 0.709846
O O7 0.592848 0.905301 0.560806
O O8 0.621310 0.280340 0.925299
O O9 0.888159 0.303870 0.025144
O O10 0.828455 0.900959 0.834251
O O11 0.500000 0.000000 0.000000
O O12 0.408734 0.533248 0.243013
O O13 0.500000 0.500000 0.000000
O O14 0.219959 0.137468 0.924576
O O15 0.625931 0.508309 0.294700
#
# Coordination Sequence:
#
# PCOD8036396 Si02
#       7
#     2   2   2   2   2   2   2
#     4  11  26  49  78 118 158 211 263 321 398 468
#     4  12  27  52  76 116 160 204 272 320 396 469
#     4  12  26  49  82 112 156 207 266 332 388 469
#     4  12  29  49  79 117 161 209 259 330 398 470
#     4  12  26  50  80 115 162 210 267 319 392 473
#     4  11  27  48  77 114 159 201 267 319 394 462
#     4  12  26  46  83 114 162 210 260 331 392 464
#
# _framework density 26.118897
#
# number of rings (size 3 to 8) (size 9 to 14) (size 15 to 20)
#    0.000    0.286    2.857    4.714    4.000    6.286 
#    0.000    0.000    0.000    0.000    0.000    0.000 
#    0.000    0.000    0.000    0.000    0.000    0.000 
#
# Total GULP energy -173567.759061 kJ/mol
# GULP energy per Si atom -12397.697076 kJ/mol
# Density = 2.605945 g / cm^3
# Si number density = 26.118897 Si / 1000 Ang^3
#
#
#
# Elastic Constant Matrix: (Units=GPa)
#
#
# Indices 1 2 3 4 5 6 
#
# 1 124.4842 62.3001 30.3640 -9.1829 4.2792 -8.1032
# 2 62.3001 111.7631 55.8158 -11.0999 10.8696 -11.5260
# 3 30.3640 55.8158 144.1299 17.7094 21.6624 3.2981
# 4 -9.1829 -11.0999 17.7094 30.4832 -2.1384 8.6681
# 5 4.2792 10.8696 21.6624 -2.1384 58.2887 2.9301
# 6 -8.1032 -11.5260 3.2981 8.6681 2.9301 37.8697
#
#
#
# Elastic Compliance Matrix: (Units=1/GPa)
#
#
# Indices 1 2 3 4 5 6 
#
# 1 0.011196 -0.005992 -0.000269 0.001302 0.000430 0.000264
# 2 -0.005992 0.016171 -0.005840 0.006706 -0.000292 0.002636
# 3 -0.000269 -0.005840 0.010799 -0.008542 -0.003189 -0.000574
# 4 0.001302 0.006706 -0.008542 0.042866 0.003755 -0.007039
# 5 0.000430 -0.000292 -0.003189 0.003755 0.018603 -0.002018
# 6 0.000264 0.002636 -0.000574 -0.007039 -0.002018 0.029082
#
#
# Mechanical properties :
#
#
# Convention : Reuss Voigt Hill
#
# Bulk Modulus (GPa) = 71.61973 75.25966 73.43970
# Shear Modulus (GPa) = 31.73127 40.78815 36.25971
#
# Velocity S-wave (km/s) = 3.48929 3.95604 3.72997
# Velocity P-wave (km/s) = 6.61164 7.05293 6.83584
#
# Compressibility (1/GPa) = 0.01396263
#
# Stress axis : x y z
#
# Youngs Moduli (GPa) = 89.31799 61.84088 92.60538
#
# Poissons Ratio (x) = 0.37055 0.02490
# Poissons Ratio (y) = 0.53519 0.54085
# Poissons Ratio (z) = 0.02401 0.36117
#
# Static dielectric constant tensor:
#      x y z
#    x 5.083260 -0.049530 0.050150 
#    y -0.049530 4.524590 0.098450 
#    z 0.050150 0.098450 5.513170 
# 
# 
# High freq. dielectric constant tensor:
#      x y z
#    x 2.066080 0.001340 0.002930 
#    y 0.001340 2.028940 0.005310 
#    z 0.002930 0.005310 2.075660 
# 
# From -- ./inp_files/501086.got.cif
#   From: 2010.06.25/outbox.cif.g09.slc.cpg/sg2_251_cif.got.tgz:501086.got - 2010.06.27 13:26:56.
