data_PCOD8036467
_publ_section_title
;
Structure prediction by ZEFSAII (Michael W. Deem and Ramdas Pophale) SiO2 
 PCOD8036467
Probable space group: P -1
;
_chemical_formula_sum "Si O2"
_cell_formula_units_Z 14
_cell_length_a 13.480168
_cell_length_b 25.017497
_cell_length_c 24.633406
_cell_angle_alpha 11.007755
_cell_angle_beta 158.123902
_cell_angle_gamma 158.715089
_cell_volume 565.030140
_symmetry_space_group_name_H-M "P -1"
_symmetry_group_IT_number 2
_symmetry_cell_setting 'triclinic'
loop_
_space_group_symop_operation_xyz
x,y,z
-x,-y,-z
loop_
_atom_site_type_symbol
_atom_site_label
_atom_site_fract_x
_atom_site_fract_y
_atom_site_fract_z
Si Si1 0.758219 0.409274 0.510952
Si Si2 0.171552 0.924420 0.911857
Si Si3 0.915834 0.332307 0.315403
Si Si4 0.918911 0.766779 0.053375
Si Si5 0.457091 0.864048 0.503180
Si Si6 0.400761 0.797930 0.919480
Si Si7 0.856345 0.602307 0.905614
O O1 0.000000 0.500000 0.500000
O O2 0.862534 0.309932 0.719079
O O3 0.526413 0.142407 0.631902
O O4 0.616008 0.666647 0.193255
O O5 0.131434 0.165159 0.610020
O O6 0.971313 0.607795 0.108597
O O7 0.081620 0.953007 0.899595
O O8 0.500000 0.000000 0.000000
O O9 0.606602 0.092934 0.399064
O O10 0.972747 0.453047 0.162926
O O11 0.694265 0.459556 0.227819
O O12 0.763724 0.984195 0.786790
O O13 0.696105 0.833368 0.613486
O O14 0.114921 0.769225 0.834028
O O15 0.358508 0.650672 0.985689
#
# Coordination Sequence:
#
# PCOD8036467 Si02
#       7
#     2   2   2   2   2   2   2
#     4  12  28  48  76 108 154 201 247 301 375 436
#     4  12  29  50  75 111 150 193 251 300 373 446
#     4  12  26  47  80 104 148 195 236 316 369 429
#     4  12  28  47  76 111 151 202 242 311 364 449
#     4  12  25  48  78 106 156 183 256 299 377 430
#     4  11  29  45  79 108 149 196 259 299 377 436
#     4  11  27  48  78 112 148 193 250 319 362 437
#
# _framework density 24.777439000000001
#
# number of rings (size 3 to 8) (size 9 to 14) (size 15 to 20)
#    0.000    0.286    2.857    3.429   10.000    4.571 
#    0.000    0.000    0.000    0.000    0.000    0.000 
#    0.000    0.000    0.000    0.000    0.000    0.000 
#
# Total GULP energy -173569.522714 kJ/mol
# GULP energy per Si atom -12397.823051 kJ/mol
# Density = 2.472104 g / cm^3
# Si number density = 24.777439 Si / 1000 Ang^3
#
#
#
# Elastic Constant Matrix: (Units=GPa)
#
#
# Indices 1 2 3 4 5 6 
#
# 1 146.5668 14.9850 32.9440 9.9445 -15.3981 -8.8805
# 2 14.9850 86.8985 1.0267 -9.6676 16.9109 12.7288
# 3 32.9440 1.0267 118.9363 4.4860 4.3463 1.6968
# 4 9.9445 -9.6676 4.4860 55.4933 -2.9439 -8.3000
# 5 -15.3981 16.9109 4.3463 -2.9439 42.6999 14.8080
# 6 -8.8805 12.7288 1.6968 -8.3000 14.8080 41.9907
#
#
#
# Elastic Compliance Matrix: (Units=1/GPa)
#
#
# Indices 1 2 3 4 5 6 
#
# 1 0.008126 -0.002382 -0.002328 -0.001342 0.003681 0.000971
# 2 -0.002382 0.013523 0.000692 0.002094 -0.005330 -0.002337
# 3 -0.002328 0.000692 0.009137 -0.000373 -0.001905 -0.000473
# 4 -0.001342 0.002094 -0.000373 0.019084 -0.001088 0.003252
# 5 0.003681 -0.005330 -0.001905 -0.001088 0.029844 -0.008268
# 6 0.000971 -0.002337 -0.000473 0.003252 -0.008268 0.028306
#
#
# Mechanical properties :
#
#
# Convention : Reuss Voigt Hill
#
# Bulk Modulus (GPa) = 43.95455 50.03478 46.99466
# Shear Modulus (GPa) = 40.43985 48.26651 44.35318
#
# Velocity S-wave (km/s) = 4.04434 4.41841 4.23550
# Velocity P-wave (km/s) = 6.29183 6.80201 6.55189
#
# Compressibility (1/GPa) = 0.02275078
#
# Stress axis : x y z
#
# Youngs Moduli (GPa) = 123.05688 73.94882 109.44297
#
# Poissons Ratio (x) = 0.17613 0.25479
# Poissons Ratio (y) = 0.29310 -0.07575
# Poissons Ratio (z) = 0.28649 -0.05118
#
# Static dielectric constant tensor:
#      x y z
#    x 4.120540 -0.201910 -0.032200 
#    y -0.201910 4.792100 0.014910 
#    z -0.032200 0.014910 4.765650 
# 
# 
# High freq. dielectric constant tensor:
#      x y z
#    x 1.965920 -0.002090 -0.006210 
#    y -0.002090 2.000570 -0.000670 
#    z -0.006210 -0.000670 2.012080 
# 
# From -- ./inp_files/619980.got.cif
#   From: 2010.06.25/outbox.cif.g09.slc.cpg/sg2_310_cif.got.tgz:619980.got - 2010.06.27 13:26:56.
