data_PCOD8036897
_publ_section_title
;
Structure prediction by ZEFSAII (Michael W. Deem and Ramdas Pophale) SiO2 
 PCOD8036897
Probable space group: P -1
;
_chemical_formula_sum "Si O2"
_cell_formula_units_Z 12
_cell_length_a 8.577101
_cell_length_b 15.260811
_cell_length_c 8.373347
_cell_angle_alpha 72.592993
_cell_angle_beta 32.106083
_cell_angle_gamma 59.551457
_cell_volume 481.510747
_symmetry_space_group_name_H-M "P -1"
_symmetry_group_IT_number 2
_symmetry_cell_setting 'triclinic'
loop_
_space_group_symop_operation_xyz
x,y,z
-x,-y,-z
loop_
_atom_site_type_symbol
_atom_site_label
_atom_site_fract_x
_atom_site_fract_y
_atom_site_fract_z
Si Si1 0.878983 0.586068 0.917671
Si Si2 0.965298 0.083168 0.852961
Si Si3 0.140969 0.061727 0.191488
Si Si4 0.714484 0.416478 0.724033
Si Si5 0.391809 0.204260 0.783276
Si Si6 0.299891 0.217118 0.495878
O O1 0.120624 0.541675 0.575389
O O2 0.507064 0.616988 0.169757
O O3 0.844588 0.694829 0.955876
O O4 0.000000 0.500000 0.000000
O O5 0.620790 0.193606 0.121959
O O6 0.263924 0.111372 0.572768
O O7 0.946957 0.027801 0.737629
O O8 0.000000 0.000000 0.000000
O O9 0.781861 0.143474 0.545324
O O10 0.211328 0.132420 0.966279
O O11 0.500000 0.000000 0.000000
O O12 0.988691 0.317292 0.636340
O O13 0.500000 0.500000 0.000000
O O14 0.379357 0.240923 0.591524
#
# Coordination Sequence:
#
# PCOD8036897 Si02
#       6
#     2   2   2   2   2   2
#     4  12  28  50  78 108 149 191 240 309 382 446
#     4  12  23  44  69 102 144 196 245 291 357 427
#     4  12  27  42  68 103 149 193 246 297 355 434
#     4  12  28  50  78 111 143 190 249 309 371 447
#     4  12  25  47  69 106 144 193 241 303 368 429
#     4  12  25  44  74 104 143 190 248 303 357 434
#
# _framework density 24.921562000000002
#
# number of rings (size 3 to 8) (size 9 to 14) (size 15 to 20)
#    0.000    0.000    3.333    6.000    7.000    2.667 
#    0.000    0.000    0.000    0.000    0.000    0.000 
#    0.000    0.000    0.000    0.000    0.000    0.000 
#
# Total GULP energy -148696.235843 kJ/mol
# GULP energy per Si atom -12391.352987 kJ/mol
# Density = 2.486484 g / cm^3
# Si number density = 24.921562 Si / 1000 Ang^3
#
#
#
# Elastic Constant Matrix: (Units=GPa)
#
#
# Indices 1 2 3 4 5 6 
#
# 1 101.8093 46.2708 20.5351 12.3220 -9.1108 -10.0072
# 2 46.2708 90.0526 34.4932 12.8742 16.1443 -14.3440
# 3 20.5351 34.4932 126.8672 7.5779 3.6841 -14.6993
# 4 12.3220 12.8742 7.5779 48.1070 5.0826 -0.7083
# 5 -9.1108 16.1443 3.6841 5.0826 39.0498 -2.2082
# 6 -10.0072 -14.3440 -14.6993 -0.7083 -2.2082 33.3446
#
#
#
# Elastic Compliance Matrix: (Units=1/GPa)
#
#
# Indices 1 2 3 4 5 6 
#
# 1 0.014631 -0.008267 -0.000050 -0.002270 0.007202 0.001241
# 2 -0.008267 0.018938 -0.003032 -0.001460 -0.009073 0.003697
# 3 -0.000050 -0.003032 0.009046 -0.000627 0.000622 0.002697
# 4 -0.002270 -0.001460 -0.000627 0.022137 -0.002822 -0.001302
# 5 0.007202 -0.009073 0.000622 -0.002822 0.031379 0.000551
# 6 0.001241 0.003697 0.002697 -0.001302 0.000551 0.033150
#
#
# Mechanical properties :
#
#
# Convention : Reuss Voigt Hill
#
# Bulk Modulus (GPa) = 50.20866 57.92527 54.06696
# Shear Modulus (GPa) = 31.52193 38.59562 35.05878
#
# Velocity S-wave (km/s) = 3.56033 3.93960 3.75476
# Velocity P-wave (km/s) = 6.09029 6.63230 6.36707
#
# Compressibility (1/GPa) = 0.01991688
#
# Stress axis : x y z
#
# Youngs Moduli (GPa) = 68.34794 52.80370 110.54022
#
# Poissons Ratio (x) = 0.43655 0.00555
# Poissons Ratio (y) = 0.56506 0.33513
# Poissons Ratio (z) = 0.00343 0.16009
#
# Static dielectric constant tensor:
#      x y z
#    x 4.440950 -0.220900 -0.066510 
#    y -0.220900 4.302970 -0.106110 
#    z -0.066510 -0.106110 4.571150 
# 
# 
# High freq. dielectric constant tensor:
#      x y z
#    x 1.999050 -0.006610 -0.009560 
#    y -0.006610 1.990390 0.001780 
#    z -0.009560 0.001780 2.012190 
# 
# From -- ./inp_files/178510.got.cif
#   From: 2010.06.25/outbox.cif.g09.slc.cpg/sg2_90_cif.got.tgz:178510.got - 2010.06.27 13:26:56.
