data_PCOD8036041
_publ_section_title
;
Structure prediction by ZEFSAII (Michael W. Deem and Ramdas Pophale) SiO2 
 PCOD8036041
Probable space group: P -1
;
_chemical_formula_sum "Si O2"
_cell_formula_units_Z 12
_cell_length_a 14.728891
_cell_length_b 12.836572
_cell_length_c 4.978868
_cell_angle_alpha 98.514822
_cell_angle_beta 80.445869
_cell_angle_gamma 38.175529
_cell_volume 510.330170
_symmetry_space_group_name_H-M "P -1"
_symmetry_group_IT_number 2
_symmetry_cell_setting 'triclinic'
loop_
_space_group_symop_operation_xyz
x,y,z
-x,-y,-z
loop_
_atom_site_type_symbol
_atom_site_label
_atom_site_fract_x
_atom_site_fract_y
_atom_site_fract_z
Si Si1 0.584326 0.315435 0.783667
Si Si2 0.093137 0.691332 0.389218
Si Si3 0.305365 0.450739 0.689676
Si Si4 0.489370 0.935077 0.730341
Si Si5 0.224766 0.027411 0.069250
Si Si6 0.086014 0.992397 0.746974
O O1 0.465360 0.367413 0.655543
O O2 0.739739 0.217783 0.516861
O O3 0.642593 0.177188 0.931104
O O4 0.500000 0.500000 0.000000
O O5 0.202621 0.607670 0.568605
O O6 0.919355 0.796273 0.584313
O O7 0.195362 0.535206 0.044029
O O8 0.040389 0.860122 0.380593
O O9 0.358747 0.290045 0.467110
O O10 0.500000 0.000000 0.500000
O O11 0.317184 0.036764 0.888732
O O12 0.500000 0.000000 0.000000
O O13 0.124265 0.067260 0.897749
O O14 0.000000 0.000000 0.000000
#
# Coordination Sequence:
#
# PCOD8036041 Si02
#       6
#     2   2   2   2   2   2
#     4  11  27  44  75 112 157 201 256 301 370 453
#     4  11  26  46  78 103 159 194 245 309 381 437
#     4  12  25  50  75 115 147 196 254 318 367 451
#     4  12  27  50  83 109 144 196 256 319 385 441
#     4  11  25  50  74 111 155 201 250 312 374 453
#     4  11  26  47  73 107 156 209 249 295 380 448
#
# _framework density 23.514185999999999
#
# number of rings (size 3 to 8) (size 9 to 14) (size 15 to 20)
#    0.000    0.667    3.333    3.000    7.000    3.333 
#    0.000    8.333    0.000    0.000    0.000    0.000 
#    0.000    0.000    0.000    0.000    0.000    0.000 
#
# Total GULP energy -148761.734576 kJ/mol
# GULP energy per Si atom -12396.811215 kJ/mol
# Density = 2.346067 g / cm^3
# Si number density = 23.514186 Si / 1000 Ang^3
#
#
#
# Elastic Constant Matrix: (Units=GPa)
#
#
# Indices 1 2 3 4 5 6 
#
# 1 125.8872 70.2951 70.4596 -3.2415 -18.7538 0.6196
# 2 70.2951 146.4154 69.8040 -9.9199 -9.1013 -19.6858
# 3 70.4596 69.8040 194.9502 6.3601 -22.7950 -2.0998
# 4 -3.2415 -9.9199 6.3601 58.4889 7.0777 4.7921
# 5 -18.7538 -9.1013 -22.7950 7.0777 57.6820 -5.7033
# 6 0.6196 -19.6858 -2.0998 4.7921 -5.7033 34.3361
#
#
#
# Elastic Compliance Matrix: (Units=1/GPa)
#
#
# Indices 1 2 3 4 5 6 
#
# 1 0.012487 -0.005072 -0.002503 0.000110 0.001963 -0.002976
# 2 -0.005072 0.011213 -0.002198 0.001394 -0.000312 0.006140
# 3 -0.002503 -0.002198 0.007075 -0.001474 0.001789 -0.000279
# 4 0.000110 0.001394 -0.001474 0.018020 -0.002762 -0.002266
# 5 0.001963 -0.000312 0.001789 -0.002762 0.019316 0.003489
# 6 -0.002976 0.006140 -0.000279 -0.002266 0.003489 0.033576
#
#
# Mechanical properties :
#
#
# Convention : Reuss Voigt Hill
#
# Bulk Modulus (GPa) = 89.05152 98.70781 93.87966
# Shear Modulus (GPa) = 40.00728 47.21433 43.61081
#
# Velocity S-wave (km/s) = 4.12929 4.48583 4.31125
# Velocity P-wave (km/s) = 7.79027 8.30056 8.04946
#
# Compressibility (1/GPa) = 0.01122945
#
# Stress axis : x y z
#
# Youngs Moduli (GPa) = 80.08468 89.17851 141.33618
#
# Poissons Ratio (x) = 0.45234 0.35376
# Poissons Ratio (y) = 0.40622 0.31062
# Poissons Ratio (z) = 0.20045 0.19599
#
# Static dielectric constant tensor:
#      x y z
#    x 3.861320 -0.060350 -0.020880 
#    y -0.060350 4.492950 0.135450 
#    z -0.020880 0.135450 4.937290 
# 
# 
# High freq. dielectric constant tensor:
#      x y z
#    x 1.913390 -0.021140 -0.003290 
#    y -0.021140 1.932020 0.002050 
#    z -0.003290 0.002050 1.971520 
# 
# From -- ./inp_files/93585.got.cif
#   From: 2010.06.25/outbox.cif.g09.slc.cpg/sg2_47_cif.got.tgz:93585.got - 2010.06.27 13:26:56.
