data_PCOD8036237
_publ_section_title
;
Structure prediction by ZEFSAII (Michael W. Deem and Ramdas Pophale) SiO2 
 PCOD8036237
Probable space group: P -1
;
_chemical_formula_sum "Si O2"
_cell_formula_units_Z 12
_cell_length_a 13.709617
_cell_length_b 8.943667
_cell_length_c 9.540322
_cell_angle_alpha 116.671341
_cell_angle_beta 147.953846
_cell_angle_gamma 48.275093
_cell_volume 443.192236
_symmetry_space_group_name_H-M "P -1"
_symmetry_group_IT_number 2
_symmetry_cell_setting 'triclinic'
loop_
_space_group_symop_operation_xyz
x,y,z
-x,-y,-z
loop_
_atom_site_type_symbol
_atom_site_label
_atom_site_fract_x
_atom_site_fract_y
_atom_site_fract_z
Si Si1 0.679869 0.062091 0.378640
Si Si2 0.764454 0.359383 0.267434
Si Si3 0.874428 0.008300 0.068536
Si Si4 0.529811 0.815070 0.536911
Si Si5 0.763813 0.657647 0.185301
Si Si6 0.022250 0.607701 0.210158
O O1 0.505127 0.120377 0.317206
O O2 0.861037 0.088468 0.687313
O O3 0.795232 0.831648 0.356564
O O4 0.509480 0.231245 0.123119
O O5 0.856318 0.471108 0.333411
O O6 0.828268 0.341619 0.499673
O O7 0.851545 0.131565 0.231603
O O8 0.500000 0.500000 0.000000
O O9 0.856944 0.818460 0.001503
O O10 0.681279 0.175570 0.789676
O O11 0.792641 0.592891 0.749215
O O12 0.500000 0.000000 0.500000
O O13 0.893054 0.565243 0.152482
#
# Coordination Sequence:
#
# PCOD8036237 Si02
#       6
#     2   2   2   2   2   2
#     4  11  26  47  73 110 148 188 247 296 362 430
#     4  12  24  44  76 111 144 189 249 296 361 427
#     4  12  27  47  77 108 147 192 243 303 358 431
#     4  12  28  49  74 106 149 194 243 296 368 432
#     4  11  26  46  79 107 145 193 240 302 358 431
#     4  12  26  48  75 108 146 192 241 300 363 430
#
# _framework density 27.076287000000001
#
# number of rings (size 3 to 8) (size 9 to 14) (size 15 to 20)
#    0.000    0.333    3.333    4.500    7.000    3.333 
#    0.000    0.000    0.000    0.000    0.000    0.000 
#    0.000    0.000    0.000    0.000    0.000    0.000 
#
# Total GULP energy -148667.958574 kJ/mol
# GULP energy per Si atom -12388.996548 kJ/mol
# Density = 2.701466 g / cm^3
# Si number density = 27.076287 Si / 1000 Ang^3
#
#
#
# Elastic Constant Matrix: (Units=GPa)
#
#
# Indices 1 2 3 4 5 6 
#
# 1 112.7450 52.7899 -1.5713 -10.3567 -6.8385 -21.7402
# 2 52.7899 151.8787 22.7515 -14.0410 -8.3304 -16.3196
# 3 -1.5713 22.7515 130.7641 -33.6912 16.1174 9.1612
# 4 -10.3567 -14.0410 -33.6912 56.8867 1.5351 -2.9943
# 5 -6.8385 -8.3304 16.1174 1.5351 35.7071 1.3885
# 6 -21.7402 -16.3196 9.1612 -2.9943 1.3885 34.8949
#
#
#
# Elastic Compliance Matrix: (Units=1/GPa)
#
#
# Indices 1 2 3 4 5 6 
#
# 1 0.011796 -0.003364 0.000750 0.002040 0.000826 0.005721
# 2 -0.003364 0.008420 -0.001793 0.000469 0.002021 0.002273
# 3 0.000750 -0.001793 0.010245 0.005773 -0.005055 -0.002364
# 4 0.002040 0.000469 0.005773 0.021672 -0.003114 0.001959
# 5 0.000826 0.002021 -0.005055 -0.003114 0.031001 0.001286
# 6 0.005721 0.002273 -0.002364 0.001959 0.001286 0.034022
#
#
# Mechanical properties :
#
#
# Convention : Reuss Voigt Hill
#
# Bulk Modulus (GPa) = 46.19443 60.36978 53.28210
# Shear Modulus (GPa) = 37.54174 46.92559 42.23366
#
# Velocity S-wave (km/s) = 3.72764 4.16755 3.95372
# Velocity P-wave (km/s) = 5.96866 6.74556 6.36897
#
# Compressibility (1/GPa) = 0.02164763
#
# Stress axis : x y z
#
# Youngs Moduli (GPa) = 84.77710 118.75949 97.61319
#
# Poissons Ratio (x) = 0.39946 -0.07322
# Poissons Ratio (y) = 0.28516 0.17501
# Poissons Ratio (z) = -0.06359 0.21293
#
# Static dielectric constant tensor:
#      x y z
#    x 5.074840 0.215280 -0.158710 
#    y 0.215280 4.871980 -0.468420 
#    z -0.158710 -0.468420 6.562680 
# 
# 
# High freq. dielectric constant tensor:
#      x y z
#    x 2.077420 -0.013870 0.014860 
#    y -0.013870 2.077080 -0.006390 
#    z 0.014860 -0.006390 2.168780 
# 
# From -- ./inp_files/244807.got.cif
#   From: 2010.06.25/outbox.cif.g09.slc.cpg/sg2_123_cif.got.tgz:244807.got - 2010.06.27 13:26:56.
