data_PCOD8036936
_publ_section_title
;
Structure prediction by ZEFSAII (Michael W. Deem and Ramdas Pophale) SiO2 
 PCOD8036936
Probable space group: P -1
;
_chemical_formula_sum "Si O2"
_cell_formula_units_Z 14
_cell_length_a 8.390583
_cell_length_b 18.251586
_cell_length_c 9.608041
_cell_angle_alpha 57.608496
_cell_angle_beta 148.722728
_cell_angle_gamma 112.099805
_cell_volume 633.777150
_symmetry_space_group_name_H-M "P -1"
_symmetry_group_IT_number 2
_symmetry_cell_setting 'triclinic'
loop_
_space_group_symop_operation_xyz
x,y,z
-x,-y,-z
loop_
_atom_site_type_symbol
_atom_site_label
_atom_site_fract_x
_atom_site_fract_y
_atom_site_fract_z
Si Si1 0.956612 0.241926 0.707953
Si Si2 0.778495 0.053408 0.171265
Si Si3 0.146965 0.500499 0.762105
Si Si4 0.257307 0.747524 0.010198
Si Si5 0.059361 0.317316 0.423424
Si Si6 0.151910 0.052436 0.169337
Si Si7 0.223203 0.311032 0.085122
O O1 0.582209 0.265526 0.427542
O O2 0.039910 0.247608 0.603005
O O3 0.128624 0.149011 0.991242
O O4 0.127213 0.308595 0.853655
O O5 0.686066 0.152217 0.063057
O O6 0.959585 0.058228 0.159983
O O7 0.000000 0.000000 0.500000
O O8 0.500000 0.000000 0.000000
O O9 0.000000 0.500000 0.500000
O O10 0.015837 0.584407 0.673273
O O11 0.500000 0.500000 0.000000
O O12 0.136912 0.415998 0.940691
O O13 0.174755 0.704803 0.846929
O O14 0.988951 0.741414 0.927585
O O15 0.590820 0.693928 0.365837
O O16 0.500000 0.000000 0.500000
O O17 0.000000 0.000000 0.000000
#
# Coordination Sequence:
#
# PCOD8036936 Si02
#       7
#     2   2   2   2   2   2   2
#     4  12  25  46  74 101 141 192 238 287 354 423
#     4  12  28  49  71 100 145 188 227 296 366 419
#     4  12  23  45  72 108 144 184 243 293 351 411
#     4  12  28  46  70 106 146 186 237 290 366 424
#     4  12  26  44  74 108 140 189 241 293 347 427
#     4  12  28  47  72 107 136 179 244 295 345 422
#     4  12  24  47  75 100 144 196 229 292 356 426
#
# _framework density 22.089784999999999
#
# number of rings (size 3 to 8) (size 9 to 14) (size 15 to 20)
#    0.000    0.000    4.286    5.143    8.000    1.143 
#    0.000    0.000    0.000    0.000    0.000    0.000 
#    0.000    0.000    0.000    0.000    0.000    0.000 
#
# Total GULP energy -173546.768625 kJ/mol
# GULP energy per Si atom -12396.197759 kJ/mol
# Density = 2.203951 g / cm^3
# Si number density = 22.089785 Si / 1000 Ang^3
#
#
#
# Elastic Constant Matrix: (Units=GPa)
#
#
# Indices 1 2 3 4 5 6 
#
# 1 54.6200 22.5442 16.6997 -7.8317 7.2829 1.7282
# 2 22.5442 151.7232 55.5641 1.6044 7.7780 -4.2221
# 3 16.6997 55.5641 134.0158 4.5914 25.2652 2.3498
# 4 -7.8317 1.6044 4.5914 46.8673 -3.8995 -8.1397
# 5 7.2829 7.7780 25.2652 -3.8995 47.5128 -0.3343
# 6 1.7282 -4.2221 2.3498 -8.1397 -0.3343 41.8723
#
#
#
# Elastic Compliance Matrix: (Units=1/GPa)
#
#
# Indices 1 2 3 4 5 6 
#
# 1 0.020483 -0.002531 -0.001281 0.003422 -0.001766 -0.000377
# 2 -0.002531 0.008138 -0.003217 -0.000134 0.000763 0.001085
# 3 -0.001281 -0.003217 0.009919 -0.001673 -0.004697 -0.001191
# 4 0.003422 -0.000134 -0.001673 0.023040 0.002309 0.004436
# 5 -0.001766 0.000763 -0.004697 0.002309 0.023887 0.001053
# 6 -0.000377 0.001085 -0.001191 0.004436 0.001053 0.024945
#
#
# Mechanical properties :
#
#
# Convention : Reuss Voigt Hill
#
# Bulk Modulus (GPa) = 40.84542 58.88610 49.86576
# Shear Modulus (GPa) = 37.69933 43.62054 40.65993
#
# Velocity S-wave (km/s) = 4.13563 4.44857 4.29495
# Velocity P-wave (km/s) = 6.42926 7.28710 6.87158
#
# Compressibility (1/GPa) = 0.02448255
#
# Stress axis : x y z
#
# Youngs Moduli (GPa) = 48.82207 122.88728 100.81793
#
# Poissons Ratio (x) = 0.31097 0.12913
# Poissons Ratio (y) = 0.12355 0.32431
# Poissons Ratio (z) = 0.06253 0.39531
#
# Static dielectric constant tensor:
#      x y z
#    x 3.997360 0.038680 -0.038310 
#    y 0.038680 4.310660 0.114410 
#    z -0.038310 0.114410 4.111100 
# 
# 
# High freq. dielectric constant tensor:
#      x y z
#    x 1.870190 -0.002000 0.002430 
#    y -0.002000 1.893220 0.004700 
#    z 0.002430 0.004700 1.891040 
# 
# From -- ./inp_files/217198.got.cif
#   From: 2010.06.25/outbox.cif.g09.slc.cpg/sg2_109_cif.got.tgz:217198.got - 2010.06.27 13:26:56.
