data_PCOD8036819
_publ_section_title
;
Structure prediction by ZEFSAII (Michael W. Deem and Ramdas Pophale) SiO2 
 PCOD8036819
Probable space group: P -1
;
_chemical_formula_sum "Si O2"
_cell_formula_units_Z 14
_cell_length_a 15.325547
_cell_length_b 28.336897
_cell_length_c 27.656069
_cell_angle_alpha 169.923397
_cell_angle_beta 162.240648
_cell_angle_gamma 18.217941
_cell_volume 623.944177
_symmetry_space_group_name_H-M "P -1"
_symmetry_group_IT_number 2
_symmetry_cell_setting 'triclinic'
loop_
_space_group_symop_operation_xyz
x,y,z
-x,-y,-z
loop_
_atom_site_type_symbol
_atom_site_label
_atom_site_fract_x
_atom_site_fract_y
_atom_site_fract_z
Si Si1 0.826909 0.964259 0.246614
Si Si2 0.298194 0.284831 0.169982
Si Si3 0.763492 0.426797 0.101906
Si Si4 0.510327 0.561285 0.713239
Si Si5 0.865039 0.897621 0.689419
Si Si6 0.425444 0.967280 0.611025
Si Si7 0.331377 0.495084 0.155485
O O1 0.147355 0.022827 0.483833
O O2 0.605859 0.273059 0.441729
O O3 0.830175 0.765450 0.001012
O O4 0.741323 0.761804 0.037741
O O5 0.500000 0.500000 0.500000
O O6 0.052199 0.358710 0.154307
O O7 0.500000 0.000000 0.000000
O O8 0.705974 0.716160 0.389920
O O9 0.500000 0.500000 0.000000
O O10 0.786411 0.196185 0.923194
O O11 0.480904 0.485966 0.677774
O O12 0.210589 0.751173 0.725432
O O13 0.727314 0.900218 0.672633
O O14 0.378136 0.743526 0.398276
O O15 0.459375 0.227119 0.921814
O O16 0.000000 0.500000 0.000000
#
# Coordination Sequence:
#
# PCOD8036819 Si02
#       7
#     2   2   2   2   2   2   2
#     4  12  23  42  67  99 129 182 228 280 334 400
#     4  12  25  42  68 100 133 171 227 283 335 397
#     4  12  26  48  70  95 140 181 224 281 343 408
#     4  12  25  42  71  97 143 177 221 285 342 397
#     4  12  27  46  66 103 136 180 226 278 347 401
#     4  12  25  43  71 100 138 177 235 277 328 417
#     4  12  23  44  70 105 136 177 230 280 339 398
#
# _framework density 22.437906999999999
#
# number of rings (size 3 to 8) (size 9 to 14) (size 15 to 20)
#    0.000    0.000    2.857    8.571    0.000    3.429 
#    0.000    0.000    0.000    0.000    0.000    0.000 
#    0.000    0.000    0.000    0.000    0.000    0.000 
#
# Total GULP energy -173477.811939 kJ/mol
# GULP energy per Si atom -12391.272281 kJ/mol
# Density = 2.238684 g / cm^3
# Si number density = 22.437907 Si / 1000 Ang^3
#
#
#
# Elastic Constant Matrix: (Units=GPa)
#
#
# Indices 1 2 3 4 5 6 
#
# 1 130.9931 13.9012 56.9193 21.2294 9.8283 -5.1125
# 2 13.9012 64.1461 2.9731 2.4098 12.7749 4.3133
# 3 56.9193 2.9731 199.0884 71.1859 12.7130 14.6235
# 4 21.2294 2.4098 71.1859 80.8925 15.1874 14.4647
# 5 9.8283 12.7749 12.7130 15.1874 53.9255 2.6346
# 6 -5.1125 4.3133 14.6235 14.4647 2.6346 53.1747
#
#
#
# Elastic Compliance Matrix: (Units=1/GPa)
#
#
# Indices 1 2 3 4 5 6 
#
# 1 0.009112 -0.001844 -0.002571 -0.000286 -0.000627 0.001841
# 2 -0.001844 0.016822 0.000416 0.000631 -0.003845 -0.001637
# 3 -0.002571 0.000416 0.008059 -0.006345 0.000295 -0.000786
# 4 -0.000286 0.000631 -0.006345 0.019339 -0.003882 -0.003402
# 5 -0.000627 -0.003845 0.000295 -0.003882 0.020583 0.000207
# 6 0.001841 -0.001637 -0.000786 -0.003402 0.000207 0.020247
#
#
# Mechanical properties :
#
#
# Convention : Reuss Voigt Hill
#
# Bulk Modulus (GPa) = 38.46712 60.20163 49.33438
# Shear Modulus (GPa) = 45.11673 58.96078 52.03876
#
# Velocity S-wave (km/s) = 4.48899 5.13170 4.82107
# Velocity P-wave (km/s) = 6.63695 7.87407 7.28183
#
# Compressibility (1/GPa) = 0.02599622
#
# Stress axis : x y z
#
# Youngs Moduli (GPa) = 109.74711 59.44669 124.08329
#
# Poissons Ratio (x) = 0.10960 0.31896
# Poissons Ratio (y) = 0.20233 -0.05161
# Poissons Ratio (z) = 0.28211 -0.02473
#
# Static dielectric constant tensor:
#      x y z
#    x 3.770910 0.720680 0.016160 
#    y 0.720680 3.433790 -0.079270 
#    z 0.016160 -0.079270 4.249310 
# 
# 
# High freq. dielectric constant tensor:
#      x y z
#    x 1.902250 0.006810 -0.007320 
#    y 0.006810 1.883830 0.006410 
#    z -0.007320 0.006410 1.905180 
# 
# From -- ./inp_files/139338.got.cif
#   From: 2010.06.25/outbox.cif.g09.slc.cpg/sg2_70_cif.got.tgz:139338.got - 2010.06.27 13:26:56.
