data_PCOD8036058
_publ_section_title
;
Structure prediction by ZEFSAII (Michael W. Deem and Ramdas Pophale) SiO2 
 PCOD8036058
Probable space group: P -1
;
_chemical_formula_sum "Si O2"
_cell_formula_units_Z 10
_cell_length_a 11.795738
_cell_length_b 5.069282
_cell_length_c 10.250980
_cell_angle_alpha 113.086205
_cell_angle_beta 51.518014
_cell_angle_gamma 81.394871
_cell_volume 369.626132
_symmetry_space_group_name_H-M "P -1"
_symmetry_group_IT_number 2
_symmetry_cell_setting 'triclinic'
loop_
_space_group_symop_operation_xyz
x,y,z
-x,-y,-z
loop_
_atom_site_type_symbol
_atom_site_label
_atom_site_fract_x
_atom_site_fract_y
_atom_site_fract_z
Si Si1 0.207843 0.840491 0.141195
Si Si2 0.992087 0.599788 0.172863
Si Si3 0.690530 0.662348 0.791776
Si Si4 0.311847 0.883242 0.814284
Si Si5 0.696021 0.555057 0.478916
O O1 0.020467 0.906845 0.245700
O O2 0.288232 0.592235 0.159245
O O3 0.179117 0.205855 0.268784
O O4 0.331592 0.666074 0.889427
O O5 0.812016 0.700394 0.384255
O O6 0.000000 0.500000 0.000000
O O7 0.166992 0.264769 0.040805
O O8 0.718400 0.466344 0.597982
O O9 0.500000 0.000000 0.000000
O O10 0.494793 0.835992 0.641716
O O11 0.244355 0.785377 0.715482
#
# Coordination Sequence:
#
# PCOD8036058 Si02
#       5
#     2   2   2   2   2
#     4  12  25  49  76 106 159 195 248 319 369 448
#     4  12  26  47  78 112 154 196 253 322 372 441
#     4  12  26  48  76 113 156 198 248 313 382 447
#     4  11  25  51  74 114 149 196 266 307 364 464
#     4  11  26  47  79 112 147 208 248 309 387 442
#
# _framework density 27.054362999999999
#
# number of rings (size 3 to 8) (size 9 to 14) (size 15 to 20)
#    0.000    0.400    6.000    1.200    0.000    4.000 
#    3.600    0.000    0.000    0.000    0.000    0.000 
#    0.000    0.000    0.000    0.000    0.000    0.000 
#
# Total GULP energy -123941.051129 kJ/mol
# GULP energy per Si atom -12394.105113 kJ/mol
# Density = 2.699279 g / cm^3
# Si number density = 27.054363 Si / 1000 Ang^3
#
#
#
# Elastic Constant Matrix: (Units=GPa)
#
#
# Indices 1 2 3 4 5 6 
#
# 1 148.9642 25.3514 67.8686 -12.8432 4.3757 23.2455
# 2 25.3514 84.1183 38.6550 -16.9325 4.4141 5.2400
# 3 67.8686 38.6550 150.1395 -29.7685 7.1565 -2.6904
# 4 -12.8432 -16.9325 -29.7685 36.7891 -5.6828 6.2829
# 5 4.3757 4.4141 7.1565 -5.6828 87.1911 -15.9636
# 6 23.2455 5.2400 -2.6904 6.2829 -15.9636 38.2932
#
#
#
# Elastic Compliance Matrix: (Units=1/GPa)
#
#
# Indices 1 2 3 4 5 6 
#
# 1 0.009929 -0.000348 -0.004299 0.000811 -0.001353 -0.006979
# 2 -0.000348 0.014387 -0.002617 0.004787 -0.000740 -0.003035
# 3 -0.004299 -0.002617 0.010346 0.005214 0.000388 0.003001
# 4 0.000811 0.004787 0.005214 0.035037 0.000408 -0.006359
# 5 -0.001353 -0.000740 0.000388 0.000408 0.012700 0.006177
# 6 -0.006979 -0.003035 0.003001 -0.006359 0.006177 0.034595
#
#
# Mechanical properties :
#
#
# Convention : Reuss Voigt Hill
#
# Bulk Modulus (GPa) = 49.66311 71.88576 60.77444
# Shear Modulus (GPa) = 36.17057 49.21113 42.69085
#
# Velocity S-wave (km/s) = 3.66041 4.26957 3.97667
# Velocity P-wave (km/s) = 6.02175 7.13682 6.60286
#
# Compressibility (1/GPa) = 0.02013567
#
# Stress axis : x y z
#
# Youngs Moduli (GPa) = 100.71052 69.50798 96.65133
#
# Poissons Ratio (x) = 0.02420 0.41547
# Poissons Ratio (y) = 0.03507 0.25290
# Poissons Ratio (z) = 0.43292 0.18188
#
# Static dielectric constant tensor:
#      x y z
#    x 5.154670 0.185460 0.444080 
#    y 0.185460 5.142410 -0.053590 
#    z 0.444080 -0.053590 4.850220 
# 
# 
# High freq. dielectric constant tensor:
#      x y z
#    x 2.124620 0.000400 0.013310 
#    y 0.000400 2.062000 -0.017530 
#    z 0.013310 -0.017530 2.092350 
# 
# From -- ./inp_files/95684.got.cif
#   From: 2010.06.25/outbox.cif.g09.slc.cpg/sg2_48_cif.got.tgz:95684.got - 2010.06.27 13:26:56.
