data_PCOD8036199
_publ_section_title
;
Structure prediction by ZEFSAII (Michael W. Deem and Ramdas Pophale) SiO2 
 PCOD8036199
Probable space group: P -1
;
_chemical_formula_sum "Si O2"
_cell_formula_units_Z 16
_cell_length_a 8.803405
_cell_length_b 12.725815
_cell_length_c 8.981853
_cell_angle_alpha 90.316573
_cell_angle_beta 102.828485
_cell_angle_gamma 47.410435
_cell_volume 707.489783
_symmetry_space_group_name_H-M "P -1"
_symmetry_group_IT_number 2
_symmetry_cell_setting 'triclinic'
loop_
_space_group_symop_operation_xyz
x,y,z
-x,-y,-z
loop_
_atom_site_type_symbol
_atom_site_label
_atom_site_fract_x
_atom_site_fract_y
_atom_site_fract_z
Si Si1 0.489824 0.876361 0.334750
Si Si2 0.365394 0.414813 0.733811
Si Si3 0.175926 0.696330 0.527621
Si Si4 0.668441 0.205486 0.242836
Si Si5 0.282962 0.024845 0.587867
Si Si6 0.225196 0.452317 0.027119
Si Si7 0.197885 0.676034 0.181696
Si Si8 0.024345 0.094451 0.091483
O O1 0.627517 0.707534 0.327383
O O2 0.624164 0.915213 0.308555
O O3 0.456402 0.900002 0.505539
O O4 0.260116 0.987922 0.209053
O O5 0.250257 0.545611 0.591651
O O6 0.605691 0.340176 0.820607
O O7 0.230087 0.485029 0.856989
O O8 0.347258 0.705617 0.619061
O O9 0.150710 0.710460 0.345016
O O10 0.939799 0.837256 0.540893
O O11 0.439887 0.285129 0.113689
O O12 0.833700 0.189994 0.171830
O O13 0.764876 0.047461 0.308607
O O14 0.250032 0.533224 0.151461
O O15 0.000000 0.500000 0.000000
O O16 0.997038 0.802678 0.034207
O O17 0.000000 0.000000 0.000000
#
# Coordination Sequence:
#
# PCOD8036199 Si02
#       8
#     2   2   2   2   2   2   2   2
#     4  11  26  46  72 110 144 193 235 301 365 418
#     4  12  25  49  74 105 149 186 249 290 358 437
#     4  12  26  45  78 108 140 196 245 298 350 430
#     4  12  24  47  74 103 143 190 244 292 353 436
#     4  11  27  44  72 107 151 185 242 299 360 424
#     4  12  29  46  70 110 147 189 233 304 370 420
#     4  12  25  45  73 106 140 188 245 294 356 428
#     4  12  23  44  74 100 140 191 241 292 350 430
#
# _framework density 22.615167
#
# number of rings (size 3 to 8) (size 9 to 14) (size 15 to 20)
#    0.000    0.250    5.000    3.375    5.250    1.500 
#    0.000    1.875    0.000    0.000    0.000    0.000 
#    0.000    0.000    0.000    0.000    0.000    0.000 
#
# Total GULP energy -198413.687141 kJ/mol
# GULP energy per Si atom -12400.855446 kJ/mol
# Density = 2.256369 g / cm^3
# Si number density = 22.615167 Si / 1000 Ang^3
#
#
#
# Elastic Constant Matrix: (Units=GPa)
#
#
# Indices 1 2 3 4 5 6 
#
# 1 114.2772 44.5351 53.1062 -3.6731 12.1922 9.9420
# 2 44.5351 120.5015 48.9743 -14.1423 4.2821 16.9871
# 3 53.1062 48.9743 101.4318 -12.4469 -2.9555 10.7610
# 4 -3.6731 -14.1423 -12.4469 50.5091 -0.9619 4.6517
# 5 12.1922 4.2821 -2.9555 -0.9619 36.0606 0.5394
# 6 9.9420 16.9871 10.7610 4.6517 0.5394 39.9354
#
#
#
# Elastic Compliance Matrix: (Units=1/GPa)
#
#
# Indices 1 2 3 4 5 6 
#
# 1 0.012852 -0.002283 -0.005859 -0.001194 -0.004580 -0.000449
# 2 -0.002283 0.011458 -0.003678 0.002452 -0.000771 -0.003590
# 3 -0.005859 -0.003678 0.015272 0.002511 0.003758 -0.001435
# 4 -0.001194 0.002452 0.002511 0.021397 0.000948 -0.003927
# 5 -0.004580 -0.000771 0.003758 0.000948 0.029705 -0.000056
# 6 -0.000449 -0.003590 -0.001435 -0.003927 -0.000056 0.027524
#
#
# Mechanical properties :
#
#
# Convention : Reuss Voigt Hill
#
# Bulk Modulus (GPa) = 62.72353 69.93797 66.33075
# Shear Modulus (GPa) = 33.97578 37.94070 35.95824
#
# Velocity S-wave (km/s) = 3.88021 4.10038 3.99181
# Velocity P-wave (km/s) = 6.91882 7.30820 7.11618
#
# Compressibility (1/GPa) = 0.01594298
#
# Stress axis : x y z
#
# Youngs Moduli (GPa) = 77.80616 87.27254 65.47783
#
# Poissons Ratio (x) = 0.19923 0.38365
# Poissons Ratio (y) = 0.17762 0.24083
# Poissons Ratio (z) = 0.45589 0.32099
#
# Static dielectric constant tensor:
#      x y z
#    x 3.987890 0.044380 0.124110 
#    y 0.044380 4.170880 0.236930 
#    z 0.124110 0.236930 3.648930 
# 
# 
# High freq. dielectric constant tensor:
#      x y z
#    x 1.880350 0.001660 0.005780 
#    y 0.001660 1.904480 0.000750 
#    z 0.005780 0.000750 1.900530 
# 
# From -- ./inp_files/182406.got.cif
#   From: 2010.06.25/outbox.cif.g09.slc.cpg/sg2_92_cif.got.tgz:182406.got - 2010.06.27 13:26:56.
