data_PCOD8036660
_publ_section_title
;
Structure prediction by ZEFSAII (Michael W. Deem and Ramdas Pophale) SiO2 
 PCOD8036660
Probable space group: P -1
;
_chemical_formula_sum "Si O2"
_cell_formula_units_Z 12
_cell_length_a 18.132093
_cell_length_b 9.632624
_cell_length_c 17.657177
_cell_angle_alpha 139.748906
_cell_angle_beta 163.947286
_cell_angle_gamma 40.039178
_cell_volume 542.030815
_symmetry_space_group_name_H-M "P -1"
_symmetry_group_IT_number 2
_symmetry_cell_setting 'triclinic'
loop_
_space_group_symop_operation_xyz
x,y,z
-x,-y,-z
loop_
_atom_site_type_symbol
_atom_site_label
_atom_site_fract_x
_atom_site_fract_y
_atom_site_fract_z
Si Si1 0.845182 0.748352 0.447239
Si Si2 0.243070 0.069205 0.226019
Si Si3 0.285685 0.559911 0.457162
Si Si4 0.307449 0.917282 0.059653
Si Si5 0.795788 0.632791 0.913094
Si Si6 0.263954 0.970222 0.698042
O O1 0.000000 0.500000 0.500000
O O2 0.026987 0.885367 0.731865
O O3 0.777063 0.856682 0.341274
O O4 0.563689 0.741672 0.211135
O O5 0.190959 0.330361 0.280305
O O6 0.500000 0.000000 0.500000
O O7 0.275459 0.929132 0.122882
O O8 0.000000 0.000000 0.000000
O O9 0.351106 0.714481 0.653806
O O10 0.004052 0.702777 0.208431
O O11 0.560611 0.503008 0.654206
O O12 0.378462 0.148913 0.201639
O O13 0.000000 0.500000 0.000000
O O14 0.000000 0.000000 0.500000
O O15 0.500000 0.000000 0.000000
#
# Coordination Sequence:
#
# PCOD8036660 Si02
#       6
#     2   2   2   2   2   2
#     4  12  27  48  74 106 143 197 251 302 363 433
#     4  12  28  45  68 108 151 188 232 295 375 444
#     4  12  25  44  71 103 141 187 237 293 358 438
#     4  12  24  46  75 102 142 185 244 298 353 443
#     4  12  22  40  76 109 131 175 241 290 357 420
#     4  12  26  46  72 106 147 191 248 307 364 431
#
# _framework density 22.138963
#
# number of rings (size 3 to 8) (size 9 to 14) (size 15 to 20)
#    0.000    0.000    5.000    5.000    2.333    4.000 
#    0.000    0.000    0.000    0.000    0.000    0.000 
#    0.000    0.000    0.000    0.000    0.000    0.000 
#
# Total GULP energy -148671.063933 kJ/mol
# GULP energy per Si atom -12389.255328 kJ/mol
# Density = 2.208857 g / cm^3
# Si number density = 22.138963 Si / 1000 Ang^3
#
#
#
# Elastic Constant Matrix: (Units=GPa)
#
#
# Indices 1 2 3 4 5 6 
#
# 1 165.8760 61.4977 76.3393 -2.6229 5.9098 4.9629
# 2 61.4977 109.6040 29.6444 -0.8711 3.6430 -10.7318
# 3 76.3393 29.6444 159.0156 -9.1361 9.4088 22.9773
# 4 -2.6229 -0.8711 -9.1361 39.5050 -1.4679 2.1217
# 5 5.9098 3.6430 9.4088 -1.4679 57.1226 -7.3040
# 6 4.9629 -10.7318 22.9773 2.1217 -7.3040 15.6413
#
#
#
# Elastic Compliance Matrix: (Units=1/GPa)
#
#
# Indices 1 2 3 4 5 6 
#
# 1 0.009289 -0.004323 -0.003546 -0.000265 -0.000206 -0.000764
# 2 -0.004323 0.013980 -0.003190 -0.001542 0.002201 0.016886
# 3 -0.003546 -0.003190 0.012084 0.003476 -0.004038 -0.021171
# 4 -0.000265 -0.001542 0.003476 0.026573 -0.001066 -0.010182
# 5 -0.000206 0.002201 -0.004038 -0.001066 0.020210 0.017088
# 6 -0.000764 0.016886 -0.021171 -0.010182 0.017088 0.116223
#
#
# Mechanical properties :
#
#
# Convention : Reuss Voigt Hill
#
# Bulk Modulus (GPa) = 75.55682 85.49537 80.52610
# Shear Modulus (GPa) = 22.23329 40.25474 31.24401
#
# Velocity S-wave (km/s) = 3.17245 4.26875 3.76076
# Velocity P-wave (km/s) = 6.90085 7.93711 7.43705
#
# Compressibility (1/GPa) = 0.01323507
#
# Stress axis : x y z
#
# Youngs Moduli (GPa) = 107.64871 71.53033 82.75719
#
# Poissons Ratio (x) = 0.30924 0.29348
# Poissons Ratio (y) = 0.46538 0.26396
# Poissons Ratio (z) = 0.38176 0.22815
#
# Static dielectric constant tensor:
#      x y z
#    x 4.362910 -0.096520 -0.101100 
#    y -0.096520 3.622990 0.369340 
#    z -0.101100 0.369340 4.037680 
# 
# 
# High freq. dielectric constant tensor:
#      x y z
#    x 1.872700 -0.010320 0.001610 
#    y -0.010320 1.873990 -0.003020 
#    z 0.001610 -0.003020 1.905150 
# 
# From -- ./inp_files/23105.got.cif
#   From: 2010.06.25/outbox.cif.g09.slc.cpg/sg2_12_cif.got.tgz:23105.got - 2010.06.27 13:26:56.
