data_PCOD8036712
_publ_section_title
;
Structure prediction by ZEFSAII (Michael W. Deem and Ramdas Pophale) SiO2 
 PCOD8036712
Probable space group: P -1
;
_chemical_formula_sum "Si O2"
_cell_formula_units_Z 16
_cell_length_a 5.059909
_cell_length_b 12.995327
_cell_length_c 13.221945
_cell_angle_alpha 120.479072
_cell_angle_beta 99.180902
_cell_angle_gamma 85.369657
_cell_volume 739.672669
_symmetry_space_group_name_H-M "P -1"
_symmetry_group_IT_number 2
_symmetry_cell_setting 'triclinic'
loop_
_space_group_symop_operation_xyz
x,y,z
-x,-y,-z
loop_
_atom_site_type_symbol
_atom_site_label
_atom_site_fract_x
_atom_site_fract_y
_atom_site_fract_z
Si Si1 0.719802 0.493337 0.924743
Si Si2 0.618492 0.232267 0.730487
Si Si3 0.162343 0.137748 0.794129
Si Si4 0.764305 0.268037 0.200321
Si Si5 0.616005 0.768086 0.498013
Si Si6 0.767757 0.732523 0.932413
Si Si7 0.159682 0.861983 0.655888
Si Si8 0.719834 0.507038 0.431621
O O1 0.697169 0.371041 0.799941
O O2 0.688148 0.600643 0.898166
O O3 0.500000 0.500000 0.000000
O O4 0.000000 0.500000 0.000000
O O5 0.398772 0.212177 0.793644
O O6 0.500228 0.190005 0.595394
O O7 0.882416 0.154693 0.728131
O O8 0.241870 0.999713 0.729694
O O9 0.131442 0.183894 0.929324
O O10 0.496715 0.210807 0.106834
O O11 0.870219 0.185203 0.255607
O O12 0.687838 0.400298 0.297797
O O13 0.995212 0.276097 0.136625
O O14 0.393435 0.787034 0.579616
O O15 0.697597 0.629687 0.429492
O O16 0.877917 0.846702 0.574577
O O17 0.500000 0.500000 0.500000
O O18 0.000000 0.500000 0.500000
#
# Coordination Sequence:
#
# PCOD8036712 Si02
#       8
#     2   2   2   2   2   2   2   2
#     4  12  22  43  71  99 139 176 216 283 350 406
#     4  12  25  45  72 102 137 181 229 283 348 407
#     4  12  27  47  69  99 140 185 234 285 331 400
#     4  12  25  43  71 102 136 177 224 278 344 406
#     4  12  25  45  72 102 137 181 229 283 348 407
#     4  12  25  43  71 102 136 177 224 278 344 406
#     4  12  27  47  69  99 140 185 234 285 331 400
#     4  12  22  43  71  99 139 176 216 283 350 406
#
# _framework density 21.631188000000002
#
# number of rings (size 3 to 8) (size 9 to 14) (size 15 to 20)
#    0.000    0.000    5.000    5.250    0.000    6.000 
#    0.000    0.000    0.000    0.000    0.000    0.000 
#    0.000    0.000    0.000    0.000    0.000    0.000 
#
# Total GULP energy -198550.933148 kJ/mol
# GULP energy per Si atom -12409.433322 kJ/mol
# Density = 2.158195 g / cm^3
# Si number density = 21.631188 Si / 1000 Ang^3
#
#
#
# Elastic Constant Matrix: (Units=GPa)
#
#
# Indices 1 2 3 4 5 6 
#
# 1 153.5099 25.1380 39.6201 -5.6493 0.8679 -4.4163
# 2 25.1380 87.7740 66.6173 9.7112 6.4188 -11.2319
# 3 39.6201 66.6173 92.1066 -9.2434 9.9415 2.8494
# 4 -5.6493 9.7112 -9.2434 18.8343 1.1495 4.1376
# 5 0.8679 6.4188 9.9415 1.1495 43.5418 -6.4507
# 6 -4.4163 -11.2319 2.8494 4.1376 -6.4507 33.4348
#
#
#
# Elastic Compliance Matrix: (Units=1/GPa)
#
#
# Indices 1 2 3 4 5 6 
#
# 1 0.007528 0.002933 -0.005886 -0.002901 0.001296 0.003090
# 2 0.002933 0.071764 -0.063513 -0.077213 0.012094 0.041797
# 3 -0.005886 -0.063513 0.069621 0.074828 -0.014328 -0.040071
# 4 -0.002901 -0.077213 0.074828 0.141584 -0.017317 -0.053561
# 5 0.001296 0.012094 -0.014328 -0.017317 0.026777 0.012764
# 6 0.003090 0.041797 -0.040071 -0.053561 0.012764 0.056864
#
#
# Mechanical properties :
#
#
# Convention : Reuss Voigt Hill
#
# Bulk Modulus (GPa) = 62.57559 66.23793 64.40676
# Shear Modulus (GPa) = 9.75806 32.62984 21.19395
#
# Velocity S-wave (km/s) = 2.12624 3.88811 3.13355
# Velocity P-wave (km/s) = 5.91769 7.13053 6.55223
#
# Compressibility (1/GPa) = 0.01598067
#
# Stress axis : x y z
#
# Youngs Moduli (GPa) = 132.83846 13.93461 14.36345
#
# Poissons Ratio (x) = -0.04087 0.08455
# Poissons Ratio (y) = -0.38964 0.91227
# Poissons Ratio (z) = 0.78192 0.88503
#
# Static dielectric constant tensor:
#      x y z
#    x 4.010180 -0.018690 0.027380 
#    y -0.018690 3.943260 0.049040 
#    z 0.027380 0.049040 3.888670 
# 
# 
# High freq. dielectric constant tensor:
#      x y z
#    x 1.871130 -0.003420 0.003820 
#    y -0.003420 1.852190 -0.005000 
#    z 0.003820 -0.005000 1.858350 
# 
# From -- ./inp_files/365290.got.cif
#   From: 2010.06.25/outbox.cif.g09.slc.cpg/sg2_183_cif.got.tgz:365290.got - 2010.06.27 13:26:56.
