data_PCOD8036094
_publ_section_title
;
Structure prediction by ZEFSAII (Michael W. Deem and Ramdas Pophale) SiO2 
 PCOD8036094
Probable space group: P -1
;
_chemical_formula_sum "Si O2"
_cell_formula_units_Z 12
_cell_length_a 16.644552
_cell_length_b 5.140685
_cell_length_c 9.790245
_cell_angle_alpha 114.970537
_cell_angle_beta 53.378130
_cell_angle_gamma 81.991156
_cell_volume 513.907617
_symmetry_space_group_name_H-M "P -1"
_symmetry_group_IT_number 2
_symmetry_cell_setting 'triclinic'
loop_
_space_group_symop_operation_xyz
x,y,z
-x,-y,-z
loop_
_atom_site_type_symbol
_atom_site_label
_atom_site_fract_x
_atom_site_fract_y
_atom_site_fract_z
Si Si1 0.332828 0.374070 0.377628
Si Si2 0.562654 0.686175 0.026326
Si Si3 0.283675 0.434570 0.907355
Si Si4 0.365075 0.686285 0.645902
Si Si5 0.015274 0.815754 0.303167
Si Si6 0.067397 0.707903 0.750134
O O1 0.334514 0.686292 0.516168
O O2 0.208220 0.421624 0.563956
O O3 0.452078 0.060448 0.256937
O O4 0.349991 0.338242 0.188961
O O5 0.644955 0.500740 0.033369
O O6 0.500000 0.500000 0.000000
O O7 0.322259 0.477550 0.729102
O O8 0.302035 0.073159 0.841302
O O9 0.145924 0.704010 0.104513
O O10 0.500000 0.500000 0.500000
O O11 0.996452 0.500192 0.254522
O O12 0.000000 0.000000 0.500000
O O13 0.929292 0.096136 0.343097
O O14 0.000000 0.000000 0.000000
#
# Coordination Sequence:
#
# PCOD8036094 Si02
#       6
#     2   2   2   2   2   2
#     4  11  26  44  72 102 143 180 234 289 351 419
#     4  11  26  44  70 105 139 185 226 291 358 413
#     4  12  26  46  74 100 144 179 235 287 346 418
#     4  12  25  46  69 107 137 182 229 285 352 414
#     4  12  27  48  72 106 140 191 237 289 350 417
#     4  12  27  49  73 106 142 190 240 291 350 420
#
# _framework density 23.350501999999999
#
# number of rings (size 3 to 8) (size 9 to 14) (size 15 to 20)
#    0.000    0.333    1.667    6.500    9.333    0.000 
#    0.000    0.000    0.000    0.000    0.000    0.000 
#    0.000    0.000    0.000    0.000    0.000    0.000 
#
# Total GULP energy -148707.029138 kJ/mol
# GULP energy per Si atom -12392.252428 kJ/mol
# Density = 2.329735 g / cm^3
# Si number density = 23.350502 Si / 1000 Ang^3
#
#
#
# Elastic Constant Matrix: (Units=GPa)
#
#
# Indices 1 2 3 4 5 6 
#
# 1 118.6772 22.5901 59.2122 5.0924 3.9447 14.0919
# 2 22.5901 94.9606 23.1681 -5.7178 10.0342 9.7657
# 3 59.2122 23.1681 149.5230 -12.6394 -10.8352 7.9988
# 4 5.0924 -5.7178 -12.6394 21.6437 3.1596 5.1603
# 5 3.9447 10.0342 -10.8352 3.1596 56.9340 3.0343
# 6 14.0919 9.7657 7.9988 5.1603 3.0343 39.0286
#
#
#
# Elastic Compliance Matrix: (Units=1/GPa)
#
#
# Indices 1 2 3 4 5 6 
#
# 1 0.011611 -0.001602 -0.004764 -0.005302 -0.001026 -0.002035
# 2 -0.001602 0.011865 -0.000898 0.003921 -0.002233 -0.002551
# 3 -0.004764 -0.000898 0.009446 0.006345 0.001986 -0.000985
# 4 -0.005302 0.003921 0.006345 0.054208 -0.001730 -0.007400
# 5 -0.001026 -0.002233 0.001986 -0.001730 0.018540 -0.000691
# 6 -0.002035 -0.002551 -0.000985 -0.007400 -0.000691 0.028229
#
#
# Mechanical properties :
#
#
# Convention : Reuss Voigt Hill
#
# Bulk Modulus (GPa) = 54.35894 63.67794 59.01844
# Shear Modulus (GPa) = 32.35030 40.73396 36.54213
#
# Velocity S-wave (km/s) = 3.72616 4.18120 3.96022
# Velocity P-wave (km/s) = 6.46858 7.11615 6.80008
#
# Compressibility (1/GPa) = 0.01839624
#
# Stress axis : x y z
#
# Youngs Moduli (GPa) = 86.12550 84.28010 105.85979
#
# Poissons Ratio (x) = 0.13498 0.50427
# Poissons Ratio (y) = 0.13793 0.09507
# Poissons Ratio (z) = 0.41026 0.07569
#
# Static dielectric constant tensor:
#      x y z
#    x 4.470650 0.071400 0.497580 
#    y 0.071400 3.756540 -0.473560 
#    z 0.497580 -0.473560 4.451630 
# 
# 
# High freq. dielectric constant tensor:
#      x y z
#    x 1.943680 -0.001390 -0.001940 
#    y -0.001390 1.912030 0.002810 
#    z -0.001940 0.002810 1.945030 
# 
# From -- ./inp_files/21767.got.cif
#   From: 2010.06.25/outbox.cif.g09.slc.cpg/sg2_11_cif.got.tgz:21767.got - 2010.06.27 13:26:56.
