data_PCOD8036121
_publ_section_title
;
Structure prediction by ZEFSAII (Michael W. Deem and Ramdas Pophale) SiO2 
 PCOD8036121
Probable space group: P -1
;
_chemical_formula_sum "Si O2"
_cell_formula_units_Z 14
_cell_length_a 20.127871
_cell_length_b 8.455757
_cell_length_c 6.379277
_cell_angle_alpha 108.118171
_cell_angle_beta 84.228531
_cell_angle_gamma 44.626452
_cell_volume 635.080389
_symmetry_space_group_name_H-M "P -1"
_symmetry_group_IT_number 2
_symmetry_cell_setting 'triclinic'
loop_
_space_group_symop_operation_xyz
x,y,z
-x,-y,-z
loop_
_atom_site_type_symbol
_atom_site_label
_atom_site_fract_x
_atom_site_fract_y
_atom_site_fract_z
Si Si1 0.085047 0.901556 0.094587
Si Si2 0.930176 0.478434 0.480545
Si Si3 0.385127 0.311119 0.182351
Si Si4 0.276121 0.724867 0.738662
Si Si5 0.782984 0.614171 0.912323
Si Si6 0.769465 0.889230 0.371304
Si Si7 0.616098 0.352800 0.929636
O O1 0.123618 0.683453 0.146876
O O2 0.188213 0.785101 0.906596
O O3 0.016326 0.164844 0.358551
O O4 0.000000 0.000000 0.000000
O O5 0.836377 0.642245 0.749320
O O6 0.879490 0.596953 0.312155
O O7 0.000000 0.500000 0.500000
O O8 0.358662 0.439803 0.472654
O O9 0.300188 0.334334 0.167164
O O10 0.378872 0.469917 0.082194
O O11 0.500000 0.000000 0.000000
O O12 0.213654 0.969454 0.698428
O O13 0.345787 0.705293 0.865513
O O14 0.724005 0.836398 0.205933
O O15 0.690617 0.078019 0.667575
O O16 0.500000 0.500000 0.000000
#
# Coordination Sequence:
#
# PCOD8036121 Si02
#       7
#     2   2   2   2   2   2   2
#     4  12  24  45  70 102 142 191 231 293 356 404
#     4  12  27  43  71 102 142 193 236 280 350 421
#     4  11  28  45  75 105 139 184 231 295 361 409
#     4  11  26  49  69 103 145 181 239 289 348 433
#     4  12  26  46  70 107 145 179 239 297 343 427
#     4  11  26  45  70 102 142 184 236 286 348 424
#     4  11  26  47  73 100 140 189 234 292 355 419
#
# _framework density 22.044453000000001
#
# number of rings (size 3 to 8) (size 9 to 14) (size 15 to 20)
#    0.000    0.571    2.857    3.857   10.000    2.857 
#    0.000    0.000    0.000    0.000    0.000    0.000 
#    0.000    0.000    0.000    0.000    0.000    0.000 
#
# Total GULP energy -173576.724663 kJ/mol
# GULP energy per Si atom -12398.337476 kJ/mol
# Density = 2.199428 g / cm^3
# Si number density = 22.044453 Si / 1000 Ang^3
#
#
#
# Elastic Constant Matrix: (Units=GPa)
#
#
# Indices 1 2 3 4 5 6 
#
# 1 153.0961 36.2028 58.0467 -8.8116 6.4306 -17.6803
# 2 36.2028 116.9730 50.0336 3.3571 1.3402 -1.3564
# 3 58.0467 50.0336 155.5918 8.1522 25.8307 -6.5036
# 4 -8.8116 3.3571 8.1522 39.5938 5.8292 5.8639
# 5 6.4306 1.3402 25.8307 5.8292 42.3390 0.9329
# 6 -17.6803 -1.3564 -6.5036 5.8639 0.9329 36.2983
#
#
#
# Elastic Compliance Matrix: (Units=1/GPa)
#
#
# Indices 1 2 3 4 5 6 
#
# 1 0.008366 -0.001491 -0.002618 0.002047 0.000021 0.003219
# 2 -0.001491 0.010314 -0.003070 -0.000731 0.001892 -0.000822
# 3 -0.002618 -0.003070 0.009332 -0.001608 -0.004992 0.000670
# 4 0.002047 -0.000731 -0.001608 0.027076 -0.002955 -0.003616
# 5 0.000021 0.001892 -0.004992 -0.002955 0.027031 -0.001031
# 6 0.003219 -0.000822 0.000670 -0.003616 -0.001031 0.029817
#
#
# Mechanical properties :
#
#
# Convention : Reuss Voigt Hill
#
# Bulk Modulus (GPa) = 73.24466 79.35859 76.30162
# Shear Modulus (GPa) = 38.21326 42.40473 40.30900
#
# Velocity S-wave (km/s) = 4.16801 4.39065 4.28077
# Velocity P-wave (km/s) = 7.51406 7.86010 7.68903
#
# Compressibility (1/GPa) = 0.01365287
#
# Stress axis : x y z
#
# Youngs Moduli (GPa) = 119.53666 96.95954 107.15824
#
# Poissons Ratio (x) = 0.14458 0.28050
# Poissons Ratio (y) = 0.17825 0.32902
# Poissons Ratio (z) = 0.31290 0.29770
#
# Static dielectric constant tensor:
#      x y z
#    x 3.910800 0.111450 0.190190 
#    y 0.111450 4.041970 -0.062300 
#    z 0.190190 -0.062300 4.071340 
# 
# 
# High freq. dielectric constant tensor:
#      x y z
#    x 1.873060 0.010800 0.013370 
#    y 0.010800 1.882160 0.001400 
#    z 0.013370 0.001400 1.875910 
# 
# From -- ./inp_files/27546.got.cif
#   From: 2010.06.25/outbox.cif.g09.slc.cpg/sg2_14_cif.got.tgz:27546.got - 2010.06.27 13:26:56.
