data_PCOD8036451
_publ_section_title
;
Structure prediction by ZEFSAII (Michael W. Deem and Ramdas Pophale) SiO2 
 PCOD8036451
Probable space group: P -1
;
_chemical_formula_sum "Si O2"
_cell_formula_units_Z 14
_cell_length_a 12.205450
_cell_length_b 5.153590
_cell_length_c 11.415719
_cell_angle_alpha 118.505047
_cell_angle_beta 85.615215
_cell_angle_gamma 105.767325
_cell_volume 606.074931
_symmetry_space_group_name_H-M "P -1"
_symmetry_group_IT_number 2
_symmetry_cell_setting 'triclinic'
loop_
_space_group_symop_operation_xyz
x,y,z
-x,-y,-z
loop_
_atom_site_type_symbol
_atom_site_label
_atom_site_fract_x
_atom_site_fract_y
_atom_site_fract_z
Si Si1 0.001848 0.347469 0.091349
Si Si2 0.463651 0.649955 0.154354
Si Si3 0.315244 0.085055 0.183989
Si Si4 0.114445 0.908818 0.324383
Si Si5 0.084069 0.833453 0.576362
Si Si6 0.765452 0.326308 0.108303
Si Si7 0.703831 0.940065 0.238776
O O1 0.103730 0.554481 0.208671
O O2 0.886062 0.357439 0.169573
O O3 0.000000 0.500000 0.000000
O O4 0.000000 0.000000 0.000000
O O5 0.375951 0.407938 0.189859
O O6 0.573831 0.792718 0.260237
O O7 0.409490 0.924193 0.186166
O O8 0.500000 0.500000 0.000000
O O9 0.228378 0.128207 0.303089
O O10 0.235627 0.870597 0.049613
O O11 0.126121 0.967025 0.474162
O O12 0.994943 0.981150 0.310489
O O13 0.000000 0.500000 0.500000
O O14 0.204366 0.851510 0.635063
O O15 0.749620 0.649254 0.138076
O O16 0.679096 0.137900 0.172230
#
# Coordination Sequence:
#
# PCOD8036451 Si02
#       7
#     2   2   2   2   2   2   2
#     4  12  25  38  66 107 144 174 220 295 371 429
#     4  12  24  44  69 106 147 186 232 286 364 430
#     4  12  25  42  71 107 145 184 225 301 359 426
#     4  11  27  47  69 107 144 187 246 294 362 423
#     4  11  27  50  75  98 141 202 243 300 346 428
#     4  12  22  39  67 105 140 179 228 289 361 420
#     4  12  25  44  72 101 140 188 242 283 353 424
#
# _framework density 23.099456
#
# number of rings (size 3 to 8) (size 9 to 14) (size 15 to 20)
#    0.000    0.286    5.714    3.000    8.000    0.000 
#    0.000    1.429    0.000    0.000    0.000    0.000 
#    0.000    0.000    0.000    0.000    0.000    0.000 
#
# Total GULP energy -173471.758264 kJ/mol
# GULP energy per Si atom -12390.839876 kJ/mol
# Density = 2.304688 g / cm^3
# Si number density = 23.099456 Si / 1000 Ang^3
#
#
#
# Elastic Constant Matrix: (Units=GPa)
#
#
# Indices 1 2 3 4 5 6 
#
# 1 119.8015 29.5685 38.1070 -6.2737 12.4053 18.4255
# 2 29.5685 123.9449 36.0465 -1.0445 -2.2784 7.9748
# 3 38.1070 36.0465 77.7820 -5.6273 -1.7576 17.0588
# 4 -6.2737 -1.0445 -5.6273 36.0782 9.1679 -2.6495
# 5 12.4053 -2.2784 -1.7576 9.1679 34.6840 1.3892
# 6 18.4255 7.9748 17.0588 -2.6495 1.3892 45.5298
#
#
#
# Elastic Compliance Matrix: (Units=1/GPa)
#
#
# Indices 1 2 3 4 5 6 
#
# 1 0.010976 -0.001314 -0.004194 0.002243 -0.004723 -0.002366
# 2 -0.001314 0.009498 -0.003841 -0.000817 0.001106 0.000226
# 3 -0.004194 -0.003841 0.017755 0.001099 0.002028 -0.004280
# 4 0.002243 -0.000817 0.001099 0.030586 -0.008920 0.000876
# 5 -0.004723 0.001106 0.002028 -0.008920 0.033077 -0.000571
# 6 -0.002366 0.000226 -0.004280 0.000876 -0.000571 0.024554
#
#
# Mechanical properties :
#
#
# Convention : Reuss Voigt Hill
#
# Bulk Modulus (GPa) = 51.20364 58.77471 54.98917
# Shear Modulus (GPa) = 32.96960 37.77881 35.37421
#
# Velocity S-wave (km/s) = 3.78205 4.04850 3.91754
# Velocity P-wave (km/s) = 6.42546 6.88137 6.65732
#
# Compressibility (1/GPa) = 0.01952986
#
# Stress axis : x y z
#
# Youngs Moduli (GPa) = 91.10910 105.28829 56.32110
#
# Poissons Ratio (x) = 0.13840 0.23620
# Poissons Ratio (y) = 0.11976 0.21635
# Poissons Ratio (z) = 0.38209 0.40445
#
# Static dielectric constant tensor:
#      x y z
#    x 4.502000 0.240260 0.147990 
#    y 0.240260 4.594070 0.070550 
#    z 0.147990 0.070550 4.043010 
# 
# 
# High freq. dielectric constant tensor:
#      x y z
#    x 1.918550 0.009680 0.005780 
#    y 0.009680 1.934860 -0.001740 
#    z 0.005780 -0.001740 1.880310 
# 
# From -- ./inp_files/124189.got.cif
#   From: 2010.06.25/outbox.cif.g09.slc.cpg/sg2_63_cif.got.tgz:124189.got - 2010.06.27 13:26:56.
