data_PCOD8036855
_publ_section_title
;
Structure prediction by ZEFSAII (Michael W. Deem and Ramdas Pophale) SiO2 
 PCOD8036855
Probable space group: P -1
;
_chemical_formula_sum "Si O2"
_cell_formula_units_Z 16
_cell_length_a 15.623752
_cell_length_b 6.744661
_cell_length_c 10.569158
_cell_angle_alpha 93.254860
_cell_angle_beta 43.895587
_cell_angle_gamma 76.648706
_cell_volume 709.032595
_symmetry_space_group_name_H-M "P -1"
_symmetry_group_IT_number 2
_symmetry_cell_setting 'triclinic'
loop_
_space_group_symop_operation_xyz
x,y,z
-x,-y,-z
loop_
_atom_site_type_symbol
_atom_site_label
_atom_site_fract_x
_atom_site_fract_y
_atom_site_fract_z
Si Si1 0.115822 0.948114 0.479464
Si Si2 0.399641 0.673534 0.522620
Si Si3 0.708391 0.818176 0.623747
Si Si4 0.649499 0.494238 0.838432
Si Si5 0.455081 0.198550 0.831732
Si Si6 0.201428 0.448561 0.715672
Si Si7 0.999429 0.869131 0.867897
Si Si8 0.719888 0.899721 0.182088
O O1 0.239027 0.744186 0.286518
O O2 0.073614 0.912597 0.666636
O O3 0.171204 0.139353 0.432733
O O4 0.000000 0.000000 0.500000
O O5 0.500000 0.500000 0.500000
O O6 0.474668 0.665057 0.311393
O O7 0.274597 0.613416 0.625972
O O8 0.356451 0.914056 0.630064
O O9 0.684755 0.610223 0.687157
O O10 0.751167 0.761850 0.430893
O O11 0.568864 0.024823 0.790592
O O12 0.500000 0.500000 0.000000
O O13 0.661049 0.631348 0.952718
O O14 0.386542 0.077537 0.812744
O O15 0.227370 0.342101 0.823099
O O16 0.051353 0.615695 0.845741
O O17 0.845475 0.938745 0.991375
O O18 0.000000 0.000000 0.000000
#
# Coordination Sequence:
#
# PCOD8036855 Si02
#       8
#     2   2   2   2   2   2   2   2
#     4  12  30  51  76 109 152 203 253 310 372 448
#     4  12  23  43  67 106 150 184 232 305 374 436
#     4  12  25  48  77 104 147 194 247 305 370 448
#     4  12  27  49  76 108 144 198 248 305 379 442
#     4  12  25  44  75 109 147 189 250 306 379 442
#     4  12  23  45  75 102 146 193 238 302 380 443
#     4  12  26  49  75 104 149 197 248 303 376 448
#     4  12  26  43  71 112 144 191 249 307 371 450
#
# _framework density 22.565957999999998
#
# number of rings (size 3 to 8) (size 9 to 14) (size 15 to 20)
#    0.000    0.000    6.250    4.125    1.750    3.500 
#    0.000    0.000    0.000    0.000    0.000    0.000 
#    0.000    0.000    0.000    0.000    0.000    0.000 
#
# Total GULP energy -198365.424677 kJ/mol
# GULP energy per Si atom -12397.839042 kJ/mol
# Density = 2.251460 g / cm^3
# Si number density = 22.565958 Si / 1000 Ang^3
#
#
#
# Elastic Constant Matrix: (Units=GPa)
#
#
# Indices 1 2 3 4 5 6 
#
# 1 135.1262 33.7400 34.5840 0.6650 -12.5947 13.8861
# 2 33.7400 93.5751 19.5811 6.1651 -7.9805 1.1083
# 3 34.5840 19.5811 98.0693 18.1241 -0.0198 3.7506
# 4 0.6650 6.1651 18.1241 33.4571 8.0317 -2.4177
# 5 -12.5947 -7.9805 -0.0198 8.0317 41.0614 2.4934
# 6 13.8861 1.1083 3.7506 -2.4177 2.4934 39.6518
#
#
#
# Elastic Compliance Matrix: (Units=1/GPa)
#
#
# Indices 1 2 3 4 5 6 
#
# 1 0.009294 -0.002593 -0.002840 0.001058 0.002320 -0.002995
# 2 -0.002593 0.012155 -0.001161 -0.001991 0.001930 0.000435
# 3 -0.002840 -0.001161 0.012693 -0.006711 0.000258 -0.000599
# 4 0.001058 -0.001991 -0.006711 0.035825 -0.007253 0.002960
# 5 0.002320 0.001930 0.000258 -0.007253 0.027044 -0.003034
# 6 -0.002995 0.000435 -0.000599 0.002960 -0.003034 0.026684
#
#
# Mechanical properties :
#
#
# Convention : Reuss Voigt Hill
#
# Bulk Modulus (GPa) = 47.72333 55.84232 51.78282
# Shear Modulus (GPa) = 34.75404 38.75843 36.75623
#
# Velocity S-wave (km/s) = 3.92868 4.14884 4.04026
# Velocity P-wave (km/s) = 6.46325 6.91018 6.69045
#
# Compressibility (1/GPa) = 0.02095411
#
# Stress axis : x y z
#
# Youngs Moduli (GPa) = 107.59980 82.27029 78.78048
#
# Poissons Ratio (x) = 0.21333 0.22376
# Poissons Ratio (y) = 0.27901 0.09145
# Poissons Ratio (z) = 0.30561 0.09550
#
# Static dielectric constant tensor:
#      x y z
#    x 4.140490 0.127940 -0.101580 
#    y 0.127940 4.082380 -0.014720 
#    z -0.101580 -0.014720 4.356840 
# 
# 
# High freq. dielectric constant tensor:
#      x y z
#    x 1.890530 0.009360 -0.002730 
#    y 0.009360 1.895420 0.002930 
#    z -0.002730 0.002930 1.901290 
# 
# From -- ./inp_files/441885.got.cif
#   From: 2010.06.25/outbox.cif.g09.slc.cpg/sg2_221_cif.got.tgz:441885.got - 2010.06.27 13:26:56.
