data_PCOD8036512
_publ_section_title
;
Structure prediction by ZEFSAII (Michael W. Deem and Ramdas Pophale) SiO2 
 PCOD8036512
Probable space group: P -1
;
_chemical_formula_sum "Si O2"
_cell_formula_units_Z 12
_cell_length_a 16.588532
_cell_length_b 5.517318
_cell_length_c 16.584833
_cell_angle_alpha 98.893454
_cell_angle_beta 162.407646
_cell_angle_gamma 81.673986
_cell_volume 453.245982
_symmetry_space_group_name_H-M "P -1"
_symmetry_group_IT_number 2
_symmetry_cell_setting 'triclinic'
loop_
_space_group_symop_operation_xyz
x,y,z
-x,-y,-z
loop_
_atom_site_type_symbol
_atom_site_label
_atom_site_fract_x
_atom_site_fract_y
_atom_site_fract_z
Si Si1 0.001873 0.644570 0.591858
Si Si2 0.666861 0.776859 0.907185
Si Si3 0.426041 0.072523 0.559301
Si Si4 0.492846 0.061095 0.903006
Si Si5 0.160395 0.489908 0.399486
Si Si6 0.829677 0.240608 0.828115
O O1 0.000000 0.500000 0.500000
O O2 0.806872 0.877237 0.407513
O O3 0.902151 0.487518 0.564134
O O4 0.305017 0.712599 0.905838
O O5 0.462268 0.567421 0.675445
O O6 0.625176 0.005692 0.819318
O O7 0.605193 0.842817 0.944674
O O8 0.961344 0.668544 0.171447
O O9 0.164177 0.213478 0.352815
O O10 0.590679 0.254381 0.665887
O O11 0.314545 0.823241 0.397715
O O12 0.500000 0.000000 0.000000
O O13 0.000000 0.500000 0.000000
O O14 0.000000 0.000000 0.000000
#
# Coordination Sequence:
#
# PCOD8036512 Si02
#       6
#     2   2   2   2   2   2
#     4  12  24  45  71 109 160 211 276 341 408 490
#     4  12  28  48  80 117 162 215 274 344 418 498
#     4  11  30  52  80 124 168 208 288 342 426 527
#     4  12  24  45  71 109 160 211 276 341 408 490
#     4  12  28  48  80 117 162 215 274 344 418 498
#     4  11  30  55  89 122 170 222 280 356 444 524
#
# _framework density 26.475687000000001
#
# number of rings (size 3 to 8) (size 9 to 14) (size 15 to 20)
#    0.000    0.333    1.667    5.000    9.333    1.333 
#    0.000    2.500    0.000    0.000    0.000    0.000 
#    0.000    0.000    0.000    0.000    0.000    0.000 
#
# Total GULP energy -148770.621785 kJ/mol
# GULP energy per Si atom -12397.551815 kJ/mol
# Density = 2.641543 g / cm^3
# Si number density = 26.475687 Si / 1000 Ang^3
#
#
#
# Elastic Constant Matrix: (Units=GPa)
#
#
# Indices 1 2 3 4 5 6 
#
# 1 159.9298 56.6699 46.6287 -3.6739 -6.4292 -19.1320
# 2 56.6699 135.5044 51.4134 -7.3533 -0.0902 -11.7636
# 3 46.6287 51.4134 110.6301 -5.2098 -5.2096 -12.3250
# 4 -3.6739 -7.3533 -5.2098 60.7162 7.5983 6.1812
# 5 -6.4292 -0.0902 -5.2096 7.5983 32.9269 -0.8002
# 6 -19.1320 -11.7636 -12.3250 6.1812 -0.8002 43.3042
#
#
#
# Elastic Compliance Matrix: (Units=1/GPa)
#
#
# Indices 1 2 3 4 5 6 
#
# 1 0.008013 -0.002429 -0.001932 -0.000396 0.001402 0.002413
# 2 -0.002429 0.009808 -0.003500 0.000843 -0.001185 0.000453
# 3 -0.001932 -0.003500 0.011727 0.000123 0.001478 0.001543
# 4 -0.000396 0.000843 0.000123 0.017324 -0.004113 -0.002460
# 5 0.001402 -0.001185 0.001478 -0.004113 0.031870 0.001894
# 6 0.002413 0.000453 0.001543 -0.002460 0.001894 0.025107
#
#
# Mechanical properties :
#
#
# Convention : Reuss Voigt Hill
#
# Bulk Modulus (GPa) = 72.32917 79.49870 75.91394
# Shear Modulus (GPa) = 40.26445 44.14628 42.20536
#
# Velocity S-wave (km/s) = 3.90398 4.08784 3.99697
# Velocity P-wave (km/s) = 6.90651 7.23691 7.07364
#
# Compressibility (1/GPa) = 0.01382568
#
# Stress axis : x y z
#
# Youngs Moduli (GPa) = 124.80202 101.95883 85.27081
#
# Poissons Ratio (x) = 0.24766 0.16476
# Poissons Ratio (y) = 0.30315 0.29844
# Poissons Ratio (z) = 0.24114 0.35685
#
# Static dielectric constant tensor:
#      x y z
#    x 4.927530 -0.140540 0.070880 
#    y -0.140540 4.695350 0.082130 
#    z 0.070880 0.082130 5.181900 
# 
# 
# High freq. dielectric constant tensor:
#      x y z
#    x 2.086980 -0.009910 0.000110 
#    y -0.009910 2.050870 -0.000670 
#    z 0.000110 -0.000670 2.073230 
# 
# From -- ./inp_files/525406.got.cif
#   From: 2010.06.25/outbox.cif.g09.slc.cpg/sg2_263_cif.got.tgz:525406.got - 2010.06.27 13:26:56.
