data_PCOD8036886
_publ_section_title
;
Structure prediction by ZEFSAII (Michael W. Deem and Ramdas Pophale) SiO2 
 PCOD8036886
Probable space group: P -1
;
_chemical_formula_sum "Si O2"
_cell_formula_units_Z 14
_cell_length_a 17.425544
_cell_length_b 12.438252
_cell_length_c 8.667149
_cell_angle_alpha 37.308175
_cell_angle_beta 139.210264
_cell_angle_gamma 151.278256
_cell_volume 535.584796
_symmetry_space_group_name_H-M "P -1"
_symmetry_group_IT_number 2
_symmetry_cell_setting 'triclinic'
loop_
_space_group_symop_operation_xyz
x,y,z
-x,-y,-z
loop_
_atom_site_type_symbol
_atom_site_label
_atom_site_fract_x
_atom_site_fract_y
_atom_site_fract_z
Si Si1 0.155735 0.089902 0.350541
Si Si2 0.759042 0.080425 0.566502
Si Si3 0.555932 0.767755 0.182660
Si Si4 0.471938 0.545226 0.737085
Si Si5 0.324620 0.865280 0.314893
Si Si6 0.847533 0.606749 0.586700
Si Si7 0.780062 0.459281 0.985263
O O1 0.141320 0.985020 0.276694
O O2 0.019214 0.870274 0.506345
O O3 0.328890 0.212005 0.545902
O O4 0.140275 0.287172 0.095631
O O5 0.782755 0.134239 0.724831
O O6 0.566953 0.831607 0.534429
O O7 0.814531 0.316814 0.294750
O O8 0.463375 0.533951 0.194086
O O9 0.415473 0.719067 0.122290
O O10 0.658584 0.012216 0.958084
O O11 0.280709 0.367840 0.613034
O O12 0.500000 0.500000 0.000000
O O13 0.219365 0.581462 0.441099
O O14 0.500000 0.000000 0.500000
O O15 0.859307 0.515590 0.872301
#
# Coordination Sequence:
#
# PCOD8036886 Si02
#       7
#     2   2   2   2   2   2   2
#     4  12  28  48  70 108 147 191 238 299 369 421
#     4  12  26  46  76 107 143 187 246 294 357 427
#     4  12  23  43  78 105 142 189 245 297 355 431
#     4  12  23  45  78 108 140 189 244 297 353 432
#     4  12  24  45  74 105 140 188 245 298 355 425
#     4  12  27  48  71 104 149 188 239 302 362 427
#     4  12  25  46  75 109 141 189 247 298 351 428
#
# _framework density 26.139652000000002
#
# number of rings (size 3 to 8) (size 9 to 14) (size 15 to 20)
#    0.000    0.000    7.143    2.571    0.000    4.571 
#    0.000    2.857    0.000    0.000    0.000    0.000 
#    0.000    0.000    0.000    0.000    0.000    0.000 
#
# Total GULP energy -173608.328336 kJ/mol
# GULP energy per Si atom -12400.594881 kJ/mol
# Density = 2.608016 g / cm^3
# Si number density = 26.139652 Si / 1000 Ang^3
#
#
#
# Elastic Constant Matrix: (Units=GPa)
#
#
# Indices 1 2 3 4 5 6 
#
# 1 139.6107 32.0582 10.8497 -24.4239 -22.4474 -19.2176
# 2 32.0582 72.9125 23.9618 -33.2786 -4.5552 -15.3285
# 3 10.8497 23.9618 90.8308 -39.0001 -11.5162 -5.0753
# 4 -24.4239 -33.2786 -39.0001 37.1760 -3.9757 0.8150
# 5 -22.4474 -4.5552 -11.5162 -3.9757 42.8432 -14.7096
# 6 -19.2176 -15.3285 -5.0753 0.8150 -14.7096 35.9927
#
#
#
# Elastic Compliance Matrix: (Units=1/GPa)
#
#
# Indices 1 2 3 4 5 6 
#
# 1 0.032614 0.036385 0.042947 0.104491 0.063701 0.062632
# 2 0.036385 0.084707 0.068689 0.180051 0.097970 0.101149
# 3 0.042947 0.068689 0.090659 0.194080 0.108157 0.104775
# 4 0.104491 0.180051 0.194080 0.482358 0.258174 0.254427
# 5 0.063701 0.097970 0.108157 0.258174 0.173779 0.156160
# 6 0.062632 0.101149 0.104775 0.254427 0.156160 0.177135
#
#
# Mechanical properties :
#
#
# Convention : Reuss Voigt Hill
#
# Bulk Modulus (GPa) = 1.98404 48.56594 25.27499
# Shear Modulus (GPa) = 5.47515 38.96800 22.22158
#
# Velocity S-wave (km/s) = 1.44884 3.86523 2.91883
# Velocity P-wave (km/s) = 1.88666 6.20804 4.58799
#
# Compressibility (1/GPa) = 0.50402227
#
# Stress axis : x y z
#
# Youngs Moduli (GPa) = 30.66188 11.80534 11.03039
#
# Poissons Ratio (x) = -0.42954 -0.47372
# Poissons Ratio (y) = -1.11563 -0.75767
# Poissons Ratio (z) = -1.31684 -0.81090
#
# Static dielectric constant tensor:
#      x y z
#    x 5.313710 -0.245240 -0.159430 
#    y -0.245240 4.628140 -0.372870 
#    z -0.159430 -0.372870 4.554970 
# 
# 
# High freq. dielectric constant tensor:
#      x y z
#    x 2.068540 -0.012980 -0.018640 
#    y -0.012980 2.036070 -0.029350 
#    z -0.018640 -0.029350 2.038040 
# 
# From -- ./inp_files/332764.got.cif
#   From: 2010.06.25/outbox.cif.g09.slc.cpg/sg2_167_cif.got.tgz:332764.got - 2010.06.27 13:26:56.
