data_PCOD8036792
_publ_section_title
;
Structure prediction by ZEFSAII (Michael W. Deem and Ramdas Pophale) SiO2 
 PCOD8036792
Probable space group: P -1
;
_chemical_formula_sum "Si O2"
_cell_formula_units_Z 16
_cell_length_a 13.400926
_cell_length_b 9.597124
_cell_length_c 11.702144
_cell_angle_alpha 123.856141
_cell_angle_beta 116.750742
_cell_angle_gamma 108.707137
_cell_volume 711.203101
_symmetry_space_group_name_H-M "P -1"
_symmetry_group_IT_number 2
_symmetry_cell_setting 'triclinic'
loop_
_space_group_symop_operation_xyz
x,y,z
-x,-y,-z
loop_
_atom_site_type_symbol
_atom_site_label
_atom_site_fract_x
_atom_site_fract_y
_atom_site_fract_z
Si Si1 0.308513 0.525244 0.495151
Si Si2 0.174045 0.711979 0.614033
Si Si3 0.306470 0.021045 0.035184
Si Si4 0.846448 0.962669 0.681935
Si Si5 0.788926 0.113443 0.522115
Si Si6 0.232817 0.323065 0.112505
Si Si7 0.572091 0.208263 0.723527
Si Si8 0.868132 0.313230 0.000034
O O1 0.213894 0.576230 0.521948
O O2 0.515258 0.798344 0.719567
O O3 0.235397 0.412466 0.279048
O O4 0.279411 0.328863 0.469877
O O5 0.158511 0.833047 0.559908
O O6 0.000000 0.500000 0.500000
O O7 0.322123 0.948141 0.887079
O O8 0.265565 0.166828 0.066737
O O9 0.148610 0.760167 0.909620
O O10 0.803293 0.950726 0.520256
O O11 0.806871 0.089616 0.786459
O O12 0.044179 0.134084 0.874947
O O13 0.588411 0.946810 0.342931
O O14 0.928897 0.401257 0.789190
O O15 0.378580 0.563762 0.212194
O O16 0.743410 0.330703 0.928161
O O17 0.500000 0.000000 0.500000
#
# Coordination Sequence:
#
# PCOD8036792 Si02
#       8
#     2   2   2   2   2   2   2   2
#     4  12  26  45  72 108 141 186 236 297 355 420
#     4  12  26  49  72  97 140 196 240 282 353 431
#     4  12  26  46  72 104 144 183 239 292 355 423
#     4  12  24  42  69 107 145 180 235 293 356 416
#     4  12  25  45  69 103 143 193 233 291 354 423
#     4  12  25  45  72 112 143 184 234 297 356 422
#     4  12  23  40  69 105 147 181 231 290 358 424
#     4  12  23  43  68 106 143 184 230 295 358 416
#
# _framework density 22.497091000000001
#
# number of rings (size 3 to 8) (size 9 to 14) (size 15 to 20)
#    0.000    0.000    5.000    6.750    0.000    0.000 
#    0.000    6.250    0.000    0.000    0.000    0.000 
#    0.000    0.000    0.000    0.000    0.000    0.000 
#
# Total GULP energy -198450.508195 kJ/mol
# GULP energy per Si atom -12403.156762 kJ/mol
# Density = 2.244589 g / cm^3
# Si number density = 22.497091 Si / 1000 Ang^3
#
#
#
# Elastic Constant Matrix: (Units=GPa)
#
#
# Indices 1 2 3 4 5 6 
#
# 1 116.3397 48.7800 30.7757 0.2874 8.3223 -2.0696
# 2 48.7800 128.0695 15.0210 -1.4564 0.8577 8.0830
# 3 30.7757 15.0210 56.9678 4.3095 5.2121 0.3934
# 4 0.2874 -1.4564 4.3095 34.8683 5.4516 5.4727
# 5 8.3223 0.8577 5.2121 5.4516 43.6928 -0.8708
# 6 -2.0696 8.0830 0.3934 5.4727 -0.8708 36.8522
#
#
#
# Elastic Compliance Matrix: (Units=1/GPa)
#
#
# Indices 1 2 3 4 5 6 
#
# 1 0.011768 -0.003950 -0.005213 0.000393 -0.001561 0.001488
# 2 -0.003950 0.009525 -0.000464 0.000792 0.000474 -0.002413
# 3 -0.005213 -0.000464 0.020779 -0.002345 -0.001186 -0.000093
# 4 0.000393 0.000792 -0.002345 0.030316 -0.003687 -0.004716
# 5 -0.001561 0.000474 -0.001186 -0.003687 0.023795 0.000931
# 6 0.001488 -0.002413 -0.000093 -0.004716 0.000931 0.028471
#
#
# Mechanical properties :
#
#
# Convention : Reuss Voigt Hill
#
# Bulk Modulus (GPa) = 43.82570 54.50337 49.16453
# Shear Modulus (GPa) = 33.00010 36.86933 34.93471
#
# Velocity S-wave (km/s) = 3.83412 4.05266 3.94490
# Velocity P-wave (km/s) = 6.25488 6.79545 6.53076
#
# Compressibility (1/GPa) = 0.02281766
#
# Stress axis : x y z
#
# Youngs Moduli (GPa) = 84.97751 104.98412 48.12552
#
# Poissons Ratio (x) = 0.41466 0.25088
# Poissons Ratio (y) = 0.33564 0.02235
# Poissons Ratio (z) = 0.44299 0.04876
#
# Static dielectric constant tensor:
#      x y z
#    x 4.349520 -0.515730 0.306620 
#    y -0.515730 5.645640 -0.780720 
#    z 0.306620 -0.780720 4.490080 
# 
# 
# High freq. dielectric constant tensor:
#      x y z
#    x 1.868890 0.000390 0.026150 
#    y 0.000390 1.915910 0.001980 
#    z 0.026150 0.001980 1.884310 
# 
# From -- ./inp_files/436647.got.cif
#   From: 2010.06.25/outbox.cif.g09.slc.cpg/sg2_219_cif.got.tgz:436647.got - 2010.06.27 13:26:56.
