data_PCOD8036078
_publ_section_title
;
Structure prediction by ZEFSAII (Michael W. Deem and Ramdas Pophale) SiO2 
 PCOD8036078
Probable space group: P -1
;
_chemical_formula_sum "Si O2"
_cell_formula_units_Z 16
_cell_length_a 17.594183
_cell_length_b 5.073190
_cell_length_c 17.176359
_cell_angle_alpha 67.172833
_cell_angle_beta 147.910271
_cell_angle_gamma 96.727384
_cell_volume 677.014692
_symmetry_space_group_name_H-M "P -1"
_symmetry_group_IT_number 2
_symmetry_cell_setting 'triclinic'
loop_
_space_group_symop_operation_xyz
x,y,z
-x,-y,-z
loop_
_atom_site_type_symbol
_atom_site_label
_atom_site_fract_x
_atom_site_fract_y
_atom_site_fract_z
Si Si1 0.047899 0.741375 0.635981
Si Si2 0.623610 0.740891 0.585141
Si Si3 0.913864 0.286763 0.577648
Si Si4 0.577491 0.609070 0.983439
Si Si5 0.951614 0.619985 0.859637
Si Si6 0.540872 0.643948 0.231680
Si Si7 0.596370 0.279817 0.732212
Si Si8 0.928747 0.872054 0.108812
O O1 0.952687 0.550677 0.539223
O O2 0.235423 0.513965 0.826046
O O3 0.000000 0.000000 0.500000
O O4 0.985127 0.937286 0.640773
O O5 0.763712 0.838725 0.675273
O O6 0.676473 0.434511 0.722712
O O7 0.546516 0.740887 0.435447
O O8 0.500000 0.000000 0.500000
O O9 0.726872 0.411350 0.413342
O O10 0.007987 0.307537 0.735666
O O11 0.555954 0.440814 0.907324
O O12 0.493329 0.988894 0.852625
O O13 0.500000 0.500000 0.000000
O O14 0.971629 0.332833 0.853253
O O15 0.047403 0.810282 0.893141
O O16 0.000000 0.500000 0.000000
O O17 0.482223 0.558842 0.272850
O O18 0.744582 0.951524 0.923727
#
# Coordination Sequence:
#
# PCOD8036078 Si02
#       8
#     2   2   2   2   2   2   2   2
#     4  12  25  47  74 105 143 182 230 280 345 415
#     4  11  26  43  69  95 139 181 239 283 353 406
#     4  12  26  46  70 106 139 187 229 289 343 412
#     4  12  26  48  76 107 142 185 229 285 348 420
#     4  12  25  44  68  97 130 180 229 286 343 410
#     4  12  27  46  73 104 146 182 237 285 351 412
#     4  11  26  44  67 101 136 186 230 293 343 415
#     4  12  26  45  70  98 138 178 235 283 350 405
#
# _framework density 23.633165000000002
#
# number of rings (size 3 to 8) (size 9 to 14) (size 15 to 20)
#    0.000    0.250    1.250    7.875    7.000    0.000 
#    0.000    0.000    0.000    0.000    0.000    0.000 
#    0.000    0.000    0.000    0.000    0.000    0.000 
#
# Total GULP energy -198249.954232 kJ/mol
# GULP energy per Si atom -12390.622139 kJ/mol
# Density = 2.357938 g / cm^3
# Si number density = 23.633165 Si / 1000 Ang^3
#
#
#
# Elastic Constant Matrix: (Units=GPa)
#
#
# Indices 1 2 3 4 5 6 
#
# 1 88.4716 6.3569 40.2164 12.4273 11.7920 -21.1634
# 2 6.3569 90.4299 1.7047 4.9019 4.5944 -10.7624
# 3 40.2164 1.7047 110.3228 -2.1866 11.0786 -9.4111
# 4 12.4273 4.9019 -2.1866 37.1918 -8.2117 1.2425
# 5 11.7920 4.5944 11.0786 -8.2117 52.2836 3.2554
# 6 -21.1634 -10.7624 -9.4111 1.2425 3.2554 43.4418
#
#
#
# Elastic Compliance Matrix: (Units=1/GPa)
#
#
# Indices 1 2 3 4 5 6 
#
# 1 0.017192 0.000454 -0.005301 -0.007360 -0.004441 0.007882
# 2 0.000454 0.011621 0.000063 -0.002161 -0.001682 0.003302
# 3 -0.005301 0.000063 0.011107 0.002245 -0.000800 -0.000165
# 4 -0.007360 -0.002161 0.002245 0.031393 0.006618 -0.005028
# 5 -0.004441 -0.001682 -0.000800 0.006618 0.021770 -0.004574
# 6 0.007882 0.003302 -0.000165 -0.005028 -0.004574 0.028128
#
#
# Mechanical properties :
#
#
# Convention : Reuss Voigt Hill
#
# Bulk Modulus (GPa) = 32.94949 42.86447 37.90698
# Shear Modulus (GPa) = 35.48731 42.64654 39.06692
#
# Velocity S-wave (km/s) = 3.87924 4.25257 4.07019
# Velocity P-wave (km/s) = 5.83412 6.50302 6.17763
#
# Compressibility (1/GPa) = 0.03034948
#
# Stress axis : x y z
#
# Youngs Moduli (GPa) = 58.16807 86.05310 90.03602
#
# Poissons Ratio (x) = -0.03908 0.47732
# Poissons Ratio (y) = -0.02642 -0.00564
# Poissons Ratio (z) = 0.30838 -0.00539
#
# Static dielectric constant tensor:
#      x y z
#    x 2.230780 -4.155510 0.438950 
#    y -4.155510 -4.784370 1.294390 
#    z 0.438950 1.294390 4.209240 
# 
# 
# High freq. dielectric constant tensor:
#      x y z
#    x 1.951080 -0.002570 -0.004210 
#    y -0.002570 1.936830 0.005200 
#    z -0.004210 0.005200 1.960160 
# 
# From -- ./inp_files/525621.got.cif
#   From: 2010.06.25/outbox.cif.g09.slc.cpg/sg2_263_cif.got.tgz:525621.got - 2010.06.27 13:26:56.
