data_PCOD8036654
_publ_section_title
;
Structure prediction by ZEFSAII (Michael W. Deem and Ramdas Pophale) SiO2 
 PCOD8036654
Probable space group: P -1
;
_chemical_formula_sum "Si O2"
_cell_formula_units_Z 14
_cell_length_a 16.461911
_cell_length_b 8.861243
_cell_length_c 9.587056
_cell_angle_alpha 148.735499
_cell_angle_beta 122.306298
_cell_angle_gamma 58.608150
_cell_volume 606.875245
_symmetry_space_group_name_H-M "P -1"
_symmetry_group_IT_number 2
_symmetry_cell_setting 'triclinic'
loop_
_space_group_symop_operation_xyz
x,y,z
-x,-y,-z
loop_
_atom_site_type_symbol
_atom_site_label
_atom_site_fract_x
_atom_site_fract_y
_atom_site_fract_z
Si Si1 0.199634 0.390012 0.310309
Si Si2 0.066663 0.750323 0.281291
Si Si3 0.205865 0.969644 0.378074
Si Si4 0.314669 0.747004 0.875691
Si Si5 0.669981 0.551303 0.051005
Si Si6 0.060908 0.254162 0.272317
Si Si7 0.493073 0.675413 0.778755
O O1 0.173486 0.601410 0.320686
O O2 0.227077 0.585895 0.618932
O O3 0.089837 0.334139 0.205380
O O4 0.278907 0.099743 0.127514
O O5 0.105624 0.936095 0.338719
O O6 0.000000 0.000000 0.500000
O O7 0.000000 0.500000 0.000000
O O8 0.291189 0.132742 0.652458
O O9 0.168275 0.163182 0.363360
O O10 0.246295 0.645287 0.110815
O O11 0.352612 0.607318 0.949078
O O12 0.393082 0.665332 0.760373
O O13 0.575169 0.566468 0.880913
O O14 0.000000 0.500000 0.500000
O O15 0.000000 0.000000 0.000000
O O16 0.500000 0.500000 0.500000
O O17 0.500000 0.000000 0.000000
#
# Coordination Sequence:
#
# PCOD8036654 Si02
#       7
#     2   2   2   2   2   2   2
#     4  12  25  43  73 104 141 189 241 288 358 418
#     4  12  26  46  66 101 148 193 240 296 358 414
#     4  12  25  43  73 104 141 189 241 288 358 418
#     4  12  25  49  73 108 144 185 235 294 359 428
#     4  12  25  49  73 108 144 185 235 294 359 428
#     4  12  22  40  66 101 142 181 238 292 340 414
#     4  12  29  48  77 112 142 185 233 292 363 439
#
# _framework density 23.068992999999999
#
# number of rings (size 3 to 8) (size 9 to 14) (size 15 to 20)
#    0.000    0.000    2.857    7.286    6.000    0.000 
#    0.000    4.286    0.000    0.000    0.000    0.000 
#    0.000    0.000    0.000    0.000    0.000    0.000 
#
# Total GULP energy -173447.406680 kJ/mol
# GULP energy per Si atom -12389.100477 kJ/mol
# Density = 2.301649 g / cm^3
# Si number density = 23.068993 Si / 1000 Ang^3
#
#
#
# Elastic Constant Matrix: (Units=GPa)
#
#
# Indices 1 2 3 4 5 6 
#
# 1 118.9776 17.4540 33.1599 5.2057 -18.5619 10.9657
# 2 17.4540 124.4616 44.8155 -5.8704 -3.7573 -9.7296
# 3 33.1599 44.8155 155.0358 5.0400 -7.8526 1.4119
# 4 5.2057 -5.8704 5.0400 38.2955 -4.4527 3.9908
# 5 -18.5619 -3.7573 -7.8526 -4.4527 45.3012 2.1086
# 6 10.9657 -9.7296 1.4119 3.9908 2.1086 34.0910
#
#
#
# Elastic Compliance Matrix: (Units=1/GPa)
#
#
# Indices 1 2 3 4 5 6 
#
# 1 0.009949 -0.001010 -0.001593 -0.000476 0.003838 -0.003604
# 2 -0.001010 0.009411 -0.002586 0.001608 -0.000060 0.002933
# 3 -0.001593 -0.002586 0.007596 -0.001092 0.000362 -0.000435
# 4 -0.000476 0.001608 -0.001092 0.027142 0.002542 -0.002677
# 5 0.003838 -0.000060 0.000362 0.002542 0.024097 -0.003054
# 6 -0.003604 0.002933 -0.000435 -0.002677 -0.003054 0.031850
#
#
# Mechanical properties :
#
#
# Convention : Reuss Voigt Hill
#
# Bulk Modulus (GPa) = 60.32464 65.48154 62.90309
# Shear Modulus (GPa) = 39.69843 43.74058 41.71951
#
# Velocity S-wave (km/s) = 4.15282 4.35912 4.25722
# Velocity P-wave (km/s) = 7.01434 7.33366 7.17578
#
# Compressibility (1/GPa) = 0.01657697
#
# Stress axis : x y z
#
# Youngs Moduli (GPa) = 100.51422 106.26061 131.64189
#
# Poissons Ratio (x) = 0.10730 0.20975
# Poissons Ratio (y) = 0.10150 0.34048
# Poissons Ratio (z) = 0.16015 0.27483
#
# Static dielectric constant tensor:
#      x y z
#    x 4.352670 0.044930 0.300160 
#    y 0.044930 4.581790 -0.077600 
#    z 0.300160 -0.077600 4.344410 
# 
# 
# High freq. dielectric constant tensor:
#      x y z
#    x 1.924090 0.009120 0.000840 
#    y 0.009120 1.929660 0.004190 
#    z 0.000840 0.004190 1.924360 
# 
# From -- ./inp_files/218158.got.cif
#   From: 2010.06.25/outbox.cif.g09.slc.cpg/sg2_110_cif.got.tgz:218158.got - 2010.06.27 13:26:56.
