data_PCOD8036841
_publ_section_title
;
Structure prediction by ZEFSAII (Michael W. Deem and Ramdas Pophale) SiO2 
 PCOD8036841
Probable space group: P -1
;
_chemical_formula_sum "Si O2"
_cell_formula_units_Z 12
_cell_length_a 11.480744
_cell_length_b 9.220571
_cell_length_c 13.194853
_cell_angle_alpha 82.634493
_cell_angle_beta 147.875035
_cell_angle_gamma 119.930559
_cell_volume 495.287030
_symmetry_space_group_name_H-M "P -1"
_symmetry_group_IT_number 2
_symmetry_cell_setting 'triclinic'
loop_
_space_group_symop_operation_xyz
x,y,z
-x,-y,-z
loop_
_atom_site_type_symbol
_atom_site_label
_atom_site_fract_x
_atom_site_fract_y
_atom_site_fract_z
Si Si1 0.573389 0.697193 0.569964
Si Si2 0.353953 0.794366 0.971011
Si Si3 0.246583 0.948937 0.056762
Si Si4 0.189252 0.776552 0.240936
Si Si5 0.701095 0.413987 0.411542
Si Si6 0.469017 0.539784 0.088031
O O1 0.500000 0.500000 0.500000
O O2 0.308562 0.668193 0.320836
O O3 0.557581 0.699238 0.679442
O O4 0.957359 0.915426 0.806591
O O5 0.055676 0.575902 0.707569
O O6 0.265738 0.814777 0.013208
O O7 0.589874 0.769785 0.160908
O O8 0.500000 0.000000 0.000000
O O9 0.121904 0.824330 0.082695
O O10 0.586267 0.208972 0.285524
O O11 0.500000 0.000000 0.500000
O O12 0.891585 0.644173 0.111743
O O13 0.705474 0.555985 0.328200
O O14 0.500000 0.500000 0.000000
#
# Coordination Sequence:
#
# PCOD8036841 Si02
#       6
#     2   2   2   2   2   2
#     4  12  23  42  72 109 144 183 236 296 360 422
#     4  12  29  50  72 106 144 196 244 294 364 432
#     4  12  25  45  77 109 145 186 239 302 360 429
#     4  12  24  43  74 111 143 188 242 295 362 427
#     4  12  25  48  73 104 147 185 239 300 359 425
#     4  12  27  47  73 106 148 194 240 295 365 433
#
# _framework density 24.228372
#
# number of rings (size 3 to 8) (size 9 to 14) (size 15 to 20)
#    0.000    0.000    6.667    2.500    2.333    6.000 
#    0.000    0.000    0.000    0.000    0.000    0.000 
#    0.000    0.000    0.000    0.000    0.000    0.000 
#
# Total GULP energy -148700.162328 kJ/mol
# GULP energy per Si atom -12391.680194 kJ/mol
# Density = 2.417323 g / cm^3
# Si number density = 24.228372 Si / 1000 Ang^3
#
#
#
# Elastic Constant Matrix: (Units=GPa)
#
#
# Indices 1 2 3 4 5 6 
#
# 1 104.2821 40.6510 24.8413 -10.7551 8.0724 -4.7903
# 2 40.6510 159.7710 30.4491 -11.8828 -1.5454 -1.7555
# 3 24.8413 30.4491 82.2216 6.5977 -12.7885 -8.1298
# 4 -10.7551 -11.8828 6.5977 46.1529 2.2173 -3.0676
# 5 8.0724 -1.5454 -12.7885 2.2173 19.3705 -4.9567
# 6 -4.7903 -1.7555 -8.1298 -3.0676 -4.9567 40.3781
#
#
#
# Elastic Compliance Matrix: (Units=1/GPa)
#
#
# Indices 1 2 3 4 5 6 
#
# 1 0.012589 -0.002134 -0.004738 0.003470 -0.009044 -0.000400
# 2 -0.002134 0.007362 -0.002299 0.001722 -0.000316 -0.000304
# 3 -0.004738 -0.002299 0.017592 -0.004643 0.015057 0.004376
# 4 0.003470 0.001722 -0.004643 0.023952 -0.006984 0.000514
# 5 -0.009044 -0.000316 0.015057 -0.006984 0.068627 0.009839
# 6 -0.000400 -0.000304 0.004376 0.000514 0.009839 0.026833
#
#
# Mechanical properties :
#
#
# Convention : Reuss Voigt Hill
#
# Bulk Modulus (GPa) = 52.07895 59.79527 55.93711
# Shear Modulus (GPa) = 27.51826 37.86917 32.69371
#
# Velocity S-wave (km/s) = 3.37380 3.95778 3.67740
# Velocity P-wave (km/s) = 6.05957 6.75417 6.41628
#
# Compressibility (1/GPa) = 0.01920162
#
# Stress axis : x y z
#
# Youngs Moduli (GPa) = 79.43142 135.83819 56.84346
#
# Poissons Ratio (x) = 0.28988 0.26932
# Poissons Ratio (y) = 0.16951 0.13067
# Poissons Ratio (z) = 0.37634 0.31227
#
# Static dielectric constant tensor:
#      x y z
#    x 4.488160 -0.219540 0.176690 
#    y -0.219540 4.369810 0.363870 
#    z 0.176690 0.363870 3.817050 
# 
# 
# High freq. dielectric constant tensor:
#      x y z
#    x 1.965130 -0.008370 -0.003600 
#    y -0.008370 1.980050 -0.006930 
#    z -0.003600 -0.006930 1.955880 
# 
# From -- ./inp_files/514387.got.cif
#   From: 2010.06.25/outbox.cif.g09.slc.cpg/sg2_258_cif.got.tgz:514387.got - 2010.06.27 13:26:56.
