data_PCOD8036355
_publ_section_title
;
Structure prediction by ZEFSAII (Michael W. Deem and Ramdas Pophale) SiO2 
 PCOD8036355
Probable space group: P -1
;
_chemical_formula_sum "Si O2"
_cell_formula_units_Z 16
_cell_length_a 20.097859
_cell_length_b 9.584097
_cell_length_c 9.252866
_cell_angle_alpha 92.708153
_cell_angle_beta 111.437558
_cell_angle_gamma 138.639112
_cell_volume 934.503210
_symmetry_space_group_name_H-M "P -1"
_symmetry_group_IT_number 2
_symmetry_cell_setting 'triclinic'
loop_
_space_group_symop_operation_xyz
x,y,z
-x,-y,-z
loop_
_atom_site_type_symbol
_atom_site_label
_atom_site_fract_x
_atom_site_fract_y
_atom_site_fract_z
Si Si1 0.425831 0.138343 0.068868
Si Si2 0.023496 0.089904 0.683560
Si Si3 0.559719 0.554876 0.400645
Si Si4 0.619422 0.212433 0.292186
Si Si5 0.763686 0.379483 0.127086
Si Si6 0.519583 0.746358 0.202214
Si Si7 0.762939 0.652466 0.621472
Si Si8 0.746574 0.599756 0.943389
O O1 0.451413 0.291875 0.219188
O O2 0.500110 0.112498 0.145292
O O3 0.465259 0.267793 0.954077
O O4 0.277332 0.849039 0.938330
O O5 0.897948 0.890526 0.667400
O O6 0.000000 0.000000 0.500000
O O7 0.084044 0.345819 0.736996
O O8 0.128213 0.158436 0.849714
O O9 0.500000 0.500000 0.500000
O O10 0.597056 0.754744 0.353141
O O11 0.685046 0.666047 0.524129
O O12 0.712552 0.355061 0.237576
O O13 0.692372 0.402001 0.492499
O O14 0.575469 0.988318 0.297532
O O15 0.705133 0.376011 0.947272
O O16 0.372025 0.491670 0.118445
O O17 0.781221 0.662823 0.806303
#
# Coordination Sequence:
#
# PCOD8036355 Si02
#       8
#     2   2   2   2   2   2   2   2
#     4  10  18  34  56  79 106 143 186 219 274 314
#     4  10  19  35  57  82 108 135 186 232 269 302
#     4  11  24  35  52  79 120 147 172 220 272 333
#     4  10  17  31  57  81 108 136 180 228 271 316
#     4   9  17  32  55  82 102 135 174 236 264 308
#     4  11  19  36  53  85 110 142 178 223 272 330
#     4  11  21  34  54  83 112 146 176 219 273 325
#     4  10  19  31  55  80 111 135 178 220 273 309
#
# _framework density 17.121397000000002
#
# number of rings (size 3 to 8) (size 9 to 14) (size 15 to 20)
#    0.750    1.000    5.000    1.500    1.750    1.500 
#    0.000    0.000    0.000    5.250    0.000    0.000 
#    0.000    0.000    0.000    0.000    0.000    0.000 
#
# Total GULP energy -198260.170743 kJ/mol
# GULP energy per Si atom -12391.260671 kJ/mol
# Density = 1.708243 g / cm^3
# Si number density = 17.121397 Si / 1000 Ang^3
#
#
#
# Elastic Constant Matrix: (Units=GPa)
#
#
# Indices 1 2 3 4 5 6 
#
# 1 69.7370 45.3794 46.1778 -6.1445 -4.9613 1.2816
# 2 45.3794 89.1489 58.5740 -8.4696 -2.7827 3.4718
# 3 46.1778 58.5740 123.6648 -11.5154 -12.3277 4.5833
# 4 -6.1445 -8.4696 -11.5154 28.0185 6.3030 3.3560
# 5 -4.9613 -2.7827 -12.3277 6.3030 24.5738 -3.1915
# 6 1.2816 3.4718 4.5833 3.3560 -3.1915 30.5714
#
#
#
# Elastic Compliance Matrix: (Units=1/GPa)
#
#
# Indices 1 2 3 4 5 6 
#
# 1 0.023067 -0.008919 -0.004247 0.000162 0.001583 0.000830
# 2 -0.008919 0.020033 -0.006212 0.002529 -0.003507 -0.001613
# 3 -0.004247 -0.006212 0.013258 0.001715 0.004544 -0.000818
# 4 0.000162 0.002529 0.001715 0.040139 -0.009894 -0.005990
# 5 0.001583 -0.003507 0.004544 -0.009894 0.046155 0.005555
# 6 0.000830 -0.001613 -0.000818 -0.005990 0.005555 0.034219
#
#
# Mechanical properties :
#
#
# Convention : Reuss Voigt Hill
#
# Bulk Modulus (GPa) = 56.81541 64.75700 60.78621
# Shear Modulus (GPa) = 22.57406 25.46071 24.01739
#
# Velocity S-wave (km/s) = 3.63501 3.86044 3.74942
# Velocity P-wave (km/s) = 7.13258 7.60099 7.37051
#
# Compressibility (1/GPa) = 0.01760086
#
# Stress axis : x y z
#
# Youngs Moduli (GPa) = 43.35158 49.91876 75.42793
#
# Poissons Ratio (x) = 0.44523 0.32034
# Poissons Ratio (y) = 0.38666 0.46858
# Poissons Ratio (z) = 0.18411 0.31011
#
# Static dielectric constant tensor:
#      x y z
#    x 3.004510 0.037430 -0.004350 
#    y 0.037430 3.280320 -0.000070 
#    z -0.004350 -0.000070 3.339230 
# 
# 
# High freq. dielectric constant tensor:
#      x y z
#    x 1.630150 0.008320 -0.014100 
#    y 0.008320 1.666590 -0.005190 
#    z -0.014100 -0.005190 1.664080 
# 
# From -- ./inp_files/302398.got.cif
#   From: 2010.06.25/outbox.cif.g09.slc.cpg/sg2_152_cif.got.tgz:302398.got - 2010.06.27 13:26:56.
