data_PCOD8036760
_publ_section_title
;
Structure prediction by ZEFSAII (Michael W. Deem and Ramdas Pophale) SiO2 
 PCOD8036760
Probable space group: P -1
;
_chemical_formula_sum "Si O2"
_cell_formula_units_Z 16
_cell_length_a 18.070049
_cell_length_b 7.954325
_cell_length_c 11.521090
_cell_angle_alpha 105.051974
_cell_angle_beta 142.947943
_cell_angle_gamma 48.535818
_cell_volume 600.835226
_symmetry_space_group_name_H-M "P -1"
_symmetry_group_IT_number 2
_symmetry_cell_setting 'triclinic'
loop_
_space_group_symop_operation_xyz
x,y,z
-x,-y,-z
loop_
_atom_site_type_symbol
_atom_site_label
_atom_site_fract_x
_atom_site_fract_y
_atom_site_fract_z
Si Si1 0.868716 0.464730 0.191229
Si Si2 0.408943 0.905620 0.373652
Si Si3 0.439702 0.875611 0.047749
Si Si4 0.067225 0.121549 0.602826
Si Si5 0.796979 0.822161 0.610908
Si Si6 0.500927 0.734210 0.847295
Si Si7 0.672085 0.441266 0.456081
Si Si8 0.015849 0.263981 0.815748
O O1 0.008510 0.297648 0.448229
O O2 0.004497 0.308881 0.217727
O O3 0.713238 0.473991 0.002049
O O4 0.718062 0.794856 0.068912
O O5 0.581644 0.580550 0.494564
O O6 0.500000 0.000000 0.500000
O O7 0.322170 0.939284 0.395812
O O8 0.237844 0.056903 0.092114
O O9 0.590154 0.678724 0.306168
O O10 0.551034 0.755178 0.041053
O O11 0.304525 0.851013 0.860580
O O12 0.989854 0.309590 0.652490
O O13 0.000000 0.000000 0.500000
O O14 0.868785 0.578051 0.732569
O O15 0.634892 0.965541 0.332354
O O16 0.370255 0.705566 0.667217
O O17 0.912122 0.198594 0.717985
#
# Coordination Sequence:
#
# PCOD8036760 Si02
#       8
#     2   2   2   2   2   2   2   2
#     4  12  25  44  72 109 156 191 239 298 366 433
#     4  12  28  49  79 104 137 193 258 302 355 425
#     4  12  22  46  72 109 149 190 243 295 364 447
#     4  12  23  41  73 109 152 191 232 293 371 442
#     4  12  26  45  73 106 139 192 247 302 356 419
#     4  12  27  44  72 109 154 189 236 299 372 437
#     4  12  26  47  75 106 145 193 242 303 368 430
#     4  12  25  46  78 105 142 189 247 299 363 435
#
# _framework density 26.629595999999999
#
# number of rings (size 3 to 8) (size 9 to 14) (size 15 to 20)
#    0.000    0.000    5.000    5.250    1.750    0.500 
#    0.000    1.250    0.000    0.000    0.000    0.000 
#    0.000    0.000    0.000    0.000    0.000    0.000 
#
# Total GULP energy -198228.473274 kJ/mol
# GULP energy per Si atom -12389.279580 kJ/mol
# Density = 2.656899 g / cm^3
# Si number density = 26.629596 Si / 1000 Ang^3
#
#
#
# Elastic Constant Matrix: (Units=GPa)
#
#
# Indices 1 2 3 4 5 6 
#
# 1 131.1490 31.6211 34.3481 4.4647 28.1341 -36.7226
# 2 31.6211 61.1848 5.1233 8.8965 0.3493 -21.0737
# 3 34.3481 5.1233 113.1398 10.8811 33.0983 -3.7652
# 4 4.4647 8.8965 10.8811 32.7040 -0.8097 5.5927
# 5 28.1341 0.3493 33.0983 -0.8097 50.2956 -3.6026
# 6 -36.7226 -21.0737 -3.7652 5.5927 -3.6026 39.1079
#
#
#
# Elastic Compliance Matrix: (Units=1/GPa)
#
#
# Indices 1 2 3 4 5 6 
#
# 1 0.012789 -0.002529 -0.001621 -0.002420 -0.005368 0.010341
# 2 -0.002529 0.022557 0.000370 -0.007767 0.001684 0.011081
# 3 -0.001621 0.000370 0.011689 -0.003892 -0.006870 -0.000274
# 4 -0.002420 -0.007767 -0.003892 0.036408 0.003717 -0.011697
# 5 -0.005368 0.001684 -0.006870 0.003717 0.027253 -0.002816
# 6 0.010341 0.011081 -0.000274 -0.011697 -0.002816 0.042639
#
#
# Mechanical properties :
#
#
# Convention : Reuss Voigt Hill
#
# Bulk Modulus (GPa) = 25.33353 49.73984 37.53668
# Shear Modulus (GPa) = 28.72698 40.04693 34.38695
#
# Velocity S-wave (km/s) = 3.28801 3.88216 3.59737
# Velocity P-wave (km/s) = 4.89374 6.23007 5.60190
#
# Compressibility (1/GPa) = 0.03947338
#
# Stress axis : x y z
#
# Youngs Moduli (GPa) = 78.19369 44.33294 85.55046
#
# Poissons Ratio (x) = 0.11213 0.13866
# Poissons Ratio (y) = 0.19778 -0.03163
# Poissons Ratio (z) = 0.12674 -0.01639
#
# Static dielectric constant tensor:
#      x y z
#    x 5.295490 -0.037160 0.603950 
#    y -0.037160 4.842000 0.200260 
#    z 0.603950 0.200260 5.402860 
# 
# 
# High freq. dielectric constant tensor:
#      x y z
#    x 2.081620 -0.009780 0.033480 
#    y -0.009780 2.050840 -0.002730 
#    z 0.033480 -0.002730 2.077260 
# 
# From -- ./inp_files/462259.got.cif
#   From: 2010.06.25/outbox.cif.g09.slc.cpg/sg2_232_cif.got.tgz:462259.got - 2010.06.27 13:26:56.
