data_PCOD8036228
_publ_section_title
;
Structure prediction by ZEFSAII (Michael W. Deem and Ramdas Pophale) SiO2 
 PCOD8036228
Probable space group: P -1
;
_chemical_formula_sum "Si O2"
_cell_formula_units_Z 12
_cell_length_a 14.214623
_cell_length_b 13.385041
_cell_length_c 8.944056
_cell_angle_alpha 62.678642
_cell_angle_beta 61.696267
_cell_angle_gamma 20.314476
_cell_volume 519.589559
_symmetry_space_group_name_H-M "P -1"
_symmetry_group_IT_number 2
_symmetry_cell_setting 'triclinic'
loop_
_space_group_symop_operation_xyz
x,y,z
-x,-y,-z
loop_
_atom_site_type_symbol
_atom_site_label
_atom_site_fract_x
_atom_site_fract_y
_atom_site_fract_z
Si Si1 0.942235 0.926241 0.776818
Si Si2 0.886269 0.718803 0.517440
Si Si3 0.231879 0.286810 0.092235
Si Si4 0.306939 0.616649 0.455256
Si Si5 0.426664 0.320606 0.347238
Si Si6 0.610583 0.620971 0.003200
O O1 0.086470 0.760259 0.622207
O O2 0.165741 0.687378 0.901780
O O3 0.854867 0.141890 0.699207
O O4 0.669759 0.113793 0.871403
O O5 0.814578 0.759621 0.713060
O O6 0.000000 0.500000 0.500000
O O7 0.110915 0.597907 0.423044
O O8 0.614552 0.028767 0.428598
O O9 0.247263 0.395573 0.077275
O O10 0.000000 0.500000 0.000000
O O11 0.500000 0.000000 0.000000
O O12 0.500000 0.500000 0.500000
O O13 0.493395 0.353184 0.395468
O O14 0.467194 0.327957 0.144707
#
# Coordination Sequence:
#
# PCOD8036228 Si02
#       6
#     2   2   2   2   2   2
#     4  11  26  46  76  99 152 177 244 300 355 427
#     4  12  27  50  72 106 149 190 239 295 354 436
#     4  12  28  43  72 107 143 188 240 297 355 416
#     4  11  27  50  74 110 141 193 240 296 368 431
#     4  12  29  45  79 104 146 194 240 289 365 423
#     4  12  26  47  70 109 141 192 241 296 358 425
#
# _framework density 23.095153
#
# number of rings (size 3 to 8) (size 9 to 14) (size 15 to 20)
#    0.000    0.333    3.333    3.500   14.000    1.333 
#    0.000    0.000    0.000    0.000    0.000    0.000 
#    0.000    0.000    0.000    0.000    0.000    0.000 
#
# Total GULP energy -148850.056967 kJ/mol
# GULP energy per Si atom -12404.171414 kJ/mol
# Density = 2.304259 g / cm^3
# Si number density = 23.095153 Si / 1000 Ang^3
#
#
#
# Elastic Constant Matrix: (Units=GPa)
#
#
# Indices 1 2 3 4 5 6 
#
# 1 103.2239 30.0661 34.5169 2.1048 17.3860 9.4203
# 2 30.0661 147.0686 64.2385 -14.1653 7.4072 -0.4715
# 3 34.5169 64.2385 158.4914 -16.1100 0.7641 -2.2569
# 4 2.1048 -14.1653 -16.1100 52.3703 -5.7848 -7.7918
# 5 17.3860 7.4072 0.7641 -5.7848 31.1099 6.0977
# 6 9.4203 -0.4715 -2.2569 -7.7918 6.0977 46.4962
#
#
#
# Elastic Compliance Matrix: (Units=1/GPa)
#
#
# Indices 1 2 3 4 5 6 
#
# 1 0.012238 -0.001403 -0.002365 -0.002645 -0.006508 -0.002198
# 2 -0.001403 0.008597 -0.003021 0.001427 -0.001041 0.000600
# 3 -0.002365 -0.003021 0.008275 0.002192 0.002060 0.000948
# 4 -0.002645 0.001427 0.002192 0.021283 0.004325 0.003656
# 5 -0.006508 -0.001041 0.002060 0.004325 0.037324 -0.002762
# 6 -0.002198 0.000600 0.000948 0.003656 -0.002762 0.022979
#
#
# Mechanical properties :
#
#
# Convention : Reuss Voigt Hill
#
# Bulk Modulus (GPa) = 64.37776 74.04743 69.21260
# Shear Modulus (GPa) = 38.62412 44.65945 41.64179
#
# Velocity S-wave (km/s) = 4.09392 4.40217 4.25084
# Velocity P-wave (km/s) = 7.09101 7.61383 7.35707
#
# Compressibility (1/GPa) = 0.01553331
#
# Stress axis : x y z
#
# Youngs Moduli (GPa) = 81.71323 116.31326 120.84129
#
# Poissons Ratio (x) = 0.16315 0.28585
# Poissons Ratio (y) = 0.11462 0.36501
# Poissons Ratio (z) = 0.19329 0.35133
#
# Static dielectric constant tensor:
#      x y z
#    x 4.065180 0.022960 -0.157530 
#    y 0.022960 4.366830 0.019110 
#    z -0.157530 0.019110 4.431530 
# 
# 
# High freq. dielectric constant tensor:
#      x y z
#    x 1.893690 -0.003490 -0.006690 
#    y -0.003490 1.931730 0.001010 
#    z -0.006690 0.001010 1.931550 
# 
# From -- ./inp_files/89645.got.cif
#   From: 2010.06.25/outbox.cif.g09.slc.cpg/sg2_45_cif.got.tgz:89645.got - 2010.06.27 13:26:56.
