data_PCOD8036250
_publ_section_title
;
Structure prediction by ZEFSAII (Michael W. Deem and Ramdas Pophale) SiO2 
 PCOD8036250
Probable space group: P -1
;
_chemical_formula_sum "Si O2"
_cell_formula_units_Z 12
_cell_length_a 8.649823
_cell_length_b 10.011433
_cell_length_c 13.475893
_cell_angle_alpha 112.699175
_cell_angle_beta 115.671385
_cell_angle_gamma 29.776316
_cell_volume 522.205507
_symmetry_space_group_name_H-M "P -1"
_symmetry_group_IT_number 2
_symmetry_cell_setting 'triclinic'
loop_
_space_group_symop_operation_xyz
x,y,z
-x,-y,-z
loop_
_atom_site_type_symbol
_atom_site_label
_atom_site_fract_x
_atom_site_fract_y
_atom_site_fract_z
Si Si1 0.020901 0.590720 0.388339
Si Si2 0.135660 0.900345 0.273080
Si Si3 0.138943 0.600642 0.638456
Si Si4 0.615999 0.101159 0.302994
Si Si5 0.157549 0.754787 0.024692
Si Si6 0.222105 0.252050 0.062222
O O1 0.971509 0.695886 0.512834
O O2 0.393337 0.340995 0.390091
O O3 0.930522 0.484972 0.333042
O O4 0.779352 0.840800 0.317357
O O5 0.484453 0.653001 0.346674
O O6 0.152715 0.782880 0.149477
O O7 0.017015 0.146236 0.282148
O O8 0.892038 0.012441 0.319056
O O9 0.368849 0.243941 0.187317
O O10 0.500000 0.500000 0.000000
O O11 0.971331 0.741907 0.941734
O O12 0.000000 0.000000 0.000000
O O13 0.000000 0.500000 0.000000
O O14 0.500000 0.000000 0.000000
#
# Coordination Sequence:
#
# PCOD8036250 Si02
#       6
#     2   2   2   2   2   2
#     4  11  26  47  71 104 137 185 231 282 350 412
#     4  12  26  45  71 105 139 182 229 290 341 407
#     4  11  26  47  72 101 144 178 230 291 343 408
#     4  12  26  44  74 103 137 186 231 279 348 412
#     4  12  28  46  70 105 138 182 232 283 345 407
#     4  12  26  48  70 100 143 182 224 285 344 412
#
# _framework density 22.979458999999999
#
# number of rings (size 3 to 8) (size 9 to 14) (size 15 to 20)
#    0.000    0.333    1.667    6.000    9.333    6.667 
#    0.000    0.000    0.000    0.000    0.000    0.000 
#    0.000    0.000    0.000    0.000    0.000    0.000 
#
# Total GULP energy -148872.309912 kJ/mol
# GULP energy per Si atom -12406.025826 kJ/mol
# Density = 2.292716 g / cm^3
# Si number density = 22.979459 Si / 1000 Ang^3
#
#
#
# Elastic Constant Matrix: (Units=GPa)
#
#
# Indices 1 2 3 4 5 6 
#
# 1 108.0372 35.9932 10.0600 -6.7679 4.0955 -8.6113
# 2 35.9932 167.4205 18.5432 -7.6645 -1.7316 1.3762
# 3 10.0600 18.5432 55.0728 -4.1541 0.3807 0.4605
# 4 -6.7679 -7.6645 -4.1541 44.1533 -4.9090 -8.6102
# 5 4.0955 -1.7316 0.3807 -4.9090 37.7723 2.0626
# 6 -8.6113 1.3762 0.4605 -8.6102 2.0626 52.6029
#
#
#
# Elastic Compliance Matrix: (Units=1/GPa)
#
#
# Indices 1 2 3 4 5 6 
#
# 1 0.010338 -0.002066 -0.001097 0.001392 -0.001134 0.002028
# 2 -0.002066 0.006659 -0.001816 0.000661 0.000656 -0.000414
# 3 -0.001097 -0.001816 0.019068 0.001295 0.000017 -0.000088
# 4 0.001392 0.000661 0.001295 0.024198 0.002790 0.004051
# 5 -0.001134 0.000656 0.000017 0.002790 0.027034 -0.000806
# 6 0.002028 -0.000414 -0.000088 0.004051 -0.000806 0.020049
#
#
# Mechanical properties :
#
#
# Convention : Reuss Voigt Hill
#
# Bulk Modulus (GPa) = 38.30308 51.08036 44.69172
# Shear Modulus (GPa) = 39.68070 44.63465 42.15767
#
# Velocity S-wave (km/s) = 4.15997 4.41202 4.28785
# Velocity P-wave (km/s) = 6.30701 6.94489 6.63362
#
# Compressibility (1/GPa) = 0.02610756
#
# Stress axis : x y z
#
# Youngs Moduli (GPa) = 96.72722 150.18050 52.44409
#
# Poissons Ratio (x) = 0.31024 0.05753
# Poissons Ratio (y) = 0.19982 0.09523
# Poissons Ratio (z) = 0.10611 0.27271
#
# Static dielectric constant tensor:
#      x y z
#    x 4.414690 -0.106040 -0.162090 
#    y -0.106040 4.260420 0.316180 
#    z -0.162090 0.316180 5.957690 
# 
# 
# High freq. dielectric constant tensor:
#      x y z
#    x 1.922330 -0.005500 -0.002950 
#    y -0.005500 1.927960 0.001750 
#    z -0.002950 0.001750 1.907580 
# 
# From -- ./inp_files/97390.got.cif
#   From: 2010.06.25/outbox.cif.g09.slc.cpg/sg2_49_cif.got.tgz:97390.got - 2010.06.27 13:26:56.
