data_PCOD8036466
_publ_section_title
;
Structure prediction by ZEFSAII (Michael W. Deem and Ramdas Pophale) SiO2 
 PCOD8036466
Probable space group: P -1
;
_chemical_formula_sum "Si O2"
_cell_formula_units_Z 14
_cell_length_a 5.378816
_cell_length_b 19.915426
_cell_length_c 9.574646
_cell_angle_alpha 144.466884
_cell_angle_beta 61.810470
_cell_angle_gamma 111.948420
_cell_volume 525.265510
_symmetry_space_group_name_H-M "P -1"
_symmetry_group_IT_number 2
_symmetry_cell_setting 'triclinic'
loop_
_space_group_symop_operation_xyz
x,y,z
-x,-y,-z
loop_
_atom_site_type_symbol
_atom_site_label
_atom_site_fract_x
_atom_site_fract_y
_atom_site_fract_z
Si Si1 0.705775 0.836869 0.858865
Si Si2 0.728324 0.855844 0.387869
Si Si3 0.168792 0.773408 0.446480
Si Si4 0.040016 0.640884 0.992010
Si Si5 0.286655 0.573683 0.275246
Si Si6 0.457199 0.613752 0.612540
Si Si7 0.938995 0.067502 0.833184
O O1 0.706992 0.706754 0.704288
O O2 0.856872 0.830456 0.654812
O O3 0.381391 0.880233 0.001887
O O4 0.912628 0.916079 0.029670
O O5 0.390569 0.876376 0.530194
O O6 0.756790 0.720172 0.191718
O O7 0.838033 0.879778 0.244631
O O8 0.911032 0.931257 0.575458
O O9 0.195623 0.680428 0.157735
O O10 0.238000 0.702976 0.451944
O O11 0.199471 0.677357 0.869839
O O12 0.998043 0.502703 0.778251
O O13 0.391932 0.579523 0.414803
O O14 0.500000 0.500000 0.000000
O O15 0.500000 0.500000 0.500000
#
# Coordination Sequence:
#
# PCOD8036466 Si02
#       7
#     2   2   2   2   2   2   2
#     4  12  27  49  77 111 160 193 259 319 391 447
#     4  11  27  48  78 106 153 201 264 311 387 452
#     4  12  27  46  77 111 156 202 249 323 392 457
#     4  12  25  46  74 107 152 200 261 308 384 459
#     4  12  24  45  74 112 157 198 251 317 390 458
#     4  12  26  45  76 112 151 205 256 312 380 466
#     4  11  28  51  79 112 150 208 258 324 375 464
#
# _framework density 26.653186999999999
#
# number of rings (size 3 to 8) (size 9 to 14) (size 15 to 20)
#    0.000    0.286    2.857    5.143    6.000    2.286 
#    0.000    0.000    0.000    0.000    0.000    0.000 
#    0.000    0.000    0.000    0.000    0.000    0.000 
#
# Total GULP energy -173518.454879 kJ/mol
# GULP energy per Si atom -12394.175348 kJ/mol
# Density = 2.659252 g / cm^3
# Si number density = 26.653187 Si / 1000 Ang^3
#
#
#
# Elastic Constant Matrix: (Units=GPa)
#
#
# Indices 1 2 3 4 5 6 
#
# 1 99.9157 30.6065 38.8660 -25.0442 12.0803 25.9083
# 2 30.6065 88.7406 38.5764 -30.8123 -10.0580 28.6627
# 3 38.8660 38.5764 134.8047 -31.2843 17.2363 8.9388
# 4 -25.0442 -30.8123 -31.2843 55.6991 0.8828 -2.0744
# 5 12.0803 -10.0580 17.2363 0.8828 51.9603 -7.4049
# 6 25.9083 28.6627 8.9388 -2.0744 -7.4049 50.2746
#
#
#
# Elastic Compliance Matrix: (Units=1/GPa)
#
#
# Indices 1 2 3 4 5 6 
#
# 1 0.014500 -0.000607 -0.001881 0.004923 -0.003971 -0.007174
# 2 -0.000607 0.019008 -0.003240 0.008028 0.003461 -0.009107
# 3 -0.001881 -0.003240 0.009996 0.003056 -0.003464 0.000655
# 4 0.004923 0.008028 0.003056 0.026101 -0.002028 -0.006879
# 5 -0.003971 0.003461 -0.003464 -0.002028 0.022583 0.003932
# 6 -0.007174 -0.009107 0.000655 -0.006879 0.003932 0.028959
#
#
# Mechanical properties :
#
#
# Convention : Reuss Voigt Hill
#
# Bulk Modulus (GPa) = 31.20234 59.95099 45.57666
# Shear Modulus (GPa) = 34.89543 45.94760 40.42152
#
# Velocity S-wave (km/s) = 3.62227 4.15650 3.89855
# Velocity P-wave (km/s) = 5.40617 6.75108 6.11571
#
# Compressibility (1/GPa) = 0.03204888
#
# Stress axis : x y z
#
# Youngs Moduli (GPa) = 68.96383 52.60960 100.03682
#
# Poissons Ratio (x) = 0.03193 0.18817
# Poissons Ratio (y) = 0.04186 0.32411
# Poissons Ratio (z) = 0.12972 0.17045
#
# Static dielectric constant tensor:
#      x y z
#    x 4.636280 0.536820 -0.358070 
#    y 0.536820 5.416820 -0.350290 
#    z -0.358070 -0.350290 5.443940 
# 
# 
# High freq. dielectric constant tensor:
#      x y z
#    x 2.057570 0.014090 -0.011500 
#    y 0.014090 2.091580 -0.007990 
#    z -0.011500 -0.007990 2.092020 
# 
# From -- ./inp_files/139599.got.cif
#   From: 2010.06.25/outbox.cif.g09.slc.cpg/sg2_70_cif.got.tgz:139599.got - 2010.06.27 13:26:56.
