data_PCOD8036818
_publ_section_title
;
Structure prediction by ZEFSAII (Michael W. Deem and Ramdas Pophale) SiO2 
 PCOD8036818
Probable space group: P -1
;
_chemical_formula_sum "Si O2"
_cell_formula_units_Z 14
_cell_length_a 15.255009
_cell_length_b 27.676036
_cell_length_c 15.305453
_cell_angle_alpha 20.289128
_cell_angle_beta 161.480868
_cell_angle_gamma 160.951403
_cell_volume 613.383913
_symmetry_space_group_name_H-M "P -1"
_symmetry_group_IT_number 2
_symmetry_cell_setting 'triclinic'
loop_
_space_group_symop_operation_xyz
x,y,z
-x,-y,-z
loop_
_atom_site_type_symbol
_atom_site_label
_atom_site_fract_x
_atom_site_fract_y
_atom_site_fract_z
Si Si1 0.190159 0.163124 0.847982
Si Si2 0.472376 0.832614 0.230015
Si Si3 0.929992 0.745500 0.734852
Si Si4 0.628197 0.614419 0.203801
Si Si5 0.303843 0.879884 0.686472
Si Si6 0.635024 0.382478 0.342035
Si Si7 0.309063 0.752438 0.551229
O O1 0.239545 0.315493 0.693487
O O2 0.996479 0.141898 0.613449
O O3 0.542490 0.207733 0.073464
O O4 0.000000 0.000000 0.000000
O O5 0.780482 0.862111 0.413332
O O6 0.500148 0.734137 0.504626
O O7 0.129867 0.732131 0.027779
O O8 0.500000 0.000000 0.000000
O O9 0.628099 0.573350 0.717914
O O10 0.181349 0.808494 0.787162
O O11 0.924280 0.640713 0.379056
O O12 0.466832 0.711702 0.849468
O O13 0.592285 0.062759 0.659097
O O14 0.554721 0.269356 0.373894
O O15 0.000000 0.500000 0.500000
O O16 0.500000 0.500000 0.000000
#
# Coordination Sequence:
#
# PCOD8036818 Si02
#       7
#     2   2   2   2   2   2   2
#     4  12  23  44  70 103 133 179 234 285 351 415
#     4  12  26  48  72 100 147 193 235 290 356 427
#     4  12  27  46  68 107 141 185 235 291 359 414
#     4  12  25  42  70  97 142 178 224 292 351 410
#     4  12  25  43  70  99 136 176 238 286 338 429
#     4  12  25  42  68 101 137 178 235 291 345 411
#     4  12  23  42  67  98 130 182 231 285 343 410
#
# _framework density 22.824204999999999
#
# number of rings (size 3 to 8) (size 9 to 14) (size 15 to 20)
#    0.000    0.000    2.857    8.571    0.000    3.429 
#    0.000    0.000    0.000    0.000    0.000    0.000 
#    0.000    0.000    0.000    0.000    0.000    0.000 
#
# Total GULP energy -173653.796327 kJ/mol
# GULP energy per Si atom -12403.842595 kJ/mol
# Density = 2.277226 g / cm^3
# Si number density = 22.824205 Si / 1000 Ang^3
#
#
#
# Elastic Constant Matrix: (Units=GPa)
#
#
# Indices 1 2 3 4 5 6 
#
# 1 127.0352 41.0687 50.4472 -10.5858 15.0658 4.6249
# 2 41.0687 96.8599 40.5910 1.2323 0.6422 2.0180
# 3 50.4472 40.5910 132.6186 6.0487 3.8867 7.1449
# 4 -10.5858 1.2323 6.0487 32.8930 4.0877 6.1124
# 5 15.0658 0.6422 3.8867 4.0877 40.2240 4.0921
# 6 4.6249 2.0180 7.1449 6.1124 4.0921 41.7949
#
#
#
# Elastic Compliance Matrix: (Units=1/GPa)
#
#
# Indices 1 2 3 4 5 6 
#
# 1 0.011234 -0.003402 -0.003292 0.005033 -0.004262 -0.000835
# 2 -0.003402 0.012876 -0.002643 -0.001317 0.001432 0.000259
# 3 -0.003292 -0.002643 0.009749 -0.002681 0.000692 -0.000850
# 4 0.005033 -0.001317 -0.002681 0.033981 -0.004595 -0.004555
# 5 -0.004262 0.001432 0.000692 -0.004595 0.027006 -0.001688
# 6 -0.000835 0.000259 -0.000850 -0.004555 -0.001688 0.024983
#
#
# Mechanical properties :
#
#
# Convention : Reuss Voigt Hill
#
# Bulk Modulus (GPa) = 65.84911 68.96972 67.40942
# Shear Modulus (GPa) = 34.82742 37.94282 36.38512
#
# Velocity S-wave (km/s) = 3.91051 4.08167 3.99701
# Velocity P-wave (km/s) = 7.02159 7.24547 7.13440
#
# Compressibility (1/GPa) = 0.01518623
#
# Stress axis : x y z
#
# Youngs Moduli (GPa) = 89.01436 77.66343 102.57207
#
# Poissons Ratio (x) = 0.26423 0.33764
# Poissons Ratio (y) = 0.30285 0.27106
# Poissons Ratio (z) = 0.29301 0.20524
#
# Static dielectric constant tensor:
#      x y z
#    x 4.417640 -0.127520 0.065200 
#    y -0.127520 4.164320 0.131900 
#    z 0.065200 0.131900 4.183700 
# 
# 
# High freq. dielectric constant tensor:
#      x y z
#    x 1.914620 -0.010390 0.010580 
#    y -0.010390 1.905060 0.014460 
#    z 0.010580 0.014460 1.909430 
# 
# From -- ./inp_files/489409.got.cif
#   From: 2010.06.25/outbox.cif.g09.slc.cpg/sg2_245_cif.got.tgz:489409.got - 2010.06.27 13:26:56.
