data_PCOD8036860
_publ_section_title
;
Structure prediction by ZEFSAII (Michael W. Deem and Ramdas Pophale) SiO2 
 PCOD8036860
Probable space group: P -1
;
_chemical_formula_sum "Si O2"
_cell_formula_units_Z 16
_cell_length_a 8.887523
_cell_length_b 8.378837
_cell_length_c 18.543817
_cell_angle_alpha 63.556498
_cell_angle_beta 102.908822
_cell_angle_gamma 51.098540
_cell_volume 665.814232
_symmetry_space_group_name_H-M "P -1"
_symmetry_group_IT_number 2
_symmetry_cell_setting 'triclinic'
loop_
_space_group_symop_operation_xyz
x,y,z
-x,-y,-z
loop_
_atom_site_type_symbol
_atom_site_label
_atom_site_fract_x
_atom_site_fract_y
_atom_site_fract_z
Si Si1 0.667752 0.082109 0.354066
Si Si2 0.704035 0.296110 0.735262
Si Si3 0.289238 0.286100 0.474417
Si Si4 0.309873 0.150807 0.728727
Si Si5 0.735108 0.132285 0.925302
Si Si6 0.298162 0.611341 0.896751
Si Si7 0.721824 0.474762 0.448523
Si Si8 0.252407 0.267554 0.019518
O O1 0.395260 0.420351 0.297604
O O2 0.777788 0.789970 0.455306
O O3 0.574575 0.123776 0.253900
O O4 0.960253 0.910711 0.430196
O O5 0.694904 0.167427 0.827406
O O6 0.481296 0.483316 0.610193
O O7 0.010880 0.000887 0.791298
O O8 0.388316 0.362617 0.515759
O O9 0.008804 0.595683 0.337904
O O10 0.500000 0.000000 0.500000
O O11 0.326978 0.325266 0.657068
O O12 0.461340 0.003713 0.850928
O O13 0.455259 0.481284 0.862673
O O14 0.766284 0.893720 0.000019
O O15 0.000000 0.000000 0.000000
O O16 0.500000 0.500000 0.000000
O O17 0.229808 0.467586 0.929202
O O18 0.000000 0.500000 0.000000
#
# Coordination Sequence:
#
# PCOD8036860 Si02
#       8
#     2   2   2   2   2   2   2   2
#     4   9  21  36  65  90 125 174 215 267 337 401
#     4  12  23  43  68  93 137 177 219 280 338 397
#     4   9  19  38  60  92 133 160 216 281 320 399
#     4   9  19  37  64  90 120 175 217 261 336 401
#     4  12  26  48  68  96 138 181 227 289 338 395
#     4  12  27  45  66 103 138 173 234 281 331 415
#     4   9  18  41  62  93 125 169 223 264 333 402
#     4  12  23  43  72  98 133 180 225 279 342 401
#
# _framework density 24.030728
#
# number of rings (size 3 to 8) (size 9 to 14) (size 15 to 20)
#    0.000    1.500    3.750    2.250    3.500    2.000 
#    2.250    0.625    0.000    0.000    0.000    0.000 
#    0.000    0.000    0.000    0.000    0.000    0.000 
#
# Total GULP energy -198210.539106 kJ/mol
# GULP energy per Si atom -12388.158694 kJ/mol
# Density = 2.397603 g / cm^3
# Si number density = 24.030728 Si / 1000 Ang^3
#
#
#
# Elastic Constant Matrix: (Units=GPa)
#
#
# Indices 1 2 3 4 5 6 
#
# 1 71.4708 32.7827 25.8316 -7.5985 13.3950 13.2712
# 2 32.7827 163.8002 33.7295 -34.3690 30.0611 -3.7078
# 3 25.8316 33.7295 82.9418 -14.7578 20.3842 8.1245
# 4 -7.5985 -34.3690 -14.7578 43.3791 5.1803 6.0722
# 5 13.3950 30.0611 20.3842 5.1803 35.9636 -1.5479
# 6 13.2712 -3.7078 8.1245 6.0722 -1.5479 41.6125
#
#
#
# Elastic Compliance Matrix: (Units=1/GPa)
#
#
# Indices 1 2 3 4 5 6 
#
# 1 0.017965 -0.002044 -0.002946 0.001784 -0.003817 -0.005739
# 2 -0.002044 0.009915 0.000385 0.008726 -0.009008 -0.000148
# 3 -0.002946 0.000385 0.016952 0.007284 -0.010044 -0.003772
# 4 0.001784 0.008726 0.007284 0.035846 -0.017555 -0.007097
# 5 -0.003817 -0.009008 -0.010044 -0.017555 0.045264 0.006621
# 6 -0.005739 -0.000148 -0.003772 -0.007097 0.006621 0.027867
#
#
# Mechanical properties :
#
#
# Convention : Reuss Voigt Hill
#
# Bulk Modulus (GPa) = 28.07228 55.87781 41.97504
# Shear Modulus (GPa) = 28.58903 39.24898 33.91901
#
# Velocity S-wave (km/s) = 3.45292 4.04577 3.76105
# Velocity P-wave (km/s) = 5.25396 6.71770 6.03041
#
# Compressibility (1/GPa) = 0.03562233
#
# Stress axis : x y z
#
# Youngs Moduli (GPa) = 55.66495 100.85307 58.99149
#
# Poissons Ratio (x) = 0.20612 0.17380
# Poissons Ratio (y) = 0.11377 -0.02273
# Poissons Ratio (z) = 0.16400 -0.03886
#
# Static dielectric constant tensor:
#      x y z
#    x 4.468820 0.108720 -0.092970 
#    y 0.108720 4.510410 0.091090 
#    z -0.092970 0.091090 4.574220 
# 
# 
# High freq. dielectric constant tensor:
#      x y z
#    x 1.940900 0.010150 0.004830 
#    y 0.010150 1.961400 -0.008300 
#    z 0.004830 -0.008300 1.949040 
# 
# From -- ./inp_files/587907.got.cif
#   From: 2010.06.25/outbox.cif.g09.slc.cpg/sg2_294_cif.got.tgz:587907.got - 2010.06.27 13:26:56.
