data_PCOD8036890
_publ_section_title
;
Structure prediction by ZEFSAII (Michael W. Deem and Ramdas Pophale) SiO2 
 PCOD8036890
Probable space group: P -1
;
_chemical_formula_sum "Si O2"
_cell_formula_units_Z 14
_cell_length_a 8.963612
_cell_length_b 19.730146
_cell_length_c 8.948837
_cell_angle_alpha 54.703011
_cell_angle_beta 146.441591
_cell_angle_gamma 130.829379
_cell_volume 659.908924
_symmetry_space_group_name_H-M "P -1"
_symmetry_group_IT_number 2
_symmetry_cell_setting 'triclinic'
loop_
_space_group_symop_operation_xyz
x,y,z
-x,-y,-z
loop_
_atom_site_type_symbol
_atom_site_label
_atom_site_fract_x
_atom_site_fract_y
_atom_site_fract_z
Si Si1 0.456660 0.377630 0.870283
Si Si2 0.545096 0.086200 0.523149
Si Si3 0.991951 0.779504 0.798100
Si Si4 0.158477 0.195568 0.020295
Si Si5 0.049011 0.485550 0.386274
Si Si6 0.265039 0.975386 0.710480
Si Si7 0.600858 0.331635 0.720726
O O1 0.336951 0.296748 0.990088
O O2 0.204108 0.415321 0.586038
O O3 0.541601 0.347404 0.822286
O O4 0.740990 0.451984 0.086823
O O5 0.880887 0.152717 0.735061
O O6 0.500000 0.000000 0.500000
O O7 0.422440 0.045218 0.628590
O O8 0.364317 0.140825 0.234149
O O9 0.696362 0.723716 0.539514
O O10 0.155968 0.868898 0.721347
O O11 0.930827 0.806580 0.878611
O O12 0.190687 0.722473 0.045363
O O13 0.254029 0.576613 0.364060
O O14 0.000000 0.500000 0.500000
O O15 0.000000 0.000000 0.500000
O O16 0.500000 0.000000 0.000000
#
# Coordination Sequence:
#
# PCOD8036890 Si02
#       7
#     2   2   2   2   2   2   2
#     4  12  26  44  69  99 136 167 217 271 324 387
#     4  12  26  43  66  95 135 174 220 273 328 383
#     4  12  24  43  67  96 131 171 222 263 328 388
#     4  12  25  45  64  97 132 176 218 270 323 391
#     4  12  24  47  71  98 131 174 215 262 329 395
#     4  12  23  44  67  96 129 176 222 271 321 378
#     4  12  26  42  70 100 131 170 214 275 325 385
#
# _framework density 21.215047999999999
#
# number of rings (size 3 to 8) (size 9 to 14) (size 15 to 20)
#    0.000    0.000    2.857    7.714    4.000    0.000 
#    0.000    0.000    0.000    0.000    0.000    0.000 
#    0.000    0.000    0.000    0.000    0.000    0.000 
#
# Total GULP energy -173640.480675 kJ/mol
# GULP energy per Si atom -12402.891477 kJ/mol
# Density = 2.116676 g / cm^3
# Si number density = 21.215048 Si / 1000 Ang^3
#
#
#
# Elastic Constant Matrix: (Units=GPa)
#
#
# Indices 1 2 3 4 5 6 
#
# 1 35.4679 15.1045 45.5298 14.4426 5.4073 -13.4520
# 2 15.1045 125.8176 36.5396 -2.5262 9.5024 11.8725
# 3 45.5298 36.5396 133.2771 -0.8958 29.3183 -9.8313
# 4 14.4426 -2.5262 -0.8958 59.3243 -4.7310 -3.4655
# 5 5.4073 9.5024 29.3183 -4.7310 29.4349 -4.1723
# 6 -13.4520 11.8725 -9.8313 -3.4655 -4.1723 48.1584
#
#
#
# Elastic Compliance Matrix: (Units=1/GPa)
#
#
# Indices 1 2 3 4 5 6 
#
# 1 0.074618 -0.004265 -0.026159 -0.016711 0.013379 0.016511
# 2 -0.004265 0.009243 -0.001002 0.001074 -0.001558 -0.003732
# 3 -0.026159 -0.001002 0.019553 0.005272 -0.014053 -0.003906
# 4 -0.016711 0.001074 0.005272 0.020956 0.000513 -0.002304
# 5 0.013379 -0.001558 -0.014053 0.000513 0.046857 0.005349
# 6 0.016511 -0.003732 -0.003906 -0.002304 0.005349 0.025797
#
#
# Mechanical properties :
#
#
# Convention : Reuss Voigt Hill
#
# Bulk Modulus (GPa) = 24.65430 54.32338 39.48884
# Shear Modulus (GPa) = 18.28851 40.54276 29.41563
#
# Velocity S-wave (km/s) = 2.93926 4.37628 3.72767
# Velocity P-wave (km/s) = 4.81304 7.15524 6.09766
#
# Compressibility (1/GPa) = 0.04056087
#
# Stress axis : x y z
#
# Youngs Moduli (GPa) = 13.40165 108.19543 51.14319
#
# Poissons Ratio (x) = 0.46144 1.33785
# Poissons Ratio (y) = 0.05716 0.05126
# Poissons Ratio (z) = 0.35057 0.10844
#
# Static dielectric constant tensor:
#      x y z
#    x 3.937200 0.107840 0.066640 
#    y 0.107840 4.338770 -0.000330 
#    z 0.066640 -0.000330 4.223290 
# 
# 
# High freq. dielectric constant tensor:
#      x y z
#    x 1.840550 0.006200 0.004890 
#    y 0.006200 1.857840 -0.001250 
#    z 0.004890 -0.001250 1.857820 
# 
# From -- ./inp_files/35915.got.cif
#   From: 2010.06.25/outbox.cif.g09.slc.cpg/sg2_18_cif.got.tgz:35915.got - 2010.06.27 13:26:56.
