data_PCOD8036863
_publ_section_title
;
Structure prediction by ZEFSAII (Michael W. Deem and Ramdas Pophale) SiO2 
 PCOD8036863
Probable space group: P -1
;
_chemical_formula_sum "Si O2"
_cell_formula_units_Z 14
_cell_length_a 14.866253
_cell_length_b 16.973461
_cell_length_c 5.101043
_cell_angle_alpha 59.192198
_cell_angle_beta 113.687336
_cell_angle_gamma 145.430115
_cell_volume 626.759376
_symmetry_space_group_name_H-M "P -1"
_symmetry_group_IT_number 2
_symmetry_cell_setting 'triclinic'
loop_
_space_group_symop_operation_xyz
x,y,z
-x,-y,-z
loop_
_atom_site_type_symbol
_atom_site_label
_atom_site_fract_x
_atom_site_fract_y
_atom_site_fract_z
Si Si1 0.404916 0.678974 0.891454
Si Si2 0.077625 0.231538 0.713870
Si Si3 0.346687 0.439073 0.329628
Si Si4 0.608070 0.853901 0.349423
Si Si5 0.953544 0.523325 0.155618
Si Si6 0.089886 0.820094 0.877888
Si Si7 0.837452 0.852365 0.692288
O O1 0.498262 0.798088 0.563805
O O2 0.233683 0.597986 0.858551
O O3 0.391615 0.561175 0.003946
O O4 0.500256 0.757147 0.138509
O O5 0.242829 0.399486 0.524842
O O6 0.954789 0.145130 0.475348
O O7 0.116832 0.152693 0.955519
O O8 0.007679 0.231514 0.884447
O O9 0.500000 0.500000 0.500000
O O10 0.235939 0.290879 0.288024
O O11 0.710583 0.839728 0.568149
O O12 0.723200 0.024085 0.125544
O O13 0.000000 0.500000 0.500000
O O14 0.000000 0.500000 0.000000
O O15 0.055401 0.691074 0.976531
O O16 0.000000 0.000000 0.500000
#
# Coordination Sequence:
#
# PCOD8036863 Si02
#       7
#     2   2   2   2   2   2   2
#     4  12  27  47  72 107 149 186 240 305 360 425
#     4  12  23  43  69 100 146 196 240 290 338 413
#     4  12  25  41  67 104 149 194 240 288 347 417
#     4  12  27  45  69 106 153 194 237 293 362 415
#     4  12  27  51  82 109 133 183 244 305 377 445
#     4  12  26  47  75 103 143 186 241 298 362 429
#     4  12  25  40  66 105 149 202 253 278 334 421
#
# _framework density 22.337121
#
# number of rings (size 3 to 8) (size 9 to 14) (size 15 to 20)
#    0.000    0.000    5.714    3.429    4.000    2.286 
#    0.000    4.286    0.000    0.000    0.000    0.000 
#    0.000    0.000    0.000    0.000    0.000    0.000 
#
# Total GULP energy -173593.473218 kJ/mol
# GULP energy per Si atom -12399.533801 kJ/mol
# Density = 2.228628 g / cm^3
# Si number density = 22.337121 Si / 1000 Ang^3
#
#
#
# Elastic Constant Matrix: (Units=GPa)
#
#
# Indices 1 2 3 4 5 6 
#
# 1 125.2876 63.4177 36.3425 -7.7017 -14.2084 7.2214
# 2 63.4177 143.5569 57.7621 -11.3811 7.8380 9.3766
# 3 36.3425 57.7621 110.6166 2.6312 -11.1719 -0.4059
# 4 -7.7017 -11.3811 2.6312 40.8534 5.9442 -7.7101
# 5 -14.2084 7.8380 -11.1719 5.9442 37.0332 6.1711
# 6 7.2214 9.3766 -0.4059 -7.7101 6.1711 27.5986
#
#
#
# Elastic Compliance Matrix: (Units=1/GPa)
#
#
# Indices 1 2 3 4 5 6 
#
# 1 0.011478 -0.005035 -0.000546 -0.000580 0.005860 -0.002773
# 2 -0.005035 0.012031 -0.005386 0.003649 -0.006631 -0.000347
# 3 -0.000546 -0.005386 0.012636 -0.003158 0.005232 0.000106
# 4 -0.000580 0.003649 -0.003158 0.028357 -0.007925 0.008560
# 5 0.005860 -0.006631 0.005232 -0.007925 0.035047 -0.009254
# 6 -0.002773 -0.000347 0.000106 0.008560 -0.009254 0.041539
#
#
# Mechanical properties :
#
#
# Convention : Reuss Voigt Hill
#
# Bulk Modulus (GPa) = 70.37286 77.16731 73.77009
# Shear Modulus (GPa) = 29.80451 35.89293 32.84872
#
# Velocity S-wave (km/s) = 3.65678 4.01293 3.83899
# Velocity P-wave (km/s) = 7.02870 7.48954 7.26277
#
# Compressibility (1/GPa) = 0.01421002
#
# Stress axis : x y z
#
# Youngs Moduli (GPa) = 87.12672 83.11541 79.13873
#
# Poissons Ratio (x) = 0.41852 0.04322
# Poissons Ratio (y) = 0.43872 0.42624
# Poissons Ratio (z) = 0.04758 0.44766
#
# Static dielectric constant tensor:
#      x y z
#    x 4.201910 0.006820 -0.098890 
#    y 0.006820 4.566740 0.026210 
#    z -0.098890 0.026210 4.423170 
# 
# 
# High freq. dielectric constant tensor:
#      x y z
#    x 1.864180 0.008190 -0.015210 
#    y 0.008190 1.902240 0.000510 
#    z -0.015210 0.000510 1.891470 
# 
# From -- ./inp_files/99507.got.cif
#   From: 2010.06.25/outbox.cif.g09.slc.cpg/sg2_50_cif.got.tgz:99507.got - 2010.06.27 13:26:56.
