data_PCOD8036517
_publ_section_title
;
Structure prediction by ZEFSAII (Michael W. Deem and Ramdas Pophale) SiO2 
 PCOD8036517
Probable space group: P -1
;
_chemical_formula_sum "Si O2"
_cell_formula_units_Z 14
_cell_length_a 8.692450
_cell_length_b 8.941074
_cell_length_c 9.086226
_cell_angle_alpha 102.628903
_cell_angle_beta 107.278571
_cell_angle_gamma 80.736504
_cell_volume 654.493261
_symmetry_space_group_name_H-M "P -1"
_symmetry_group_IT_number 2
_symmetry_cell_setting 'triclinic'
loop_
_space_group_symop_operation_xyz
x,y,z
-x,-y,-z
loop_
_atom_site_type_symbol
_atom_site_label
_atom_site_fract_x
_atom_site_fract_y
_atom_site_fract_z
Si Si1 0.409932 0.166544 0.050364
Si Si2 0.685855 0.352847 0.102810
Si Si3 0.915416 0.808700 0.222813
Si Si4 0.749437 0.704774 0.701997
Si Si5 0.157521 0.565286 0.120599
Si Si6 0.960018 0.097594 0.156309
Si Si7 0.835095 0.589338 0.406258
O O1 0.502728 0.311371 0.057651
O O2 0.384207 0.178713 0.224768
O O3 0.232469 0.202644 0.936470
O O4 0.500000 0.000000 0.000000
O O5 0.784614 0.186897 0.109908
O O6 0.735829 0.471978 0.264287
O O7 0.707859 0.421938 0.962642
O O8 0.875678 0.734171 0.350267
O O9 0.088664 0.730964 0.198184
O O10 0.948936 0.988279 0.273998
O O11 0.764316 0.541254 0.752150
O O12 0.712003 0.664162 0.513546
O O13 0.918956 0.775765 0.757552
O O14 0.000000 0.500000 0.000000
O O15 0.000000 0.000000 0.000000
O O16 0.000000 0.500000 0.500000
#
# Coordination Sequence:
#
# PCOD8036517 Si02
#       7
#     2   2   2   2   2   2   2
#     4  12  25  43  66  98 132 171 212 267 321 384
#     4  12  23  39  67  95 132 167 215 264 326 384
#     4  12  23  39  69  98 130 164 219 272 320 373
#     4  12  24  42  67  94 134 168 215 271 316 383
#     4  12  18  39  67  98 118 162 226 275 304 362
#     4  12  19  37  67  98 121 168 219 269 313 362
#     4  12  24  43  65  97 130 169 215 271 322 379
#
# _framework density 21.390595999999999
#
# number of rings (size 3 to 8) (size 9 to 14) (size 15 to 20)
#    0.000    0.000   11.429    0.000    0.000    3.429 
#    0.000    0.714    0.000    0.000    0.000    0.000 
#    0.000    0.000    0.000    0.000    0.000    0.000 
#
# Total GULP energy -173502.832244 kJ/mol
# GULP energy per Si atom -12393.059446 kJ/mol
# Density = 2.134191 g / cm^3
# Si number density = 21.390596 Si / 1000 Ang^3
#
#
#
# Elastic Constant Matrix: (Units=GPa)
#
#
# Indices 1 2 3 4 5 6 
#
# 1 91.6976 35.9310 40.4528 5.0123 -20.8503 13.2703
# 2 35.9310 133.5516 53.3577 -12.9364 -14.2473 5.3782
# 3 40.4528 53.3577 121.9155 -0.1041 -39.2689 1.0823
# 4 5.0123 -12.9364 -0.1041 30.9772 -0.6770 -12.7710
# 5 -20.8503 -14.2473 -39.2689 -0.6770 35.7915 2.6229
# 6 13.2703 5.3782 1.0823 -12.7710 2.6229 43.9301
#
#
#
# Elastic Compliance Matrix: (Units=1/GPa)
#
#
# Indices 1 2 3 4 5 6 
#
# 1 0.015654 -0.003221 -0.001689 -0.006443 0.006341 -0.006544
# 2 -0.003221 0.010230 -0.004197 0.005355 -0.002419 0.001525
# 3 -0.001689 -0.004197 0.015085 -0.001361 0.013912 -0.000574
# 4 -0.006443 0.005355 -0.001361 0.041029 -0.003325 0.013450
# 5 0.006341 -0.002419 0.013912 -0.003325 0.046288 -0.005692
# 6 -0.006544 0.001525 -0.000574 0.013450 -0.005692 0.028818
#
#
# Mechanical properties :
#
#
# Convention : Reuss Voigt Hill
#
# Bulk Modulus (GPa) = 43.94664 67.40531 55.67598
# Shear Modulus (GPa) = 27.33697 36.63463 31.98580
#
# Velocity S-wave (km/s) = 3.57878 4.14291 3.87113
# Velocity P-wave (km/s) = 6.13729 7.38004 6.78717
#
# Compressibility (1/GPa) = 0.02275487
#
# Stress axis : x y z
#
# Youngs Moduli (GPa) = 63.88203 97.74934 66.29235
#
# Poissons Ratio (x) = 0.31481 0.11200
# Poissons Ratio (y) = 0.20574 0.27822
# Poissons Ratio (z) = 0.10793 0.41024
#
# Static dielectric constant tensor:
#      x y z
#    x 10.499360 0.859550 -3.312040 
#    y 0.859550 4.489560 -0.335150 
#    z -3.312040 -0.335150 5.259260 
# 
# 
# High freq. dielectric constant tensor:
#      x y z
#    x 1.835060 0.008440 -0.026670 
#    y 0.008440 1.861840 0.002670 
#    z -0.026670 0.002670 1.814450 
# 
# From -- ./inp_files/155520.got.cif
#   From: 2010.06.25/outbox.cif.g09.slc.cpg/sg2_78_cif.got.tgz:155520.got - 2010.06.27 13:26:56.
