data_PCOD8036508
_publ_section_title
;
Structure prediction by ZEFSAII (Michael W. Deem and Ramdas Pophale) SiO2 
 PCOD8036508
Probable space group: P -1
;
_chemical_formula_sum "Si O2"
_cell_formula_units_Z 16
_cell_length_a 9.051050
_cell_length_b 14.601597
_cell_length_c 15.163709
_cell_angle_alpha 151.069734
_cell_angle_beta 116.942236
_cell_angle_gamma 83.065125
_cell_volume 664.354358
_symmetry_space_group_name_H-M "P -1"
_symmetry_group_IT_number 2
_symmetry_cell_setting 'triclinic'
loop_
_space_group_symop_operation_xyz
x,y,z
-x,-y,-z
loop_
_atom_site_type_symbol
_atom_site_label
_atom_site_fract_x
_atom_site_fract_y
_atom_site_fract_z
Si Si1 0.037837 0.647724 0.411382
Si Si2 0.380870 0.510442 0.093955
Si Si3 0.180483 0.169109 0.419197
Si Si4 0.968641 0.215061 0.816607
Si Si5 0.239494 0.996818 0.594641
Si Si6 0.676727 0.260622 0.874996
Si Si7 0.414524 0.750252 0.712241
Si Si8 0.239626 0.226236 0.284531
O O1 0.234413 0.681586 0.536224
O O2 0.930016 0.706427 0.503863
O O3 0.104126 0.798257 0.466367
O O4 0.844461 0.369492 0.093444
O O5 0.336904 0.257253 0.881609
O O6 0.200896 0.482590 0.085453
O O7 0.619763 0.722576 0.370984
O O8 0.364621 0.561550 0.029808
O O9 0.256604 0.175931 0.347952
O O10 0.003070 0.897803 0.184507
O O11 0.772496 0.214717 0.780321
O O12 0.911624 0.067097 0.584327
O O13 0.446056 0.016010 0.640176
O O14 0.305777 0.498828 0.527292
O O15 0.611633 0.801567 0.756798
O O16 0.500000 0.000000 0.000000
O O17 0.000000 0.000000 0.000000
#
# Coordination Sequence:
#
# PCOD8036508 Si02
#       8
#     2   2   2   2   2   2   2   2
#     4  12  27  45  73 106 145 199 247 310 378 453
#     4  12  24  43  67  97 149 198 245 301 363 448
#     4  12  27  45  73 106 146 199 246 309 381 449
#     4  12  26  40  66 102 149 193 247 307 363 449
#     4  12  24  43  66  99 146 197 249 296 366 447
#     4  12  26  40  66 103 146 195 249 301 372 443
#     4  11  29  54  85 116 154 197 258 325 393 464
#     4  11  29  54  84 117 153 197 258 325 393 465
#
# _framework density 24.083532000000002
#
# number of rings (size 3 to 8) (size 9 to 14) (size 15 to 20)
#    0.000    0.250    5.000    3.000    7.000    3.000 
#    0.000    0.000    0.000    0.000    0.000    0.000 
#    0.000    0.000    0.000    0.000    0.000    0.000 
#
# Total GULP energy -198292.201379 kJ/mol
# GULP energy per Si atom -12393.262586 kJ/mol
# Density = 2.402872 g / cm^3
# Si number density = 24.083532 Si / 1000 Ang^3
#
#
#
# Elastic Constant Matrix: (Units=GPa)
#
#
# Indices 1 2 3 4 5 6 
#
# 1 121.8448 21.3214 28.5043 -3.2717 6.6011 15.0625
# 2 21.3214 123.5189 44.5801 -12.8658 -2.3596 9.7516
# 3 28.5043 44.5801 103.2818 -2.4988 8.0153 -7.8835
# 4 -3.2717 -12.8658 -2.4988 27.8888 -7.3277 21.7902
# 5 6.6011 -2.3596 8.0153 -7.3277 37.8633 11.7393
# 6 15.0625 9.7516 -7.8835 21.7902 11.7393 8.7912
#
#
#
# Elastic Compliance Matrix: (Units=1/GPa)
#
#
# Indices 1 2 3 4 5 6 
#
# 1 0.008234 -0.002106 -0.000807 -0.004936 -0.003875 0.004915
# 2 -0.002106 0.007798 -0.001949 -0.005190 -0.002770 0.009776
# 3 -0.000807 -0.001949 0.010069 0.007567 0.002165 -0.009073
# 4 -0.004936 -0.005190 0.007567 -0.000087 -0.013071 0.038670
# 5 -0.003875 -0.002770 0.002165 -0.013071 0.017523 0.020653
# 6 0.004915 0.009776 -0.009073 0.038670 0.020653 -0.037078
#
#
# Mechanical properties :
#
#
# Convention : Reuss Voigt Hill
#
# Bulk Modulus (GPa) = 61.06398 59.71747 60.39073
# Shear Modulus (GPa) = 231.03614 31.85797 131.44705
#
# Velocity S-wave (km/s) = 9.80507 3.64099 7.39582
# Velocity P-wave (km/s) = 12.39339 6.52116 9.90257
#
# Compressibility (1/GPa) = 0.01637627
#
# Stress axis : x y z
#
# Youngs Moduli (GPa) = 121.44286 128.24571 99.31934
#
# Poissons Ratio (x) = 0.27014 0.08014
# Poissons Ratio (y) = 0.25581 0.19355
# Poissons Ratio (z) = 0.09799 0.24992
#
# Static dielectric constant tensor:
#      x y z
#    x 4.863780 0.176930 0.189310 
#    y 0.176930 4.172590 0.216850 
#    z 0.189310 0.216850 4.502960 
# 
# 
# High freq. dielectric constant tensor:
#      x y z
#    x 1.986410 0.007840 0.013370 
#    y 0.007840 1.940710 0.010620 
#    z 0.013370 0.010620 1.954780 
# 
# From -- ./inp_files/505930.got.cif
#   From: 2010.06.25/outbox.cif.g09.slc.cpg/sg2_253_cif.got.tgz:505930.got - 2010.06.27 13:26:56.
