data_PCOD8036235
_publ_section_title
;
Structure prediction by ZEFSAII (Michael W. Deem and Ramdas Pophale) SiO2 
 PCOD8036235
Probable space group: P -1
;
_chemical_formula_sum "Si O2"
_cell_formula_units_Z 14
_cell_length_a 16.629555
_cell_length_b 10.075314
_cell_length_c 4.906219
_cell_angle_alpha 76.927626
_cell_angle_beta 87.743684
_cell_angle_gamma 138.019630
_cell_volume 507.695936
_symmetry_space_group_name_H-M "P -1"
_symmetry_group_IT_number 2
_symmetry_cell_setting 'triclinic'
loop_
_space_group_symop_operation_xyz
x,y,z
-x,-y,-z
loop_
_atom_site_type_symbol
_atom_site_label
_atom_site_fract_x
_atom_site_fract_y
_atom_site_fract_z
Si Si1 0.960106 0.727950 0.246459
Si Si2 0.632004 0.180988 0.748155
Si Si3 0.408045 0.593456 0.599428
Si Si4 0.449418 0.292528 0.988630
Si Si5 0.231552 0.733790 0.788103
Si Si6 0.839119 0.842178 0.315071
Si Si7 0.185803 0.943774 0.433801
O O1 0.865572 0.505235 0.203375
O O2 0.888356 0.753398 0.418020
O O3 0.047140 0.745345 0.412554
O O4 0.050130 0.924649 0.936527
O O5 0.657449 0.366773 0.561882
O O6 0.643556 0.108253 0.500379
O O7 0.739462 0.267956 0.903121
O O8 0.500000 0.000000 0.000000
O O9 0.468941 0.707520 0.833744
O O10 0.290359 0.333673 0.768749
O O11 0.520704 0.684253 0.345714
O O12 0.300461 0.067976 0.147227
O O13 0.500000 0.500000 0.000000
O O14 0.183991 0.828359 0.730856
O O15 0.798242 0.876522 0.567093
#
# Coordination Sequence:
#
# PCOD8036235 Si02
#       7
#     2   2   2   2   2   2   2
#     4  11  27  49  74 110 148 204 252 305 373 452
#     4  12  26  50  77 109 151 198 250 306 373 452
#     4  12  25  47  76 109 149 195 250 309 370 445
#     4  12  25  43  75 113 153 193 243 309 385 432
#     4  12  28  48  78 110 150 195 253 309 376 436
#     4  11  26  46  78 104 151 197 255 304 376 440
#     4  12  27  46  75 109 154 195 251 314 373 448
#
# _framework density 27.575562000000001
#
# number of rings (size 3 to 8) (size 9 to 14) (size 15 to 20)
#    0.000    0.286    2.857    5.143    6.000    1.714 
#    0.000    0.000    0.000    0.000    0.000    0.000 
#    0.000    0.000    0.000    0.000    0.000    0.000 
#
# Total GULP energy -173491.686155 kJ/mol
# GULP energy per Si atom -12392.263297 kJ/mol
# Density = 2.751280 g / cm^3
# Si number density = 27.575562 Si / 1000 Ang^3
#
#
#
# Elastic Constant Matrix: (Units=GPa)
#
#
# Indices 1 2 3 4 5 6 
#
# 1 110.3914 12.3356 22.1442 -8.1617 20.4212 6.1928
# 2 12.3356 39.6564 -1.2545 -17.4006 2.6262 1.7947
# 3 22.1442 -1.2545 75.4849 2.0154 13.5770 5.8701
# 4 -8.1617 -17.4006 2.0154 50.3580 1.7734 1.0407
# 5 20.4212 2.6262 13.5770 1.7734 43.3162 -8.5010
# 6 6.1928 1.7947 5.8701 1.0407 -8.5010 39.4889
#
#
#
# Elastic Compliance Matrix: (Units=1/GPa)
#
#
# Indices 1 2 3 4 5 6 
#
# 1 0.010891 -0.002507 -0.002226 0.001205 -0.004791 -0.002326
# 2 -0.002507 0.030766 0.001470 0.010273 -0.001940 -0.001912
# 3 -0.002226 0.001470 0.014920 -0.000241 -0.004265 -0.002847
# 4 0.001205 0.010273 -0.000241 0.023735 -0.002434 -0.001770
# 5 -0.004791 -0.001940 -0.004265 -0.002434 0.028400 0.007652
# 6 -0.002326 -0.001912 -0.002847 -0.001770 0.007652 0.027892
#
#
# Mechanical properties :
#
#
# Convention : Reuss Voigt Hill
#
# Bulk Modulus (GPa) = 19.97978 32.44257 26.21118
# Shear Modulus (GPa) = 31.28617 39.45310 35.36964
#
# Velocity S-wave (km/s) = 3.37198 3.78660 3.58529
# Velocity P-wave (km/s) = 4.73514 5.55952 5.16381
#
# Compressibility (1/GPa) = 0.05005060
#
# Stress axis : x y z
#
# Youngs Moduli (GPa) = 91.81713 32.50365 67.02313
#
# Poissons Ratio (x) = 0.08149 0.14921
# Poissons Ratio (y) = 0.23020 -0.09853
# Poissons Ratio (z) = 0.20441 -0.04778
#
# Static dielectric constant tensor:
#      x y z
#    x 5.788600 0.061400 0.106460 
#    y 0.061400 4.996470 0.141950 
#    z 0.106460 0.141950 5.918360 
# 
# 
# High freq. dielectric constant tensor:
#      x y z
#    x 2.131500 0.001800 0.005700 
#    y 0.001800 2.116840 -0.018100 
#    z 0.005700 -0.018100 2.107790 
# 
# From -- ./inp_files/108442.got.cif
#   From: 2010.06.25/outbox.cif.g09.slc.cpg/sg2_55_cif.got.tgz:108442.got - 2010.06.27 13:26:56.
