data_PCOD8036807
_publ_section_title
;
Structure prediction by ZEFSAII (Michael W. Deem and Ramdas Pophale) SiO2 
 PCOD8036807
Probable space group: P -1
;
_chemical_formula_sum "Si O2"
_cell_formula_units_Z 16
_cell_length_a 6.690695
_cell_length_b 13.699634
_cell_length_c 11.695383
_cell_angle_alpha 86.889089
_cell_angle_beta 115.664325
_cell_angle_gamma 129.147983
_cell_volume 711.557676
_symmetry_space_group_name_H-M "P -1"
_symmetry_group_IT_number 2
_symmetry_cell_setting 'triclinic'
loop_
_space_group_symop_operation_xyz
x,y,z
-x,-y,-z
loop_
_atom_site_type_symbol
_atom_site_label
_atom_site_fract_x
_atom_site_fract_y
_atom_site_fract_z
Si Si1 0.147140 0.996487 0.150754
Si Si2 0.602374 0.788937 0.179708
Si Si3 0.401888 0.747153 0.610482
Si Si4 0.734134 0.128234 0.973142
Si Si5 0.345903 0.416701 0.853607
Si Si6 0.184288 0.451589 0.389378
Si Si7 0.299523 0.707606 0.339972
Si Si8 0.717807 0.655102 0.766401
O O1 0.921741 0.924223 0.206917
O O2 0.434697 0.138973 0.260878
O O3 0.254324 0.919920 0.145459
O O4 0.000000 0.000000 0.000000
O O5 0.548799 0.663185 0.132946
O O6 0.570738 0.787823 0.309618
O O7 0.349071 0.782800 0.061948
O O8 0.416561 0.793254 0.481222
O O9 0.546125 0.682549 0.643992
O O10 0.052671 0.635109 0.563078
O O11 0.067347 0.221603 0.102426
O O12 0.500000 0.000000 0.000000
O O13 0.458924 0.516517 0.772161
O O14 0.985082 0.317343 0.778977
O O15 0.500000 0.500000 0.000000
O O16 0.500000 0.500000 0.500000
O O17 0.195573 0.567035 0.349211
O O18 0.079550 0.357019 0.259284
#
# Coordination Sequence:
#
# PCOD8036807 Si02
#       8
#     2   2   2   2   2   2   2   2
#     4  12  25  48  74 104 141 187 242 302 353 420
#     4  12  27  47  71 103 148 187 240 299 355 428
#     4  12  26  45  76 106 144 194 240 292 359 428
#     4  12  25  46  73 103 142 185 243 300 354 424
#     4  12  27  44  70 107 148 191 236 297 367 423
#     4  12  24  42  71 107 143 184 238 293 357 428
#     4  12  26  46  69 105 152 189 233 296 360 433
#     4  12  23  41  71 108 141 188 236 292 365 426
#
# _framework density 22.485878
#
# number of rings (size 3 to 8) (size 9 to 14) (size 15 to 20)
#    0.000    0.000    6.250    4.125    1.750    1.500 
#    0.000    2.500    0.000    0.000    0.000    0.000 
#    0.000    0.000    0.000    0.000    0.000    0.000 
#
# Total GULP energy -198433.106401 kJ/mol
# GULP energy per Si atom -12402.069150 kJ/mol
# Density = 2.243470 g / cm^3
# Si number density = 22.485878 Si / 1000 Ang^3
#
#
#
# Elastic Constant Matrix: (Units=GPa)
#
#
# Indices 1 2 3 4 5 6 
#
# 1 139.8240 42.7682 56.6476 -2.4715 -6.3719 3.6190
# 2 42.7682 100.4933 39.6966 -5.9854 -4.5320 17.1783
# 3 56.6476 39.6966 125.3152 0.3730 -8.1469 -2.2837
# 4 -2.4715 -5.9854 0.3730 32.3405 3.4202 -7.1261
# 5 -6.3719 -4.5320 -8.1469 3.4202 42.3422 -6.9487
# 6 3.6190 17.1783 -2.2837 -7.1261 -6.9487 48.5033
#
#
#
# Elastic Compliance Matrix: (Units=1/GPa)
#
#
# Indices 1 2 3 4 5 6 
#
# 1 0.009340 -0.002648 -0.003349 0.000253 0.000489 0.000190
# 2 -0.002648 0.013112 -0.003069 0.001322 -0.000424 -0.004457
# 3 -0.003349 -0.003069 0.010607 -0.000681 0.001586 0.001963
# 4 0.000253 0.001322 -0.000681 0.032265 -0.001910 0.003947
# 5 0.000489 -0.000424 0.001586 -0.001910 0.024669 0.003442
# 6 0.000190 -0.004457 0.001963 0.003947 0.003442 0.023347
#
#
# Mechanical properties :
#
#
# Convention : Reuss Voigt Hill
#
# Bulk Modulus (GPa) = 66.99259 71.53969 69.26614
# Shear Modulus (GPa) = 36.64410 39.73855 38.19133
#
# Velocity S-wave (km/s) = 4.04127 4.20845 4.12571
# Velocity P-wave (km/s) = 7.18566 7.44978 7.31891
#
# Compressibility (1/GPa) = 0.01492702
#
# Stress axis : x y z
#
# Youngs Moduli (GPa) = 107.06313 76.26800 94.27777
#
# Poissons Ratio (x) = 0.20192 0.31574
# Poissons Ratio (y) = 0.28346 0.28937
# Poissons Ratio (z) = 0.35856 0.23409
#
# Static dielectric constant tensor:
#      x y z
#    x 4.823870 0.030000 -0.561520 
#    y 0.030000 4.047970 -0.234150 
#    z -0.561520 -0.234150 4.430190 
# 
# 
# High freq. dielectric constant tensor:
#      x y z
#    x 1.909170 -0.001210 -0.009940 
#    y -0.001210 1.883700 -0.008260 
#    z -0.009940 -0.008260 1.881750 
# 
# From -- ./inp_files/367785.got.cif
#   From: 2010.06.25/outbox.cif.g09.slc.cpg/sg2_184_cif.got.tgz:367785.got - 2010.06.27 13:26:56.
