data_PCOD8036687
_publ_section_title
;
Structure prediction by ZEFSAII (Michael W. Deem and Ramdas Pophale) SiO2 
 PCOD8036687
Probable space group: P -1
;
_chemical_formula_sum "Si O2"
_cell_formula_units_Z 14
_cell_length_a 22.466259
_cell_length_b 13.515236
_cell_length_c 6.865097
_cell_angle_alpha 100.580716
_cell_angle_beta 68.142628
_cell_angle_gamma 159.263108
_cell_volume 592.943712
_symmetry_space_group_name_H-M "P -1"
_symmetry_group_IT_number 2
_symmetry_cell_setting 'triclinic'
loop_
_space_group_symop_operation_xyz
x,y,z
-x,-y,-z
loop_
_atom_site_type_symbol
_atom_site_label
_atom_site_fract_x
_atom_site_fract_y
_atom_site_fract_z
Si Si1 0.184082 0.751160 0.011264
Si Si2 0.612003 0.450780 0.573125
Si Si3 0.241476 0.183470 0.153670
Si Si4 0.531633 0.645244 0.632182
Si Si5 0.095257 0.241271 0.875581
Si Si6 0.085423 0.766994 0.416886
Si Si7 0.271176 0.678407 0.079234
O O1 0.392318 0.113786 0.818086
O O2 0.097040 0.670010 0.287435
O O3 0.248149 0.730322 0.960097
O O4 0.000000 0.500000 0.000000
O O5 0.754158 0.737242 0.633392
O O6 0.586490 0.445676 0.376211
O O7 0.733535 0.528225 0.416432
O O8 0.191936 0.996814 0.209301
O O9 0.458521 0.518822 0.898469
O O10 0.080091 0.965924 0.104088
O O11 0.500000 0.500000 0.500000
O O12 0.776755 0.030747 0.481680
O O13 0.186468 0.448254 0.009692
O O14 0.000000 0.000000 0.000000
O O15 0.861829 0.479699 0.632242
O O16 0.500000 0.000000 0.000000
#
# Coordination Sequence:
#
# PCOD8036687 Si02
#       7
#     2   2   2   2   2   2   2
#     4  12  28  50  76 108 153 207 258 309 384 454
#     4  12  26  44  79 110 151 201 252 312 377 456
#     4  12  24  46  75 119 147 194 256 314 382 446
#     4  12  22  42  73 115 153 187 250 318 376 442
#     4  12  27  49  77 109 156 199 250 315 384 450
#     4  12  25  48  79 109 152 197 253 317 377 454
#     4  12  31  50  76 114 156 203 256 313 382 460
#
# _framework density 23.611008999999999
#
# number of rings (size 3 to 8) (size 9 to 14) (size 15 to 20)
#    0.000    0.000    4.286    5.571    8.000    0.571 
#    0.000    0.000    0.000    0.000    0.000    0.000 
#    0.000    0.000    0.000    0.000    0.000    0.000 
#
# Total GULP energy -173518.845428 kJ/mol
# GULP energy per Si atom -12394.203245 kJ/mol
# Density = 2.355727 g / cm^3
# Si number density = 23.611009 Si / 1000 Ang^3
#
#
#
# Elastic Constant Matrix: (Units=GPa)
#
#
# Indices 1 2 3 4 5 6 
#
# 1 91.8510 41.2919 8.2086 6.8139 -8.4229 9.4977
# 2 41.2919 147.5041 22.6116 7.8249 -15.5588 18.8173
# 3 8.2086 22.6116 108.4737 -3.4510 -21.5225 2.7283
# 4 6.8139 7.8249 -3.4510 34.6755 4.0216 -8.1263
# 5 -8.4229 -15.5588 -21.5225 4.0216 50.1565 6.2065
# 6 9.4977 18.8173 2.7283 -8.1263 6.2065 43.9661
#
#
#
# Elastic Compliance Matrix: (Units=1/GPa)
#
#
# Indices 1 2 3 4 5 6 
#
# 1 0.012804 -0.002985 -0.000039 -0.002556 0.001684 -0.002196
# 2 -0.002985 0.008665 -0.001091 -0.002653 0.002404 -0.003826
# 3 -0.000039 -0.001091 0.010299 0.000658 0.004098 -0.000621
# 4 -0.002556 -0.002653 0.000658 0.032484 -0.004602 0.008300
# 5 0.001684 0.002404 0.004098 -0.004602 0.023819 -0.005860
# 6 -0.002196 -0.003826 -0.000621 0.008300 -0.005860 0.027257
#
#
# Mechanical properties :
#
#
# Convention : Reuss Voigt Hill
#
# Bulk Modulus (GPa) = 42.48510 54.67255 48.57883
# Shear Modulus (GPa) = 38.05096 44.14074 41.09585
#
# Velocity S-wave (km/s) = 4.01880 4.32846 4.17650
# Velocity P-wave (km/s) = 6.29024 6.94165 6.62396
#
# Compressibility (1/GPa) = 0.02353766
#
# Stress axis : x y z
#
# Youngs Moduli (GPa) = 78.10240 115.41024 97.09722
#
# Poissons Ratio (x) = 0.34448 0.00375
# Poissons Ratio (y) = 0.23312 0.10597
# Poissons Ratio (z) = 0.00301 0.12596
#
# Static dielectric constant tensor:
#      x y z
#    x 4.169080 -0.016020 -0.331360 
#    y -0.016020 4.299050 -0.261120 
#    z -0.331360 -0.261120 4.274110 
# 
# 
# High freq. dielectric constant tensor:
#      x y z
#    x 1.944750 0.011360 -0.004120 
#    y 0.011360 1.948820 -0.003470 
#    z -0.004120 -0.003470 1.943040 
# 
# From -- ./inp_files/124295.got.cif
#   From: 2010.06.25/outbox.cif.g09.slc.cpg/sg2_63_cif.got.tgz:124295.got - 2010.06.27 13:26:56.
