data_PCOD8036655
_publ_section_title
;
Structure prediction by ZEFSAII (Michael W. Deem and Ramdas Pophale) SiO2 
 PCOD8036655
Probable space group: P -1
;
_chemical_formula_sum "Si O2"
_cell_formula_units_Z 16
_cell_length_a 14.874464
_cell_length_b 5.105243
_cell_length_c 15.907850
_cell_angle_alpha 61.372198
_cell_angle_beta 46.296223
_cell_angle_gamma 59.175437
_cell_volume 734.553914
_symmetry_space_group_name_H-M "P -1"
_symmetry_group_IT_number 2
_symmetry_cell_setting 'triclinic'
loop_
_space_group_symop_operation_xyz
x,y,z
-x,-y,-z
loop_
_atom_site_type_symbol
_atom_site_label
_atom_site_fract_x
_atom_site_fract_y
_atom_site_fract_z
Si Si1 0.971091 0.222570 0.229206
Si Si2 0.756166 0.093706 0.828187
Si Si3 0.582440 0.801555 0.550567
Si Si4 0.249001 0.867402 0.504684
Si Si5 0.647913 0.265701 0.181281
Si Si6 0.291770 0.191241 0.264778
Si Si7 0.403212 0.029837 0.905703
Si Si8 0.911953 0.943383 0.140632
O O1 0.891210 0.107205 0.370523
O O2 0.956034 0.585966 0.194588
O O3 0.924372 0.160600 0.176754
O O4 0.120189 0.029431 0.173151
O O5 0.738210 0.443472 0.755781
O O6 0.771718 0.873125 0.771064
O O7 0.629701 0.084114 0.964524
O O8 0.673062 0.488756 0.501963
O O9 0.490420 0.729076 0.692409
O O10 0.500000 0.000000 0.500000
O O11 0.671749 0.991515 0.502802
O O12 0.225811 0.052789 0.403784
O O13 0.668187 0.606192 0.117608
O O14 0.651510 0.158152 0.099430
O O15 0.762061 0.033506 0.195953
O O16 0.444219 0.023575 0.191069
O O17 0.000000 0.000000 0.000000
#
# Coordination Sequence:
#
# PCOD8036655 Si02
#       8
#     2   2   2   2   2   2   2   2
#     4  12  26  46  66 100 134 177 224 269 322 393
#     4  12  26  43  69  94 130 178 225 274 331 383
#     4  12  23  41  65  97 130 174 214 263 326 393
#     4  12  25  44  66  95 138 168 219 275 319 392
#     4  12  22  40  68  98 131 173 212 266 342 389
#     4  12  24  44  67  96 133 174 221 276 333 378
#     4  12  23  43  66 102 132 165 222 279 330 398
#     4  12  25  45  69 100 137 176 218 267 326 397
#
# _framework density 21.781925999999999
#
# number of rings (size 3 to 8) (size 9 to 14) (size 15 to 20)
#    0.000    0.000    2.500    9.000    0.000    1.000 
#    0.000    0.000    0.000    0.000    0.000    0.000 
#    0.000    0.000    0.000    0.000    0.000    0.000 
#
# Total GULP energy -198579.923376 kJ/mol
# GULP energy per Si atom -12411.245211 kJ/mol
# Density = 2.173235 g / cm^3
# Si number density = 21.781926 Si / 1000 Ang^3
#
#
#
# Elastic Constant Matrix: (Units=GPa)
#
#
# Indices 1 2 3 4 5 6 
#
# 1 92.3904 15.5663 23.1212 4.0200 4.5672 9.3089
# 2 15.5663 106.9287 17.8774 -7.5697 -4.3317 9.3758
# 3 23.1212 17.8774 121.4934 6.3903 1.0497 1.3975
# 4 4.0200 -7.5697 6.3903 30.4560 -2.1578 3.6015
# 5 4.5672 -4.3317 1.0497 -2.1578 34.0621 1.5861
# 6 9.3089 9.3758 1.3975 3.6015 1.5861 39.2920
#
#
#
# Elastic Compliance Matrix: (Units=1/GPa)
#
#
# Indices 1 2 3 4 5 6 
#
# 1 0.011912 -0.001377 -0.001952 -0.001361 -0.001695 -0.002231
# 2 -0.001377 0.010331 -0.001429 0.003476 0.001878 -0.002483
# 3 -0.001952 -0.001429 0.008917 -0.002075 -0.000358 0.000691
# 4 -0.001361 0.003476 -0.002075 0.034976 0.003080 -0.003763
# 5 -0.001695 0.001878 -0.000358 0.003080 0.030102 -0.001531
# 6 -0.002231 -0.002483 0.000691 -0.003763 -0.001531 0.026954
#
#
# Mechanical properties :
#
#
# Convention : Reuss Voigt Hill
#
# Bulk Modulus (GPa) = 46.20232 48.21580 47.20906
# Shear Modulus (GPa) = 35.73397 38.37853 37.05625
#
# Velocity S-wave (km/s) = 4.05474 4.20211 4.12908
# Velocity P-wave (km/s) = 6.57104 6.76220 6.66731
#
# Compressibility (1/GPa) = 0.02164394
#
# Stress axis : x y z
#
# Youngs Moduli (GPa) = 83.94871 96.79434 112.14547
#
# Poissons Ratio (x) = 0.13329 0.21896
# Poissons Ratio (y) = 0.11560 0.16021
# Poissons Ratio (z) = 0.16390 0.13828
#
# Static dielectric constant tensor:
#      x y z
#    x 3.973920 0.122650 -0.034860 
#    y 0.122650 4.025670 0.032520 
#    z -0.034860 0.032520 4.109130 
# 
# 
# High freq. dielectric constant tensor:
#      x y z
#    x 1.864080 0.009230 0.002450 
#    y 0.009230 1.868930 -0.001720 
#    z 0.002450 -0.001720 1.871330 
# 
# From -- ./inp_files/76978.got.cif
#   From: 2010.06.25/outbox.cif.g09.slc.cpg/sg2_39_cif.got.tgz:76978.got - 2010.06.27 13:26:56.
