data_PCOD8036734
_publ_section_title
;
Structure prediction by ZEFSAII (Michael W. Deem and Ramdas Pophale) SiO2 
 PCOD8036734
Probable space group: P -1
;
_chemical_formula_sum "Si O2"
_cell_formula_units_Z 14
_cell_length_a 5.421527
_cell_length_b 11.373482
_cell_length_c 16.527943
_cell_angle_alpha 43.858363
_cell_angle_beta 108.913056
_cell_angle_gamma 82.053683
_cell_volume 550.038606
_symmetry_space_group_name_H-M "P -1"
_symmetry_group_IT_number 2
_symmetry_cell_setting 'triclinic'
loop_
_space_group_symop_operation_xyz
x,y,z
-x,-y,-z
loop_
_atom_site_type_symbol
_atom_site_label
_atom_site_fract_x
_atom_site_fract_y
_atom_site_fract_z
Si Si1 0.095679 0.596162 0.161878
Si Si2 0.186293 0.269044 0.764500
Si Si3 0.783808 0.362425 0.400022
Si Si4 0.787977 0.809274 0.671516
Si Si5 0.406962 0.024149 0.166549
Si Si6 0.287346 0.732207 0.390036
Si Si7 0.278397 0.926412 0.682489
O O1 0.470120 0.503812 0.241664
O O2 0.055382 0.407119 0.253193
O O3 0.926512 0.732451 0.156925
O O4 0.917346 0.748737 0.991616
O O5 0.107513 0.494942 0.625799
O O6 0.044163 0.194124 0.720223
O O7 0.537245 0.082410 0.865296
O O8 0.696077 0.268911 0.510914
O O9 0.074336 0.147222 0.499391
O O10 0.623358 0.787652 0.745314
O O11 0.082506 0.823715 0.713219
O O12 0.500000 0.000000 0.500000
O O13 0.667395 0.047030 0.229707
O O14 0.384678 0.881739 0.299124
O O15 0.500000 0.500000 0.500000
#
# Coordination Sequence:
#
# PCOD8036734 Si02
#       7
#     2   2   2   2   2   2   2
#     4  12  29  46  74 111 157 197 250 321 388 448
#     4  12  24  43  75 110 152 196 253 306 390 456
#     4  12  24  45  78 111 145 203 254 316 379 456
#     4  12  27  52  80 114 147 201 267 320 374 453
#     4  12  28  47  73 114 156 198 247 317 390 456
#     4  12  22  44  72 107 151 197 254 306 374 466
#     4  12  27  49  82 110 150 204 262 316 376 456
#
# _framework density 25.452760999999999
#
# number of rings (size 3 to 8) (size 9 to 14) (size 15 to 20)
#    0.000    0.000    5.714    3.857    2.000    4.571 
#    0.000    0.000    0.000    0.000    0.000    0.000 
#    0.000    0.000    0.000    0.000    0.000    0.000 
#
# Total GULP energy -173450.896459 kJ/mol
# GULP energy per Si atom -12389.349747 kJ/mol
# Density = 2.539483 g / cm^3
# Si number density = 25.452761 Si / 1000 Ang^3
#
#
#
# Elastic Constant Matrix: (Units=GPa)
#
#
# Indices 1 2 3 4 5 6 
#
# 1 110.4980 36.3606 11.0298 5.3446 2.8501 16.2920
# 2 36.3606 110.7763 12.7626 -2.7454 7.6300 17.1702
# 3 11.0298 12.7626 118.1649 -1.7927 21.1725 7.2937
# 4 5.3446 -2.7454 -1.7927 27.6255 0.9606 1.8969
# 5 2.8501 7.6300 21.1725 0.9606 17.7863 -2.5765
# 6 16.2920 17.1702 7.2937 1.8969 -2.5765 36.4955
#
#
#
# Elastic Compliance Matrix: (Units=1/GPa)
#
#
# Indices 1 2 3 4 5 6 
#
# 1 0.010658 -0.002995 -0.000474 -0.002167 -0.000199 -0.003156
# 2 -0.002995 0.011091 0.000373 0.002203 -0.005487 -0.004457
# 3 -0.000474 0.000373 0.011195 0.001565 -0.013969 -0.003269
# 4 -0.002167 0.002203 0.001565 0.037290 -0.004861 -0.002663
# 5 -0.000199 -0.005487 -0.013969 -0.004861 0.077116 0.011159
# 6 -0.003156 -0.004457 -0.003269 -0.002663 0.011159 0.032486
#
#
# Mechanical properties :
#
#
# Convention : Reuss Voigt Hill
#
# Bulk Modulus (GPa) = 37.37824 51.08281 44.23053
# Shear Modulus (GPa) = 25.64849 35.00053 30.32451
#
# Velocity S-wave (km/s) = 3.17786 3.71228 3.45542
# Velocity P-wave (km/s) = 5.30870 6.20386 5.77365
#
# Compressibility (1/GPa) = 0.02675353
#
# Stress axis : x y z
#
# Youngs Moduli (GPa) = 93.82771 90.16725 89.32502
#
# Poissons Ratio (x) = 0.27001 0.04232
# Poissons Ratio (y) = 0.28097 -0.03335
# Poissons Ratio (z) = 0.04445 -0.03366
#
# Static dielectric constant tensor:
#      x y z
#    x 3.451460 -0.267830 -0.410030 
#    y -0.267830 4.528190 -0.200700 
#    z -0.410030 -0.200700 4.004170 
# 
# 
# High freq. dielectric constant tensor:
#      x y z
#    x 2.022340 -0.007820 0.009150 
#    y -0.007820 2.034590 -0.010890 
#    z 0.009150 -0.010890 1.993080 
# 
# From -- ./inp_files/549064.got.cif
#   From: 2010.06.25/outbox.cif.g09.slc.cpg/sg2_275_cif.got.tgz:549064.got - 2010.06.27 13:26:56.
