data_PCOD8036351
_publ_section_title
;
Structure prediction by ZEFSAII (Michael W. Deem and Ramdas Pophale) SiO2 
 PCOD8036351
Probable space group: P -1
;
_chemical_formula_sum "Si O2"
_cell_formula_units_Z 16
_cell_length_a 10.775131
_cell_length_b 9.630339
_cell_length_c 8.859932
_cell_angle_alpha 95.683387
_cell_angle_beta 60.893735
_cell_angle_gamma 123.208073
_cell_volume 654.239206
_symmetry_space_group_name_H-M "P -1"
_symmetry_group_IT_number 2
_symmetry_cell_setting 'triclinic'
loop_
_space_group_symop_operation_xyz
x,y,z
-x,-y,-z
loop_
_atom_site_type_symbol
_atom_site_label
_atom_site_fract_x
_atom_site_fract_y
_atom_site_fract_z
Si Si1 0.603682 0.400655 0.253452
Si Si2 0.939598 0.232515 0.366088
Si Si3 0.062998 0.772391 0.305842
Si Si4 0.670249 0.541350 0.548075
Si Si5 0.778974 0.416904 0.868931
Si Si6 0.638777 0.112502 0.308352
Si Si7 0.095675 0.059040 0.109924
Si Si8 0.460296 0.214526 0.832378
O O1 0.671798 0.533613 0.364657
O O2 0.416640 0.365920 0.322982
O O3 0.584967 0.226365 0.275656
O O4 0.744890 0.491266 0.045905
O O5 0.822547 0.226974 0.298147
O O6 0.836866 0.171013 0.582830
O O7 0.108992 0.427950 0.295921
O O8 0.996497 0.108973 0.281389
O O9 0.871333 0.658514 0.480300
O O10 0.116844 0.666752 0.166468
O O11 0.093473 0.915061 0.190406
O O12 0.566639 0.346749 0.647757
O O13 0.590991 0.269079 0.899232
O O14 0.500000 0.000000 0.500000
O O15 0.630549 0.983436 0.177792
O O16 0.296498 0.217316 0.980506
O O17 0.000000 0.000000 0.000000
#
# Coordination Sequence:
#
# PCOD8036351 Si02
#       8
#     2   2   2   2   2   2   2   2
#     4  11  27  44  74 112 148 199 250 307 381 446
#     4  12  27  49  78 108 153 200 252 311 377 450
#     4  12  28  50  76 114 152 199 254 309 382 445
#     4  11  26  48  77 110 152 196 253 309 374 457
#     4  12  28  49  78 113 151 196 257 319 372 443
#     4  12  25  44  74 107 146 199 248 304 373 448
#     4  12  29  49  76 114 155 197 248 318 378 448
#     4  12  26  51  75 110 155 197 250 313 377 448
#
# _framework density 24.455887000000001
#
# number of rings (size 3 to 8) (size 9 to 14) (size 15 to 20)
#    0.000    0.250    3.750    3.750    8.750    5.000 
#    0.000    0.000    0.000    0.000    0.000    0.000 
#    0.000    0.000    0.000    0.000    0.000    0.000 
#
# Total GULP energy -198370.114435 kJ/mol
# GULP energy per Si atom -12398.132152 kJ/mol
# Density = 2.440022 g / cm^3
# Si number density = 24.455887 Si / 1000 Ang^3
#
#
#
# Elastic Constant Matrix: (Units=GPa)
#
#
# Indices 1 2 3 4 5 6 
#
# 1 99.8339 42.8748 28.9773 -7.0462 -11.2405 -17.6796
# 2 42.8748 85.1599 25.9350 3.4786 4.7761 -10.1861
# 3 28.9773 25.9350 120.2595 6.1673 -5.4506 -9.5313
# 4 -7.0462 3.4786 6.1673 41.3957 -6.4703 -12.5320
# 5 -11.2405 4.7761 -5.4506 -6.4703 45.4560 0.4480
# 6 -17.6796 -10.1861 -9.5313 -12.5320 0.4480 41.3530
#
#
#
# Elastic Compliance Matrix: (Units=1/GPa)
#
#
# Indices 1 2 3 4 5 6 
#
# 1 0.015821 -0.007192 -0.001837 0.006346 0.005288 0.006435
# 2 -0.007192 0.016232 -0.001828 -0.003080 -0.004138 -0.000386
# 3 -0.001837 -0.001828 0.009288 -0.001285 0.000664 0.000509
# 4 0.006346 -0.003080 -0.001285 0.029826 0.005879 0.010633
# 5 0.005288 -0.004138 0.000664 0.005879 0.024629 0.002909
# 6 0.006435 -0.000386 0.000509 0.010633 0.002909 0.030146
#
#
# Mechanical properties :
#
#
# Convention : Reuss Voigt Hill
#
# Bulk Modulus (GPa) = 50.94774 55.64749 53.29761
# Shear Modulus (GPa) = 32.42565 39.47201 35.94883
#
# Velocity S-wave (km/s) = 3.64522 4.02183 3.83815
# Velocity P-wave (km/s) = 6.21245 6.66112 6.44069
#
# Compressibility (1/GPa) = 0.01962796
#
# Stress axis : x y z
#
# Youngs Moduli (GPa) = 63.20581 61.60728 107.66045
#
# Poissons Ratio (x) = 0.44308 0.19777
# Poissons Ratio (y) = 0.45458 0.19678
# Poissons Ratio (z) = 0.11611 0.11260
#
# Static dielectric constant tensor:
#      x y z
#    x 3.968690 -0.897310 -0.862030 
#    y -0.897310 2.551350 -0.575900 
#    z -0.862030 -0.575900 3.935380 
# 
# 
# High freq. dielectric constant tensor:
#      x y z
#    x 1.985130 -0.010910 -0.004640 
#    y -0.010910 1.958700 0.004410 
#    z -0.004640 0.004410 1.990050 
# 
# From -- ./inp_files/244457.got.cif
#   From: 2010.06.25/outbox.cif.g09.slc.cpg/sg2_123_cif.got.tgz:244457.got - 2010.06.27 13:26:56.
