data_PCOD8036487
_publ_section_title
;
Structure prediction by ZEFSAII (Michael W. Deem and Ramdas Pophale) SiO2 
 PCOD8036487
Probable space group: P -1
;
_chemical_formula_sum "Si O2"
_cell_formula_units_Z 14
_cell_length_a 9.206676
_cell_length_b 23.834161
_cell_length_c 5.075061
_cell_angle_alpha 115.024827
_cell_angle_beta 82.057613
_cell_angle_gamma 144.615480
_cell_volume 537.078221
_symmetry_space_group_name_H-M "P -1"
_symmetry_group_IT_number 2
_symmetry_cell_setting 'triclinic'
loop_
_space_group_symop_operation_xyz
x,y,z
-x,-y,-z
loop_
_atom_site_type_symbol
_atom_site_label
_atom_site_fract_x
_atom_site_fract_y
_atom_site_fract_z
Si Si1 0.713961 0.161596 0.201792
Si Si2 0.533861 0.812727 0.876012
Si Si3 0.697110 0.618329 0.543403
Si Si4 0.688130 0.026724 0.688181
Si Si5 0.541793 0.627256 0.066497
Si Si6 0.988182 0.452032 0.657460
Si Si7 0.234822 0.163479 0.608331
O O1 0.550758 0.144513 0.987539
O O2 0.004398 0.298588 0.462038
O O3 0.506973 0.093131 0.363111
O O4 0.789252 0.115828 0.044872
O O5 0.268000 0.683809 0.571978
O O6 0.769185 0.884210 0.736672
O O7 0.633697 0.823660 0.150553
O O8 0.500000 0.500000 0.500000
O O9 0.548117 0.593210 0.273473
O O10 0.768188 0.691000 0.913595
O O11 0.928668 0.076226 0.575840
O O12 0.500000 0.000000 0.500000
O O13 0.575848 0.711895 0.284221
O O14 0.263587 0.509828 0.744737
O O15 0.000000 0.500000 0.500000
O O16 0.000000 0.500000 0.000000
#
# Coordination Sequence:
#
# PCOD8036487 Si02
#       7
#     2   2   2   2   2   2   2
#     4  11  28  48  76 110 149 194 250 313 374 435
#     4  12  27  46  72 114 150 192 248 312 368 440
#     4  12  26  45  73 110 149 192 247 307 365 443
#     4  11  27  52  79 103 145 198 252 308 375 447
#     4  12  23  43  71 104 147 198 249 291 366 441
#     4  12  22  41  66 103 152 198 238 294 368 442
#     4  12  26  47  78 104 147 193 248 304 369 447
#
# _framework density 26.066963000000001
#
# number of rings (size 3 to 8) (size 9 to 14) (size 15 to 20)
#    0.000    0.286    4.286    3.857    6.000    2.286 
#    0.000    0.000    0.000    0.000    0.000    0.000 
#    0.000    0.000    0.000    0.000    0.000    0.000 
#
# Total GULP energy -173441.904826 kJ/mol
# GULP energy per Si atom -12388.707488 kJ/mol
# Density = 2.600763 g / cm^3
# Si number density = 26.066963 Si / 1000 Ang^3
#
#
#
# Elastic Constant Matrix: (Units=GPa)
#
#
# Indices 1 2 3 4 5 6 
#
# 1 127.0323 63.4457 17.4169 -11.4015 28.7232 -4.4961
# 2 63.4457 166.8829 47.2176 -15.2503 27.6112 1.3786
# 3 17.4169 47.2176 86.8341 -32.9942 32.0780 -9.3645
# 4 -11.4015 -15.2503 -32.9942 50.1451 -4.4734 14.9823
# 5 28.7232 27.6112 32.0780 -4.4734 52.5626 -13.1151
# 6 -4.4961 1.3786 -9.3645 14.9823 -13.1151 35.0879
#
#
#
# Elastic Compliance Matrix: (Units=1/GPa)
#
#
# Indices 1 2 3 4 5 6 
#
# 1 0.010902 -0.003745 0.003144 0.003244 -0.005937 -0.001221
# 2 -0.003745 0.008645 -0.004132 -0.000408 -0.000489 -0.001931
# 3 0.003144 -0.004132 0.023421 0.015063 -0.013745 -0.004753
# 4 0.003244 -0.000408 0.015063 0.033691 -0.011428 -0.014206
# 5 -0.005937 -0.000489 -0.013745 -0.011428 0.033151 0.012861
# 6 -0.001221 -0.001931 -0.004753 -0.014206 0.012861 0.038024
#
#
# Mechanical properties :
#
#
# Convention : Reuss Voigt Hill
#
# Bulk Modulus (GPa) = 29.85003 70.76774 50.30889
# Shear Modulus (GPa) = 29.67930 44.40372 37.04151
#
# Velocity S-wave (km/s) = 3.37794 4.13176 3.77372
# Velocity P-wave (km/s) = 5.16625 7.06890 6.19110
#
# Compressibility (1/GPa) = 0.03350081
#
# Stress axis : x y z
#
# Youngs Moduli (GPa) = 91.72624 115.67460 42.69715
#
# Poissons Ratio (x) = 0.43326 -0.13425
# Poissons Ratio (y) = 0.34356 0.17643
# Poissons Ratio (z) = -0.28840 0.47798
#
# Static dielectric constant tensor:
#      x y z
#    x 7.704400 2.244880 -0.591200 
#    y 2.244880 4.702280 -0.730560 
#    z -0.591200 -0.730560 4.102910 
# 
# 
# High freq. dielectric constant tensor:
#      x y z
#    x 2.062600 0.008000 0.000600 
#    y 0.008000 2.062740 -0.000640 
#    z 0.000600 -0.000640 2.038700 
# 
# From -- ./inp_files/53298.got.cif
#   From: 2010.06.25/outbox.cif.g09.slc.cpg/sg2_27_cif.got.tgz:53298.got - 2010.06.27 13:26:56.
