data_PCOD8036506
_publ_section_title
;
Structure prediction by ZEFSAII (Michael W. Deem and Ramdas Pophale) SiO2 
 PCOD8036506
Probable space group: P -1
;
_chemical_formula_sum "Si O2"
_cell_formula_units_Z 10
_cell_length_a 5.417591
_cell_length_b 15.706554
_cell_length_c 15.911218
_cell_angle_alpha 161.930561
_cell_angle_beta 68.942420
_cell_angle_gamma 109.025369
_cell_volume 391.328883
_symmetry_space_group_name_H-M "P -1"
_symmetry_group_IT_number 2
_symmetry_cell_setting 'triclinic'
loop_
_space_group_symop_operation_xyz
x,y,z
-x,-y,-z
loop_
_atom_site_type_symbol
_atom_site_label
_atom_site_fract_x
_atom_site_fract_y
_atom_site_fract_z
Si Si1 0.381710 0.076295 0.855195
Si Si2 0.060916 0.645175 0.424081
Si Si3 0.765627 0.830174 0.330226
Si Si4 0.153840 0.576945 0.922909
Si Si5 0.434509 0.217289 0.282721
O O1 0.270593 0.885748 0.615124
O O2 0.386502 0.876285 0.747447
O O3 0.197907 0.349052 0.151659
O O4 0.675615 0.165653 0.881148
O O5 0.894041 0.618761 0.334257
O O6 0.871343 0.752567 0.623767
O O7 0.689231 0.598219 0.188658
O O8 0.500000 0.000000 0.500000
O O9 0.000000 0.000000 0.500000
O O10 0.869868 0.688066 0.097852
O O11 0.500000 0.500000 0.500000
O O12 0.500000 0.000000 0.000000
#
# Coordination Sequence:
#
# PCOD8036506 Si02
#       5
#     2   2   2   2   2
#     4  12  28  48  82 115 156 215 271 334 412 489
#     4  12  28  48  82 115 156 215 271 334 412 489
#     4  11  30  51  81 118 168 218 276 346 414 484
#     4  11  29  50  77 118 162 206 281 336 403 495
#     4  12  27  50  75 117 162 201 271 338 407 492
#
# _framework density 25.553955999999999
#
# number of rings (size 3 to 8) (size 9 to 14) (size 15 to 20)
#    0.000    0.400    0.000    6.000   14.000    6.400 
#    0.000    3.000    0.000    0.000    0.000    0.000 
#    0.000    0.000    0.000    0.000    0.000    0.000 
#
# Total GULP energy -124030.364880 kJ/mol
# GULP energy per Si atom -12403.036488 kJ/mol
# Density = 2.549579 g / cm^3
# Si number density = 25.553956 Si / 1000 Ang^3
#
#
#
# Elastic Constant Matrix: (Units=GPa)
#
#
# Indices 1 2 3 4 5 6 
#
# 1 159.5482 63.1308 78.9738 2.3112 -2.4534 -2.3850
# 2 63.1308 163.4578 83.4075 1.9592 -0.2581 -3.4579
# 3 78.9738 83.4075 204.2013 6.7628 5.3389 6.4740
# 4 2.3112 1.9592 6.7628 43.3508 2.8585 -13.3666
# 5 -2.4534 -0.2581 5.3389 2.8585 74.1056 10.5165
# 6 -2.3850 -3.4579 6.4740 -13.3666 10.5165 17.9202
#
#
#
# Elastic Compliance Matrix: (Units=1/GPa)
#
#
# Indices 1 2 3 4 5 6 
#
# 1 0.008285 -0.001872 -0.002531 0.000671 0.000129 0.002080
# 2 -0.001872 0.008345 -0.002830 0.001291 -0.000386 0.003573
# 3 -0.002531 -0.002830 0.007291 -0.002635 0.000284 -0.005650
# 4 0.000671 0.001291 -0.002635 0.032517 -0.005086 0.028530
# 5 0.000129 -0.000386 0.000284 -0.005086 0.015527 -0.013066
# 6 0.002080 0.003573 -0.005650 0.028530 -0.013066 0.087758
#
#
# Mechanical properties :
#
#
# Convention : Reuss Voigt Hill
#
# Bulk Modulus (GPa) = 105.78116 108.69239 107.23677
# Shear Modulus (GPa) = 28.19444 47.18834 37.69139
#
# Velocity S-wave (km/s) = 3.32524 4.30189 3.84470
# Velocity P-wave (km/s) = 7.49854 8.20377 7.85907
#
# Compressibility (1/GPa) = 0.00945348
#
# Stress axis : x y z
#
# Youngs Moduli (GPa) = 120.70641 119.83855 137.15596
#
# Poissons Ratio (x) = 0.22435 0.34713
# Poissons Ratio (y) = 0.22597 0.38820
# Poissons Ratio (z) = 0.30549 0.33919
#
# Static dielectric constant tensor:
#      x y z
#    x 4.837310 -0.021020 -0.125600 
#    y -0.021020 4.927170 -0.016370 
#    z -0.125600 -0.016370 4.823860 
# 
# 
# High freq. dielectric constant tensor:
#      x y z
#    x 2.023070 -0.002520 -0.014080 
#    y -0.002520 2.028450 0.004230 
#    z -0.014080 0.004230 2.048070 
# 
# From -- ./inp_files/96086.got.cif
#   From: 2010.06.25/outbox.cif.g09.slc.cpg/sg2_49_cif.got.tgz:96086.got - 2010.06.27 13:26:56.
