data_PCOD8036202
_publ_section_title
;
Structure prediction by ZEFSAII (Michael W. Deem and Ramdas Pophale) SiO2 
 PCOD8036202
Probable space group: P -1
;
_chemical_formula_sum "Si O2"
_cell_formula_units_Z 16
_cell_length_a 22.240564
_cell_length_b 12.889094
_cell_length_c 9.823855
_cell_angle_alpha 139.057941
_cell_angle_beta 147.610873
_cell_angle_gamma 26.299247
_cell_volume 668.337927
_symmetry_space_group_name_H-M "P -1"
_symmetry_group_IT_number 2
_symmetry_cell_setting 'triclinic'
loop_
_space_group_symop_operation_xyz
x,y,z
-x,-y,-z
loop_
_atom_site_type_symbol
_atom_site_label
_atom_site_fract_x
_atom_site_fract_y
_atom_site_fract_z
Si Si1 0.143476 0.236755 0.860692
Si Si2 0.175692 0.345650 0.751535
Si Si3 0.763805 0.701741 0.636647
Si Si4 0.819025 0.163428 0.880108
Si Si5 0.338926 0.532809 0.863819
Si Si6 0.662076 0.010808 0.506769
Si Si7 0.288208 0.759790 0.718773
Si Si8 0.692957 0.474917 0.715078
O O1 0.213042 0.192997 0.799651
O O2 0.952665 0.483991 0.737665
O O3 0.159321 0.037110 0.732632
O O4 0.246922 0.237070 0.165168
O O5 0.000000 0.500000 0.500000
O O6 0.315878 0.159658 0.723048
O O7 0.184894 0.516730 0.987069
O O8 0.661840 0.647241 0.365656
O O9 0.683745 0.926549 0.618336
O O10 0.798906 0.002144 0.725726
O O11 0.684612 0.348699 0.690451
O O12 0.784734 0.312611 0.092343
O O13 0.000000 0.000000 0.000000
O O14 0.278557 0.711803 0.806921
O O15 0.527232 0.379139 0.111927
O O16 0.483794 0.271505 0.408348
O O17 0.229145 0.680818 0.427348
#
# Coordination Sequence:
#
# PCOD8036202 Si02
#       8
#     2   2   2   2   2   2   2   2
#     4  11  26  46  73 105 145 196 243 307 366 442
#     4  12  25  46  71 108 150 190 245 300 373 441
#     4  11  26  47  74 107 148 192 248 305 370 441
#     4  12  27  46  74 107 152 196 245 304 368 442
#     4  11  26  48  72 110 144 197 243 307 376 430
#     4  12  25  47  73 108 151 191 247 307 372 440
#     4  11  26  49  75 106 152 187 254 305 366 449
#     4  12  27  46  74 112 145 200 242 308 373 439
#
# _framework density 23.939983999999999
#
# number of rings (size 3 to 8) (size 9 to 14) (size 15 to 20)
#    0.000    0.500    2.500    4.500    8.750    1.000 
#    0.000    0.000    0.000    0.000    0.000    0.000 
#    0.000    0.000    0.000    0.000    0.000    0.000 
#
# Total GULP energy -198504.605022 kJ/mol
# GULP energy per Si atom -12406.537814 kJ/mol
# Density = 2.388550 g / cm^3
# Si number density = 23.939984 Si / 1000 Ang^3
#
#
#
# Elastic Constant Matrix: (Units=GPa)
#
#
# Indices 1 2 3 4 5 6 
#
# 1 91.6565 36.6602 30.4267 -21.4648 -14.5519 11.9682
# 2 36.6602 123.2858 43.9423 -2.9941 -12.4473 16.0542
# 3 30.4267 43.9423 132.8471 9.9327 -7.6167 3.6865
# 4 -21.4648 -2.9941 9.9327 34.3182 7.9538 -8.2069
# 5 -14.5519 -12.4473 -7.6167 7.9538 46.8717 5.1068
# 6 11.9682 16.0542 3.6865 -8.2069 5.1068 45.8089
#
#
#
# Elastic Compliance Matrix: (Units=1/GPa)
#
#
# Indices 1 2 3 4 5 6 
#
# 1 0.016008 -0.002967 -0.003265 0.009886 0.002120 -0.001345
# 2 -0.002967 0.010458 -0.002464 -0.001467 0.002051 -0.003183
# 3 -0.003265 -0.002464 0.009526 -0.005210 0.000772 -0.000069
# 4 0.009886 -0.001467 -0.005210 0.039421 -0.005513 0.006028
# 5 0.002120 0.002051 0.000772 -0.005513 0.024145 -0.005014
# 6 -0.001345 -0.003183 -0.000069 0.006028 -0.005014 0.024941
#
#
# Mechanical properties :
#
#
# Convention : Reuss Voigt Hill
#
# Bulk Modulus (GPa) = 53.76494 63.31643 58.54068
# Shear Modulus (GPa) = 33.76267 41.18377 37.47322
#
# Velocity S-wave (km/s) = 3.75948 4.15214 3.96068
# Velocity P-wave (km/s) = 6.43054 7.03509 6.73959
#
# Compressibility (1/GPa) = 0.01859948
#
# Stress axis : x y z
#
# Youngs Moduli (GPa) = 62.46705 95.62317 104.97558
#
# Poissons Ratio (x) = 0.28372 0.34278
# Poissons Ratio (y) = 0.18535 0.25865
# Poissons Ratio (z) = 0.20397 0.23561
#
# Static dielectric constant tensor:
#      x y z
#    x 4.317530 0.189320 -0.211940 
#    y 0.189320 4.563650 0.295840 
#    z -0.211940 0.295840 4.609980 
# 
# 
# High freq. dielectric constant tensor:
#      x y z
#    x 1.947460 0.011690 -0.017120 
#    y 0.011690 1.962650 0.004500 
#    z -0.017120 0.004500 1.958940 
# 
# From -- ./inp_files/346395.got.cif
#   From: 2010.06.25/outbox.cif.g09.slc.cpg/sg2_174_cif.got.tgz:346395.got - 2010.06.27 13:26:56.
