data_PCOD8036034
_publ_section_title
;
Structure prediction by ZEFSAII (Michael W. Deem and Ramdas Pophale) SiO2 
 PCOD8036034
Probable space group: P -1
;
_chemical_formula_sum "Si O2"
_cell_formula_units_Z 12
_cell_length_a 9.499185
_cell_length_b 11.654686
_cell_length_c 13.810887
_cell_angle_alpha 31.576892
_cell_angle_beta 125.914317
_cell_angle_gamma 141.123250
_cell_volume 488.666268
_symmetry_space_group_name_H-M "P -1"
_symmetry_group_IT_number 2
_symmetry_cell_setting 'triclinic'
loop_
_space_group_symop_operation_xyz
x,y,z
-x,-y,-z
loop_
_atom_site_type_symbol
_atom_site_label
_atom_site_fract_x
_atom_site_fract_y
_atom_site_fract_z
Si Si1 0.236840 0.598204 0.755508
Si Si2 0.669619 0.413478 0.900174
Si Si3 0.084146 0.782155 0.941942
Si Si4 0.232418 0.124067 0.057773
Si Si5 0.579272 0.556105 0.381315
Si Si6 0.322611 0.789762 0.443000
O O1 0.189074 0.594773 0.624819
O O2 0.417430 0.923796 0.633079
O O3 0.327046 0.422689 0.933796
O O4 0.005720 0.426889 0.849849
O O5 0.635326 0.546669 0.699163
O O6 0.875319 0.673478 0.863648
O O7 0.726834 0.213013 0.036529
O O8 0.428443 0.196183 0.014250
O O9 0.203335 0.104170 0.792299
O O10 0.177738 0.880807 0.284339
O O11 0.000000 0.000000 0.000000
O O12 0.500000 0.500000 0.500000
O O13 0.661442 0.383129 0.507955
#
# Coordination Sequence:
#
# PCOD8036034 Si02
#       6
#     2   2   2   2   2   2
#     4  11  25  49  81 113 152 209 260 327 395 467
#     4  11  25  52  76 114 161 207 269 314 403 471
#     4  11  26  49  86 109 161 217 249 340 394 468
#     4  12  25  49  79 111 160 208 256 330 393 467
#     4  12  27  49  77 119 160 206 269 330 390 476
#     4  11  26  49  78 116 157 200 269 323 388 479
#
# _framework density 24.556636000000001
#
# number of rings (size 3 to 8) (size 9 to 14) (size 15 to 20)
#    0.000    0.667    3.333    3.000    2.333    2.667 
#    9.000    0.000    0.000    0.000    0.000    0.000 
#    0.000    0.000    0.000    0.000    0.000    0.000 
#
# Total GULP energy -148816.466695 kJ/mol
# GULP energy per Si atom -12401.372225 kJ/mol
# Density = 2.450074 g / cm^3
# Si number density = 24.556636 Si / 1000 Ang^3
#
#
#
# Elastic Constant Matrix: (Units=GPa)
#
#
# Indices 1 2 3 4 5 6 
#
# 1 145.6457 49.0342 40.6903 -0.3549 1.1415 -7.2381
# 2 49.0342 79.6113 45.6121 -0.8627 -0.2002 2.8588
# 3 40.6903 45.6121 131.5751 11.1516 10.9464 -11.4739
# 4 -0.3549 -0.8627 11.1516 51.8599 -5.1353 5.7533
# 5 1.1415 -0.2002 10.9464 -5.1353 44.1002 1.2336
# 6 -7.2381 2.8588 -11.4739 5.7533 1.2336 44.1543
#
#
#
# Elastic Compliance Matrix: (Units=1/GPa)
#
#
# Indices 1 2 3 4 5 6 
#
# 1 0.008878 -0.005035 -0.000855 -0.000021 -0.000087 0.001565
# 2 -0.005035 0.019134 -0.005766 0.002155 0.002008 -0.003899
# 3 -0.000855 -0.005766 0.010690 -0.003098 -0.003116 0.003502
# 4 -0.000021 0.002155 -0.003098 0.020726 0.003297 -0.003741
# 5 -0.000087 0.002008 -0.003116 0.003297 0.023902 -0.002051
# 6 0.001565 -0.003899 0.003502 -0.003741 -0.002051 0.024612
#
#
# Mechanical properties :
#
#
# Convention : Reuss Voigt Hill
#
# Bulk Modulus (GPa) = 64.97029 69.72281 67.34655
# Shear Modulus (GPa) = 36.66109 42.78924 39.72517
#
# Velocity S-wave (km/s) = 3.86802 4.17882 4.02642
# Velocity P-wave (km/s) = 6.81642 7.19289 7.00718
#
# Compressibility (1/GPa) = 0.01539165
#
# Stress axis : x y z
#
# Youngs Moduli (GPa) = 112.63338 52.26242 93.54137
#
# Poissons Ratio (x) = 0.26316 0.07995
# Poissons Ratio (y) = 0.56715 0.53933
# Poissons Ratio (z) = 0.09626 0.30133
#
# Static dielectric constant tensor:
#      x y z
#    x 4.468260 -0.210590 0.004870 
#    y -0.210590 4.585640 0.117460 
#    z 0.004870 0.117460 4.911580 
# 
# 
# High freq. dielectric constant tensor:
#      x y z
#    x 1.985070 -0.010900 -0.002560 
#    y -0.010900 1.987910 -0.003270 
#    z -0.002560 -0.003270 1.980670 
# 
# From -- ./inp_files/499820.got.cif
#   From: 2010.06.25/outbox.cif.g09.slc.cpg/sg2_250_cif.got.tgz:499820.got - 2010.06.27 13:26:56.
