data_PCOD8036740
_publ_section_title
;
Structure prediction by ZEFSAII (Michael W. Deem and Ramdas Pophale) SiO2 
 PCOD8036740
Probable space group: P -1
;
_chemical_formula_sum "Si O2"
_cell_formula_units_Z 16
_cell_length_a 21.190300
_cell_length_b 9.690794
_cell_length_c 9.352588
_cell_angle_alpha 51.773172
_cell_angle_beta 29.189194
_cell_angle_gamma 57.250265
_cell_volume 735.798805
_symmetry_space_group_name_H-M "P -1"
_symmetry_group_IT_number 2
_symmetry_cell_setting 'triclinic'
loop_
_space_group_symop_operation_xyz
x,y,z
-x,-y,-z
loop_
_atom_site_type_symbol
_atom_site_label
_atom_site_fract_x
_atom_site_fract_y
_atom_site_fract_z
Si Si1 0.913571 0.365429 0.674442
Si Si2 0.523900 0.592904 0.617983
Si Si3 0.687529 0.282421 0.389833
Si Si4 0.742039 0.476970 0.689540
Si Si5 0.903409 0.898064 0.656580
Si Si6 0.715293 0.167357 0.716066
Si Si7 0.708537 0.755141 0.355416
Si Si8 0.456852 0.954255 0.368889
O O1 0.863474 0.445864 0.572650
O O2 0.000000 0.500000 0.500000
O O3 0.009366 0.206303 0.559115
O O4 0.795077 0.300287 0.045035
O O5 0.603378 0.461793 0.441717
O O6 0.597784 0.623094 0.602192
O O7 0.508524 0.785425 0.458883
O O8 0.387390 0.499675 0.975847
O O9 0.752236 0.249698 0.436891
O O10 0.600040 0.114512 0.625228
O O11 0.722456 0.312448 0.730462
O O12 0.770205 0.657493 0.433254
O O13 0.815647 0.017204 0.652776
O O14 0.814684 0.773798 0.009602
O O15 0.000000 0.000000 0.500000
O O16 0.570590 0.093429 0.032930
O O17 0.654707 0.947647 0.381104
#
# Coordination Sequence:
#
# PCOD8036740 Si02
#       8
#     2   2   2   2   2   2   2   2
#     4  12  29  47  69 101 139 185 239 285 337 403
#     4  12  22  44  74 104 142 182 220 284 362 423
#     4  12  27  46  69 106 147 178 224 292 354 411
#     4  12  25  46  75 105 139 181 233 288 345 419
#     4  12  26  46  72  98 137 189 240 282 334 405
#     4  12  25  45  75 105 138 183 232 286 349 418
#     4  12  24  43  75 105 138 181 234 285 346 416
#     4  12  24  42  73 110 142 175 224 289 362 416
#
# _framework density 21.745073999999999
#
# number of rings (size 3 to 8) (size 9 to 14) (size 15 to 20)
#    0.000    0.000    6.250    4.500    0.000    3.000 
#    0.000    0.000    0.000    0.000    0.000    0.000 
#    0.000    0.000    0.000    0.000    0.000    0.000 
#
# Total GULP energy -198483.439657 kJ/mol
# GULP energy per Si atom -12405.214979 kJ/mol
# Density = 2.169558 g / cm^3
# Si number density = 21.745074 Si / 1000 Ang^3
#
#
#
# Elastic Constant Matrix: (Units=GPa)
#
#
# Indices 1 2 3 4 5 6 
#
# 1 126.8082 43.6138 47.0378 -1.1307 -7.7890 6.0030
# 2 43.6138 142.8921 66.6564 23.4850 1.3277 9.1831
# 3 47.0378 66.6564 81.1173 20.1828 8.1603 -15.5511
# 4 -1.1307 23.4850 20.1828 38.9191 3.4358 2.5160
# 5 -7.7890 1.3277 8.1603 3.4358 34.1118 -9.0421
# 6 6.0030 9.1831 -15.5511 2.5160 -9.0421 47.9752
#
#
#
# Elastic Compliance Matrix: (Units=1/GPa)
#
#
# Indices 1 2 3 4 5 6 
#
# 1 0.011734 0.000186 -0.009347 0.005056 0.003291 -0.004178
# 2 0.000186 0.013017 -0.011688 -0.001474 0.000873 -0.006062
# 3 -0.009347 -0.011688 0.033204 -0.010903 -0.004860 0.013826
# 4 0.005056 -0.001474 -0.010903 0.032850 -0.001026 -0.005801
# 5 0.003291 0.000873 -0.004860 -0.001026 0.032359 0.003998
# 6 -0.004178 -0.006062 0.013826 -0.005801 0.003998 0.028067
#
#
# Mechanical properties :
#
#
# Convention : Reuss Voigt Hill
#
# Bulk Modulus (GPa) = 61.50893 73.93708 67.72300
# Shear Modulus (GPa) = 25.20815 37.10185 31.15500
#
# Velocity S-wave (km/s) = 3.40848 4.13512 3.78926
# Velocity P-wave (km/s) = 6.62104 7.54152 7.09622
#
# Compressibility (1/GPa) = 0.01625780
#
# Stress axis : x y z
#
# Youngs Moduli (GPa) = 85.22038 76.82064 30.11671
#
# Poissons Ratio (x) = -0.01427 0.28150
# Poissons Ratio (y) = -0.01583 0.35199
# Poissons Ratio (z) = 0.79656 0.89785
#
# Static dielectric constant tensor:
#      x y z
#    x 4.151330 0.099780 -0.057770 
#    y 0.099780 3.972070 0.034830 
#    z -0.057770 0.034830 3.883660 
# 
# 
# High freq. dielectric constant tensor:
#      x y z
#    x 1.868090 0.001660 0.000590 
#    y 0.001660 1.867770 0.006400 
#    z 0.000590 0.006400 1.849300 
# 
# From -- ./inp_files/299404.got.cif
#   From: 2010.06.25/outbox.cif.g09.slc.cpg/sg2_150_cif.got.tgz:299404.got - 2010.06.27 13:26:56.
