data_PCOD8036139
_publ_section_title
;
Structure prediction by ZEFSAII (Michael W. Deem and Ramdas Pophale) SiO2 
 PCOD8036139
Probable space group: P -1
;
_chemical_formula_sum "Si O2"
_cell_formula_units_Z 16
_cell_length_a 8.679636
_cell_length_b 8.686244
_cell_length_c 13.104842
_cell_angle_alpha 96.357387
_cell_angle_beta 131.527774
_cell_angle_gamma 79.591885
_cell_volume 727.439688
_symmetry_space_group_name_H-M "P -1"
_symmetry_group_IT_number 2
_symmetry_cell_setting 'triclinic'
loop_
_space_group_symop_operation_xyz
x,y,z
-x,-y,-z
loop_
_atom_site_type_symbol
_atom_site_label
_atom_site_fract_x
_atom_site_fract_y
_atom_site_fract_z
Si Si1 0.823596 0.906796 0.610419
Si Si2 0.972146 0.433287 0.796297
Si Si3 0.430587 0.904002 0.110627
Si Si4 0.170269 0.090327 0.840858
Si Si5 0.370093 0.557134 0.046457
Si Si6 0.870755 0.561589 0.545324
Si Si7 0.477325 0.093272 0.341069
Si Si8 0.529162 0.562121 0.702974
O O1 0.854664 0.748139 0.548296
O O2 0.723747 0.875226 0.673050
O O3 0.681132 0.039706 0.493920
O O4 0.047543 0.958498 0.730822
O O5 0.989446 0.491311 0.692669
O O6 0.750444 0.488877 0.751694
O O7 0.010786 0.245632 0.805196
O O8 0.144343 0.503798 0.942753
O O9 0.662515 0.872528 0.165675
O O10 0.335063 0.743623 0.055139
O O11 0.438777 0.960893 0.234162
O O12 0.283686 0.033540 0.991350
O O13 0.495570 0.477953 0.192352
O O14 0.500000 0.500000 0.000000
O O15 0.641890 0.512340 0.441903
O O16 0.000000 0.500000 0.500000
O O17 0.510579 0.251103 0.310054
#
# Coordination Sequence:
#
# PCOD8036139 Si02
#       8
#     2   2   2   2   2   2   2   2
#     4  11  26  47  71 103 142 184 230 288 354 418
#     4  12  25  47  71 104 142 187 237 289 349 419
#     4  11  26  46  71 102 140 185 233 290 353 414
#     4  11  26  45  72 102 141 183 234 289 351 418
#     4  12  25  47  71 103 142 184 239 291 348 414
#     4  12  27  46  73 105 141 186 236 289 352 420
#     4  11  26  46  71 103 141 185 230 289 353 419
#     4  12  27  47  72 104 143 186 238 291 351 417
#
# _framework density 21.994948000000001
#
# number of rings (size 3 to 8) (size 9 to 14) (size 15 to 20)
#    0.000    0.500    2.500    4.500   10.500    1.000 
#    0.000    0.000    0.000    0.000    0.000    0.000 
#    0.000    0.000    0.000    0.000    0.000    0.000 
#
# Total GULP energy -198576.209802 kJ/mol
# GULP energy per Si atom -12411.013113 kJ/mol
# Density = 2.194489 g / cm^3
# Si number density = 21.994948 Si / 1000 Ang^3
#
#
#
# Elastic Constant Matrix: (Units=GPa)
#
#
# Indices 1 2 3 4 5 6 
#
# 1 78.7474 34.1027 18.4883 6.0842 -4.8434 -6.3402
# 2 34.1027 129.0131 30.4492 10.1697 1.1781 10.6634
# 3 18.4883 30.4492 78.2544 9.0289 -2.0311 -6.1653
# 4 6.0842 10.1697 9.0289 48.3648 9.6297 -1.1495
# 5 -4.8434 1.1781 -2.0311 9.6297 47.1567 1.5914
# 6 -6.3402 10.6634 -6.1653 -1.1495 1.5914 23.2669
#
#
#
# Elastic Compliance Matrix: (Units=1/GPa)
#
#
# Indices 1 2 3 4 5 6 
#
# 1 0.015458 -0.004142 -0.001444 -0.000999 0.001645 0.005566
# 2 -0.004142 0.010312 -0.003454 -0.001088 -0.000380 -0.006798
# 3 -0.001444 -0.003454 0.015108 -0.001956 0.000818 0.005040
# 4 -0.000999 -0.001088 -0.001956 0.022372 -0.004767 0.001140
# 5 0.001645 -0.000380 0.000818 -0.004767 0.022424 -0.000930
# 6 0.005566 -0.006798 0.005040 0.001140 -0.000930 0.049067
#
#
# Mechanical properties :
#
#
# Convention : Reuss Voigt Hill
#
# Bulk Modulus (GPa) = 43.86149 50.23281 47.04715
# Shear Modulus (GPa) = 31.16811 37.28931 34.22871
#
# Velocity S-wave (km/s) = 3.76847 4.12194 3.94916
# Velocity P-wave (km/s) = 6.23859 6.74846 6.49853
#
# Compressibility (1/GPa) = 0.02279905
#
# Stress axis : x y z
#
# Youngs Moduli (GPa) = 64.69164 96.97236 66.19060
#
# Poissons Ratio (x) = 0.40161 0.09558
# Poissons Ratio (y) = 0.26792 0.22862
# Poissons Ratio (z) = 0.09342 0.33493
#
# Static dielectric constant tensor:
#      x y z
#    x 3.841890 0.022940 -0.302810 
#    y 0.022940 4.102290 -0.708040 
#    z -0.302810 -0.708040 1.739400 
# 
# 
# High freq. dielectric constant tensor:
#      x y z
#    x 1.867860 0.002760 0.001080 
#    y 0.002760 1.880410 0.000090 
#    z 0.001080 0.000090 1.882320 
# 
# From -- ./inp_files/188472.got.cif
#   From: 2010.06.25/outbox.cif.g09.slc.cpg/sg2_95_cif.got.tgz:188472.got - 2010.06.27 13:26:56.
