data_PCOD8036216
_publ_section_title
;
Structure prediction by ZEFSAII (Michael W. Deem and Ramdas Pophale) SiO2 
 PCOD8036216
Probable space group: P -1
;
_chemical_formula_sum "Si O2"
_cell_formula_units_Z 14
_cell_length_a 7.894537
_cell_length_b 11.552363
_cell_length_c 8.708438
_cell_angle_alpha 68.209499
_cell_angle_beta 118.996752
_cell_angle_gamma 126.055361
_cell_volume 557.435524
_symmetry_space_group_name_H-M "P -1"
_symmetry_group_IT_number 2
_symmetry_cell_setting 'triclinic'
loop_
_space_group_symop_operation_xyz
x,y,z
-x,-y,-z
loop_
_atom_site_type_symbol
_atom_site_label
_atom_site_fract_x
_atom_site_fract_y
_atom_site_fract_z
Si Si1 0.243389 0.632980 0.585525
Si Si2 0.699899 0.401586 0.047409
Si Si3 0.951874 0.678891 0.853678
Si Si4 0.292473 0.928449 0.061883
Si Si5 0.258333 0.165188 0.808670
Si Si6 0.318715 0.184605 0.469885
Si Si7 0.795717 0.105821 0.620131
O O1 0.345836 0.591579 0.796020
O O2 0.432934 0.677015 0.515223
O O3 0.244848 0.782230 0.550418
O O4 0.000000 0.500000 0.500000
O O5 0.917075 0.380096 0.162422
O O6 0.743056 0.545305 0.909932
O O7 0.487565 0.276428 0.932940
O O8 0.868849 0.771674 0.675015
O O9 0.124159 0.764879 0.023725
O O10 0.350255 0.932801 0.266361
O O11 0.500000 0.000000 0.000000
O O12 0.163383 0.015671 0.932593
O O13 0.300640 0.145566 0.659340
O O14 0.060990 0.200697 0.726219
O O15 0.272823 0.041951 0.426257
#
# Coordination Sequence:
#
# PCOD8036216 Si02
#       7
#     2   2   2   2   2   2   2
#     4  12  29  49  72 106 149 191 246 298 365 431
#     4  11  27  48  75 106 145 197 235 302 364 430
#     4  11  26  46  75 103 148 184 252 289 368 430
#     4  12  24  45  76 106 144 191 241 301 360 433
#     4  12  26  45  76 108 144 189 245 296 364 429
#     4  12  28  47  73 110 145 194 242 304 358 431
#     4  12  27  49  74 109 149 189 243 302 365 425
#
# _framework density 25.115012
#
# number of rings (size 3 to 8) (size 9 to 14) (size 15 to 20)
#    0.000    0.286    2.857    4.714   10.000    1.143 
#    0.000    0.000    0.000    0.000    0.000    0.000 
#    0.000    0.000    0.000    0.000    0.000    0.000 
#
# Total GULP energy -173531.001315 kJ/mol
# GULP energy per Si atom -12395.071522 kJ/mol
# Density = 2.505785 g / cm^3
# Si number density = 25.115012 Si / 1000 Ang^3
#
#
#
# Elastic Constant Matrix: (Units=GPa)
#
#
# Indices 1 2 3 4 5 6 
#
# 1 76.1238 29.1586 2.4022 12.0884 -1.0642 23.1298
# 2 29.1586 104.0598 40.7529 6.1239 -5.1520 10.2816
# 3 2.4022 40.7529 114.2510 11.3889 -16.4503 11.1112
# 4 12.0884 6.1239 11.3889 33.1548 5.3439 -1.0464
# 5 -1.0642 -5.1520 -16.4503 5.3439 44.0004 1.6649
# 6 23.1298 10.2816 11.1112 -1.0464 1.6649 32.6017
#
#
#
# Elastic Compliance Matrix: (Units=1/GPa)
#
#
# Indices 1 2 3 4 5 6 
#
# 1 0.021250 -0.005450 0.004370 -0.009243 0.003211 -0.015307
# 2 -0.005450 0.012754 -0.004830 0.001450 -0.000680 0.001572
# 3 0.004370 -0.004830 0.012317 -0.005951 0.005104 -0.006226
# 4 -0.009243 0.001450 -0.005951 0.036759 -0.007109 0.009671
# 5 0.003211 -0.000680 0.005104 -0.007109 0.025699 -0.005344
# 6 -0.015307 0.001572 -0.006226 0.009671 -0.005344 0.043743
#
#
# Mechanical properties :
#
#
# Convention : Reuss Voigt Hill
#
# Bulk Modulus (GPa) = 28.98545 48.78467 38.88506
# Shear Modulus (GPa) = 28.43424 36.75942 32.59683
#
# Velocity S-wave (km/s) = 3.36841 3.82991 3.60655
# Velocity P-wave (km/s) = 5.16666 6.24694 5.73231
#
# Compressibility (1/GPa) = 0.03450007
#
# Stress axis : x y z
#
# Youngs Moduli (GPa) = 47.05883 78.40392 81.18671
#
# Poissons Ratio (x) = 0.42733 -0.35476
# Poissons Ratio (y) = 0.25649 0.39214
# Poissons Ratio (z) = -0.20563 0.37870
#
# Static dielectric constant tensor:
#      x y z
#    x 5.035870 -0.089270 0.218450 
#    y -0.089270 4.773920 -0.338180 
#    z 0.218450 -0.338180 4.614460 
# 
# 
# High freq. dielectric constant tensor:
#      x y z
#    x 2.009450 0.011240 0.008320 
#    y 0.011240 2.004740 -0.011060 
#    z 0.008320 -0.011060 2.011240 
# 
# From -- ./inp_files/156978.got.cif
#   From: 2010.06.25/outbox.cif.g09.slc.cpg/sg2_79_cif.got.tgz:156978.got - 2010.06.27 13:26:56.
