data_PCOD8036002
_publ_section_title
;
Structure prediction by ZEFSAII (Michael W. Deem and Ramdas Pophale) SiO2 
 PCOD8036002
Probable space group: P -1
;
_chemical_formula_sum "Si O2"
_cell_formula_units_Z 14
_cell_length_a 12.360860
_cell_length_b 9.473141
_cell_length_c 21.890839
_cell_angle_alpha 41.256282
_cell_angle_beta 26.079153
_cell_angle_gamma 57.807059
_cell_volume 647.179883
_symmetry_space_group_name_H-M "P -1"
_symmetry_group_IT_number 2
_symmetry_cell_setting 'triclinic'
loop_
_space_group_symop_operation_xyz
x,y,z
-x,-y,-z
loop_
_atom_site_type_symbol
_atom_site_label
_atom_site_fract_x
_atom_site_fract_y
_atom_site_fract_z
Si Si1 0.244217 0.676528 0.553805
Si Si2 0.631631 0.826976 0.501514
Si Si3 0.474246 0.738318 0.087008
Si Si4 0.921855 0.895327 0.712304
Si Si5 0.371142 0.314187 0.846060
Si Si6 0.815444 0.832395 0.273654
Si Si7 0.860855 0.282080 0.542165
O O1 0.549967 0.840196 0.376156
O O2 0.149738 0.389543 0.699049
O O3 0.271925 0.775533 0.439045
O O4 0.013579 0.708255 0.698846
O O5 0.380013 0.558839 0.735817
O O6 0.779761 0.797462 0.375785
O O7 0.500000 0.000000 0.500000
O O8 0.859214 0.924539 0.407628
O O9 0.634017 0.681639 0.079039
O O10 0.149592 0.537062 0.312364
O O11 0.619526 0.735299 0.950277
O O12 0.500000 0.000000 0.000000
O O13 0.907735 0.058530 0.611440
O O14 0.650586 0.304202 0.688938
O O15 0.093222 0.085370 0.033860
#
# Coordination Sequence:
#
# PCOD8036002 Si02
#       7
#     2   2   2   2   2   2   2
#     4  11  26  49  68 102 150 187 231 286 352 430
#     4  12  24  47  73 103 140 182 243 301 338 409
#     4  12  23  41  72 105 140 182 231 290 354 407
#     4  12  25  45  73 107 141 181 236 295 350 415
#     4  12  24  44  76 106 135 186 243 288 352 416
#     4  11  25  49  73  99 142 193 233 289 352 414
#     4  12  25  44  69 104 145 185 229 284 356 430
#
# _framework density 21.632317
#
# number of rings (size 3 to 8) (size 9 to 14) (size 15 to 20)
#    0.000    0.286    7.143    2.571    0.000    1.714 
#    5.143    0.000    0.000    0.000    0.000    0.000 
#    0.000    0.000    0.000    0.000    0.000    0.000 
#
# Total GULP energy -173719.309271 kJ/mol
# GULP energy per Si atom -12408.522091 kJ/mol
# Density = 2.158308 g / cm^3
# Si number density = 21.632317 Si / 1000 Ang^3
#
#
#
# Elastic Constant Matrix: (Units=GPa)
#
#
# Indices 1 2 3 4 5 6 
#
# 1 108.4636 22.5288 31.9279 -5.9022 10.2706 -8.3993
# 2 22.5288 121.5536 41.2110 0.7431 18.1868 -11.8193
# 3 31.9279 41.2110 146.6978 -9.4487 7.2146 -11.3397
# 4 -5.9022 0.7431 -9.4487 30.7555 0.9422 6.0953
# 5 10.2706 18.1868 7.2146 0.9422 29.4843 0.3770
# 6 -8.3993 -11.8193 -11.3397 6.0953 0.3770 35.8419
#
#
#
# Elastic Compliance Matrix: (Units=1/GPa)
#
#
# Indices 1 2 3 4 5 6 
#
# 1 0.010325 -0.000796 -0.001695 0.001280 -0.002750 0.001432
# 2 -0.000796 0.010259 -0.002322 -0.001496 -0.005470 0.002774
# 3 -0.001695 -0.002322 0.008048 0.001997 -0.000024 0.001044
# 4 0.001280 -0.001496 0.001997 0.034516 -0.001046 -0.005420
# 5 -0.002750 -0.005470 -0.000024 -0.001046 0.038322 -0.002681
# 6 0.001432 0.002774 0.001044 -0.005420 -0.002681 0.030431
#
#
# Mechanical properties :
#
#
# Convention : Reuss Voigt Hill
#
# Bulk Modulus (GPa) = 52.61336 63.11669 57.86503
# Shear Modulus (GPa) = 33.81523 37.95285 35.88404
#
# Velocity S-wave (km/s) = 3.95800 4.19316 4.07728
# Velocity P-wave (km/s) = 6.72771 7.25836 6.99807
#
# Compressibility (1/GPa) = 0.01900658
#
# Stress axis : x y z
#
# Youngs Moduli (GPa) = 96.85244 97.47748 124.24831
#
# Poissons Ratio (x) = 0.07760 0.21062
# Poissons Ratio (y) = 0.07710 0.28846
# Poissons Ratio (z) = 0.16418 0.22630
#
# Static dielectric constant tensor:
#      x y z
#    x 4.176200 0.055470 0.094030 
#    y 0.055470 3.893960 0.047790 
#    z 0.094030 0.047790 3.995760 
# 
# 
# High freq. dielectric constant tensor:
#      x y z
#    x 1.863780 -0.003030 0.003220 
#    y -0.003030 1.850210 0.000210 
#    z 0.003220 0.000210 1.851130 
# 
# From -- ./inp_files/69728.got.cif
#   From: 2010.06.25/outbox.cif.g09.slc.cpg/sg2_35_cif.got.tgz:69728.got - 2010.06.27 13:26:56.
