data_PCOD8036909
_publ_section_title
;
Structure prediction by ZEFSAII (Michael W. Deem and Ramdas Pophale) SiO2 
 PCOD8036909
Probable space group: P -1
;
_chemical_formula_sum "Si O2"
_cell_formula_units_Z 16
_cell_length_a 9.726127
_cell_length_b 30.192716
_cell_length_c 13.841864
_cell_angle_alpha 24.778610
_cell_angle_beta 145.800652
_cell_angle_gamma 154.463388
_cell_volume 733.708374
_symmetry_space_group_name_H-M "P -1"
_symmetry_group_IT_number 2
_symmetry_cell_setting 'triclinic'
loop_
_space_group_symop_operation_xyz
x,y,z
-x,-y,-z
loop_
_atom_site_type_symbol
_atom_site_label
_atom_site_fract_x
_atom_site_fract_y
_atom_site_fract_z
Si Si1 0.669128 0.379249 0.590540
Si Si2 0.880131 0.214491 0.109039
Si Si3 0.841757 0.804488 0.506961
Si Si4 0.625029 0.933007 0.256945
Si Si5 0.525126 0.487694 0.650598
Si Si6 0.803231 0.047778 0.756593
Si Si7 0.218046 0.216939 0.118512
Si Si8 0.196346 0.742568 0.554934
O O1 0.417678 0.310436 0.492438
O O2 0.584188 0.438987 0.503419
O O3 0.000000 0.500000 0.500000
O O4 0.716534 0.281878 0.865536
O O5 0.056011 0.254167 0.236985
O O6 0.138027 0.253851 0.099702
O O7 0.574807 0.053362 0.243337
O O8 0.704506 0.869356 0.349366
O O9 0.148798 0.924101 0.386019
O O10 0.346398 0.807327 0.409276
O O11 0.938820 0.056292 0.252441
O O12 0.500000 0.000000 0.000000
O O13 0.500000 0.500000 0.500000
O O14 0.904976 0.577742 0.710505
O O15 0.294672 0.326653 0.865354
O O16 0.939770 0.186437 0.619272
O O17 0.000000 0.000000 0.000000
O O18 0.534497 0.235650 0.267119
#
# Coordination Sequence:
#
# PCOD8036909 Si02
#       8
#     2   2   2   2   2   2   2   2
#     4  12  27  49  73 102 147 191 241 301 354 434
#     4  12  24  46  76 107 143 193 241 298 364 431
#     4  12  26  45  73 111 142 187 242 299 367 424
#     4  12  24  42  76 105 141 188 242 294 361 429
#     4  12  28  49  73 103 146 192 239 294 368 430
#     4  12  23  44  73 104 149 185 236 306 363 417
#     4  12  25  47  72 107 146 188 241 302 355 430
#     4  12  24  45  70 103 145 185 237 298 356 427
#
# _framework density 21.807030000000001
#
# number of rings (size 3 to 8) (size 9 to 14) (size 15 to 20)
#    0.000    0.000    6.250    4.125    1.750    2.500 
#    2.250    0.000    0.000    0.000    0.000    0.000 
#    0.000    0.000    0.000    0.000    0.000    0.000 
#
# Total GULP energy -198359.544222 kJ/mol
# GULP energy per Si atom -12397.471514 kJ/mol
# Density = 2.175740 g / cm^3
# Si number density = 21.807030 Si / 1000 Ang^3
#
#
#
# Elastic Constant Matrix: (Units=GPa)
#
#
# Indices 1 2 3 4 5 6 
#
# 1 141.6124 36.2814 32.8086 -5.0644 -14.8179 -3.6470
# 2 36.2814 88.3697 24.3213 14.6212 -4.1646 1.2138
# 3 32.8086 24.3213 75.7948 13.9916 -17.8385 -2.6574
# 4 -5.0644 14.6212 13.9916 42.1758 4.1262 -4.5727
# 5 -14.8179 -4.1646 -17.8385 4.1262 44.3698 -1.9080
# 6 -3.6470 1.2138 -2.6574 -4.5727 -1.9080 37.1700
#
#
#
# Elastic Compliance Matrix: (Units=1/GPa)
#
#
# Indices 1 2 3 4 5 6 
#
# 1 0.008889 -0.003304 -0.003068 0.003248 0.001176 0.001221
# 2 -0.003304 0.014097 -0.002382 -0.004624 -0.000374 -0.001543
# 3 -0.003068 -0.002382 0.017978 -0.006079 0.006573 0.000652
# 4 0.003248 -0.004624 -0.006079 0.028501 -0.004301 0.003321
# 5 0.001176 -0.000374 0.006573 -0.004301 0.025998 0.001403
# 6 0.001221 -0.001543 0.000652 0.003321 0.001403 0.027601
#
#
# Mechanical properties :
#
#
# Convention : Reuss Voigt Hill
#
# Bulk Modulus (GPa) = 42.63146 54.73327 48.68237
# Shear Modulus (GPa) = 33.69504 38.90083 36.29793
#
# Velocity S-wave (km/s) = 3.93510 4.22817 4.08426
# Velocity P-wave (km/s) = 6.34338 6.99928 6.67939
#
# Compressibility (1/GPa) = 0.02345686
#
# Stress axis : x y z
#
# Youngs Moduli (GPa) = 112.49389 70.93800 55.62447
#
# Poissons Ratio (x) = 0.23439 0.17064
# Poissons Ratio (y) = 0.37169 0.13248
# Poissons Ratio (z) = 0.34509 0.16896
#
# Static dielectric constant tensor:
#      x y z
#    x 4.116940 0.270520 -0.201540 
#    y 0.270520 4.098110 0.040600 
#    z -0.201540 0.040600 3.869630 
# 
# 
# High freq. dielectric constant tensor:
#      x y z
#    x 1.876840 0.015840 -0.004550 
#    y 0.015840 1.862690 -0.000030 
#    z -0.004550 -0.000030 1.863090 
# 
# From -- ./inp_files/407333.got.cif
#   From: 2010.06.25/outbox.cif.g09.slc.cpg/sg2_204_cif.got.tgz:407333.got - 2010.06.27 13:26:56.
