data_PCOD8036657
_publ_section_title
;
Structure prediction by ZEFSAII (Michael W. Deem and Ramdas Pophale) SiO2 
 PCOD8036657
Probable space group: P -1
;
_chemical_formula_sum "Si O2"
_cell_formula_units_Z 16
_cell_length_a 12.216828
_cell_length_b 28.797727
_cell_length_c 8.838513
_cell_angle_alpha 151.519997
_cell_angle_beta 36.742456
_cell_angle_gamma 149.836390
_cell_volume 733.869751
_symmetry_space_group_name_H-M "P -1"
_symmetry_group_IT_number 2
_symmetry_cell_setting 'triclinic'
loop_
_space_group_symop_operation_xyz
x,y,z
-x,-y,-z
loop_
_atom_site_type_symbol
_atom_site_label
_atom_site_fract_x
_atom_site_fract_y
_atom_site_fract_z
Si Si1 0.382459 0.221264 0.815813
Si Si2 0.047138 0.807585 0.792876
Si Si3 0.035487 0.810298 0.310754
Si Si4 0.153716 0.626472 0.121191
Si Si5 0.145971 0.629349 0.776416
Si Si6 0.714830 0.026893 0.252973
Si Si7 0.621344 0.783501 0.553765
Si Si8 0.289424 0.974855 0.248378
O O1 0.599393 0.321378 0.948482
O O2 0.418809 0.231196 0.623485
O O3 0.304808 0.093837 0.600950
O O4 0.199044 0.243595 0.139242
O O5 0.070634 0.701871 0.504435
O O6 0.250296 0.893665 0.702947
O O7 0.071530 0.884360 0.132311
O O8 0.064474 0.888995 0.649637
O O9 0.254015 0.903193 0.235603
O O10 0.805600 0.760769 0.337441
O O11 0.047631 0.701367 0.031426
O O12 0.136123 0.624369 0.954144
O O13 0.000000 0.500000 0.000000
O O14 0.395889 0.688373 0.614660
O O15 0.000000 0.500000 0.500000
O O16 0.500000 0.000000 0.500000
O O17 0.705488 0.913530 0.886350
O O18 0.500000 0.000000 0.000000
#
# Coordination Sequence:
#
# PCOD8036657 Si02
#       8
#     2   2   2   2   2   2   2   2
#     4  12  26  44  73 106 142 183 229 281 343 413
#     4  12  24  45  70 104 146 177 231 281 341 415
#     4  12  26  43  71 106 144 182 227 283 349 410
#     4  12  29  49  74  99 132 186 237 290 340 403
#     4  12  29  50  72  99 136 183 237 288 344 406
#     4  12  23  43  69 108 145 182 223 281 350 415
#     4  12  25  45  72 106 143 184 224 282 348 412
#     4  12  22  40  72 107 144 186 220 278 346 412
#
# _framework density 21.802233000000001
#
# number of rings (size 3 to 8) (size 9 to 14) (size 15 to 20)
#    0.000    0.000    6.250    3.750    5.250    1.000 
#    0.000    0.000    0.000    0.000    0.000    0.000 
#    0.000    0.000    0.000    0.000    0.000    0.000 
#
# Total GULP energy -198432.034917 kJ/mol
# GULP energy per Si atom -12402.002182 kJ/mol
# Density = 2.175261 g / cm^3
# Si number density = 21.802233 Si / 1000 Ang^3
#
#
#
# Elastic Constant Matrix: (Units=GPa)
#
#
# Indices 1 2 3 4 5 6 
#
# 1 124.2212 49.8583 40.2675 14.8051 -0.6247 -2.7816
# 2 49.8583 134.4004 58.4648 20.4678 -16.3026 -7.5862
# 3 40.2675 58.4648 69.3097 14.3359 -3.9145 4.0400
# 4 14.8051 20.4678 14.3359 40.4212 6.3651 0.2842
# 5 -0.6247 -16.3026 -3.9145 6.3651 41.9743 -3.8799
# 6 -2.7816 -7.5862 4.0400 0.2842 -3.8799 47.1280
#
#
#
# Elastic Compliance Matrix: (Units=1/GPa)
#
#
# Indices 1 2 3 4 5 6 
#
# 1 0.010330 -0.001836 -0.004275 -0.001230 -0.000713 0.000629
# 2 -0.001836 0.013703 -0.009625 -0.003707 0.005272 0.003379
# 3 -0.004275 -0.009625 0.025690 -0.002420 -0.001419 -0.004106
# 4 -0.001230 -0.003707 -0.002420 0.028905 -0.006173 -0.001144
# 5 -0.000713 0.005272 -0.001419 -0.006173 0.026959 0.003185
# 6 0.000629 0.003379 -0.004106 -0.001144 0.003185 0.022421
#
#
# Mechanical properties :
#
#
# Convention : Reuss Voigt Hill
#
# Bulk Modulus (GPa) = 54.79152 69.45693 62.12423
# Shear Modulus (GPa) = 30.19971 37.86075 34.03023
#
# Velocity S-wave (km/s) = 3.72582 4.17172 3.95506
# Velocity P-wave (km/s) = 6.61020 7.42504 7.02943
#
# Compressibility (1/GPa) = 0.01825100
#
# Stress axis : x y z
#
# Youngs Moduli (GPa) = 96.80482 72.97660 38.92507
#
# Poissons Ratio (x) = 0.13399 0.16642
# Poissons Ratio (y) = 0.17774 0.37464
# Poissons Ratio (z) = 0.41388 0.70238
#
# Static dielectric constant tensor:
#      x y z
#    x 4.535080 0.040380 0.147250 
#    y 0.040380 4.131370 -0.148250 
#    z 0.147250 -0.148250 4.234320 
# 
# 
# High freq. dielectric constant tensor:
#      x y z
#    x 1.879160 -0.001240 0.006120 
#    y -0.001240 1.864700 -0.007550 
#    z 0.006120 -0.007550 1.850510 
# 
# From -- ./inp_files/285866.got.cif
#   From: 2010.06.25/outbox.cif.g09.slc.cpg/sg2_143_cif.got.tgz:285866.got - 2010.06.27 13:26:56.
