data_PCOD8036648
_publ_section_title
;
Structure prediction by ZEFSAII (Michael W. Deem and Ramdas Pophale) SiO2 
 PCOD8036648
Probable space group: P -1
;
_chemical_formula_sum "Si O2"
_cell_formula_units_Z 16
_cell_length_a 8.873217
_cell_length_b 15.316115
_cell_length_c 13.582791
_cell_angle_alpha 72.570123
_cell_angle_beta 99.144164
_cell_angle_gamma 37.641512
_cell_volume 788.829108
_symmetry_space_group_name_H-M "P -1"
_symmetry_group_IT_number 2
_symmetry_cell_setting 'triclinic'
loop_
_space_group_symop_operation_xyz
x,y,z
-x,-y,-z
loop_
_atom_site_type_symbol
_atom_site_label
_atom_site_fract_x
_atom_site_fract_y
_atom_site_fract_z
Si Si1 0.903862 0.899282 0.669131
Si Si2 0.632069 0.996483 0.097312
Si Si3 0.116631 0.632658 0.645472
Si Si4 0.640689 0.935239 0.338190
Si Si5 0.584191 0.796557 0.637369
Si Si6 0.162403 0.813879 0.093773
Si Si7 0.361984 0.671512 0.959559
Si Si8 0.149558 0.422547 0.935194
O O1 0.152683 0.704377 0.692578
O O2 0.143559 0.828560 0.792492
O O3 0.658079 0.972950 0.690523
O O4 0.707541 0.074979 0.515582
O O5 0.674363 0.919148 0.229328
O O6 0.376919 0.215560 0.007843
O O7 0.983844 0.850730 0.147306
O O8 0.500000 0.000000 0.000000
O O9 0.445101 0.392804 0.762736
O O10 0.008564 0.710586 0.495020
O O11 0.783563 0.766467 0.609376
O O12 0.565984 0.077576 0.322024
O O13 0.842076 0.579669 0.770933
O O14 0.131132 0.780954 0.995480
O O15 0.000000 0.000000 0.000000
O O16 0.500000 0.500000 0.000000
O O17 0.654442 0.585600 0.051791
O O18 0.000000 0.500000 0.000000
#
# Coordination Sequence:
#
# PCOD8036648 Si02
#       8
#     2   2   2   2   2   2   2   2
#     4   9  18  33  65  94 114 152 211 260 297 357
#     4  12  26  40  59  89 130 166 202 250 313 367
#     4   9  17  34  62  88 118 158 208 248 305 366
#     4   9  18  36  60  91 119 160 202 253 308 364
#     4   9  16  36  62  90 119 153 203 260 305 351
#     4  12  23  39  59  90 127 164 204 251 304 369
#     4  12  22  39  66  95 119 159 213 255 301 362
#     4  12  24  40  65  93 124 159 205 259 308 359
#
# _framework density 20.283227
#
# number of rings (size 3 to 8) (size 9 to 14) (size 15 to 20)
#    0.000    1.500    5.000    3.000    1.750    0.500 
#    0.000    1.875    2.750    4.500    0.000    0.000 
#    0.000    0.000    0.000    0.000    0.000    0.000 
#
# Total GULP energy -198235.960969 kJ/mol
# GULP energy per Si atom -12389.747561 kJ/mol
# Density = 2.023706 g / cm^3
# Si number density = 20.283227 Si / 1000 Ang^3
#
#
#
# Elastic Constant Matrix: (Units=GPa)
#
#
# Indices 1 2 3 4 5 6 
#
# 1 47.0433 31.7504 19.8032 1.0805 -7.5740 -3.5160
# 2 31.7504 122.5018 61.9645 6.5428 -6.9788 -3.4587
# 3 19.8032 61.9645 176.7122 6.9425 -2.6826 0.3014
# 4 1.0805 6.5428 6.9425 41.3569 -4.3454 -6.6965
# 5 -7.5740 -6.9788 -2.6826 -4.3454 21.4814 2.8792
# 6 -3.5160 -3.4587 0.3014 -6.6965 2.8792 28.0708
#
#
#
# Elastic Compliance Matrix: (Units=1/GPa)
#
#
# Indices 1 2 3 4 5 6 
#
# 1 0.027126 -0.006215 -0.000813 0.001558 0.007458 0.002248
# 2 -0.006215 0.011559 -0.003306 -0.000958 0.000909 0.000360
# 3 -0.000813 -0.003306 0.006933 -0.000794 -0.000559 -0.000716
# 4 0.001558 -0.000958 -0.000794 0.025842 0.004592 0.005780
# 5 0.007458 0.000909 -0.000559 0.004592 0.050746 -0.003057
# 6 0.002248 0.000360 -0.000716 0.005780 -0.003057 0.037650
#
#
# Mechanical properties :
#
#
# Convention : Reuss Voigt Hill
#
# Bulk Modulus (GPa) = 40.07639 63.69927 51.88783
# Shear Modulus (GPa) = 26.47739 33.69777 30.08758
#
# Velocity S-wave (km/s) = 3.61693 4.08040 3.85564
# Velocity P-wave (km/s) = 6.10280 7.32616 6.74229
#
# Compressibility (1/GPa) = 0.02495235
#
# Stress axis : x y z
#
# Youngs Moduli (GPa) = 36.86461 86.51102 144.23401
#
# Poissons Ratio (x) = 0.53763 0.11720
# Poissons Ratio (y) = 0.22910 0.47684
# Poissons Ratio (z) = 0.02996 0.28601
#
# Static dielectric constant tensor:
#      x y z
#    x 3.382500 -0.281140 0.070750 
#    y -0.281140 3.740350 0.140860 
#    z 0.070750 0.140860 4.144190 
# 
# 
# High freq. dielectric constant tensor:
#      x y z
#    x 1.750110 -0.016040 -0.003180 
#    y -0.016040 1.782390 0.006140 
#    z -0.003180 0.006140 1.820110 
# 
# From -- ./inp_files/492846.got.cif
#   From: 2010.06.25/outbox.cif.g09.slc.cpg/sg2_247_cif.got.tgz:492846.got - 2010.06.27 13:26:56.
