data_PCOD8036716
_publ_section_title
;
Structure prediction by ZEFSAII (Michael W. Deem and Ramdas Pophale) SiO2 
 PCOD8036716
Probable space group: P -1
;
_chemical_formula_sum "Si O2"
_cell_formula_units_Z 14
_cell_length_a 16.080935
_cell_length_b 11.791199
_cell_length_c 22.473819
_cell_angle_alpha 28.059448
_cell_angle_beta 161.449289
_cell_angle_gamma 141.654186
_cell_volume 597.455302
_symmetry_space_group_name_H-M "P -1"
_symmetry_group_IT_number 2
_symmetry_cell_setting 'triclinic'
loop_
_space_group_symop_operation_xyz
x,y,z
-x,-y,-z
loop_
_atom_site_type_symbol
_atom_site_label
_atom_site_fract_x
_atom_site_fract_y
_atom_site_fract_z
Si Si1 0.574546 0.580648 0.379867
Si Si2 0.267330 0.566228 0.669856
Si Si3 0.497077 0.712804 0.638350
Si Si4 0.049400 0.256196 0.929026
Si Si5 0.621502 0.084034 0.334884
Si Si6 0.093813 0.492191 0.164005
Si Si7 0.332042 0.922448 0.767476
O O1 0.674140 0.375843 0.487950
O O2 0.806041 0.498613 0.625871
O O3 0.278122 0.591550 0.199227
O O4 0.569175 0.866209 0.229360
O O5 0.368789 0.689702 0.625444
O O6 0.171349 0.779437 0.559810
O O7 0.000000 0.500000 0.500000
O O8 0.529003 0.324968 0.982555
O O9 0.500000 0.000000 0.500000
O O10 0.807400 0.500524 0.934608
O O11 0.035793 0.291497 0.973908
O O12 0.342975 0.241050 0.109045
O O13 0.000000 0.000000 0.000000
O O14 0.553601 0.131537 0.197345
O O15 0.729527 0.783380 0.561845
O O16 0.000000 0.000000 0.500000
#
# Coordination Sequence:
#
# PCOD8036716 Si02
#       7
#     2   2   2   2   2   2   2
#     4  12  26  43  78 112 150 200 252 311 378 458
#     4  12  30  49  75 112 151 205 252 312 384 457
#     4  12  28  50  76 110 156 197 253 315 381 454
#     4  12  22  43  73 114 150 187 250 312 373 442
#     4  12  25  49  79 107 151 197 250 318 375 450
#     4  12  24  48  75 116 147 194 255 315 381 441
#     4  12  28  50  75 108 155 203 257 310 384 455
#
# _framework density 23.432715999999999
#
# number of rings (size 3 to 8) (size 9 to 14) (size 15 to 20)
#    0.000    0.000    4.286    5.571    8.000    0.571 
#    0.000    0.000    0.000    0.000    0.000    0.000 
#    0.000    0.000    0.000    0.000    0.000    0.000 
#
# Total GULP energy -173579.700028 kJ/mol
# GULP energy per Si atom -12398.550002 kJ/mol
# Density = 2.337938 g / cm^3
# Si number density = 23.432716 Si / 1000 Ang^3
#
#
#
# Elastic Constant Matrix: (Units=GPa)
#
#
# Indices 1 2 3 4 5 6 
#
# 1 124.6399 59.9981 27.5403 -10.8446 -6.5802 -7.3835
# 2 59.9981 162.7780 20.0345 -12.3265 -9.7130 -11.8821
# 3 27.5403 20.0345 88.3281 4.7205 -1.4839 13.4592
# 4 -10.8446 -12.3265 4.7205 38.0416 1.6489 -3.6002
# 5 -6.5802 -9.7130 -1.4839 1.6489 32.3354 -4.9338
# 6 -7.3835 -11.8821 13.4592 -3.6002 -4.9338 42.8378
#
#
#
# Elastic Compliance Matrix: (Units=1/GPa)
#
#
# Indices 1 2 3 4 5 6 
#
# 1 0.010622 -0.003096 -0.003076 0.002568 0.001311 0.002306
# 2 -0.003096 0.007885 -0.001268 0.001976 0.001952 0.002443
# 3 -0.003076 -0.001268 0.013583 -0.003454 -0.001056 -0.005561
# 4 0.002568 0.001976 -0.003454 0.028505 0.000190 0.004494
# 5 0.001311 0.001952 -0.001056 0.000190 0.032462 0.004854
# 6 0.002306 0.002443 -0.005561 0.004494 0.004854 0.027103
#
#
# Mechanical properties :
#
#
# Convention : Reuss Voigt Hill
#
# Bulk Modulus (GPa) = 58.10852 65.65463 61.88157
# Shear Modulus (GPa) = 35.51728 40.52119 38.01923
#
# Velocity S-wave (km/s) = 3.89744 4.16294 4.03238
# Velocity P-wave (km/s) = 6.71604 7.15444 6.93870
#
# Compressibility (1/GPa) = 0.01720918
#
# Stress axis : x y z
#
# Youngs Moduli (GPa) = 94.14194 126.82425 73.62359
#
# Poissons Ratio (x) = 0.39259 0.22649
# Poissons Ratio (y) = 0.29142 0.09338
# Poissons Ratio (z) = 0.28962 0.16086
#
# Static dielectric constant tensor:
#      x y z
#    x 4.346600 -0.070320 -0.084800 
#    y -0.070320 4.615640 0.244610 
#    z -0.084800 0.244610 4.023180 
# 
# 
# High freq. dielectric constant tensor:
#      x y z
#    x 1.932160 -0.011500 -0.005920 
#    y -0.011500 1.948640 0.003600 
#    z -0.005920 0.003600 1.930880 
# 
# From -- ./inp_files/95483.got.cif
#   From: 2010.06.25/outbox.cif.g09.slc.cpg/sg2_48_cif.got.tgz:95483.got - 2010.06.27 13:26:56.
