data_PCOD8036268
_publ_section_title
;
Structure prediction by ZEFSAII (Michael W. Deem and Ramdas Pophale) SiO2 
 PCOD8036268
Probable space group: P -1
;
_chemical_formula_sum "Si O2"
_cell_formula_units_Z 16
_cell_length_a 8.878335
_cell_length_b 14.479351
_cell_length_c 14.673531
_cell_angle_alpha 29.067413
_cell_angle_beta 113.139012
_cell_angle_gamma 95.580378
_cell_volume 703.174747
_symmetry_space_group_name_H-M "P -1"
_symmetry_group_IT_number 2
_symmetry_cell_setting 'triclinic'
loop_
_space_group_symop_operation_xyz
x,y,z
-x,-y,-z
loop_
_atom_site_type_symbol
_atom_site_label
_atom_site_fract_x
_atom_site_fract_y
_atom_site_fract_z
Si Si1 0.668134 0.650038 0.064872
Si Si2 0.328828 0.471320 0.456442
Si Si3 0.979229 0.867051 0.743372
Si Si4 0.089834 0.485586 0.224630
Si Si5 0.008812 0.717771 0.308859
Si Si6 0.360150 0.969561 0.157357
Si Si7 0.746690 0.996741 0.392738
Si Si8 0.226763 0.790240 0.440895
O O1 0.642798 0.453104 0.267768
O O2 0.875155 0.547965 0.151249
O O3 0.647668 0.806101 0.009992
O O4 0.483532 0.806446 0.819372
O O5 0.500000 0.500000 0.500000
O O6 0.187531 0.569156 0.249074
O O7 0.439752 0.196010 0.710129
O O8 0.202072 0.615144 0.386002
O O9 0.835797 0.920881 0.579079
O O10 0.852234 0.014378 0.672010
O O11 0.147984 0.906387 0.723379
O O12 0.074669 0.606760 0.020991
O O13 0.229339 0.215258 0.474103
O O14 0.000000 0.500000 0.500000
O O15 0.043530 0.795238 0.347624
O O16 0.825871 0.944172 0.026402
O O17 0.352015 0.831140 0.361776
#
# Coordination Sequence:
#
# PCOD8036268 Si02
#       8
#     2   2   2   2   2   2   2   2
#     4  12  25  45  73 101 139 186 234 287 352 418
#     4  12  26  42  71 107 138 184 236 278 344 418
#     4  11  26  47  74 104 140 185 234 299 354 412
#     4  12  24  49  71 102 146 183 231 295 350 420
#     4  12  25  45  68 101 144 180 230 285 343 414
#     4  12  25  45  68 102 141 185 231 286 343 416
#     4  11  27  48  71 107 139 180 241 294 355 419
#     4  12  24  45  71 101 143 186 227 294 349 410
#
# _framework density 22.753945999999999
#
# number of rings (size 3 to 8) (size 9 to 14) (size 15 to 20)
#    0.000    0.250    7.500    0.750    3.500    1.500 
#    0.000    0.000    0.000    0.000    0.000    0.000 
#    0.000    0.000    0.000    0.000    0.000    0.000 
#
# Total GULP energy -198269.470328 kJ/mol
# GULP energy per Si atom -12391.841895 kJ/mol
# Density = 2.270216 g / cm^3
# Si number density = 22.753946 Si / 1000 Ang^3
#
#
#
# Elastic Constant Matrix: (Units=GPa)
#
#
# Indices 1 2 3 4 5 6 
#
# 1 -42.4516 15.0732 69.4157 49.5646 3.1505 27.8622
# 2 15.0732 90.0298 16.8518 9.7884 2.5271 6.7839
# 3 69.4157 16.8518 128.0675 2.1006 2.0731 -10.2001
# 4 49.5646 9.7884 2.1006 27.6030 3.3912 -0.7210
# 5 3.1505 2.5271 2.0731 3.3912 39.2677 -1.8975
# 6 27.8622 6.7839 -10.2001 -0.7210 -1.8975 27.7122
#
#
#
# Elastic Compliance Matrix: (Units=1/GPa)
#
#
# Indices 1 2 3 4 5 6 
#
# 1 -0.004658 -0.001213 0.003047 0.008747 -0.000159 0.006318
# 2 -0.001213 0.011895 -0.001039 -0.001950 -0.000549 -0.002163
# 3 0.003047 -0.001039 0.006337 -0.005593 -0.000059 -0.000626
# 4 0.008747 -0.001950 -0.005593 0.021702 -0.002638 -0.009991
# 5 -0.000159 -0.000549 -0.000059 -0.002638 0.025841 0.001973
# 6 0.006318 -0.002163 -0.000626 -0.009991 0.001973 0.029907
#
#
# Mechanical properties :
#
#
# Convention : Reuss Voigt Hill
#
# Bulk Modulus (GPa) = 65.94979 42.03633 53.99306
# Shear Modulus (GPa) = 52.91566 23.87024 38.39295
#
# Velocity S-wave (km/s) = 4.82764 3.24243 4.11214
# Velocity P-wave (km/s) = 7.75381 5.70370 6.80639
#
# Compressibility (1/GPa) = 0.01516305
#
# Stress axis : x y z
#
# Youngs Moduli (GPa) = -214.68869 84.06544 157.81272
#
# Poissons Ratio (x) = 0.10197 -0.48080
# Poissons Ratio (y) = -0.26042 0.16400
# Poissons Ratio (z) = 0.65408 0.08736
#
# Static dielectric constant tensor:
#      x y z
#    x 3.980930 0.064110 0.123500 
#    y 0.064110 4.266810 -0.160560 
#    z 0.123500 -0.160560 4.464890 
# 
# 
# High freq. dielectric constant tensor:
#      x y z
#    x 1.889600 0.011990 0.006170 
#    y 0.011990 1.904990 -0.005530 
#    z 0.006170 -0.005530 1.914340 
# 
# From -- ./inp_files/505076.got.cif
#   From: 2010.06.25/outbox.cif.g09.slc.cpg/sg2_253_cif.got.tgz:505076.got - 2010.06.27 13:26:56.
