data_PCOD8036172
_publ_section_title
;
Structure prediction by ZEFSAII (Michael W. Deem and Ramdas Pophale) SiO2 
 PCOD8036172
Probable space group: P -1
;
_chemical_formula_sum "Si O2"
_cell_formula_units_Z 16
_cell_length_a 18.433853
_cell_length_b 9.412696
_cell_length_c 9.748438
_cell_angle_alpha 86.767286
_cell_angle_beta 93.669966
_cell_angle_gamma 153.848774
_cell_volume 743.972222
_symmetry_space_group_name_H-M "P -1"
_symmetry_group_IT_number 2
_symmetry_cell_setting 'triclinic'
loop_
_space_group_symop_operation_xyz
x,y,z
-x,-y,-z
loop_
_atom_site_type_symbol
_atom_site_label
_atom_site_fract_x
_atom_site_fract_y
_atom_site_fract_z
Si Si1 0.996971 0.846984 0.682059
Si Si2 0.836224 0.856549 0.600274
Si Si3 0.294884 0.878521 0.293064
Si Si4 0.729644 0.051296 0.180860
Si Si5 0.092172 0.785299 0.202118
Si Si6 0.774228 0.840040 0.067815
Si Si7 0.529827 0.891680 0.967188
Si Si8 0.528024 0.709533 0.446856
O O1 0.899454 0.822850 0.676369
O O2 0.869551 0.495388 0.671617
O O3 0.122638 0.060201 0.559273
O O4 0.101991 0.021852 0.823012
O O5 0.640232 0.516693 0.615188
O O6 0.923170 0.139676 0.672738
O O7 0.246083 0.949911 0.231366
O O8 0.403220 0.990675 0.185744
O O9 0.404928 0.079474 0.431249
O O10 0.926653 0.403954 0.188888
O O11 0.683188 0.813826 0.130412
O O12 0.660712 0.948658 0.329672
O O13 0.664483 0.060972 0.074962
O O14 0.120269 0.926234 0.062156
O O15 0.638359 0.490932 0.019446
O O16 0.500000 0.000000 0.000000
O O17 0.500000 0.500000 0.500000
#
# Coordination Sequence:
#
# PCOD8036172 Si02
#       8
#     2   2   2   2   2   2   2   2
#     4  11  26  46  71  99 144 183 233 287 345 409
#     4  11  26  46  68 103 139 189 230 284 348 410
#     4  12  25  46  72 105 137 184 234 287 341 414
#     4  12  25  46  71 106 140 183 232 287 343 416
#     4  12  25  44  75 103 138 183 240 282 341 413
#     4  12  25  47  73 100 141 185 229 289 341 419
#     4  12  29  46  70 104 144 182 230 286 355 411
#     4  12  25  43  74 102 139 183 231 285 347 407
#
# _framework density 21.506177000000001
#
# number of rings (size 3 to 8) (size 9 to 14) (size 15 to 20)
#    0.000    0.250    3.750    5.250    5.250    2.000 
#    0.000    0.000    0.000    0.000    0.000    0.000 
#    0.000    0.000    0.000    0.000    0.000    0.000 
#
# Total GULP energy -198568.239717 kJ/mol
# GULP energy per Si atom -12410.514982 kJ/mol
# Density = 2.145723 g / cm^3
# Si number density = 21.506177 Si / 1000 Ang^3
#
#
#
# Elastic Constant Matrix: (Units=GPa)
#
#
# Indices 1 2 3 4 5 6 
#
# 1 137.8100 32.8025 47.2030 5.6725 -7.9090 -4.3765
# 2 32.8025 96.4427 39.5841 -1.6783 -5.5544 0.8119
# 3 47.2030 39.5841 101.7987 0.5577 -16.5747 -2.2724
# 4 5.6725 -1.6783 0.5577 40.7383 1.2990 -3.9573
# 5 -7.9090 -5.5544 -16.5747 1.2990 32.1659 1.8620
# 6 -4.3765 0.8119 -2.2724 -3.9573 1.8620 30.8387
#
#
#
# Elastic Compliance Matrix: (Units=1/GPa)
#
#
# Indices 1 2 3 4 5 6 
#
# 1 0.008911 -0.001636 -0.003449 -0.001178 0.000127 0.000895
# 2 -0.001636 0.012667 -0.004252 0.000747 -0.000392 -0.000760
# 3 -0.003449 -0.004252 0.013997 -0.000035 0.005614 0.000310
# 4 -0.001178 0.000747 -0.000035 0.025088 -0.001372 0.003113
# 5 0.000127 -0.000392 0.005614 -0.001372 0.034104 -0.001793
# 6 0.000895 -0.000760 0.000310 0.003113 -0.001793 0.033104
#
#
# Mechanical properties :
#
#
# Convention : Reuss Voigt Hill
#
# Bulk Modulus (GPa) = 59.16437 63.91451 61.53944
# Shear Modulus (GPa) = 32.85584 35.17937 34.01761
#
# Velocity S-wave (km/s) = 3.91287 4.04887 3.98145
# Velocity P-wave (km/s) = 6.92706 7.18620 7.05782
#
# Compressibility (1/GPa) = 0.01690206
#
# Stress axis : x y z
#
# Youngs Moduli (GPa) = 112.21719 78.94353 71.44445
#
# Poissons Ratio (x) = 0.12916 0.24639
# Poissons Ratio (y) = 0.18360 0.30377
# Poissons Ratio (z) = 0.38700 0.33566
#
# Static dielectric constant tensor:
#      x y z
#    x 4.030720 0.028620 0.072070 
#    y 0.028620 3.967990 0.018990 
#    z 0.072070 0.018990 4.114400 
# 
# 
# High freq. dielectric constant tensor:
#      x y z
#    x 1.850520 0.002590 0.000380 
#    y 0.002590 1.852390 0.001710 
#    z 0.000380 0.001710 1.861960 
# 
# From -- ./inp_files/186735.got.cif
#   From: 2010.06.25/outbox.cif.g09.slc.cpg/sg2_94_cif.got.tgz:186735.got - 2010.06.27 13:26:56.
