data_PCOD8036900
_publ_section_title
;
Structure prediction by ZEFSAII (Michael W. Deem and Ramdas Pophale) SiO2 
 PCOD8036900
Probable space group: P -1
;
_chemical_formula_sum "Si O2"
_cell_formula_units_Z 14
_cell_length_a 16.601911
_cell_length_b 14.679276
_cell_length_c 8.499750
_cell_angle_alpha 59.723116
_cell_angle_beta 77.488515
_cell_angle_gamma 25.545688
_cell_volume 592.888540
_symmetry_space_group_name_H-M "P -1"
_symmetry_group_IT_number 2
_symmetry_cell_setting 'triclinic'
loop_
_space_group_symop_operation_xyz
x,y,z
-x,-y,-z
loop_
_atom_site_type_symbol
_atom_site_label
_atom_site_fract_x
_atom_site_fract_y
_atom_site_fract_z
Si Si1 0.748208 0.218438 0.232409
Si Si2 0.781797 0.415550 0.590568
Si Si3 0.103209 0.737086 0.972316
Si Si4 0.527143 0.078384 0.346335
Si Si5 0.694649 0.757717 0.264937
Si Si6 0.309212 0.849965 0.392100
Si Si7 0.900697 0.707028 0.741299
O O1 0.824952 0.248373 0.175678
O O2 0.677047 0.264672 0.395395
O O3 0.500000 0.500000 0.000000
O O4 0.980020 0.874283 0.367796
O O5 0.683357 0.653907 0.435261
O O6 0.567504 0.594275 0.464717
O O7 0.862413 0.277338 0.847392
O O8 0.274312 0.437376 0.098823
O O9 0.821332 0.040816 0.803219
O O10 0.500000 0.000000 0.500000
O O11 0.666091 0.887596 0.289288
O O12 0.641865 0.005163 0.506486
O O13 0.947704 0.472551 0.324946
O O14 0.500000 0.000000 0.000000
O O15 0.115260 0.166426 0.267001
O O16 0.000000 0.500000 0.000000
#
# Coordination Sequence:
#
# PCOD8036900 Si02
#       7
#     2   2   2   2   2   2   2
#     4  12  26  51  76 105 150 192 248 307 362 437
#     4  12  26  50  76 106 148 193 243 303 373 436
#     4  12  26  47  75 107 146 197 245 302 368 438
#     4  12  23  44  70 106 148 189 244 302 370 442
#     4  12  25  44  70 110 146 191 247 298 370 448
#     4  12  25  49  73 107 148 190 244 307 363 436
#     4  12  24  45  71 104 148 197 239 308 369 438
#
# _framework density 23.613209999999999
#
# number of rings (size 3 to 8) (size 9 to 14) (size 15 to 20)
#    0.000    0.000    5.714    4.714    0.000    0.571 
#    5.143    0.000    0.000    0.000    0.000    0.000 
#    0.000    0.000    0.000    0.000    0.000    0.000 
#
# Total GULP energy -173504.060297 kJ/mol
# GULP energy per Si atom -12393.147164 kJ/mol
# Density = 2.355947 g / cm^3
# Si number density = 23.613210 Si / 1000 Ang^3
#
#
#
# Elastic Constant Matrix: (Units=GPa)
#
#
# Indices 1 2 3 4 5 6 
#
# 1 101.2658 7.9132 44.1013 -7.8401 8.6492 -13.9987
# 2 7.9132 85.5342 9.8770 -9.4788 4.9329 -10.5534
# 3 44.1013 9.8770 123.6499 -7.3184 8.3321 -10.0594
# 4 -7.8401 -9.4788 -7.3184 33.4977 -10.5694 -1.4727
# 5 8.6492 4.9329 8.3321 -10.5694 54.0548 -8.1577
# 6 -13.9987 -10.5534 -10.0594 -1.4727 -8.1577 40.1028
#
#
#
# Elastic Compliance Matrix: (Units=1/GPa)
#
#
# Indices 1 2 3 4 5 6 
#
# 1 0.012241 -0.000028 -0.003950 0.001990 -0.000467 0.003253
# 2 -0.000028 0.012558 -0.000518 0.003627 0.000150 0.003329
# 3 -0.003950 -0.000518 0.009695 0.000925 -0.000506 0.000848
# 4 0.001990 0.003627 0.000925 0.033788 0.006485 0.004441
# 5 -0.000467 0.000150 -0.000506 0.006485 0.020535 0.004165
# 6 0.003253 0.003329 0.000848 0.004441 0.004165 0.028170
#
#
# Mechanical properties :
#
#
# Convention : Reuss Voigt Hill
#
# Bulk Modulus (GPa) = 39.21032 48.24810 43.72921
# Shear Modulus (GPa) = 37.18033 42.10160 39.64097
#
# Velocity S-wave (km/s) = 3.97237 4.22710 4.10172
# Velocity P-wave (km/s) = 6.13848 6.65594 6.40244
#
# Compressibility (1/GPa) = 0.02550349
#
# Stress axis : x y z
#
# Youngs Moduli (GPa) = 81.69317 79.63278 103.14287
#
# Poissons Ratio (x) = 0.00219 0.40739
# Poissons Ratio (y) = 0.00225 0.05341
# Poissons Ratio (z) = 0.32267 0.04124
#
# Static dielectric constant tensor:
#      x y z
#    x 2.563600 -3.151500 -0.686480 
#    y -3.151500 -1.467350 -1.127630 
#    z -0.686480 -1.127630 4.173790 
# 
# 
# High freq. dielectric constant tensor:
#      x y z
#    x 1.939640 -0.002540 -0.000940 
#    y -0.002540 1.939290 -0.007620 
#    z -0.000940 -0.007620 1.952410 
# 
# From -- ./inp_files/314624.got.cif
#   From: 2010.06.25/outbox.cif.g09.slc.cpg/sg2_158_cif.got.tgz:314624.got - 2010.06.27 13:26:56.
