data_PCOD8036540
_publ_section_title
;
Structure prediction by ZEFSAII (Michael W. Deem and Ramdas Pophale) SiO2 
 PCOD8036540
Probable space group: P -1
;
_chemical_formula_sum "Si O2"
_cell_formula_units_Z 14
_cell_length_a 25.406093
_cell_length_b 9.725436
_cell_length_c 9.441133
_cell_angle_alpha 136.591608
_cell_angle_beta 27.510287
_cell_angle_gamma 145.548683
_cell_volume 609.453957
_symmetry_space_group_name_H-M "P -1"
_symmetry_group_IT_number 2
_symmetry_cell_setting 'triclinic'
loop_
_space_group_symop_operation_xyz
x,y,z
-x,-y,-z
loop_
_atom_site_type_symbol
_atom_site_label
_atom_site_fract_x
_atom_site_fract_y
_atom_site_fract_z
Si Si1 0.695198 0.531160 0.255582
Si Si2 0.949007 0.509540 0.282870
Si Si3 0.726209 0.596752 0.903937
Si Si4 0.779458 0.045089 0.522079
Si Si5 0.610092 0.870130 0.286222
Si Si6 0.811285 0.242263 0.875389
Si Si7 0.477705 0.876543 0.108990
O O1 0.538808 0.380700 0.575663
O O2 0.780117 0.815449 0.303024
O O3 0.680199 0.488556 0.090723
O O4 0.782561 0.440281 0.046153
O O5 0.878299 0.658547 0.556840
O O6 0.836734 0.234207 0.397172
O O7 0.075342 0.645875 0.190144
O O8 0.000000 0.500000 0.000000
O O9 0.621711 0.410739 0.894454
O O10 0.717461 0.827302 0.077941
O O11 0.866953 0.172717 0.553373
O O12 0.626636 0.958965 0.871989
O O13 0.596448 0.052112 0.550938
O O14 0.672547 0.999506 0.084179
O O15 0.500000 0.000000 0.000000
#
# Coordination Sequence:
#
# PCOD8036540 Si02
#       7
#     2   2   2   2   2   2   2
#     4  12  25  45  78 109 145 191 241 298 372 427
#     4  12  28  51  75 103 149 196 247 296 356 438
#     4  12  25  44  75 110 142 193 245 297 358 431
#     4  12  26  46  75 106 144 196 237 301 365 424
#     4  12  25  43  75 112 146 186 241 301 364 428
#     4  12  28  49  70 107 157 188 239 298 365 435
#     4  12  20  41  74 107 147 181 239 302 360 417
#
# _framework density 22.971382999999999
#
# number of rings (size 3 to 8) (size 9 to 14) (size 15 to 20)
#    0.000    0.000    7.143    3.000    2.000    4.000 
#    0.000    0.000    0.000    0.000    0.000    0.000 
#    0.000    0.000    0.000    0.000    0.000    0.000 
#
# Total GULP energy -173652.090088 kJ/mol
# GULP energy per Si atom -12403.720721 kJ/mol
# Density = 2.291910 g / cm^3
# Si number density = 22.971383 Si / 1000 Ang^3
#
#
#
# Elastic Constant Matrix: (Units=GPa)
#
#
# Indices 1 2 3 4 5 6 
#
# 1 119.9815 49.0272 50.9243 6.6897 8.2400 12.7737
# 2 49.0272 96.3650 59.0391 13.4286 -1.1056 -0.5681
# 3 50.9243 59.0391 127.4777 5.7516 7.7780 -1.2802
# 4 6.6897 13.4286 5.7516 24.9247 -6.9430 5.6357
# 5 8.2400 -1.1056 7.7780 -6.9430 32.0510 -3.3541
# 6 12.7737 -0.5681 -1.2802 5.6357 -3.3541 34.0746
#
#
#
# Elastic Compliance Matrix: (Units=1/GPa)
#
#
# Indices 1 2 3 4 5 6 
#
# 1 0.012057 -0.004676 -0.002514 0.000122 -0.003150 -0.005022
# 2 -0.004676 0.017427 -0.005989 -0.006883 0.002097 0.003163
# 3 -0.002514 -0.005989 0.011754 0.000339 -0.002234 0.001008
# 4 0.000122 -0.006883 0.000339 0.047923 0.009281 -0.007160
# 5 -0.003150 0.002097 -0.002234 0.009281 0.034953 0.003037
# 6 -0.005022 0.003163 0.001008 -0.007160 0.003037 0.032804
#
#
# Mechanical properties :
#
#
# Convention : Reuss Voigt Hill
#
# Bulk Modulus (GPa) = 67.20888 73.53394 70.37141
# Shear Modulus (GPa) = 26.56242 30.53233 28.54738
#
# Velocity S-wave (km/s) = 3.40417 3.64970 3.52907
# Velocity P-wave (km/s) = 6.69121 7.05982 6.87799
#
# Compressibility (1/GPa) = 0.01487899
#
# Stress axis : x y z
#
# Youngs Moduli (GPa) = 82.93965 57.38117 85.08033
#
# Poissons Ratio (x) = 0.26834 0.21393
# Poissons Ratio (y) = 0.38786 0.50952
# Poissons Ratio (z) = 0.20854 0.34363
#
# Static dielectric constant tensor:
#      x y z
#    x 4.149200 0.062910 -0.182670 
#    y 0.062910 4.299890 -0.137570 
#    z -0.182670 -0.137570 3.830340 
# 
# 
# High freq. dielectric constant tensor:
#      x y z
#    x 1.912390 0.002850 0.001190 
#    y 0.002850 1.908230 0.006190 
#    z 0.001190 0.006190 1.910030 
# 
# From -- ./inp_files/184676.got.cif
#   From: 2010.06.25/outbox.cif.g09.slc.cpg/sg2_93_cif.got.tgz:184676.got - 2010.06.27 13:26:56.
