data_PCOD8036122
_publ_section_title
;
Structure prediction by ZEFSAII (Michael W. Deem and Ramdas Pophale) SiO2 
 PCOD8036122
Probable space group: P -1
;
_chemical_formula_sum "Si O2"
_cell_formula_units_Z 16
_cell_length_a 11.545040
_cell_length_b 8.997966
_cell_length_c 18.299796
_cell_angle_alpha 59.893770
_cell_angle_beta 150.946603
_cell_angle_gamma 127.549343
_cell_volume 729.524425
_symmetry_space_group_name_H-M "P -1"
_symmetry_group_IT_number 2
_symmetry_cell_setting 'triclinic'
loop_
_space_group_symop_operation_xyz
x,y,z
-x,-y,-z
loop_
_atom_site_type_symbol
_atom_site_label
_atom_site_fract_x
_atom_site_fract_y
_atom_site_fract_z
Si Si1 0.940722 0.020945 0.189119
Si Si2 0.832036 0.353640 0.112846
Si Si3 0.936441 0.246751 0.574250
Si Si4 0.581882 0.419090 0.636113
Si Si5 0.512372 0.454679 0.179637
Si Si6 0.546683 0.695191 0.664281
Si Si7 0.259790 0.001909 0.607931
Si Si8 0.517364 0.198099 0.115427
O O1 0.829740 0.166651 0.121390
O O2 0.225969 0.121662 0.287723
O O3 0.962873 0.898972 0.298753
O O4 0.746962 0.889066 0.054719
O O5 0.762077 0.314775 0.169398
O O6 0.110005 0.529064 0.213582
O O7 0.613421 0.396044 0.938755
O O8 0.721034 0.276898 0.497951
O O9 0.813486 0.170389 0.446320
O O10 0.184849 0.444134 0.654143
O O11 0.500000 0.500000 0.500000
O O12 0.515846 0.508068 0.649884
O O13 0.426274 0.195316 0.609994
O O14 0.373243 0.321470 0.203869
O O15 0.476413 0.340345 0.113803
O O16 0.433205 0.967533 0.775584
O O17 0.000000 0.000000 0.500000
#
# Coordination Sequence:
#
# PCOD8036122 Si02
#       8
#     2   2   2   2   2   2   2   2
#     4  11  26  45  73 101 137 185 231 291 351 409
#     4  11  26  46  71 100 145 181 235 286 352 413
#     4  12  25  48  68 102 141 186 229 285 356 414
#     4  11  26  46  74 105 137 187 233 289 348 413
#     4  12  27  44  70 103 141 189 225 291 354 413
#     4  11  26  45  70 102 144 178 232 289 354 416
#     4  12  26  43  74 104 140 183 236 290 340 418
#     4  12  26  46  68 106 137 185 238 284 348 418
#
# _framework density 21.932095
#
# number of rings (size 3 to 8) (size 9 to 14) (size 15 to 20)
#    0.000    0.500    2.500    5.250    8.750    2.500 
#    0.000    0.000    0.000    0.000    0.000    0.000 
#    0.000    0.000    0.000    0.000    0.000    0.000 
#
# Total GULP energy -198539.823461 kJ/mol
# GULP energy per Si atom -12408.738966 kJ/mol
# Density = 2.188218 g / cm^3
# Si number density = 21.932095 Si / 1000 Ang^3
#
#
#
# Elastic Constant Matrix: (Units=GPa)
#
#
# Indices 1 2 3 4 5 6 
#
# 1 93.7739 11.6323 22.1326 7.5609 -2.3440 -10.6807
# 2 11.6323 64.9487 7.9504 4.3327 -1.7025 1.7765
# 3 22.1326 7.9504 93.5522 -4.0075 0.6626 -3.4834
# 4 7.5609 4.3327 -4.0075 44.4985 -2.1050 -4.5401
# 5 -2.3440 -1.7025 0.6626 -2.1050 40.0479 -3.0831
# 6 -10.6807 1.7765 -3.4834 -4.5401 -3.0831 35.4331
#
#
#
# Elastic Compliance Matrix: (Units=1/GPa)
#
#
# Indices 1 2 3 4 5 6 
#
# 1 0.012050 -0.001786 -0.002656 -0.001735 0.000837 0.003311
# 2 -0.001786 0.016001 -0.001064 -0.001495 0.000391 -0.001603
# 3 -0.002656 -0.001064 0.011501 0.001637 -0.000261 0.000570
# 4 -0.001735 -0.001495 0.001637 0.023408 0.001255 0.002821
# 5 0.000837 0.000391 -0.000261 0.001255 0.025304 0.002570
# 6 0.003311 -0.001603 0.000570 0.002821 0.002570 0.029942
#
#
# Mechanical properties :
#
#
# Convention : Reuss Voigt Hill
#
# Bulk Modulus (GPa) = 35.03774 37.30059 36.16917
# Shear Modulus (GPa) = 36.04101 38.03319 37.03710
#
# Velocity S-wave (km/s) = 4.05816 4.16881 4.11386
# Velocity P-wave (km/s) = 6.16186 6.34163 6.25239
#
# Compressibility (1/GPa) = 0.02854065
#
# Stress axis : x y z
#
# Youngs Moduli (GPa) = 82.98498 62.49727 86.94757
#
# Poissons Ratio (x) = 0.11162 0.23094
# Poissons Ratio (y) = 0.14821 0.09249
# Poissons Ratio (z) = 0.22041 0.06648
#
# Static dielectric constant tensor:
#      x y z
#    x 4.166140 0.078560 0.085440 
#    y 0.078560 3.994160 -0.006060 
#    z 0.085440 -0.006060 4.012970 
# 
# 
# High freq. dielectric constant tensor:
#      x y z
#    x 1.876080 0.003400 0.001800 
#    y 0.003400 1.870900 -0.007080 
#    z 0.001800 -0.007080 1.873440 
# 
# From -- ./inp_files/185273.got.cif
#   From: 2010.06.25/outbox.cif.g09.slc.cpg/sg2_93_cif.got.tgz:185273.got - 2010.06.27 13:26:56.
