data_PCOD8036444
_publ_section_title
;
Structure prediction by ZEFSAII (Michael W. Deem and Ramdas Pophale) SiO2 
 PCOD8036444
Probable space group: P -1
;
_chemical_formula_sum "Si O2"
_cell_formula_units_Z 10
_cell_length_a 5.264413
_cell_length_b 10.620651
_cell_length_c 9.482484
_cell_angle_alpha 95.251851
_cell_angle_beta 67.321923
_cell_angle_gamma 117.053068
_cell_volume 433.392474
_symmetry_space_group_name_H-M "P -1"
_symmetry_group_IT_number 2
_symmetry_cell_setting 'triclinic'
loop_
_space_group_symop_operation_xyz
x,y,z
-x,-y,-z
loop_
_atom_site_type_symbol
_atom_site_label
_atom_site_fract_x
_atom_site_fract_y
_atom_site_fract_z
Si Si1 0.373202 0.775240 0.850377
Si Si2 0.187505 0.170431 0.976001
Si Si3 0.298117 0.704467 0.339846
Si Si4 0.291883 0.977716 0.405013
Si Si5 0.710842 0.431042 0.391949
O O1 0.385393 0.647968 0.745007
O O2 0.519662 0.923305 0.752582
O O3 0.556905 0.781672 0.952269
O O4 0.026876 0.750514 0.954637
O O5 0.364775 0.231097 0.797241
O O6 0.836367 0.183111 0.639549
O O7 0.000000 0.000000 0.000000
O O8 0.324385 0.688800 0.500446
O O9 0.063277 0.552215 0.310834
O O10 0.500000 0.000000 0.500000
O O11 0.000000 0.000000 0.500000
O O12 0.500000 0.500000 0.500000
#
# Coordination Sequence:
#
# PCOD8036444 Si02
#       5
#     2   2   2   2   2
#     4  12  27  47  77 108 146 195 243 300 373 436
#     4  12  28  48  73 112 152 187 242 306 373 435
#     4  11  27  46  73 107 150 195 241 310 362 431
#     4  12  24  42  75 110 140 188 249 302 356 426
#     4  11  27  49  75 105 149 196 254 300 358 438
#
# _framework density 23.073777
#
# number of rings (size 3 to 8) (size 9 to 14) (size 15 to 20)
#    0.000    0.400    4.000    3.000    8.400    1.600 
#    0.000    0.000    0.000    0.000    0.000    0.000 
#    0.000    0.000    0.000    0.000    0.000    0.000 
#
# Total GULP energy -124027.994783 kJ/mol
# GULP energy per Si atom -12402.799478 kJ/mol
# Density = 2.302126 g / cm^3
# Si number density = 23.073777 Si / 1000 Ang^3
#
#
#
# Elastic Constant Matrix: (Units=GPa)
#
#
# Indices 1 2 3 4 5 6 
#
# 1 153.8784 36.5036 50.2498 9.2457 -15.5965 -12.1902
# 2 36.5036 119.6833 58.5793 5.6734 -19.3451 -6.4374
# 3 50.2498 58.5793 108.7446 -0.3003 -22.5847 7.6958
# 4 9.2457 5.6734 -0.3003 45.6727 4.9334 -13.1671
# 5 -15.5965 -19.3451 -22.5847 4.9334 49.0895 10.4943
# 6 -12.1902 -6.4374 7.6958 -13.1671 10.4943 33.6803
#
#
#
# Elastic Compliance Matrix: (Units=1/GPa)
#
#
# Indices 1 2 3 4 5 6 
#
# 1 0.008149 -0.000412 -0.003794 -0.000614 -0.000005 0.003499
# 2 -0.000412 0.011881 -0.006173 -0.000728 0.001168 0.002884
# 3 -0.003794 -0.006173 0.016069 -0.001452 0.005735 -0.008579
# 4 -0.000614 -0.000728 -0.001452 0.026329 -0.006418 0.012263
# 5 -0.000005 0.001168 0.005735 -0.006418 0.026658 -0.011904
# 6 0.003499 0.002884 -0.008579 0.012263 -0.011904 0.041972
#
#
# Mechanical properties :
#
#
# Convention : Reuss Voigt Hill
#
# Bulk Modulus (GPa) = 65.18977 74.77463 69.98220
# Shear Modulus (GPa) = 31.86155 41.48673 36.67414
#
# Velocity S-wave (km/s) = 3.72002 4.24489 3.99109
# Velocity P-wave (km/s) = 6.83853 7.51682 7.18568
#
# Compressibility (1/GPa) = 0.01533983
#
# Stress axis : x y z
#
# Youngs Moduli (GPa) = 122.71612 84.16850 62.23295
#
# Poissons Ratio (x) = 0.03467 0.23611
# Poissons Ratio (y) = 0.05055 0.38419
# Poissons Ratio (z) = 0.46558 0.51960
#
# Static dielectric constant tensor:
#      x y z
#    x 4.349920 0.050060 -0.103090 
#    y 0.050060 4.455540 -0.065220 
#    z -0.103090 -0.065220 4.365100 
# 
# 
# High freq. dielectric constant tensor:
#      x y z
#    x 1.916340 -0.002100 -0.006170 
#    y -0.002100 1.925410 -0.001970 
#    z -0.006170 -0.001970 1.920210 
# 
# From -- ./inp_files/130857.got.cif
#   From: 2010.06.25/outbox.cif.g09.slc.cpg/sg2_66_cif.got.tgz:130857.got - 2010.06.27 13:26:56.
