data_PCOD8036985
_publ_section_title
;
Structure prediction by ZEFSAII (Michael W. Deem and Ramdas Pophale) SiO2 
 PCOD8036985
Probable space group: P -1
;
_chemical_formula_sum "Si O2"
_cell_formula_units_Z 12
_cell_length_a 7.648073
_cell_length_b 14.393512
_cell_length_c 8.327934
_cell_angle_alpha 83.144988
_cell_angle_beta 49.306564
_cell_angle_gamma 54.272263
_cell_volume 510.876716
_symmetry_space_group_name_H-M "P -1"
_symmetry_group_IT_number 2
_symmetry_cell_setting 'triclinic'
loop_
_space_group_symop_operation_xyz
x,y,z
-x,-y,-z
loop_
_atom_site_type_symbol
_atom_site_label
_atom_site_fract_x
_atom_site_fract_y
_atom_site_fract_z
Si Si1 0.718792 0.865342 0.321347
Si Si2 0.607200 0.252320 0.981441
Si Si3 0.601713 0.869640 0.024367
Si Si4 0.298670 0.323808 0.474111
Si Si5 0.807111 0.498464 0.980765
Si Si6 0.723097 0.368636 0.299707
O O1 0.600707 0.869448 0.216282
O O2 0.668704 0.792997 0.483167
O O3 0.500000 0.000000 0.500000
O O4 0.068059 0.810872 0.116768
O O5 0.328385 0.324800 0.264590
O O6 0.514591 0.357607 0.884778
O O7 0.637441 0.142943 0.898132
O O8 0.945556 0.739881 0.789356
O O9 0.500000 0.000000 0.000000
O O10 0.574090 0.307600 0.393965
O O11 0.974847 0.448876 0.717099
O O12 0.759155 0.405179 0.091763
O O13 0.000000 0.500000 0.000000
O O14 0.500000 0.500000 0.500000
#
# Coordination Sequence:
#
# PCOD8036985 Si02
#       6
#     2   2   2   2   2   2
#     4  12  29  51  74 111 153 202 261 312 375 462
#     4  12  27  48  79 109 155 202 247 320 380 452
#     4  12  27  51  76 111 151 203 260 313 385 449
#     4  12  24  47  74 107 156 195 250 312 382 445
#     4  12  23  46  73 115 152 192 255 304 386 457
#     4  12  25  46  78 111 154 195 247 319 375 452
#
# _framework density 23.489034
#
# number of rings (size 3 to 8) (size 9 to 14) (size 15 to 20)
#    0.000    0.000    6.667    1.500    2.333    8.667 
#    0.000    0.000    0.000    0.000    0.000    0.000 
#    0.000    0.000    0.000    0.000    0.000    0.000 
#
# Total GULP energy -148776.048114 kJ/mol
# GULP energy per Si atom -12398.004009 kJ/mol
# Density = 2.343557 g / cm^3
# Si number density = 23.489034 Si / 1000 Ang^3
#
#
#
# Elastic Constant Matrix: (Units=GPa)
#
#
# Indices 1 2 3 4 5 6 
#
# 1 110.3728 34.2761 35.4370 -2.5387 8.9754 21.8600
# 2 34.2761 169.6178 42.7416 -0.3003 -7.6208 10.6383
# 3 35.4370 42.7416 111.7689 6.2002 1.4901 4.6118
# 4 -2.5387 -0.3003 6.2002 38.8772 12.8572 1.4179
# 5 8.9754 -7.6208 1.4901 12.8572 31.0861 -7.1746
# 6 21.8600 10.6383 4.6118 1.4179 -7.1746 40.7569
#
#
#
# Elastic Compliance Matrix: (Units=1/GPa)
#
#
# Indices 1 2 3 4 5 6 
#
# 1 0.012779 -0.001615 -0.003251 0.004038 -0.007330 -0.007495
# 2 -0.001615 0.006877 -0.002112 -0.000501 0.002403 -0.000249
# 3 -0.003251 -0.002112 0.010846 -0.002409 0.001212 0.001365
# 4 0.004038 -0.000501 -0.002409 0.031727 -0.015590 -0.005610
# 5 -0.007330 0.002403 0.001212 -0.015590 0.043904 0.011438
# 6 -0.007495 -0.000249 0.001365 -0.005610 0.011438 0.030675
#
#
# Mechanical properties :
#
#
# Convention : Reuss Voigt Hill
#
# Bulk Modulus (GPa) = 60.43513 68.51874 64.47694
# Shear Modulus (GPa) = 31.99403 40.76435 36.37919
#
# Velocity S-wave (km/s) = 3.69465 4.17041 3.93972
# Velocity P-wave (km/s) = 6.63215 7.24041 6.94295
#
# Compressibility (1/GPa) = 0.01654667
#
# Stress axis : x y z
#
# Youngs Moduli (GPa) = 78.25326 145.41588 92.19614
#
# Poissons Ratio (x) = 0.23488 0.29973
# Poissons Ratio (y) = 0.12640 0.19468
# Poissons Ratio (z) = 0.25440 0.30706
#
# Static dielectric constant tensor:
#      x y z
#    x 4.207890 0.202160 0.062410 
#    y 0.202160 4.495310 -0.204370 
#    z 0.062410 -0.204370 4.682530 
# 
# 
# High freq. dielectric constant tensor:
#      x y z
#    x 1.936370 0.018180 0.006850 
#    y 0.018180 1.943400 -0.001520 
#    z 0.006850 -0.001520 1.928510 
# 
# From -- ./inp_files/200523.got.cif
#   From: 2010.06.25/outbox.cif.g09.slc.cpg/sg2_101_cif.got.tgz:200523.got - 2010.06.27 13:26:56.
