data_PCOD8036991
_publ_section_title
;
Structure prediction by ZEFSAII (Michael W. Deem and Ramdas Pophale) SiO2 
 PCOD8036991
Probable space group: P -1
;
_chemical_formula_sum "Si O2"
_cell_formula_units_Z 10
_cell_length_a 8.708581
_cell_length_b 11.174399
_cell_length_c 12.184752
_cell_angle_alpha 156.439641
_cell_angle_beta 64.198354
_cell_angle_gamma 116.991009
_cell_volume 421.715656
_symmetry_space_group_name_H-M "P -1"
_symmetry_group_IT_number 2
_symmetry_cell_setting 'triclinic'
loop_
_space_group_symop_operation_xyz
x,y,z
-x,-y,-z
loop_
_atom_site_type_symbol
_atom_site_label
_atom_site_fract_x
_atom_site_fract_y
_atom_site_fract_z
Si Si1 0.409792 0.443764 0.865331
Si Si2 0.776927 0.746252 0.605271
Si Si3 0.503890 0.890762 0.649591
Si Si4 0.036832 0.176112 0.746767
Si Si5 0.820019 0.091248 0.093471
O O1 0.516790 0.283006 0.606557
O O2 0.236773 0.211656 0.746737
O O3 0.500000 0.500000 0.000000
O O4 0.381336 0.775838 0.111437
O O5 0.605410 0.707264 0.550375
O O6 0.849842 0.428456 0.316438
O O7 0.927177 0.007494 0.737276
O O8 0.732226 0.846420 0.825980
O O9 0.311343 0.917244 0.771135
O O10 0.000000 0.000000 0.500000
O O11 0.000000 0.500000 0.000000
O O12 0.000000 0.000000 0.000000
#
# Coordination Sequence:
#
# PCOD8036991 Si02
#       5
#     2   2   2   2   2
#     4  12  26  46  74 112 151 191 235 311 369 431
#     4  12  24  47  79 101 147 195 246 300 360 441
#     4  12  25  49  75 107 147 195 251 292 365 444
#     4  12  23  46  75 109 145 186 249 297 365 442
#     4  12  28  48  71 110 146 193 245 310 367 423
#
# _framework density 23.712658999999999
#
# number of rings (size 3 to 8) (size 9 to 14) (size 15 to 20)
#    0.000    0.000    4.000    6.000    2.800    0.000 
#    0.000    0.000    0.000    0.000    0.000    0.000 
#    0.000    0.000    0.000    0.000    0.000    0.000 
#
# Total GULP energy -124030.790482 kJ/mol
# GULP energy per Si atom -12403.079048 kJ/mol
# Density = 2.365869 g / cm^3
# Si number density = 23.712659 Si / 1000 Ang^3
#
#
#
# Elastic Constant Matrix: (Units=GPa)
#
#
# Indices 1 2 3 4 5 6 
#
# 1 170.5770 54.1303 69.2628 -21.1621 4.2812 3.7576
# 2 54.1303 84.1320 37.9171 -14.4120 -3.2551 1.6105
# 3 69.2628 37.9171 177.3012 -19.0339 5.5509 -9.9167
# 4 -21.1621 -14.4120 -19.0339 59.2714 -12.2689 -1.7168
# 5 4.2812 -3.2551 5.5509 -12.2689 50.5468 1.4396
# 6 3.7576 1.6105 -9.9167 -1.7168 1.4396 26.2561
#
#
#
# Elastic Compliance Matrix: (Units=1/GPa)
#
#
# Indices 1 2 3 4 5 6 
#
# 1 0.008286 -0.004076 -0.002333 0.001086 -0.000395 -0.001724
# 2 -0.004076 0.015739 -0.001653 0.002250 0.002114 -0.000975
# 3 -0.002333 -0.001653 0.007219 0.001067 -0.000535 0.003261
# 4 0.001086 0.002250 0.001067 0.019122 0.004546 0.001111
# 5 -0.000395 0.002114 -0.000535 0.004546 0.021148 -0.001138
# 6 -0.001724 -0.000975 0.003261 0.001111 -0.001138 0.039759
#
#
# Mechanical properties :
#
#
# Convention : Reuss Voigt Hill
#
# Bulk Modulus (GPa) = 66.13361 83.84785 74.99073
# Shear Modulus (GPa) = 37.75397 45.26153 41.50775
#
# Velocity S-wave (km/s) = 3.99450 4.37366 4.18837
# Velocity P-wave (km/s) = 7.01604 7.80653 7.42182
#
# Compressibility (1/GPa) = 0.01512090
#
# Stress axis : x y z
#
# Youngs Moduli (GPa) = 120.68954 63.53462 138.53291
#
# Poissons Ratio (x) = 0.25896 0.32314
# Poissons Ratio (y) = 0.49192 0.22898
# Poissons Ratio (z) = 0.28152 0.10501
#
# Static dielectric constant tensor:
#      x y z
#    x 4.209050 0.214420 0.106200 
#    y 0.214420 4.743990 0.298820 
#    z 0.106200 0.298820 4.762200 
# 
# 
# High freq. dielectric constant tensor:
#      x y z
#    x 1.934500 0.000400 0.003000 
#    y 0.000400 1.948370 0.002900 
#    z 0.003000 0.002900 1.966240 
# 
# From -- ./inp_files/18076.got.cif
#   From: 2010.06.25/outbox.cif.g09.slc.cpg/sg2_10_cif.got.tgz:18076.got - 2010.06.27 13:26:56.
