data_PCOD8036066
_publ_section_title
;
Structure prediction by ZEFSAII (Michael W. Deem and Ramdas Pophale) SiO2 
 PCOD8036066
Probable space group: P -1
;
_chemical_formula_sum "Si O2"
_cell_formula_units_Z 16
_cell_length_a 8.580277
_cell_length_b 14.853979
_cell_length_c 15.435803
_cell_angle_alpha 29.368484
_cell_angle_beta 117.994846
_cell_angle_gamma 99.529619
_cell_volume 704.468959
_symmetry_space_group_name_H-M "P -1"
_symmetry_group_IT_number 2
_symmetry_cell_setting 'triclinic'
loop_
_space_group_symop_operation_xyz
x,y,z
-x,-y,-z
loop_
_atom_site_type_symbol
_atom_site_label
_atom_site_fract_x
_atom_site_fract_y
_atom_site_fract_z
Si Si1 0.274482 0.711687 0.240216
Si Si2 0.204363 0.784886 0.960062
Si Si3 0.762483 0.524638 0.079593
Si Si4 0.036601 0.428022 0.667810
Si Si5 0.840141 0.778043 0.462582
Si Si6 0.359413 0.970470 0.174580
Si Si7 0.265374 0.041055 0.281994
Si Si8 0.466995 0.434528 0.181822
O O1 0.500000 0.500000 0.500000
O O2 0.094772 0.670493 0.250993
O O3 0.247091 0.910762 0.122840
O O4 0.272200 0.764650 0.094269
O O5 0.971245 0.835552 0.845689
O O6 0.203741 0.981774 0.748612
O O7 0.370012 0.558027 0.143654
O O8 0.648086 0.469122 0.169084
O O9 0.018395 0.365941 0.296574
O O10 0.667821 0.784974 0.844656
O O11 0.719356 0.470603 0.018109
O O12 0.974980 0.642983 0.526183
O O13 0.000000 0.500000 0.500000
O O14 0.283642 0.224427 0.919434
O O15 0.615669 0.801975 0.383901
O O16 0.270660 0.960970 0.252626
O O17 0.428899 0.827026 0.561013
#
# Coordination Sequence:
#
# PCOD8036066 Si02
#       8
#     2   2   2   2   2   2   2   2
#     4  12  25  45  67 102 145 185 245 294 346 430
#     4  12  27  46  72 107 145 188 243 295 365 424
#     4  11  25  52  74 108 148 184 245 296 365 436
#     4  12  27  44  68 101 141 193 242 292 356 422
#     4  12  26  47  69 107 147 186 243 300 352 440
#     4  12  26  45  72  99 147 196 232 294 362 420
#     4  12  25  48  74 109 143 190 242 296 361 431
#     4  11  27  50  77 106 144 193 233 306 367 426
#
# _framework density 22.712143999999999
#
# number of rings (size 3 to 8) (size 9 to 14) (size 15 to 20)
#    0.000    0.250    5.000    3.000    5.250    2.000 
#    2.250    0.000    0.000    0.000    0.000    0.000 
#    0.000    0.000    0.000    0.000    0.000    0.000 
#
# Total GULP energy -198479.750793 kJ/mol
# GULP energy per Si atom -12404.984425 kJ/mol
# Density = 2.266045 g / cm^3
# Si number density = 22.712144 Si / 1000 Ang^3
#
#
#
# Elastic Constant Matrix: (Units=GPa)
#
#
# Indices 1 2 3 4 5 6 
#
# 1 61.6531 36.1020 40.7311 4.6242 -5.6661 -1.8282
# 2 36.1020 97.9093 24.0986 4.4098 2.3130 -1.0875
# 3 40.7311 24.0986 142.9281 0.7739 2.1806 2.7272
# 4 4.6242 4.4098 0.7739 42.9280 4.4643 -0.8651
# 5 -5.6661 2.3130 2.1806 4.4643 41.4845 0.4717
# 6 -1.8282 -1.0875 2.7272 -0.8651 0.4717 30.8975
#
#
#
# Elastic Compliance Matrix: (Units=1/GPa)
#
#
# Indices 1 2 3 4 5 6 
#
# 1 0.025430 -0.007885 -0.006004 -0.002251 0.004452 0.001626
# 2 -0.007885 0.013163 0.000056 -0.000319 -0.001780 0.000010
# 3 -0.006004 0.000056 0.008736 0.000600 -0.001335 -0.001087
# 4 -0.002251 -0.000319 0.000600 0.023871 -0.002896 0.000515
# 5 0.004452 -0.001780 -0.001335 -0.002896 0.025196 -0.000147
# 6 0.001626 0.000010 -0.001087 0.000515 -0.000147 0.032574
#
#
# Mechanical properties :
#
#
# Convention : Reuss Voigt Hill
#
# Bulk Modulus (GPa) = 50.85470 56.03932 53.44701
# Shear Modulus (GPa) = 30.63909 36.49926 33.56917
#
# Velocity S-wave (km/s) = 3.67688 4.01314 3.84868
# Velocity P-wave (km/s) = 6.36125 6.79713 6.58280
#
# Compressibility (1/GPa) = 0.01966387
#
# Stress axis : x y z
#
# Youngs Moduli (GPa) = 39.32414 75.96771 114.46919
#
# Poissons Ratio (x) = 0.59897 0.68730
# Poissons Ratio (y) = 0.31005 -0.00643
# Poissons Ratio (z) = 0.23611 -0.00427
#
# Static dielectric constant tensor:
#      x y z
#    x 4.045290 0.110790 0.056070 
#    y 0.110790 4.206180 0.125810 
#    z 0.056070 0.125810 4.237850 
# 
# 
# High freq. dielectric constant tensor:
#      x y z
#    x 1.889500 0.002790 0.004340 
#    y 0.002790 1.898460 -0.001020 
#    z 0.004340 -0.001020 1.918050 
# 
# From -- ./inp_files/505082.got.cif
#   From: 2010.06.25/outbox.cif.g09.slc.cpg/sg2_253_cif.got.tgz:505082.got - 2010.06.27 13:26:56.
