data_PCOD8036573
_publ_section_title
;
Structure prediction by ZEFSAII (Michael W. Deem and Ramdas Pophale) SiO2 
 PCOD8036573
Probable space group: P -1
;
_chemical_formula_sum "Si O2"
_cell_formula_units_Z 16
_cell_length_a 12.921531
_cell_length_b 8.480421
_cell_length_c 15.486379
_cell_angle_alpha 130.558072
_cell_angle_beta 140.246704
_cell_angle_gamma 47.987351
_cell_volume 772.737006
_symmetry_space_group_name_H-M "P -1"
_symmetry_group_IT_number 2
_symmetry_cell_setting 'triclinic'
loop_
_space_group_symop_operation_xyz
x,y,z
-x,-y,-z
loop_
_atom_site_type_symbol
_atom_site_label
_atom_site_fract_x
_atom_site_fract_y
_atom_site_fract_z
Si Si1 0.934918 0.428638 0.649418
Si Si2 0.751621 0.885777 0.359750
Si Si3 0.842625 0.865106 0.035049
Si Si4 0.642336 0.632701 0.944970
Si Si5 0.514747 0.252892 0.935540
Si Si6 0.978213 0.253183 0.062073
Si Si7 0.703682 0.280353 0.340164
Si Si8 0.020069 0.966596 0.333063
O O1 0.935915 0.658727 0.772099
O O2 0.761875 0.463449 0.494212
O O3 0.952183 0.253814 0.673764
O O4 0.098241 0.327444 0.656401
O O5 0.582217 0.817984 0.232055
O O6 0.700601 0.096165 0.340079
O O7 0.817100 0.951399 0.516756
O O8 0.001876 0.908361 0.201240
O O9 0.742002 0.755103 0.994518
O O10 0.923525 0.715379 0.950774
O O11 0.713196 0.100954 0.003976
O O12 0.484038 0.601088 0.779760
O O13 0.571511 0.774842 0.037487
O O14 0.775144 0.393686 0.972912
O O15 0.500000 0.500000 0.000000
O O16 0.000000 0.000000 0.000000
O O17 0.842996 0.162704 0.314456
#
# Coordination Sequence:
#
# PCOD8036573 Si02
#       8
#     2   2   2   2   2   2   2   2
#     4   9  18  35  61  85 123 156 195 239 307 350
#     4   9  17  34  60  91 121 149 191 251 306 343
#     4  12  23  38  63  93 117 154 213 245 287 356
#     4  12  21  40  64  88 116 156 214 248 283 352
#     4  12  23  37  60  94 127 154 192 251 309 350
#     4  12  26  42  57  86 128 165 192 244 311 363
#     4   9  17  34  62  95 110 150 201 258 287 342
#     4   9  17  33  61  94 116 144 202 255 289 345
#
# _framework density 20.705622999999999
#
# number of rings (size 3 to 8) (size 9 to 14) (size 15 to 20)
#    0.000    1.500    5.000    3.750    0.000    0.000 
#    0.000    4.375    0.000    0.000    0.000    0.000 
#    0.000    0.000    0.000    0.000    0.000    0.000 
#
# Total GULP energy -198322.610890 kJ/mol
# GULP energy per Si atom -12395.163181 kJ/mol
# Density = 2.065850 g / cm^3
# Si number density = 20.705623 Si / 1000 Ang^3
#
#
#
# Elastic Constant Matrix: (Units=GPa)
#
#
# Indices 1 2 3 4 5 6 
#
# 1 33.0439 -4.0973 12.1661 1.3020 -6.0625 -4.6626
# 2 -4.0973 68.9118 50.2162 3.1790 0.4566 -9.5102
# 3 12.1661 50.2162 196.0753 -2.5995 2.9330 -2.2621
# 4 1.3020 3.1790 -2.5995 36.3567 -4.3484 4.9454
# 5 -6.0625 0.4566 2.9330 -4.3484 18.5037 5.6815
# 6 -4.6626 -9.5102 -2.2621 4.9454 5.6815 21.5415
#
#
#
# Elastic Compliance Matrix: (Units=1/GPa)
#
#
# Indices 1 2 3 4 5 6 
#
# 1 0.035275 0.005996 -0.003796 -0.002055 0.009084 0.007960
# 2 0.005996 0.020707 -0.005568 -0.004231 -0.002157 0.011395
# 3 -0.003796 -0.005568 0.006765 0.001331 -0.001070 -0.002593
# 4 -0.002055 -0.004231 0.001331 0.030881 0.010143 -0.011938
# 5 0.009084 -0.002157 -0.001070 0.010143 0.065357 -0.018664
# 6 0.007960 0.011395 -0.002593 -0.011938 -0.018664 0.060567
#
#
# Mechanical properties :
#
#
# Convention : Reuss Voigt Hill
#
# Bulk Modulus (GPa) = 17.85303 46.06677 31.95990
# Shear Modulus (GPa) = 20.41182 31.26346 25.83764
#
# Velocity S-wave (km/s) = 3.14317 3.88996 3.53633
# Velocity P-wave (km/s) = 4.67051 6.51709 5.66949
#
# Compressibility (1/GPa) = 0.05601290
#
# Stress axis : x y z
#
# Youngs Moduli (GPa) = 28.34906 48.29263 147.81425
#
# Poissons Ratio (x) = -0.28958 0.56106
# Poissons Ratio (y) = -0.16999 0.82298
# Poissons Ratio (z) = 0.10761 0.26888
#
# Static dielectric constant tensor:
#      x y z
#    x 3.507030 -0.140270 -0.033730 
#    y -0.140270 3.524250 0.010840 
#    z -0.033730 0.010840 3.491540 
# 
# 
# High freq. dielectric constant tensor:
#      x y z
#    x 1.768390 0.000800 0.000460 
#    y 0.000800 1.791420 -0.005270 
#    z 0.000460 -0.005270 1.833500 
# 
# From -- ./inp_files/182595.got.cif
#   From: 2010.06.25/outbox.cif.g09.slc.cpg/sg2_92_cif.got.tgz:182595.got - 2010.06.27 13:26:56.
