data_PCOD8036955
_publ_section_title
;
Structure prediction by ZEFSAII (Michael W. Deem and Ramdas Pophale) SiO2 
 PCOD8036955
Probable space group: P -1
;
_chemical_formula_sum "Si O2"
_cell_formula_units_Z 16
_cell_length_a 17.688171
_cell_length_b 11.094275
_cell_length_c 8.736916
_cell_angle_alpha 129.408342
_cell_angle_beta 116.941018
_cell_angle_gamma 33.242226
_cell_volume 713.791091
_symmetry_space_group_name_H-M "P -1"
_symmetry_group_IT_number 2
_symmetry_cell_setting 'triclinic'
loop_
_space_group_symop_operation_xyz
x,y,z
-x,-y,-z
loop_
_atom_site_type_symbol
_atom_site_label
_atom_site_fract_x
_atom_site_fract_y
_atom_site_fract_z
Si Si1 0.779217 0.979114 0.066003
Si Si2 0.494269 0.449623 0.632502
Si Si3 0.034203 0.300843 0.269627
Si Si4 0.510360 0.913511 0.609778
Si Si5 0.234922 0.448879 0.935968
Si Si6 0.222990 0.820024 0.248574
Si Si7 0.773456 0.644425 0.814313
Si Si8 0.949130 0.902754 0.398753
O O1 0.898686 0.907623 0.195736
O O2 0.632486 0.283382 0.178192
O O3 0.834675 0.856461 0.848868
O O4 0.761585 0.839023 0.021012
O O5 0.500000 0.500000 0.500000
O O6 0.475571 0.292874 0.519004
O O7 0.632486 0.298025 0.730265
O O8 0.000000 0.500000 0.500000
O O9 0.895648 0.449421 0.174655
O O10 0.088603 0.083866 0.251551
O O11 0.648174 0.790476 0.704072
O O12 0.500000 0.000000 0.500000
O O13 0.375554 0.159978 0.779569
O O14 0.240366 0.622131 0.036234
O O15 0.228928 0.459703 0.122401
O O16 0.184901 0.893597 0.451093
O O17 0.921406 0.393726 0.660734
O O18 0.000000 0.000000 0.500000
#
# Coordination Sequence:
#
# PCOD8036955 Si02
#       8
#     2   2   2   2   2   2   2   2
#     4  12  26  45  77 106 142 192 245 298 364 436
#     4  12  25  49  78 107 147 193 248 299 367 447
#     4  12  28  46  71 107 149 190 241 305 368 428
#     4  12  30  47  75 110 149 193 243 308 369 430
#     4  12  26  49  71 104 147 193 243 297 365 442
#     4  12  26  45  76 105 146 189 241 302 368 429
#     4  12  25  46  74 104 145 189 245 297 360 442
#     4  12  23  45  75 110 142 185 244 303 360 436
#
# _framework density 22.415521999999999
#
# number of rings (size 3 to 8) (size 9 to 14) (size 15 to 20)
#    0.000    0.000    3.750    5.625    8.750    0.500 
#    0.000    0.000    0.000    0.000    0.000    0.000 
#    0.000    0.000    0.000    0.000    0.000    0.000 
#
# Total GULP energy -198409.652268 kJ/mol
# GULP energy per Si atom -12400.603267 kJ/mol
# Density = 2.236450 g / cm^3
# Si number density = 22.415522 Si / 1000 Ang^3
#
#
#
# Elastic Constant Matrix: (Units=GPa)
#
#
# Indices 1 2 3 4 5 6 
#
# 1 102.7730 40.4701 51.3187 6.0840 20.4727 1.4436
# 2 40.4701 144.1564 67.0907 13.1894 11.6804 -16.3846
# 3 51.3187 67.0907 128.5711 19.7904 8.8544 -7.4764
# 4 6.0840 13.1894 19.7904 59.0493 1.7802 0.9865
# 5 20.4727 11.6804 8.8544 1.7802 41.9266 7.9878
# 6 1.4436 -16.3846 -7.4764 0.9865 7.9878 49.3983
#
#
#
# Elastic Compliance Matrix: (Units=1/GPa)
#
#
# Indices 1 2 3 4 5 6 
#
# 1 0.013506 -0.001460 -0.004406 0.000578 -0.005144 -0.000725
# 2 -0.001460 0.009808 -0.004148 -0.000649 -0.001679 0.002952
# 3 -0.004406 -0.004148 0.012094 -0.002705 0.000770 0.000513
# 4 0.000578 -0.000649 -0.002705 0.017946 -0.000105 -0.000983
# 5 -0.005144 -0.001679 0.000770 -0.000105 0.027577 -0.004747
# 6 -0.000725 0.002952 0.000513 -0.000983 -0.004747 0.022109
#
#
# Mechanical properties :
#
#
# Convention : Reuss Voigt Hill
#
# Bulk Modulus (GPa) = 65.01868 77.02883 71.02375
# Shear Modulus (GPa) = 39.00298 44.51623 41.75960
#
# Velocity S-wave (km/s) = 4.17585 4.46124 4.32090
# Velocity P-wave (km/s) = 7.23322 7.80868 7.52645
#
# Compressibility (1/GPa) = 0.01538020
#
# Stress axis : x y z
#
# Youngs Moduli (GPa) = 74.04274 101.95463 82.68372
#
# Poissons Ratio (x) = 0.14880 0.36431
# Poissons Ratio (y) = 0.10807 0.34301
# Poissons Ratio (z) = 0.32624 0.42295
#
# Static dielectric constant tensor:
#      x y z
#    x 4.614810 -0.303150 -0.453700 
#    y -0.303150 4.285390 0.430570 
#    z -0.453700 0.430570 4.538290 
# 
# 
# High freq. dielectric constant tensor:
#      x y z
#    x 1.890080 -0.006530 0.007990 
#    y -0.006530 1.902990 0.014570 
#    z 0.007990 0.014570 1.895440 
# 
# From -- ./inp_files/333794.got.cif
#   From: 2010.06.25/outbox.cif.g09.slc.cpg/sg2_167_cif.got.tgz:333794.got - 2010.06.27 13:26:56.
