data_PCOD8036388
_publ_section_title
;
Structure prediction by ZEFSAII (Michael W. Deem and Ramdas Pophale) SiO2 
 PCOD8036388
Probable space group: P -1
;
_chemical_formula_sum "Si O2"
_cell_formula_units_Z 16
_cell_length_a 15.058435
_cell_length_b 15.532283
_cell_length_c 10.595393
_cell_angle_alpha 57.615653
_cell_angle_beta 137.767024
_cell_angle_gamma 153.321388
_cell_volume 679.574736
_symmetry_space_group_name_H-M "P -1"
_symmetry_group_IT_number 2
_symmetry_cell_setting 'triclinic'
loop_
_space_group_symop_operation_xyz
x,y,z
-x,-y,-z
loop_
_atom_site_type_symbol
_atom_site_label
_atom_site_fract_x
_atom_site_fract_y
_atom_site_fract_z
Si Si1 0.232668 0.225258 0.011427
Si Si2 0.644211 0.589463 0.749763
Si Si3 0.184162 0.518142 0.961690
Si Si4 0.075284 0.158360 0.388976
Si Si5 0.257047 0.557463 0.715581
Si Si6 0.378832 0.816709 0.460088
Si Si7 0.871982 0.126065 0.573402
Si Si8 0.400901 0.048311 0.845261
O O1 0.317128 0.362067 0.100952
O O2 0.484100 0.330402 0.146799
O O3 0.118886 0.213031 0.783048
O O4 0.000000 0.000000 0.000000
O O5 0.322259 0.381337 0.546741
O O6 0.822159 0.786272 0.692367
O O7 0.746241 0.544964 0.859835
O O8 0.286016 0.595936 0.863871
O O9 0.858927 0.316875 0.785381
O O10 0.330758 0.700233 0.061564
O O11 0.813339 0.057183 0.191252
O O12 0.000000 0.000000 0.500000
O O13 0.250129 0.661373 0.557170
O O14 0.977939 0.310236 0.578930
O O15 0.500000 0.000000 0.500000
O O16 0.621864 0.922967 0.560060
O O17 0.766540 0.050335 0.381091
O O18 0.500000 0.000000 0.000000
#
# Coordination Sequence:
#
# PCOD8036388 Si02
#       8
#     2   2   2   2   2   2   2   2
#     4  12  26  45  78 115 149 190 251 318 379 440
#     4  11  26  49  76 113 145 197 256 313 371 454
#     4  12  27  47  78 110 148 204 250 307 378 454
#     4  11  26  49  80 105 152 201 252 309 377 453
#     4  12  26  48  78 109 151 193 251 310 378 455
#     4  12  26  47  75 107 148 193 252 306 373 451
#     4  12  27  49  75 107 149 196 246 313 378 444
#     4  12  30  49  75 112 154 202 251 314 383 448
#
# _framework density 23.544135000000001
#
# number of rings (size 3 to 8) (size 9 to 14) (size 15 to 20)
#    0.000    0.250    5.000    2.250    8.750    0.500 
#    2.250    0.000    0.000    0.000    0.000    0.000 
#    0.000    0.000    0.000    0.000    0.000    0.000 
#
# Total GULP energy -198459.299121 kJ/mol
# GULP energy per Si atom -12403.706195 kJ/mol
# Density = 2.349055 g / cm^3
# Si number density = 23.544135 Si / 1000 Ang^3
#
#
#
# Elastic Constant Matrix: (Units=GPa)
#
#
# Indices 1 2 3 4 5 6 
#
# 1 64.4942 15.5897 27.6290 3.8897 -0.5928 -3.4438
# 2 15.5897 125.3756 31.8763 1.2006 1.6417 -1.1931
# 3 27.6290 31.8763 133.7752 10.6372 -2.9743 -13.2981
# 4 3.8897 1.2006 10.6372 42.1399 0.9109 4.3636
# 5 -0.5928 1.6417 -2.9743 0.9109 49.4320 1.4308
# 6 -3.4438 -1.1931 -13.2981 4.3636 1.4308 41.0777
#
#
#
# Elastic Compliance Matrix: (Units=1/GPa)
#
#
# Indices 1 2 3 4 5 6 
#
# 1 0.017244 -0.001337 -0.003129 -0.000815 0.000064 0.000478
# 2 -0.001337 0.008614 -0.001867 0.000410 -0.000408 -0.000496
# 3 -0.003129 -0.001867 0.009038 -0.002244 0.000528 0.002829
# 4 -0.000815 0.000410 -0.002244 0.024723 -0.000516 -0.003391
# 5 0.000064 -0.000408 0.000528 -0.000516 0.020299 -0.000488
# 6 0.000478 -0.000496 0.002829 -0.003391 -0.000488 0.025663
#
#
# Mechanical properties :
#
#
# Convention : Reuss Voigt Hill
#
# Bulk Modulus (GPa) = 44.98678 52.64832 48.81755
# Shear Modulus (GPa) = 39.79069 43.09992 41.44530
#
# Velocity S-wave (km/s) = 4.11548 4.28319 4.20017
# Velocity P-wave (km/s) = 6.46001 6.84625 6.65593
#
# Compressibility (1/GPa) = 0.02222875
#
# Stress axis : x y z
#
# Youngs Moduli (GPa) = 57.99035 116.09369 110.64617
#
# Poissons Ratio (x) = 0.15523 0.34623
# Poissons Ratio (y) = 0.07754 0.20660
# Poissons Ratio (z) = 0.18146 0.21678
#
# Static dielectric constant tensor:
#      x y z
#    x 4.368010 0.237040 0.200120 
#    y 0.237040 4.656240 0.198770 
#    z 0.200120 0.198770 4.515400 
# 
# 
# High freq. dielectric constant tensor:
#      x y z
#    x 1.927620 0.003970 0.008630 
#    y 0.003970 1.944100 0.008890 
#    z 0.008630 0.008890 1.949500 
# 
# From -- ./inp_files/455651.got.cif
#   From: 2010.06.25/outbox.cif.g09.slc.cpg/sg2_228_cif.got.tgz:455651.got - 2010.06.27 13:26:56.
