data_PCOD8036026
_publ_section_title
;
Structure prediction by ZEFSAII (Michael W. Deem and Ramdas Pophale) SiO2 
 PCOD8036026
Probable space group: P -1
;
_chemical_formula_sum "Si O2"
_cell_formula_units_Z 12
_cell_length_a 8.781506
_cell_length_b 9.170005
_cell_length_c 12.049162
_cell_angle_alpha 37.350200
_cell_angle_beta 62.120097
_cell_angle_gamma 79.950347
_cell_volume 483.858559
_symmetry_space_group_name_H-M "P -1"
_symmetry_group_IT_number 2
_symmetry_cell_setting 'triclinic'
loop_
_space_group_symop_operation_xyz
x,y,z
-x,-y,-z
loop_
_atom_site_type_symbol
_atom_site_label
_atom_site_fract_x
_atom_site_fract_y
_atom_site_fract_z
Si Si1 0.123144 0.411343 0.876906
Si Si2 0.535855 0.327275 0.253109
Si Si3 0.330671 0.233742 0.735665
Si Si4 0.173183 0.081549 0.649155
Si Si5 0.484372 0.157447 0.126172
Si Si6 0.937628 0.175509 0.496843
O O1 0.274316 0.615952 0.779603
O O2 0.215523 0.242727 0.878021
O O3 0.036125 0.556925 0.733519
O O4 0.959680 0.221133 0.124090
O O5 0.369979 0.109415 0.508406
O O6 0.556933 0.229119 0.183252
O O7 0.485451 0.584619 0.109774
O O8 0.500000 0.500000 0.500000
O O9 0.201221 0.189860 0.698370
O O10 0.397698 0.995472 0.875674
O O11 0.072923 0.241054 0.517284
O O12 0.271304 0.974123 0.304536
O O13 0.000000 0.000000 0.500000
#
# Coordination Sequence:
#
# PCOD8036026 Si02
#       6
#     2   2   2   2   2   2
#     4  12  28  51  76 111 154 198 251 307 374 449
#     4  11  25  49  79 112 149 200 246 315 371 442
#     4  12  26  50  74 109 154 202 247 305 373 456
#     4  12  27  48  76 112 148 199 247 309 376 436
#     4  11  25  49  78 113 153 194 254 306 380 444
#     4  12  26  46  74 116 149 190 254 313 369 440
#
# _framework density 24.800633999999999
#
# number of rings (size 3 to 8) (size 9 to 14) (size 15 to 20)
#    0.000    0.333    6.667    0.500    4.667    3.333 
#    3.000    0.000    0.000    0.000    0.000    0.000 
#    0.000    0.000    0.000    0.000    0.000    0.000 
#
# Total GULP energy -148918.310565 kJ/mol
# GULP energy per Si atom -12409.859214 kJ/mol
# Density = 2.474419 g / cm^3
# Si number density = 24.800634 Si / 1000 Ang^3
#
#
#
# Elastic Constant Matrix: (Units=GPa)
#
#
# Indices 1 2 3 4 5 6 
#
# 1 137.0515 13.0714 36.7826 -2.9340 -18.7808 15.0457
# 2 13.0714 78.4590 4.3981 0.7850 -14.3981 -23.9538
# 3 36.7826 4.3981 153.4705 -7.4636 -16.1363 -9.9726
# 4 -2.9340 0.7850 -7.4636 39.2190 -5.7592 1.9585
# 5 -18.7808 -14.3981 -16.1363 -5.7592 29.6352 -9.0833
# 6 15.0457 -23.9538 -9.9726 1.9585 -9.0833 51.0496
#
#
#
# Elastic Compliance Matrix: (Units=1/GPa)
#
#
# Indices 1 2 3 4 5 6 
#
# 1 0.008762 -0.001906 -0.001940 0.000891 0.002699 -0.003410
# 2 -0.001906 0.019101 0.002157 0.001218 0.013240 0.012255
# 3 -0.001940 0.002157 0.007881 0.001951 0.005736 0.004069
# 4 0.000891 0.001218 0.001951 0.027003 0.007785 0.001039
# 5 0.002699 0.013240 0.005736 0.007785 0.051229 0.015354
# 6 -0.003410 0.012255 0.004069 0.001039 0.015354 0.029831
#
#
# Mechanical properties :
#
#
# Convention : Reuss Voigt Hill
#
# Bulk Modulus (GPa) = 30.89530 53.05391 41.97461
# Shear Modulus (GPa) = 31.65095 44.96270 38.30683
#
# Velocity S-wave (km/s) = 3.57629 4.26251 3.93439
# Velocity P-wave (km/s) = 5.43486 6.75751 6.13195
#
# Compressibility (1/GPa) = 0.03236738
#
# Stress axis : x y z
#
# Youngs Moduli (GPa) = 114.12747 52.35346 126.87992
#
# Poissons Ratio (x) = 0.09977 0.24613
# Poissons Ratio (y) = 0.21748 -0.27367
# Poissons Ratio (z) = 0.22139 -0.11292
#
# Static dielectric constant tensor:
#      x y z
#    x 4.423270 0.146430 -0.088310 
#    y 0.146430 4.450500 -0.067130 
#    z -0.088310 -0.067130 4.575170 
# 
# 
# High freq. dielectric constant tensor:
#      x y z
#    x 2.010210 -0.000240 0.000730 
#    y -0.000240 1.979960 -0.006440 
#    z 0.000730 -0.006440 1.997340 
# 
# From -- ./inp_files/184980.got.cif
#   From: 2010.06.25/outbox.cif.g09.slc.cpg/sg2_93_cif.got.tgz:184980.got - 2010.06.27 13:26:56.
