data_PCOD8036304
_publ_section_title
;
Structure prediction by ZEFSAII (Michael W. Deem and Ramdas Pophale) SiO2 
 PCOD8036304
Probable space group: P -1
;
_chemical_formula_sum "Si O2"
_cell_formula_units_Z 14
_cell_length_a 5.319857
_cell_length_b 19.010913
_cell_length_c 9.650119
_cell_angle_alpha 35.895837
_cell_angle_beta 82.783252
_cell_angle_gamma 83.601507
_cell_volume 567.611531
_symmetry_space_group_name_H-M "P -1"
_symmetry_group_IT_number 2
_symmetry_cell_setting 'triclinic'
loop_
_space_group_symop_operation_xyz
x,y,z
-x,-y,-z
loop_
_atom_site_type_symbol
_atom_site_label
_atom_site_fract_x
_atom_site_fract_y
_atom_site_fract_z
Si Si1 0.827970 0.553019 0.807779
Si Si2 0.476129 0.249031 0.882369
Si Si3 0.029939 0.147004 0.599795
Si Si4 0.427669 0.131877 0.354560
Si Si5 0.375803 0.689767 0.745663
Si Si6 0.287668 0.073684 0.966382
Si Si7 0.997221 0.384782 0.591829
O O1 0.650376 0.668667 0.682914
O O2 0.010305 0.583449 0.619840
O O3 0.659986 0.435892 0.969833
O O4 0.000000 0.500000 0.000000
O O5 0.455528 0.128429 0.989587
O O6 0.761758 0.299357 0.779565
O O7 0.273167 0.332246 0.687718
O O8 0.382998 0.222831 0.085644
O O9 0.189656 0.136581 0.464669
O O10 0.165108 0.162360 0.717019
O O11 0.843676 0.266631 0.418013
O O12 0.911705 0.015753 0.812189
O O13 0.641135 0.196405 0.329900
O O14 0.500000 0.000000 0.500000
O O15 0.500000 0.000000 0.000000
O O16 0.000000 0.500000 0.500000
#
# Coordination Sequence:
#
# PCOD8036304 Si02
#       7
#     2   2   2   2   2   2   2
#     4  11  28  47  80 112 152 204 266 328 397 471
#     4  12  31  49  82 112 159 210 260 325 406 469
#     4  11  26  47  80 108 168 203 268 328 394 476
#     4  12  28  49  76 114 156 215 260 326 395 486
#     4  11  26  47  79 116 153 205 269 329 393 477
#     4  11  27  47  74 120 154 204 260 328 398 478
#     4  12  31  54  78 115 158 206 266 332 400 475
#
# _framework density 24.664755
#
# number of rings (size 3 to 8) (size 9 to 14) (size 15 to 20)
#    0.000    0.571    0.000    4.714   22.000    1.143 
#    0.000    0.000    0.000    0.000    0.000    0.000 
#    0.000    0.000    0.000    0.000    0.000    0.000 
#
# Total GULP energy -173433.129281 kJ/mol
# GULP energy per Si atom -12388.080663 kJ/mol
# Density = 2.460862 g / cm^3
# Si number density = 24.664755 Si / 1000 Ang^3
#
#
#
# Elastic Constant Matrix: (Units=GPa)
#
#
# Indices 1 2 3 4 5 6 
#
# 1 73.9163 27.0949 24.5505 9.3541 9.8583 -18.7005
# 2 27.0949 139.7604 57.4228 6.0940 -13.1140 1.4571
# 3 24.5505 57.4228 149.0445 24.4067 -5.9163 -13.0580
# 4 9.3541 6.0940 24.4067 51.4119 -2.0106 -6.2141
# 5 9.8583 -13.1140 -5.9163 -2.0106 52.1914 -5.6981
# 6 -18.7005 1.4571 -13.0580 -6.2141 -5.6981 37.3059
#
#
#
# Elastic Compliance Matrix: (Units=1/GPa)
#
#
# Indices 1 2 3 4 5 6 
#
# 1 0.017738 -0.003466 -0.000761 -0.001631 -0.003502 0.007954
# 2 -0.003466 0.009416 -0.003346 0.000861 0.002372 -0.002771
# 3 -0.000761 -0.003346 0.008904 -0.003388 0.000440 0.002368
# 4 -0.001631 0.000861 -0.003388 0.021507 0.001157 0.001722
# 5 -0.003502 0.002372 0.000440 0.001157 0.020693 0.001659
# 6 0.007954 -0.002771 0.002368 0.001722 0.001659 0.032270
#
#
# Mechanical properties :
#
#
# Convention : Reuss Voigt Hill
#
# Bulk Modulus (GPa) = 47.82490 64.53973 56.18231
# Shear Modulus (GPa) = 37.69398 45.09204 41.39301
#
# Velocity S-wave (km/s) = 3.91353 4.28038 4.10106
# Velocity P-wave (km/s) = 6.31292 7.11705 6.72702
#
# Compressibility (1/GPa) = 0.02090961
#
# Stress axis : x y z
#
# Youngs Moduli (GPa) = 56.37556 106.20297 112.31030
#
# Poissons Ratio (x) = 0.36815 0.08552
# Poissons Ratio (y) = 0.19542 0.37583
# Poissons Ratio (z) = 0.04293 0.35539
#
# Static dielectric constant tensor:
#      x y z
#    x 4.301480 0.351960 -0.228050 
#    y 0.351960 4.553270 -0.138120 
#    z -0.228050 -0.138120 4.889430 
# 
# 
# High freq. dielectric constant tensor:
#      x y z
#    x 1.988180 0.010900 -0.009030 
#    y 0.010900 1.995390 -0.008610 
#    z -0.009030 -0.008610 2.006960 
# 
# From -- ./inp_files/138381.got.cif
#   From: 2010.06.25/outbox.cif.g09.slc.cpg/sg2_70_cif.got.tgz:138381.got - 2010.06.27 13:26:56.
