data_PCOD8036636
_publ_section_title
;
Structure prediction by ZEFSAII (Michael W. Deem and Ramdas Pophale) SiO2 
 PCOD8036636
Probable space group: P -1
;
_chemical_formula_sum "Si O2"
_cell_formula_units_Z 10
_cell_length_a 13.440018
_cell_length_b 10.435971
_cell_length_c 9.240745
_cell_angle_alpha 97.030780
_cell_angle_beta 121.604471
_cell_angle_gamma 134.378038
_cell_volume 470.033745
_symmetry_space_group_name_H-M "P -1"
_symmetry_group_IT_number 2
_symmetry_cell_setting 'triclinic'
loop_
_space_group_symop_operation_xyz
x,y,z
-x,-y,-z
loop_
_atom_site_type_symbol
_atom_site_label
_atom_site_fract_x
_atom_site_fract_y
_atom_site_fract_z
Si Si1 0.970352 0.125117 0.001506
Si Si2 0.754128 0.344886 0.252521
Si Si3 0.903734 0.694127 0.185643
Si Si4 0.395733 0.594160 0.615433
Si Si5 0.381348 0.327664 0.737572
O O1 0.232748 0.450771 0.322574
O O2 0.929035 0.149779 0.815457
O O3 0.716357 0.916472 0.876038
O O4 0.000000 0.000000 0.000000
O O5 0.821247 0.477804 0.167673
O O6 0.691207 0.387850 0.331190
O O7 0.000000 0.500000 0.500000
O O8 0.500000 0.000000 0.000000
O O9 0.626666 0.484333 0.890032
O O10 0.096815 0.964211 0.485572
O O11 0.312341 0.370733 0.579295
O O12 0.500000 0.500000 0.000000
#
# Coordination Sequence:
#
# PCOD8036636 Si02
#       5
#     2   2   2   2   2
#     4  12  23  41  66 110 142 164 204 273 362 416
#     4  12  28  49  67  92 131 189 242 272 308 381
#     4  12  25  41  69 100 139 170 217 279 337 401
#     4  12  24  42  69 100 140 172 216 276 338 403
#     4  12  22  37  68 107 134 164 216 282 348 396
#
# _framework density 21.275068999999998
#
# number of rings (size 3 to 8) (size 9 to 14) (size 15 to 20)
#    0.000    0.000    6.000    4.800    2.800    0.000 
#    0.000    6.000    0.000    0.000    0.000    0.000 
#    0.000    0.000    0.000    0.000    0.000    0.000 
#
# Total GULP energy -123996.299515 kJ/mol
# GULP energy per Si atom -12399.629952 kJ/mol
# Density = 2.122665 g / cm^3
# Si number density = 21.275069 Si / 1000 Ang^3
#
#
#
# Elastic Constant Matrix: (Units=GPa)
#
#
# Indices 1 2 3 4 5 6 
#
# 1 100.8111 54.6773 28.5524 -8.6376 31.1307 -1.2148
# 2 54.6773 159.9967 55.0462 0.6252 -7.1632 0.4543
# 3 28.5524 55.0462 140.0363 7.7685 8.0329 -10.9070
# 4 -8.6376 0.6252 7.7685 37.7218 7.1992 -5.4733
# 5 31.1307 -7.1632 8.0329 7.1992 35.0121 -3.5172
# 6 -1.2148 0.4543 -10.9070 -5.4733 -3.5172 26.4581
#
#
#
# Elastic Compliance Matrix: (Units=1/GPa)
#
#
# Indices 1 2 3 4 5 6 
#
# 1 0.023442 -0.009023 -0.000393 0.010305 -0.024727 -0.000086
# 2 -0.009023 0.010898 -0.002976 -0.004018 0.011650 -0.001111
# 3 -0.000393 -0.002976 0.008799 -0.001055 -0.001739 0.003211
# 4 0.010305 -0.004018 -0.001055 0.032907 -0.016028 0.004784
# 5 -0.024727 0.011650 -0.001739 -0.016028 0.056846 0.002189
# 6 -0.000086 -0.001111 0.003211 0.004784 0.002189 0.040415
#
#
# Mechanical properties :
#
#
# Convention : Reuss Voigt Hill
#
# Bulk Modulus (GPa) = 54.47856 75.26618 64.87237
# Shear Modulus (GPa) = 24.48469 37.34294 30.91381
#
# Velocity S-wave (km/s) = 3.39612 4.19411 3.81603
# Velocity P-wave (km/s) = 6.40629 7.67519 7.06926
#
# Compressibility (1/GPa) = 0.01835584
#
# Stress axis : x y z
#
# Youngs Moduli (GPa) = 42.65772 91.76001 113.64567
#
# Poissons Ratio (x) = 0.82796 0.04464
# Poissons Ratio (y) = 0.38491 0.33820
# Poissons Ratio (z) = 0.01676 0.27307
#
# Static dielectric constant tensor:
#      x y z
#    x 3.935450 0.137080 0.226900 
#    y 0.137080 3.932610 -0.031120 
#    z 0.226900 -0.031120 3.823440 
# 
# 
# High freq. dielectric constant tensor:
#      x y z
#    x 1.822710 0.019840 0.009690 
#    y 0.019840 1.830600 0.000830 
#    z 0.009690 0.000830 1.858830 
# 
# From -- ./inp_files/16089.got.cif
#   From: 2010.06.25/outbox.cif.g09.slc.cpg/sg2_9_cif.got.tgz:16089.got - 2010.06.27 13:26:56.
