data_PCOD8036537
_publ_section_title
;
Structure prediction by ZEFSAII (Michael W. Deem and Ramdas Pophale) SiO2 
 PCOD8036537
Probable space group: P -1
;
_chemical_formula_sum "Si O2"
_cell_formula_units_Z 12
_cell_length_a 9.014946
_cell_length_b 10.985950
_cell_length_c 15.285163
_cell_angle_alpha 154.670190
_cell_angle_beta 65.886994
_cell_angle_gamma 101.489345
_cell_volume 532.124466
_symmetry_space_group_name_H-M "P -1"
_symmetry_group_IT_number 2
_symmetry_cell_setting 'triclinic'
loop_
_space_group_symop_operation_xyz
x,y,z
-x,-y,-z
loop_
_atom_site_type_symbol
_atom_site_label
_atom_site_fract_x
_atom_site_fract_y
_atom_site_fract_z
Si Si1 0.825471 0.315569 0.769063
Si Si2 0.418659 0.236485 0.592083
Si Si3 0.976494 0.362461 0.507058
Si Si4 0.674446 0.985595 0.706901
Si Si5 0.983376 0.329828 0.979702
Si Si6 0.376722 0.417229 0.173847
O O1 0.687718 0.364265 0.755169
O O2 0.735682 0.263197 0.846630
O O3 0.000000 0.000000 0.500000
O O4 0.875289 0.612939 0.953522
O O5 0.422377 0.071950 0.391894
O O6 0.542138 0.421810 0.671878
O O7 0.500000 0.000000 0.500000
O O8 0.217126 0.499243 0.825192
O O9 0.791952 0.615310 0.761391
O O10 0.000000 0.500000 0.500000
O O11 0.144901 0.313222 0.497663
O O12 0.957224 0.038969 0.287084
O O13 0.534646 0.085619 0.886755
O O14 0.000000 0.500000 0.000000
#
# Coordination Sequence:
#
# PCOD8036537 Si02
#       6
#     2   2   2   2   2   2
#     4  12  20  40  70 107 144 179 229 299 361 419
#     4  12  23  39  70 115 145 179 233 302 366 427
#     4  12  28  51  72 100 147 199 243 295 359 435
#     4  12  25  44  70 108 148 185 238 300 362 424
#     4  12  22  41  73 104 141 186 239 294 358 420
#     4  12  25  43  71 103 145 187 237 301 359 425
#
# _framework density 22.551116
#
# number of rings (size 3 to 8) (size 9 to 14) (size 15 to 20)
#    0.000    0.000    8.333    1.500    4.667    0.667 
#    0.000    4.167    0.000    0.000    0.000    0.000 
#    0.000    0.000    0.000    0.000    0.000    0.000 
#
# Total GULP energy -148754.087401 kJ/mol
# GULP energy per Si atom -12396.173950 kJ/mol
# Density = 2.249979 g / cm^3
# Si number density = 22.551116 Si / 1000 Ang^3
#
#
#
# Elastic Constant Matrix: (Units=GPa)
#
#
# Indices 1 2 3 4 5 6 
#
# 1 156.2164 41.9686 37.7664 -10.5127 0.9364 -5.4091
# 2 41.9686 132.9522 33.3545 -15.3667 -10.7868 3.8436
# 3 37.7664 33.3545 71.0739 -23.8283 4.4044 12.9918
# 4 -10.5127 -15.3667 -23.8283 36.5079 9.2533 -12.1676
# 5 0.9364 -10.7868 4.4044 9.2533 38.3804 -15.0750
# 6 -5.4091 3.8436 12.9918 -12.1676 -15.0750 28.9344
#
#
#
# Elastic Compliance Matrix: (Units=1/GPa)
#
#
# Indices 1 2 3 4 5 6 
#
# 1 0.008032 -0.001379 -0.004655 -0.000225 0.001824 0.004630
# 2 -0.001379 0.009334 -0.004171 0.000710 0.004060 0.002789
# 3 -0.004655 -0.004171 0.025816 0.012506 -0.012130 -0.012969
# 4 -0.000225 0.000710 0.012506 0.040155 -0.008220 0.006852
# 5 0.001824 0.004060 -0.012130 -0.008220 0.039264 0.022248
# 6 0.004630 0.002789 -0.012969 0.006852 0.022248 0.055352
#
#
# Mechanical properties :
#
#
# Convention : Reuss Voigt Hill
#
# Bulk Modulus (GPa) = 43.91644 65.15796 54.53720
# Shear Modulus (GPa) = 24.27733 37.24140 30.75937
#
# Velocity S-wave (km/s) = 3.28464 4.06818 3.69722
# Velocity P-wave (km/s) = 5.82251 7.14303 6.51631
#
# Compressibility (1/GPa) = 0.02277052
#
# Stress axis : x y z
#
# Youngs Moduli (GPa) = 124.50739 107.13425 38.73575
#
# Poissons Ratio (x) = 0.14778 0.18033
# Poissons Ratio (y) = 0.17174 0.16156
# Poissons Ratio (z) = 0.57963 0.44684
#
# Static dielectric constant tensor:
#      x y z
#    x 5.738360 0.291730 0.270110 
#    y 0.291730 3.850800 -0.268580 
#    z 0.270110 -0.268580 4.063140 
# 
# 
# High freq. dielectric constant tensor:
#      x y z
#    x 1.922130 0.004590 -0.007900 
#    y 0.004590 1.854980 -0.037850 
#    z -0.007900 -0.037850 1.870110 
# 
# From -- ./inp_files/310081.got.cif
#   From: 2010.06.25/outbox.cif.g09.slc.cpg/sg2_156_cif.got.tgz:310081.got - 2010.06.27 13:26:56.
