data_PCOD8036316
_publ_section_title
;
Structure prediction by ZEFSAII (Michael W. Deem and Ramdas Pophale) SiO2 
 PCOD8036316
Probable space group: P -1
;
_chemical_formula_sum "Si O2"
_cell_formula_units_Z 16
_cell_length_a 8.964796
_cell_length_b 17.667497
_cell_length_c 20.717458
_cell_angle_alpha 161.242406
_cell_angle_beta 134.991246
_cell_angle_gamma 42.842101
_cell_volume 716.278268
_symmetry_space_group_name_H-M "P -1"
_symmetry_group_IT_number 2
_symmetry_cell_setting 'triclinic'
loop_
_space_group_symop_operation_xyz
x,y,z
-x,-y,-z
loop_
_atom_site_type_symbol
_atom_site_label
_atom_site_fract_x
_atom_site_fract_y
_atom_site_fract_z
Si Si1 0.025168 0.839042 0.962026
Si Si2 0.718569 0.159056 0.617685
Si Si3 0.524688 0.686541 0.010097
Si Si4 0.827138 0.935660 0.244331
Si Si5 0.343443 0.326735 0.823284
Si Si6 0.900231 0.699019 0.950484
Si Si7 0.125049 0.621809 0.686871
Si Si8 0.622749 0.358205 0.612740
O O1 0.008888 0.656789 0.750611
O O2 0.948634 0.751948 0.934973
O O3 0.277948 0.844865 0.048080
O O4 0.871585 0.110747 0.121048
O O5 0.756572 0.207552 0.592693
O O6 0.945147 0.126177 0.697988
O O7 0.625893 0.922366 0.410412
O O8 0.539812 0.396917 0.784767
O O9 0.698817 0.725186 0.041696
O O10 0.605687 0.781818 0.177359
O O11 0.663578 0.187552 0.423600
O O12 0.869560 0.936286 0.180063
O O13 0.096104 0.484393 0.866629
O O14 0.500000 0.500000 0.000000
O O15 0.688418 0.599994 0.807119
O O16 0.369141 0.444869 0.625659
O O17 0.000000 0.500000 0.500000
#
# Coordination Sequence:
#
# PCOD8036316 Si02
#       8
#     2   2   2   2   2   2   2   2
#     4  11  26  48  70  99 135 175 231 296 344 406
#     4  12  23  40  69 102 143 185 231 272 329 421
#     4  12  22  41  70  99 141 188 224 275 341 410
#     4  12  23  39  69 105 143 185 224 270 340 423
#     4  12  25  41  64 104 149 186 226 273 341 408
#     4  12  25  44  67 104 145 180 223 281 351 409
#     4  11  26  49  76  97 124 178 240 292 352 406
#     4  12  24  43  71 102 137 185 234 283 338 413
#
# _framework density 22.337686999999999
#
# number of rings (size 3 to 8) (size 9 to 14) (size 15 to 20)
#    0.000    0.250    7.500    2.250    0.000    3.000 
#    2.250    1.250    0.000    0.000    0.000    0.000 
#    0.000    0.000    0.000    0.000    0.000    0.000 
#
# Total GULP energy -198339.918172 kJ/mol
# GULP energy per Si atom -12396.244886 kJ/mol
# Density = 2.228685 g / cm^3
# Si number density = 22.337687 Si / 1000 Ang^3
#
#
#
# Elastic Constant Matrix: (Units=GPa)
#
#
# Indices 1 2 3 4 5 6 
#
# 1 103.7106 45.7221 63.3573 -20.0315 -16.1519 14.1436
# 2 45.7221 76.3831 35.7500 -6.2938 -12.1727 10.6702
# 3 63.3573 35.7500 145.2792 -7.3799 -20.5619 6.6702
# 4 -20.0315 -6.2938 -7.3799 27.7773 -3.4526 -15.7700
# 5 -16.1519 -12.1727 -20.5619 -3.4526 48.2600 -5.6011
# 6 14.1436 10.6702 6.6702 -15.7700 -5.6011 29.4619
#
#
#
# Elastic Compliance Matrix: (Units=1/GPa)
#
#
# Indices 1 2 3 4 5 6 
#
# 1 0.018754 -0.007493 -0.005371 0.011858 0.003164 0.001875
# 2 -0.007493 0.018606 -0.001184 -0.004235 0.000799 -0.004989
# 3 -0.005371 -0.001184 0.009732 -0.000889 0.002070 0.000722
# 4 0.011858 -0.004235 -0.000889 0.062614 0.010667 0.031586
# 5 0.003164 0.000799 0.002070 0.010667 0.024567 0.008103
# 6 0.001875 -0.004989 0.000722 0.031586 0.008103 0.053133
#
#
# Mechanical properties :
#
#
# Convention : Reuss Voigt Hill
#
# Bulk Modulus (GPa) = 52.64037 68.33686 60.48861
# Shear Modulus (GPa) = 22.53941 33.13607 27.83774
#
# Velocity S-wave (km/s) = 3.17997 3.85569 3.53402
# Velocity P-wave (km/s) = 6.09096 7.10499 6.61743
#
# Compressibility (1/GPa) = 0.01899683
#
# Stress axis : x y z
#
# Youngs Moduli (GPa) = 53.32221 53.74495 102.75784
#
# Poissons Ratio (x) = 0.40270 0.55189
# Poissons Ratio (y) = 0.39953 0.12166
# Poissons Ratio (z) = 0.28638 0.06363
#
# Static dielectric constant tensor:
#      x y z
#    x 4.107180 0.216720 -0.683000 
#    y 0.216720 4.193780 -0.580760 
#    z -0.683000 -0.580760 5.277990 
# 
# 
# High freq. dielectric constant tensor:
#      x y z
#    x 1.872310 -0.001730 -0.021660 
#    y -0.001730 1.868880 -0.011520 
#    z -0.021660 -0.011520 1.894820 
# 
# From -- ./inp_files/315128.got.cif
#   From: 2010.06.25/outbox.cif.g09.slc.cpg/sg2_158_cif.got.tgz:315128.got - 2010.06.27 13:26:56.
